
  -OEChem-05262214473D

 56 57  0     1  0  0  0  0  0999 V2000
   -2.2900    0.3401    4.1553 C   0  0  0  0  0  0  0  0  0  0  0  0
   -1.3426   -0.2746    3.6796 O   0  0  0  0  0  0  0  0  0  0  0  0
   -2.7219    0.0577    5.5560 C   0  0  0  0  0  0  0  0  0  0  0  0
   -3.4815   -0.7386    5.6094 H   0  0  0  0  0  0  0  0  0  0  0  0
   -1.8906   -0.2899    6.1903 H   0  0  0  0  0  0  0  0  0  0  0  0
   -3.1599    0.9126    6.0956 H   0  0  0  0  0  0  0  0  0  0  0  0
   -3.0397    1.3125    3.5142 N   0  0  0  0  0  0  0  0  0  0  0  0
   -2.7928    1.7385    2.1618 C   0  0  2  0  0  0  0  0  0  0  0  0
   -1.4579    1.1532    1.7206 C   0  0  0  0  0  0  0  0  0  0  0  0
   -0.5858    0.8004    2.5118 O   0  0  0  0  0  0  0  0  0  0  0  0
   -2.7841    3.2553    2.0523 C   0  0  0  0  0  0  0  0  0  0  0  0
   -3.8047    1.7484    4.0260 H   0  0  0  0  0  0  0  0  0  0  0  0
   -3.5969    1.3201    1.5466 H   0  0  0  0  0  0  0  0  0  0  0  0
   -1.9850    3.6926    2.6620 H   0  0  0  0  0  0  0  0  0  0  0  0
   -2.6246    3.5776    1.0180 H   0  0  0  0  0  0  0  0  0  0  0  0
   -3.7342    3.6765    2.3981 H   0  0  0  0  0  0  0  0  0  0  0  0
   -1.3352    1.1101    0.3372 N   0  0  0  0  0  0  0  0  0  0  0  0
   -0.1579    0.6093   -0.3265 C   0  0  2  0  0  0  0  0  0  0  0  0
   -0.4025    0.7246   -1.8268 C   0  0  0  0  0  0  0  0  0  0  0  0
   -1.4261    1.2113   -2.3024 O   0  0  0  0  0  0  0  0  0  0  0  0
    0.1469   -0.8443    0.0536 C   0  0  0  0  0  0  0  0  0  0  0  0
    0.5505   -0.9970    1.4998 C   0  0  0  0  0  0  0  0  0  0  0  0
   -0.2825   -1.3618    2.5321 C   0  0  0  0  0  0  0  0  0  0  0  0
    1.8501   -0.7943    2.0429 C   0  0  0  0  0  0  0  0  0  0  0  0
    0.4591   -1.3886    3.6827 N   0  0  0  0  0  0  0  0  0  0  0  0
    1.7652   -1.0465    3.4138 C   0  0  0  0  0  0  0  0  0  0  0  0
    3.0943   -0.4194    1.4980 C   0  0  0  0  0  0  0  0  0  0  0  0
    2.8667   -0.9420    4.2706 C   0  0  0  0  0  0  0  0  0  0  0  0
    4.2048   -0.3109    2.3430 C   0  0  0  0  0  0  0  0  0  0  0  0
    4.0905   -0.5687    3.7076 C   0  0  0  0  0  0  0  0  0  0  0  0
   -2.1183    1.4068   -0.2401 H   0  0  0  0  0  0  0  0  0  0  0  0
    0.6664    1.2751   -0.0450 H   0  0  0  0  0  0  0  0  0  0  0  0
    0.9354   -1.2497   -0.5949 H   0  0  0  0  0  0  0  0  0  0  0  0
   -0.7299   -1.4800   -0.1276 H   0  0  0  0  0  0  0  0  0  0  0  0
   -1.3364   -1.6032    2.5526 H   0  0  0  0  0  0  0  0  0  0  0  0
    0.1004   -1.6254    4.5974 H   0  0  0  0  0  0  0  0  0  0  0  0
    3.1995   -0.2142    0.4365 H   0  0  0  0  0  0  0  0  0  0  0  0
    2.7789   -1.1435    5.3328 H   0  0  0  0  0  0  0  0  0  0  0  0
    5.1668   -0.0217    1.9286 H   0  0  0  0  0  0  0  0  0  0  0  0
    4.9660   -0.4785    4.3455 H   0  0  0  0  0  0  0  0  0  0  0  0
    0.6787    0.2656   -2.5663 N   0  0  0  0  0  0  0  0  0  0  0  0
    0.7169    0.2836   -4.0110 C   0  0  2  0  0  0  0  0  0  0  0  0
   -0.5695   -0.3505   -4.5235 C   0  0  0  0  0  0  0  0  0  0  0  0
   -1.2497   -1.1238   -3.8524 O   0  0  0  0  0  0  0  0  0  0  0  0
    1.9359   -0.4550   -4.5415 C   0  0  0  0  0  0  0  0  0  0  0  0
    1.4835   -0.1014   -2.0671 H   0  0  0  0  0  0  0  0  0  0  0  0
    0.7517    1.3359   -4.3134 H   0  0  0  0  0  0  0  0  0  0  0  0
    1.9185   -1.5111   -4.2485 H   0  0  0  0  0  0  0  0  0  0  0  0
    1.9786   -0.4160   -5.6349 H   0  0  0  0  0  0  0  0  0  0  0  0
    2.8592   -0.0161   -4.1482 H   0  0  0  0  0  0  0  0  0  0  0  0
   -0.8455    0.0150   -5.8336 N   0  0  0  0  0  0  0  0  0  0  0  0
   -2.0044   -0.4655   -6.5493 C   0  0  0  0  0  0  0  0  0  0  0  0
   -0.2367    0.6761   -6.3068 H   0  0  0  0  0  0  0  0  0  0  0  0
   -1.7392   -1.3741   -7.1097 H   0  0  0  0  0  0  0  0  0  0  0  0
   -2.8070   -0.6973   -5.8337 H   0  0  0  0  0  0  0  0  0  0  0  0
   -2.3499    0.3093   -7.2495 H   0  0  0  0  0  0  0  0  0  0  0  0
 29 30  2  0  0  0  0
 27 29  1  0  0  0  0
 28 30  1  0  0  0  0
 24 27  2  0  0  0  0
 26 28  2  0  0  0  0
 22 23  2  0  0  0  0
 23 25  1  0  0  0  0
 22 24  1  0  0  0  0
 24 26  1  0  0  0  0
 21 22  1  0  0  0  0
 25 26  1  0  0  0  0
  1  3  1  0  0  0  0
  1  7  1  0  0  0  0
  1  2  2  0  0  0  0
 42 43  1  0  0  0  0
 43 51  1  0  0  0  0
 43 44  2  0  0  0  0
  8  9  1  0  0  0  0
  9 17  1  0  0  0  0
  9 10  2  0  0  0  0
 18 19  1  0  0  0  0
 19 41  1  0  0  0  0
 19 20  2  0  0  0  0
 42 45  1  0  0  0  0
  8 11  1  0  0  0  0
 51 52  1  0  0  0  0
 18 21  1  0  0  0  0
 41 42  1  0  0  0  0
  7  8  1  0  0  0  0
 17 18  1  0  0  0  0
 29 39  1  0  0  0  0
 30 40  1  0  0  0  0
 27 37  1  0  0  0  0
 28 38  1  0  0  0  0
 23 35  1  0  0  0  0
  3  4  1  0  0  0  0
  3  5  1  0  0  0  0
  3  6  1  0  0  0  0
 45 48  1  0  0  0  0
 45 49  1  0  0  0  0
 45 50  1  0  0  0  0
 11 14  1  0  0  0  0
 11 15  1  0  0  0  0
 11 16  1  0  0  0  0
 52 54  1  0  0  0  0
 52 55  1  0  0  0  0
 52 56  1  0  0  0  0
 21 33  1  0  0  0  0
 21 34  1  0  0  0  0
 42 47  1  0  0  0  0
  8 13  1  0  0  0  0
 18 32  1  0  0  0  0
 25 36  1  0  0  0  0
 51 53  1  0  0  0  0
  7 12  1  0  0  0  0
 41 46  1  0  0  0  0
 17 31  1  0  0  0  0
M  END
$$$$

  -OEChem-05262214473D

 56 57  0     1  0  0  0  0  0999 V2000
   -2.2900    0.3401    4.1553 C   0  0  0  0  0  0  0  0  0  0  0  0
   -1.3426   -0.2746    3.6796 O   0  0  0  0  0  0  0  0  0  0  0  0
   -2.7219    0.0577    5.5560 C   0  0  0  0  0  0  0  0  0  0  0  0
   -3.4815   -0.7386    5.6094 H   0  0  0  0  0  0  0  0  0  0  0  0
   -1.8906   -0.2899    6.1903 H   0  0  0  0  0  0  0  0  0  0  0  0
   -3.1599    0.9126    6.0956 H   0  0  0  0  0  0  0  0  0  0  0  0
   -3.0397    1.3125    3.5142 N   0  0  0  0  0  0  0  0  0  0  0  0
   -2.7928    1.7385    2.1618 C   0  0  2  0  0  0  0  0  0  0  0  0
   -1.4579    1.1532    1.7206 C   0  0  0  0  0  0  0  0  0  0  0  0
   -0.5858    0.8004    2.5118 O   0  0  0  0  0  0  0  0  0  0  0  0
   -2.7841    3.2553    2.0523 C   0  0  0  0  0  0  0  0  0  0  0  0
   -3.8047    1.7484    4.0260 H   0  0  0  0  0  0  0  0  0  0  0  0
   -3.5969    1.3201    1.5466 H   0  0  0  0  0  0  0  0  0  0  0  0
   -1.9850    3.6926    2.6620 H   0  0  0  0  0  0  0  0  0  0  0  0
   -2.6246    3.5776    1.0180 H   0  0  0  0  0  0  0  0  0  0  0  0
   -3.7342    3.6765    2.3981 H   0  0  0  0  0  0  0  0  0  0  0  0
   -1.3352    1.1101    0.3372 N   0  0  0  0  0  0  0  0  0  0  0  0
   -0.1579    0.6093   -0.3265 C   0  0  2  0  0  0  0  0  0  0  0  0
   -0.4025    0.7246   -1.8268 C   0  0  0  0  0  0  0  0  0  0  0  0
   -1.2803    1.4374   -2.3088 O   0  0  0  0  0  0  0  0  0  0  0  0
    0.1469   -0.8443    0.0536 C   0  0  0  0  0  0  0  0  0  0  0  0
    0.5505   -0.9970    1.4998 C   0  0  0  0  0  0  0  0  0  0  0  0
   -0.2825   -1.3618    2.5321 C   0  0  0  0  0  0  0  0  0  0  0  0
    1.8501   -0.7943    2.0429 C   0  0  0  0  0  0  0  0  0  0  0  0
    0.4591   -1.3886    3.6827 N   0  0  0  0  0  0  0  0  0  0  0  0
    1.7652   -1.0465    3.4138 C   0  0  0  0  0  0  0  0  0  0  0  0
    3.0943   -0.4194    1.4980 C   0  0  0  0  0  0  0  0  0  0  0  0
    2.8667   -0.9420    4.2706 C   0  0  0  0  0  0  0  0  0  0  0  0
    4.2048   -0.3109    2.3430 C   0  0  0  0  0  0  0  0  0  0  0  0
    4.0905   -0.5687    3.7076 C   0  0  0  0  0  0  0  0  0  0  0  0
   -2.1183    1.4068   -0.2401 H   0  0  0  0  0  0  0  0  0  0  0  0
    0.6664    1.2751   -0.0450 H   0  0  0  0  0  0  0  0  0  0  0  0
    0.9354   -1.2497   -0.5949 H   0  0  0  0  0  0  0  0  0  0  0  0
   -0.7299   -1.4800   -0.1276 H   0  0  0  0  0  0  0  0  0  0  0  0
   -1.3364   -1.6032    2.5526 H   0  0  0  0  0  0  0  0  0  0  0  0
    0.1004   -1.6254    4.5974 H   0  0  0  0  0  0  0  0  0  0  0  0
    3.1995   -0.2142    0.4365 H   0  0  0  0  0  0  0  0  0  0  0  0
    2.7789   -1.1435    5.3328 H   0  0  0  0  0  0  0  0  0  0  0  0
    5.1668   -0.0217    1.9286 H   0  0  0  0  0  0  0  0  0  0  0  0
    4.9660   -0.4785    4.3455 H   0  0  0  0  0  0  0  0  0  0  0  0
    0.5076   -0.0235   -2.5607 N   0  0  0  0  0  0  0  0  0  0  0  0
    0.5131   -0.0722   -4.0051 C   0  0  2  0  0  0  0  0  0  0  0  0
   -0.9046   -0.3766   -4.4708 C   0  0  0  0  0  0  0  0  0  0  0  0
   -1.7422   -0.9240   -3.7568 O   0  0  0  0  0  0  0  0  0  0  0  0
    1.4905   -1.1174   -4.5198 C   0  0  0  0  0  0  0  0  0  0  0  0
    1.2048   -0.5639   -2.0572 H   0  0  0  0  0  0  0  0  0  0  0  0
    0.8068    0.9238   -4.3540 H   0  0  0  0  0  0  0  0  0  0  0  0
    1.2125   -2.1219   -4.1804 H   0  0  0  0  0  0  0  0  0  0  0  0
    1.5145   -1.1333   -5.6144 H   0  0  0  0  0  0  0  0  0  0  0  0
    2.5046   -0.9137   -4.1594 H   0  0  0  0  0  0  0  0  0  0  0  0
   -1.1113   -0.0042   -5.7917 N   0  0  0  0  0  0  0  0  0  0  0  0
   -2.3717   -0.2006   -6.4690 C   0  0  0  0  0  0  0  0  0  0  0  0
   -0.3663    0.4607   -6.3022 H   0  0  0  0  0  0  0  0  0  0  0  0
   -2.3604   -1.1680   -6.9926 H   0  0  0  0  0  0  0  0  0  0  0  0
   -3.1888   -0.1919   -5.7326 H   0  0  0  0  0  0  0  0  0  0  0  0
   -2.5263    0.6088   -7.1978 H   0  0  0  0  0  0  0  0  0  0  0  0
 29 30  2  0  0  0  0
 27 29  1  0  0  0  0
 28 30  1  0  0  0  0
 24 27  2  0  0  0  0
 26 28  2  0  0  0  0
 22 23  2  0  0  0  0
 23 25  1  0  0  0  0
 22 24  1  0  0  0  0
 24 26  1  0  0  0  0
 21 22  1  0  0  0  0
 25 26  1  0  0  0  0
  1  3  1  0  0  0  0
  1  7  1  0  0  0  0
  1  2  2  0  0  0  0
 42 43  1  0  0  0  0
 43 51  1  0  0  0  0
 43 44  2  0  0  0  0
  8  9  1  0  0  0  0
  9 17  1  0  0  0  0
  9 10  2  0  0  0  0
 18 19  1  0  0  0  0
 19 41  1  0  0  0  0
 19 20  2  0  0  0  0
 42 45  1  0  0  0  0
  8 11  1  0  0  0  0
 51 52  1  0  0  0  0
 18 21  1  0  0  0  0
 41 42  1  0  0  0  0
  7  8  1  0  0  0  0
 17 18  1  0  0  0  0
 29 39  1  0  0  0  0
 30 40  1  0  0  0  0
 27 37  1  0  0  0  0
 28 38  1  0  0  0  0
 23 35  1  0  0  0  0
  3  4  1  0  0  0  0
  3  5  1  0  0  0  0
  3  6  1  0  0  0  0
 45 48  1  0  0  0  0
 45 49  1  0  0  0  0
 45 50  1  0  0  0  0
 11 14  1  0  0  0  0
 11 15  1  0  0  0  0
 11 16  1  0  0  0  0
 52 54  1  0  0  0  0
 52 55  1  0  0  0  0
 52 56  1  0  0  0  0
 21 33  1  0  0  0  0
 21 34  1  0  0  0  0
 42 47  1  0  0  0  0
  8 13  1  0  0  0  0
 18 32  1  0  0  0  0
 25 36  1  0  0  0  0
 51 53  1  0  0  0  0
  7 12  1  0  0  0  0
 41 46  1  0  0  0  0
 17 31  1  0  0  0  0
M  END
$$$$

  -OEChem-05262214473D

 56 57  0     1  0  0  0  0  0999 V2000
   -2.2900    0.3401    4.1553 C   0  0  0  0  0  0  0  0  0  0  0  0
   -1.3426   -0.2746    3.6796 O   0  0  0  0  0  0  0  0  0  0  0  0
   -2.7219    0.0577    5.5560 C   0  0  0  0  0  0  0  0  0  0  0  0
   -3.4815   -0.7386    5.6094 H   0  0  0  0  0  0  0  0  0  0  0  0
   -1.8906   -0.2899    6.1903 H   0  0  0  0  0  0  0  0  0  0  0  0
   -3.1599    0.9126    6.0956 H   0  0  0  0  0  0  0  0  0  0  0  0
   -3.0397    1.3125    3.5142 N   0  0  0  0  0  0  0  0  0  0  0  0
   -2.7928    1.7385    2.1618 C   0  0  2  0  0  0  0  0  0  0  0  0
   -1.4579    1.1532    1.7206 C   0  0  0  0  0  0  0  0  0  0  0  0
   -0.5858    0.8004    2.5118 O   0  0  0  0  0  0  0  0  0  0  0  0
   -2.7841    3.2553    2.0523 C   0  0  0  0  0  0  0  0  0  0  0  0
   -3.8047    1.7484    4.0260 H   0  0  0  0  0  0  0  0  0  0  0  0
   -3.5969    1.3201    1.5466 H   0  0  0  0  0  0  0  0  0  0  0  0
   -1.9850    3.6926    2.6620 H   0  0  0  0  0  0  0  0  0  0  0  0
   -2.6246    3.5776    1.0180 H   0  0  0  0  0  0  0  0  0  0  0  0
   -3.7342    3.6765    2.3981 H   0  0  0  0  0  0  0  0  0  0  0  0
   -1.3352    1.1101    0.3372 N   0  0  0  0  0  0  0  0  0  0  0  0
   -0.1579    0.6093   -0.3265 C   0  0  2  0  0  0  0  0  0  0  0  0
   -0.4025    0.7246   -1.8268 C   0  0  0  0  0  0  0  0  0  0  0  0
   -1.0819    1.6184   -2.3273 O   0  0  0  0  0  0  0  0  0  0  0  0
    0.1469   -0.8443    0.0536 C   0  0  0  0  0  0  0  0  0  0  0  0
    0.5505   -0.9970    1.4998 C   0  0  0  0  0  0  0  0  0  0  0  0
   -0.2825   -1.3618    2.5321 C   0  0  0  0  0  0  0  0  0  0  0  0
    1.8501   -0.7943    2.0429 C   0  0  0  0  0  0  0  0  0  0  0  0
    0.4591   -1.3886    3.6827 N   0  0  0  0  0  0  0  0  0  0  0  0
    1.7652   -1.0465    3.4138 C   0  0  0  0  0  0  0  0  0  0  0  0
    3.0943   -0.4194    1.4980 C   0  0  0  0  0  0  0  0  0  0  0  0
    2.8667   -0.9420    4.2706 C   0  0  0  0  0  0  0  0  0  0  0  0
    4.2048   -0.3109    2.3430 C   0  0  0  0  0  0  0  0  0  0  0  0
    4.0905   -0.5687    3.7076 C   0  0  0  0  0  0  0  0  0  0  0  0
   -2.1183    1.4068   -0.2401 H   0  0  0  0  0  0  0  0  0  0  0  0
    0.6664    1.2751   -0.0450 H   0  0  0  0  0  0  0  0  0  0  0  0
    0.9354   -1.2497   -0.5949 H   0  0  0  0  0  0  0  0  0  0  0  0
   -0.7299   -1.4800   -0.1276 H   0  0  0  0  0  0  0  0  0  0  0  0
   -1.3364   -1.6032    2.5526 H   0  0  0  0  0  0  0  0  0  0  0  0
    0.1004   -1.6254    4.5974 H   0  0  0  0  0  0  0  0  0  0  0  0
    3.1995   -0.2142    0.4365 H   0  0  0  0  0  0  0  0  0  0  0  0
    2.7789   -1.1435    5.3328 H   0  0  0  0  0  0  0  0  0  0  0  0
    5.1668   -0.0217    1.9286 H   0  0  0  0  0  0  0  0  0  0  0  0
    4.9660   -0.4785    4.3455 H   0  0  0  0  0  0  0  0  0  0  0  0
    0.2688   -0.2589   -2.5399 N   0  0  0  0  0  0  0  0  0  0  0  0
    0.2257   -0.3637   -3.9807 C   0  0  2  0  0  0  0  0  0  0  0  0
   -1.2340   -0.3143   -4.4123 C   0  0  0  0  0  0  0  0  0  0  0  0
   -2.1652   -0.6016   -3.6630 O   0  0  0  0  0  0  0  0  0  0  0  0
    0.8920   -1.6430   -4.4626 C   0  0  0  0  0  0  0  0  0  0  0  0
    0.8180   -0.9393   -2.0230 H   0  0  0  0  0  0  0  0  0  0  0  0
    0.7542    0.5100   -4.3773 H   0  0  0  0  0  0  0  0  0  0  0  0
    0.3762   -2.5293   -4.0753 H   0  0  0  0  0  0  0  0  0  0  0  0
    0.8838   -1.7071   -5.5557 H   0  0  0  0  0  0  0  0  0  0  0  0
    1.9332   -1.6908   -4.1260 H   0  0  0  0  0  0  0  0  0  0  0  0
   -1.3721    0.0468   -5.7453 N   0  0  0  0  0  0  0  0  0  0  0  0
   -2.6575    0.1522   -6.3953 C   0  0  0  0  0  0  0  0  0  0  0  0
   -0.5464    0.2860   -6.2863 H   0  0  0  0  0  0  0  0  0  0  0  0
   -2.9056   -0.8057   -6.8758 H   0  0  0  0  0  0  0  0  0  0  0  0
   -3.4269    0.3977   -5.6485 H   0  0  0  0  0  0  0  0  0  0  0  0
   -2.6193    0.9451   -7.1567 H   0  0  0  0  0  0  0  0  0  0  0  0
 29 30  2  0  0  0  0
 27 29  1  0  0  0  0
 28 30  1  0  0  0  0
 24 27  2  0  0  0  0
 26 28  2  0  0  0  0
 22 23  2  0  0  0  0
 23 25  1  0  0  0  0
 22 24  1  0  0  0  0
 24 26  1  0  0  0  0
 21 22  1  0  0  0  0
 25 26  1  0  0  0  0
  1  3  1  0  0  0  0
  1  7  1  0  0  0  0
  1  2  2  0  0  0  0
 42 43  1  0  0  0  0
 43 51  1  0  0  0  0
 43 44  2  0  0  0  0
  8  9  1  0  0  0  0
  9 17  1  0  0  0  0
  9 10  2  0  0  0  0
 18 19  1  0  0  0  0
 19 41  1  0  0  0  0
 19 20  2  0  0  0  0
 42 45  1  0  0  0  0
  8 11  1  0  0  0  0
 51 52  1  0  0  0  0
 18 21  1  0  0  0  0
 41 42  1  0  0  0  0
  7  8  1  0  0  0  0
 17 18  1  0  0  0  0
 29 39  1  0  0  0  0
 30 40  1  0  0  0  0
 27 37  1  0  0  0  0
 28 38  1  0  0  0  0
 23 35  1  0  0  0  0
  3  4  1  0  0  0  0
  3  5  1  0  0  0  0
  3  6  1  0  0  0  0
 45 48  1  0  0  0  0
 45 49  1  0  0  0  0
 45 50  1  0  0  0  0
 11 14  1  0  0  0  0
 11 15  1  0  0  0  0
 11 16  1  0  0  0  0
 52 54  1  0  0  0  0
 52 55  1  0  0  0  0
 52 56  1  0  0  0  0
 21 33  1  0  0  0  0
 21 34  1  0  0  0  0
 42 47  1  0  0  0  0
  8 13  1  0  0  0  0
 18 32  1  0  0  0  0
 25 36  1  0  0  0  0
 51 53  1  0  0  0  0
  7 12  1  0  0  0  0
 41 46  1  0  0  0  0
 17 31  1  0  0  0  0
M  END
$$$$

  -OEChem-05262214473D

 56 57  0     1  0  0  0  0  0999 V2000
   -2.2900    0.3401    4.1553 C   0  0  0  0  0  0  0  0  0  0  0  0
   -1.3426   -0.2746    3.6796 O   0  0  0  0  0  0  0  0  0  0  0  0
   -2.7219    0.0577    5.5560 C   0  0  0  0  0  0  0  0  0  0  0  0
   -3.4815   -0.7386    5.6094 H   0  0  0  0  0  0  0  0  0  0  0  0
   -1.8906   -0.2899    6.1903 H   0  0  0  0  0  0  0  0  0  0  0  0
   -3.1599    0.9126    6.0956 H   0  0  0  0  0  0  0  0  0  0  0  0
   -3.0397    1.3125    3.5142 N   0  0  0  0  0  0  0  0  0  0  0  0
   -2.7928    1.7385    2.1618 C   0  0  2  0  0  0  0  0  0  0  0  0
   -1.4579    1.1532    1.7206 C   0  0  0  0  0  0  0  0  0  0  0  0
   -0.5858    0.8004    2.5118 O   0  0  0  0  0  0  0  0  0  0  0  0
   -2.7841    3.2553    2.0523 C   0  0  0  0  0  0  0  0  0  0  0  0
   -3.8047    1.7484    4.0260 H   0  0  0  0  0  0  0  0  0  0  0  0
   -3.5969    1.3201    1.5466 H   0  0  0  0  0  0  0  0  0  0  0  0
   -1.9850    3.6926    2.6620 H   0  0  0  0  0  0  0  0  0  0  0  0
   -2.6246    3.5776    1.0180 H   0  0  0  0  0  0  0  0  0  0  0  0
   -3.7342    3.6765    2.3981 H   0  0  0  0  0  0  0  0  0  0  0  0
   -1.3352    1.1101    0.3372 N   0  0  0  0  0  0  0  0  0  0  0  0
   -0.1579    0.6093   -0.3265 C   0  0  2  0  0  0  0  0  0  0  0  0
   -0.4025    0.7246   -1.8268 C   0  0  0  0  0  0  0  0  0  0  0  0
   -0.8445    1.7420   -2.3565 O   0  0  0  0  0  0  0  0  0  0  0  0
    0.1469   -0.8443    0.0536 C   0  0  0  0  0  0  0  0  0  0  0  0
    0.5505   -0.9970    1.4998 C   0  0  0  0  0  0  0  0  0  0  0  0
   -0.2825   -1.3618    2.5321 C   0  0  0  0  0  0  0  0  0  0  0  0
    1.8501   -0.7943    2.0429 C   0  0  0  0  0  0  0  0  0  0  0  0
    0.4591   -1.3886    3.6827 N   0  0  0  0  0  0  0  0  0  0  0  0
    1.7652   -1.0465    3.4138 C   0  0  0  0  0  0  0  0  0  0  0  0
    3.0943   -0.4194    1.4980 C   0  0  0  0  0  0  0  0  0  0  0  0
    2.8667   -0.9420    4.2706 C   0  0  0  0  0  0  0  0  0  0  0  0
    4.2048   -0.3109    2.3430 C   0  0  0  0  0  0  0  0  0  0  0  0
    4.0905   -0.5687    3.7076 C   0  0  0  0  0  0  0  0  0  0  0  0
   -2.1183    1.4068   -0.2401 H   0  0  0  0  0  0  0  0  0  0  0  0
    0.6664    1.2751   -0.0450 H   0  0  0  0  0  0  0  0  0  0  0  0
    0.9354   -1.2497   -0.5949 H   0  0  0  0  0  0  0  0  0  0  0  0
   -0.7299   -1.4800   -0.1276 H   0  0  0  0  0  0  0  0  0  0  0  0
   -1.3364   -1.6032    2.5526 H   0  0  0  0  0  0  0  0  0  0  0  0
    0.1004   -1.6254    4.5974 H   0  0  0  0  0  0  0  0  0  0  0  0
    3.1995   -0.2142    0.4365 H   0  0  0  0  0  0  0  0  0  0  0  0
    2.7789   -1.1435    5.3328 H   0  0  0  0  0  0  0  0  0  0  0  0
    5.1668   -0.0217    1.9286 H   0  0  0  0  0  0  0  0  0  0  0  0
    4.9660   -0.4785    4.3455 H   0  0  0  0  0  0  0  0  0  0  0  0
   -0.0214   -0.4247   -2.5053 N   0  0  0  0  0  0  0  0  0  0  0  0
   -0.1257   -0.5711   -3.9393 C   0  0  2  0  0  0  0  0  0  0  0  0
   -1.5351   -0.1677   -4.3520 C   0  0  0  0  0  0  0  0  0  0  0  0
   -2.4898   -0.1785   -3.5776 O   0  0  0  0  0  0  0  0  0  0  0  0
    0.1811   -1.9958   -4.3738 C   0  0  0  0  0  0  0  0  0  0  0  0
    0.3495   -1.2020   -1.9668 H   0  0  0  0  0  0  0  0  0  0  0  0
    0.5976    0.1227   -4.3815 H   0  0  0  0  0  0  0  0  0  0  0  0
   -0.5332   -2.7054   -3.9406 H   0  0  0  0  0  0  0  0  0  0  0  0
    0.1296   -2.0983   -5.4628 H   0  0  0  0  0  0  0  0  0  0  0  0
    1.1841   -2.2945   -4.0502 H   0  0  0  0  0  0  0  0  0  0  0  0
   -1.6101    0.1643   -5.6974 N   0  0  0  0  0  0  0  0  0  0  0  0
   -2.8423    0.5688   -6.3332 C   0  0  0  0  0  0  0  0  0  0  0  0
   -0.7645    0.1637   -6.2602 H   0  0  0  0  0  0  0  0  0  0  0  0
   -3.3377   -0.3121   -6.7674 H   0  0  0  0  0  0  0  0  0  0  0  0
   -3.5050    1.0314   -5.5870 H   0  0  0  0  0  0  0  0  0  0  0  0
   -2.6227    1.2954   -7.1292 H   0  0  0  0  0  0  0  0  0  0  0  0
 29 30  2  0  0  0  0
 27 29  1  0  0  0  0
 28 30  1  0  0  0  0
 24 27  2  0  0  0  0
 26 28  2  0  0  0  0
 22 23  2  0  0  0  0
 23 25  1  0  0  0  0
 22 24  1  0  0  0  0
 24 26  1  0  0  0  0
 21 22  1  0  0  0  0
 25 26  1  0  0  0  0
  1  3  1  0  0  0  0
  1  7  1  0  0  0  0
  1  2  2  0  0  0  0
 42 43  1  0  0  0  0
 43 51  1  0  0  0  0
 43 44  2  0  0  0  0
  8  9  1  0  0  0  0
  9 17  1  0  0  0  0
  9 10  2  0  0  0  0
 18 19  1  0  0  0  0
 19 41  1  0  0  0  0
 19 20  2  0  0  0  0
 42 45  1  0  0  0  0
  8 11  1  0  0  0  0
 51 52  1  0  0  0  0
 18 21  1  0  0  0  0
 41 42  1  0  0  0  0
  7  8  1  0  0  0  0
 17 18  1  0  0  0  0
 29 39  1  0  0  0  0
 30 40  1  0  0  0  0
 27 37  1  0  0  0  0
 28 38  1  0  0  0  0
 23 35  1  0  0  0  0
  3  4  1  0  0  0  0
  3  5  1  0  0  0  0
  3  6  1  0  0  0  0
 45 48  1  0  0  0  0
 45 49  1  0  0  0  0
 45 50  1  0  0  0  0
 11 14  1  0  0  0  0
 11 15  1  0  0  0  0
 11 16  1  0  0  0  0
 52 54  1  0  0  0  0
 52 55  1  0  0  0  0
 52 56  1  0  0  0  0
 21 33  1  0  0  0  0
 21 34  1  0  0  0  0
 42 47  1  0  0  0  0
  8 13  1  0  0  0  0
 18 32  1  0  0  0  0
 25 36  1  0  0  0  0
 51 53  1  0  0  0  0
  7 12  1  0  0  0  0
 41 46  1  0  0  0  0
 17 31  1  0  0  0  0
M  END
$$$$

  -OEChem-05262214473D

 56 57  0     1  0  0  0  0  0999 V2000
   -2.2900    0.3401    4.1553 C   0  0  0  0  0  0  0  0  0  0  0  0
   -1.3426   -0.2746    3.6796 O   0  0  0  0  0  0  0  0  0  0  0  0
   -2.7219    0.0577    5.5560 C   0  0  0  0  0  0  0  0  0  0  0  0
   -3.4815   -0.7386    5.6094 H   0  0  0  0  0  0  0  0  0  0  0  0
   -1.8906   -0.2899    6.1903 H   0  0  0  0  0  0  0  0  0  0  0  0
   -3.1599    0.9126    6.0956 H   0  0  0  0  0  0  0  0  0  0  0  0
   -3.0397    1.3125    3.5142 N   0  0  0  0  0  0  0  0  0  0  0  0
   -2.7928    1.7385    2.1618 C   0  0  2  0  0  0  0  0  0  0  0  0
   -1.4579    1.1532    1.7206 C   0  0  0  0  0  0  0  0  0  0  0  0
   -0.5858    0.8004    2.5118 O   0  0  0  0  0  0  0  0  0  0  0  0
   -2.7841    3.2553    2.0523 C   0  0  0  0  0  0  0  0  0  0  0  0
   -3.8047    1.7484    4.0260 H   0  0  0  0  0  0  0  0  0  0  0  0
   -3.5969    1.3201    1.5466 H   0  0  0  0  0  0  0  0  0  0  0  0
   -1.9850    3.6926    2.6620 H   0  0  0  0  0  0  0  0  0  0  0  0
   -2.6246    3.5776    1.0180 H   0  0  0  0  0  0  0  0  0  0  0  0
   -3.7342    3.6765    2.3981 H   0  0  0  0  0  0  0  0  0  0  0  0
   -1.3352    1.1101    0.3372 N   0  0  0  0  0  0  0  0  0  0  0  0
   -0.1579    0.6093   -0.3265 C   0  0  2  0  0  0  0  0  0  0  0  0
   -0.4025    0.7246   -1.8268 C   0  0  0  0  0  0  0  0  0  0  0  0
   -0.5844    1.7996   -2.3944 O   0  0  0  0  0  0  0  0  0  0  0  0
    0.1469   -0.8443    0.0536 C   0  0  0  0  0  0  0  0  0  0  0  0
    0.5505   -0.9970    1.4998 C   0  0  0  0  0  0  0  0  0  0  0  0
   -0.2825   -1.3618    2.5321 C   0  0  0  0  0  0  0  0  0  0  0  0
    1.8501   -0.7943    2.0429 C   0  0  0  0  0  0  0  0  0  0  0  0
    0.4591   -1.3886    3.6827 N   0  0  0  0  0  0  0  0  0  0  0  0
    1.7652   -1.0465    3.4138 C   0  0  0  0  0  0  0  0  0  0  0  0
    3.0943   -0.4194    1.4980 C   0  0  0  0  0  0  0  0  0  0  0  0
    2.8667   -0.9420    4.2706 C   0  0  0  0  0  0  0  0  0  0  0  0
    4.2048   -0.3109    2.3430 C   0  0  0  0  0  0  0  0  0  0  0  0
    4.0905   -0.5687    3.7076 C   0  0  0  0  0  0  0  0  0  0  0  0
   -2.1183    1.4068   -0.2401 H   0  0  0  0  0  0  0  0  0  0  0  0
    0.6664    1.2751   -0.0450 H   0  0  0  0  0  0  0  0  0  0  0  0
    0.9354   -1.2497   -0.5949 H   0  0  0  0  0  0  0  0  0  0  0  0
   -0.7299   -1.4800   -0.1276 H   0  0  0  0  0  0  0  0  0  0  0  0
   -1.3364   -1.6032    2.5526 H   0  0  0  0  0  0  0  0  0  0  0  0
    0.1004   -1.6254    4.5974 H   0  0  0  0  0  0  0  0  0  0  0  0
    3.1995   -0.2142    0.4365 H   0  0  0  0  0  0  0  0  0  0  0  0
    2.7789   -1.1435    5.3328 H   0  0  0  0  0  0  0  0  0  0  0  0
    5.1668   -0.0217    1.9286 H   0  0  0  0  0  0  0  0  0  0  0  0
    4.9660   -0.4785    4.3455 H   0  0  0  0  0  0  0  0  0  0  0  0
   -0.3433   -0.5094   -2.4593 N   0  0  0  0  0  0  0  0  0  0  0  0
   -0.5171   -0.6802   -3.8839 C   0  0  2  0  0  0  0  0  0  0  0  0
   -1.7875    0.0530   -4.2939 C   0  0  0  0  0  0  0  0  0  0  0  0
   -2.6938    0.3163   -3.5063 O   0  0  0  0  0  0  0  0  0  0  0  0
   -0.5936   -2.1518   -4.2595 C   0  0  0  0  0  0  0  0  0  0  0  0
   -0.1689   -1.3341   -1.8924 H   0  0  0  0  0  0  0  0  0  0  0  0
    0.3475   -0.2116   -4.3664 H   0  0  0  0  0  0  0  0  0  0  0  0
   -1.4539   -2.6382   -3.7853 H   0  0  0  0  0  0  0  0  0  0  0  0
   -0.6967   -2.2802   -5.3421 H   0  0  0  0  0  0  0  0  0  0  0  0
    0.3081   -2.6837   -3.9373 H   0  0  0  0  0  0  0  0  0  0  0  0
   -1.8091    0.3405   -5.6514 N   0  0  0  0  0  0  0  0  0  0  0  0
   -2.9134    1.0208   -6.2868 C   0  0  0  0  0  0  0  0  0  0  0  0
   -1.0058    0.1022   -6.2255 H   0  0  0  0  0  0  0  0  0  0  0  0
   -3.6273    0.2792   -6.6748 H   0  0  0  0  0  0  0  0  0  0  0  0
   -3.4179    1.6659   -5.5524 H   0  0  0  0  0  0  0  0  0  0  0  0
   -2.5362    1.6358   -7.1172 H   0  0  0  0  0  0  0  0  0  0  0  0
 29 30  2  0  0  0  0
 27 29  1  0  0  0  0
 28 30  1  0  0  0  0
 24 27  2  0  0  0  0
 26 28  2  0  0  0  0
 22 23  2  0  0  0  0
 23 25  1  0  0  0  0
 22 24  1  0  0  0  0
 24 26  1  0  0  0  0
 21 22  1  0  0  0  0
 25 26  1  0  0  0  0
  1  3  1  0  0  0  0
  1  7  1  0  0  0  0
  1  2  2  0  0  0  0
 42 43  1  0  0  0  0
 43 51  1  0  0  0  0
 43 44  2  0  0  0  0
  8  9  1  0  0  0  0
  9 17  1  0  0  0  0
  9 10  2  0  0  0  0
 18 19  1  0  0  0  0
 19 41  1  0  0  0  0
 19 20  2  0  0  0  0
 42 45  1  0  0  0  0
  8 11  1  0  0  0  0
 51 52  1  0  0  0  0
 18 21  1  0  0  0  0
 41 42  1  0  0  0  0
  7  8  1  0  0  0  0
 17 18  1  0  0  0  0
 29 39  1  0  0  0  0
 30 40  1  0  0  0  0
 27 37  1  0  0  0  0
 28 38  1  0  0  0  0
 23 35  1  0  0  0  0
  3  4  1  0  0  0  0
  3  5  1  0  0  0  0
  3  6  1  0  0  0  0
 45 48  1  0  0  0  0
 45 49  1  0  0  0  0
 45 50  1  0  0  0  0
 11 14  1  0  0  0  0
 11 15  1  0  0  0  0
 11 16  1  0  0  0  0
 52 54  1  0  0  0  0
 52 55  1  0  0  0  0
 52 56  1  0  0  0  0
 21 33  1  0  0  0  0
 21 34  1  0  0  0  0
 42 47  1  0  0  0  0
  8 13  1  0  0  0  0
 18 32  1  0  0  0  0
 25 36  1  0  0  0  0
 51 53  1  0  0  0  0
  7 12  1  0  0  0  0
 41 46  1  0  0  0  0
 17 31  1  0  0  0  0
M  END
$$$$

  -OEChem-05262214473D

 56 57  0     1  0  0  0  0  0999 V2000
   -2.2900    0.3401    4.1553 C   0  0  0  0  0  0  0  0  0  0  0  0
   -1.3426   -0.2746    3.6796 O   0  0  0  0  0  0  0  0  0  0  0  0
   -2.7219    0.0577    5.5560 C   0  0  0  0  0  0  0  0  0  0  0  0
   -3.4815   -0.7386    5.6094 H   0  0  0  0  0  0  0  0  0  0  0  0
   -1.8906   -0.2899    6.1903 H   0  0  0  0  0  0  0  0  0  0  0  0
   -3.1599    0.9126    6.0956 H   0  0  0  0  0  0  0  0  0  0  0  0
   -3.0397    1.3125    3.5142 N   0  0  0  0  0  0  0  0  0  0  0  0
   -2.7928    1.7385    2.1618 C   0  0  2  0  0  0  0  0  0  0  0  0
   -1.4579    1.1532    1.7206 C   0  0  0  0  0  0  0  0  0  0  0  0
   -0.5858    0.8004    2.5118 O   0  0  0  0  0  0  0  0  0  0  0  0
   -2.7841    3.2553    2.0523 C   0  0  0  0  0  0  0  0  0  0  0  0
   -3.8047    1.7484    4.0260 H   0  0  0  0  0  0  0  0  0  0  0  0
   -3.5969    1.3201    1.5466 H   0  0  0  0  0  0  0  0  0  0  0  0
   -1.9850    3.6926    2.6620 H   0  0  0  0  0  0  0  0  0  0  0  0
   -2.6246    3.5776    1.0180 H   0  0  0  0  0  0  0  0  0  0  0  0
   -3.7342    3.6765    2.3981 H   0  0  0  0  0  0  0  0  0  0  0  0
   -1.3352    1.1101    0.3372 N   0  0  0  0  0  0  0  0  0  0  0  0
   -0.1579    0.6093   -0.3265 C   0  0  2  0  0  0  0  0  0  0  0  0
   -0.4025    0.7246   -1.8268 C   0  0  0  0  0  0  0  0  0  0  0  0
   -0.3191    1.7875   -2.4386 O   0  0  0  0  0  0  0  0  0  0  0  0
    0.1469   -0.8443    0.0536 C   0  0  0  0  0  0  0  0  0  0  0  0
    0.5505   -0.9970    1.4998 C   0  0  0  0  0  0  0  0  0  0  0  0
   -0.2825   -1.3618    2.5321 C   0  0  0  0  0  0  0  0  0  0  0  0
    1.8501   -0.7943    2.0429 C   0  0  0  0  0  0  0  0  0  0  0  0
    0.4591   -1.3886    3.6827 N   0  0  0  0  0  0  0  0  0  0  0  0
    1.7652   -1.0465    3.4138 C   0  0  0  0  0  0  0  0  0  0  0  0
    3.0943   -0.4194    1.4980 C   0  0  0  0  0  0  0  0  0  0  0  0
    2.8667   -0.9420    4.2706 C   0  0  0  0  0  0  0  0  0  0  0  0
    4.2048   -0.3109    2.3430 C   0  0  0  0  0  0  0  0  0  0  0  0
    4.0905   -0.5687    3.7076 C   0  0  0  0  0  0  0  0  0  0  0  0
   -2.1183    1.4068   -0.2401 H   0  0  0  0  0  0  0  0  0  0  0  0
    0.6664    1.2751   -0.0450 H   0  0  0  0  0  0  0  0  0  0  0  0
    0.9354   -1.2497   -0.5949 H   0  0  0  0  0  0  0  0  0  0  0  0
   -0.7299   -1.4800   -0.1276 H   0  0  0  0  0  0  0  0  0  0  0  0
   -1.3364   -1.6032    2.5526 H   0  0  0  0  0  0  0  0  0  0  0  0
    0.1004   -1.6254    4.5974 H   0  0  0  0  0  0  0  0  0  0  0  0
    3.1995   -0.2142    0.4365 H   0  0  0  0  0  0  0  0  0  0  0  0
    2.7789   -1.1435    5.3328 H   0  0  0  0  0  0  0  0  0  0  0  0
    5.1668   -0.0217    1.9286 H   0  0  0  0  0  0  0  0  0  0  0  0
    4.9660   -0.4785    4.3455 H   0  0  0  0  0  0  0  0  0  0  0  0
   -0.6748   -0.5074   -2.4051 N   0  0  0  0  0  0  0  0  0  0  0  0
   -0.9219   -0.6836   -3.8182 C   0  0  2  0  0  0  0  0  0  0  0  0
   -1.9739    0.3329   -4.2420 C   0  0  0  0  0  0  0  0  0  0  0  0
   -2.7635    0.8493   -3.4540 O   0  0  0  0  0  0  0  0  0  0  0  0
   -1.3795   -2.1005   -4.1274 C   0  0  0  0  0  0  0  0  0  0  0  0
   -0.7018   -1.3265   -1.8050 H   0  0  0  0  0  0  0  0  0  0  0  0
    0.0212   -0.4703   -4.3331 H   0  0  0  0  0  0  0  0  0  0  0  0
   -2.3231   -2.3324   -3.6201 H   0  0  0  0  0  0  0  0  0  0  0  0
   -1.5388   -2.2404   -5.2017 H   0  0  0  0  0  0  0  0  0  0  0  0
   -0.6349   -2.8318   -3.7950 H   0  0  0  0  0  0  0  0  0  0  0  0
   -1.9556    0.5633   -5.6104 N   0  0  0  0  0  0  0  0  0  0  0  0
   -2.8661    1.4775   -6.2594 C   0  0  0  0  0  0  0  0  0  0  0  0
   -1.2538    0.1057   -6.1848 H   0  0  0  0  0  0  0  0  0  0  0  0
   -3.7545    0.9280   -6.6041 H   0  0  0  0  0  0  0  0  0  0  0  0
   -3.1714    2.2581   -5.5471 H   0  0  0  0  0  0  0  0  0  0  0  0
   -2.3657    1.9430   -7.1214 H   0  0  0  0  0  0  0  0  0  0  0  0
 29 30  2  0  0  0  0
 27 29  1  0  0  0  0
 28 30  1  0  0  0  0
 24 27  2  0  0  0  0
 26 28  2  0  0  0  0
 22 23  2  0  0  0  0
 23 25  1  0  0  0  0
 22 24  1  0  0  0  0
 24 26  1  0  0  0  0
 21 22  1  0  0  0  0
 25 26  1  0  0  0  0
  1  3  1  0  0  0  0
  1  7  1  0  0  0  0
  1  2  2  0  0  0  0
 42 43  1  0  0  0  0
 43 51  1  0  0  0  0
 43 44  2  0  0  0  0
  8  9  1  0  0  0  0
  9 17  1  0  0  0  0
  9 10  2  0  0  0  0
 18 19  1  0  0  0  0
 19 41  1  0  0  0  0
 19 20  2  0  0  0  0
 42 45  1  0  0  0  0
  8 11  1  0  0  0  0
 51 52  1  0  0  0  0
 18 21  1  0  0  0  0
 41 42  1  0  0  0  0
  7  8  1  0  0  0  0
 17 18  1  0  0  0  0
 29 39  1  0  0  0  0
 30 40  1  0  0  0  0
 27 37  1  0  0  0  0
 28 38  1  0  0  0  0
 23 35  1  0  0  0  0
  3  4  1  0  0  0  0
  3  5  1  0  0  0  0
  3  6  1  0  0  0  0
 45 48  1  0  0  0  0
 45 49  1  0  0  0  0
 45 50  1  0  0  0  0
 11 14  1  0  0  0  0
 11 15  1  0  0  0  0
 11 16  1  0  0  0  0
 52 54  1  0  0  0  0
 52 55  1  0  0  0  0
 52 56  1  0  0  0  0
 21 33  1  0  0  0  0
 21 34  1  0  0  0  0
 42 47  1  0  0  0  0
  8 13  1  0  0  0  0
 18 32  1  0  0  0  0
 25 36  1  0  0  0  0
 51 53  1  0  0  0  0
  7 12  1  0  0  0  0
 41 46  1  0  0  0  0
 17 31  1  0  0  0  0
M  END
$$$$

  -OEChem-05262214473D

 56 57  0     1  0  0  0  0  0999 V2000
   -2.2900    0.3401    4.1553 C   0  0  0  0  0  0  0  0  0  0  0  0
   -1.3426   -0.2746    3.6796 O   0  0  0  0  0  0  0  0  0  0  0  0
   -2.7219    0.0577    5.5560 C   0  0  0  0  0  0  0  0  0  0  0  0
   -3.4815   -0.7386    5.6094 H   0  0  0  0  0  0  0  0  0  0  0  0
   -1.8906   -0.2899    6.1903 H   0  0  0  0  0  0  0  0  0  0  0  0
   -3.1599    0.9126    6.0956 H   0  0  0  0  0  0  0  0  0  0  0  0
   -3.0397    1.3125    3.5142 N   0  0  0  0  0  0  0  0  0  0  0  0
   -2.7928    1.7385    2.1618 C   0  0  2  0  0  0  0  0  0  0  0  0
   -1.4579    1.1532    1.7206 C   0  0  0  0  0  0  0  0  0  0  0  0
   -0.5858    0.8004    2.5118 O   0  0  0  0  0  0  0  0  0  0  0  0
   -2.7841    3.2553    2.0523 C   0  0  0  0  0  0  0  0  0  0  0  0
   -3.8047    1.7484    4.0260 H   0  0  0  0  0  0  0  0  0  0  0  0
   -3.5969    1.3201    1.5466 H   0  0  0  0  0  0  0  0  0  0  0  0
   -1.9850    3.6926    2.6620 H   0  0  0  0  0  0  0  0  0  0  0  0
   -2.6246    3.5776    1.0180 H   0  0  0  0  0  0  0  0  0  0  0  0
   -3.7342    3.6765    2.3981 H   0  0  0  0  0  0  0  0  0  0  0  0
   -1.3352    1.1101    0.3372 N   0  0  0  0  0  0  0  0  0  0  0  0
   -0.1579    0.6093   -0.3265 C   0  0  2  0  0  0  0  0  0  0  0  0
   -0.4025    0.7246   -1.8268 C   0  0  0  0  0  0  0  0  0  0  0  0
   -0.0669    1.7064   -2.4860 O   0  0  0  0  0  0  0  0  0  0  0  0
    0.1469   -0.8443    0.0536 C   0  0  0  0  0  0  0  0  0  0  0  0
    0.5505   -0.9970    1.4998 C   0  0  0  0  0  0  0  0  0  0  0  0
   -0.2825   -1.3618    2.5321 C   0  0  0  0  0  0  0  0  0  0  0  0
    1.8501   -0.7943    2.0429 C   0  0  0  0  0  0  0  0  0  0  0  0
    0.4591   -1.3886    3.6827 N   0  0  0  0  0  0  0  0  0  0  0  0
    1.7652   -1.0465    3.4138 C   0  0  0  0  0  0  0  0  0  0  0  0
    3.0943   -0.4194    1.4980 C   0  0  0  0  0  0  0  0  0  0  0  0
    2.8667   -0.9420    4.2706 C   0  0  0  0  0  0  0  0  0  0  0  0
    4.2048   -0.3109    2.3430 C   0  0  0  0  0  0  0  0  0  0  0  0
    4.0905   -0.5687    3.7076 C   0  0  0  0  0  0  0  0  0  0  0  0
   -2.1183    1.4068   -0.2401 H   0  0  0  0  0  0  0  0  0  0  0  0
    0.6664    1.2751   -0.0450 H   0  0  0  0  0  0  0  0  0  0  0  0
    0.9354   -1.2497   -0.5949 H   0  0  0  0  0  0  0  0  0  0  0  0
   -0.7299   -1.4800   -0.1276 H   0  0  0  0  0  0  0  0  0  0  0  0
   -1.3364   -1.6032    2.5526 H   0  0  0  0  0  0  0  0  0  0  0  0
    0.1004   -1.6254    4.5974 H   0  0  0  0  0  0  0  0  0  0  0  0
    3.1995   -0.2142    0.4365 H   0  0  0  0  0  0  0  0  0  0  0  0
    2.7789   -1.1435    5.3328 H   0  0  0  0  0  0  0  0  0  0  0  0
    5.1668   -0.0217    1.9286 H   0  0  0  0  0  0  0  0  0  0  0  0
    4.9660   -0.4785    4.3455 H   0  0  0  0  0  0  0  0  0  0  0  0
   -0.9935   -0.4187   -2.3463 N   0  0  0  0  0  0  0  0  0  0  0  0
   -1.3125   -0.5810   -3.7466 C   0  0  2  0  0  0  0  0  0  0  0  0
   -2.0816    0.6529   -4.1998 C   0  0  0  0  0  0  0  0  0  0  0  0
   -2.6941    1.3840   -3.4242 O   0  0  0  0  0  0  0  0  0  0  0  0
   -2.1229   -1.8452   -3.9866 C   0  0  0  0  0  0  0  0  0  0  0  0
   -1.2130   -1.1797   -1.7104 H   0  0  0  0  0  0  0  0  0  0  0  0
   -0.3593   -0.6356   -4.2838 H   0  0  0  0  0  0  0  0  0  0  0  0
   -3.0815   -1.8088   -3.4562 H   0  0  0  0  0  0  0  0  0  0  0  0
   -2.3393   -1.9816   -5.0513 H   0  0  0  0  0  0  0  0  0  0  0  0
   -1.5807   -2.7288   -3.6329 H   0  0  0  0  0  0  0  0  0  0  0  0
   -2.0395    0.8174   -5.5772 N   0  0  0  0  0  0  0  0  0  0  0  0
   -2.7035    1.9077   -6.2529 C   0  0  0  0  0  0  0  0  0  0  0  0
   -1.4918    0.1739   -6.1408 H   0  0  0  0  0  0  0  0  0  0  0  0
   -3.7108    1.5901   -6.5604 H   0  0  0  0  0  0  0  0  0  0  0  0
   -2.7824    2.7675   -5.5714 H   0  0  0  0  0  0  0  0  0  0  0  0
   -2.1229    2.1962   -7.1415 H   0  0  0  0  0  0  0  0  0  0  0  0
 29 30  2  0  0  0  0
 27 29  1  0  0  0  0
 28 30  1  0  0  0  0
 24 27  2  0  0  0  0
 26 28  2  0  0  0  0
 22 23  2  0  0  0  0
 23 25  1  0  0  0  0
 22 24  1  0  0  0  0
 24 26  1  0  0  0  0
 21 22  1  0  0  0  0
 25 26  1  0  0  0  0
  1  3  1  0  0  0  0
  1  7  1  0  0  0  0
  1  2  2  0  0  0  0
 42 43  1  0  0  0  0
 43 51  1  0  0  0  0
 43 44  2  0  0  0  0
  8  9  1  0  0  0  0
  9 17  1  0  0  0  0
  9 10  2  0  0  0  0
 18 19  1  0  0  0  0
 19 41  1  0  0  0  0
 19 20  2  0  0  0  0
 42 45  1  0  0  0  0
  8 11  1  0  0  0  0
 51 52  1  0  0  0  0
 18 21  1  0  0  0  0
 41 42  1  0  0  0  0
  7  8  1  0  0  0  0
 17 18  1  0  0  0  0
 29 39  1  0  0  0  0
 30 40  1  0  0  0  0
 27 37  1  0  0  0  0
 28 38  1  0  0  0  0
 23 35  1  0  0  0  0
  3  4  1  0  0  0  0
  3  5  1  0  0  0  0
  3  6  1  0  0  0  0
 45 48  1  0  0  0  0
 45 49  1  0  0  0  0
 45 50  1  0  0  0  0
 11 14  1  0  0  0  0
 11 15  1  0  0  0  0
 11 16  1  0  0  0  0
 52 54  1  0  0  0  0
 52 55  1  0  0  0  0
 52 56  1  0  0  0  0
 21 33  1  0  0  0  0
 21 34  1  0  0  0  0
 42 47  1  0  0  0  0
  8 13  1  0  0  0  0
 18 32  1  0  0  0  0
 25 36  1  0  0  0  0
 51 53  1  0  0  0  0
  7 12  1  0  0  0  0
 41 46  1  0  0  0  0
 17 31  1  0  0  0  0
M  END
$$$$

  -OEChem-05262214473D

 56 57  0     1  0  0  0  0  0999 V2000
   -2.2900    0.3401    4.1553 C   0  0  0  0  0  0  0  0  0  0  0  0
   -1.3426   -0.2746    3.6796 O   0  0  0  0  0  0  0  0  0  0  0  0
   -2.7219    0.0577    5.5560 C   0  0  0  0  0  0  0  0  0  0  0  0
   -3.4815   -0.7386    5.6094 H   0  0  0  0  0  0  0  0  0  0  0  0
   -1.8906   -0.2899    6.1903 H   0  0  0  0  0  0  0  0  0  0  0  0
   -3.1599    0.9126    6.0956 H   0  0  0  0  0  0  0  0  0  0  0  0
   -3.0397    1.3125    3.5142 N   0  0  0  0  0  0  0  0  0  0  0  0
   -2.7928    1.7385    2.1618 C   0  0  2  0  0  0  0  0  0  0  0  0
   -1.4579    1.1532    1.7206 C   0  0  0  0  0  0  0  0  0  0  0  0
   -0.5858    0.8004    2.5118 O   0  0  0  0  0  0  0  0  0  0  0  0
   -2.7841    3.2553    2.0523 C   0  0  0  0  0  0  0  0  0  0  0  0
   -3.8047    1.7484    4.0260 H   0  0  0  0  0  0  0  0  0  0  0  0
   -3.5969    1.3201    1.5466 H   0  0  0  0  0  0  0  0  0  0  0  0
   -1.9850    3.6926    2.6620 H   0  0  0  0  0  0  0  0  0  0  0  0
   -2.6246    3.5776    1.0180 H   0  0  0  0  0  0  0  0  0  0  0  0
   -3.7342    3.6765    2.3981 H   0  0  0  0  0  0  0  0  0  0  0  0
   -1.3352    1.1101    0.3372 N   0  0  0  0  0  0  0  0  0  0  0  0
   -0.1579    0.6093   -0.3265 C   0  0  2  0  0  0  0  0  0  0  0  0
   -0.4025    0.7246   -1.8268 C   0  0  0  0  0  0  0  0  0  0  0  0
    0.1552    1.5618   -2.5333 O   0  0  0  0  0  0  0  0  0  0  0  0
    0.1469   -0.8443    0.0536 C   0  0  0  0  0  0  0  0  0  0  0  0
    0.5505   -0.9970    1.4998 C   0  0  0  0  0  0  0  0  0  0  0  0
   -0.2825   -1.3618    2.5321 C   0  0  0  0  0  0  0  0  0  0  0  0
    1.8501   -0.7943    2.0429 C   0  0  0  0  0  0  0  0  0  0  0  0
    0.4591   -1.3886    3.6827 N   0  0  0  0  0  0  0  0  0  0  0  0
    1.7652   -1.0465    3.4138 C   0  0  0  0  0  0  0  0  0  0  0  0
    3.0943   -0.4194    1.4980 C   0  0  0  0  0  0  0  0  0  0  0  0
    2.8667   -0.9420    4.2706 C   0  0  0  0  0  0  0  0  0  0  0  0
    4.2048   -0.3109    2.3430 C   0  0  0  0  0  0  0  0  0  0  0  0
    4.0905   -0.5687    3.7076 C   0  0  0  0  0  0  0  0  0  0  0  0
   -2.1183    1.4068   -0.2401 H   0  0  0  0  0  0  0  0  0  0  0  0
    0.6664    1.2751   -0.0450 H   0  0  0  0  0  0  0  0  0  0  0  0
    0.9354   -1.2497   -0.5949 H   0  0  0  0  0  0  0  0  0  0  0  0
   -0.7299   -1.4800   -0.1276 H   0  0  0  0  0  0  0  0  0  0  0  0
   -1.3364   -1.6032    2.5526 H   0  0  0  0  0  0  0  0  0  0  0  0
    0.1004   -1.6254    4.5974 H   0  0  0  0  0  0  0  0  0  0  0  0
    3.1995   -0.2142    0.4365 H   0  0  0  0  0  0  0  0  0  0  0  0
    2.7789   -1.1435    5.3328 H   0  0  0  0  0  0  0  0  0  0  0  0
    5.1668   -0.0217    1.9286 H   0  0  0  0  0  0  0  0  0  0  0  0
    4.9660   -0.4785    4.3455 H   0  0  0  0  0  0  0  0  0  0  0  0
   -1.2776   -0.2494   -2.2870 N   0  0  0  0  0  0  0  0  0  0  0  0
   -1.6622   -0.3794   -3.6741 C   0  0  2  0  0  0  0  0  0  0  0  0
   -2.1033    0.9912   -4.1702 C   0  0  0  0  0  0  0  0  0  0  0  0
   -2.4902    1.8840   -3.4190 O   0  0  0  0  0  0  0  0  0  0  0  0
   -2.7732   -1.4034   -3.8466 C   0  0  0  0  0  0  0  0  0  0  0  0
   -1.6674   -0.9039   -1.6151 H   0  0  0  0  0  0  0  0  0  0  0  0
   -0.7680   -0.6963   -4.2218 H   0  0  0  0  0  0  0  0  0  0  0  0
   -3.6775   -1.1030   -3.3048 H   0  0  0  0  0  0  0  0  0  0  0  0
   -3.0437   -1.5215   -4.9011 H   0  0  0  0  0  0  0  0  0  0  0  0
   -2.4649   -2.3816   -3.4620 H   0  0  0  0  0  0  0  0  0  0  0  0
   -2.0552    1.0857   -5.5540 N   0  0  0  0  0  0  0  0  0  0  0  0
   -2.4367    2.2821   -6.2676 C   0  0  0  0  0  0  0  0  0  0  0  0
   -1.7033    0.3023   -6.0964 H   0  0  0  0  0  0  0  0  0  0  0  0
   -3.4990    2.2202   -6.5465 H   0  0  0  0  0  0  0  0  0  0  0  0
   -2.2773    3.1595   -5.6236 H   0  0  0  0  0  0  0  0  0  0  0  0
   -1.8242    2.3780   -7.1762 H   0  0  0  0  0  0  0  0  0  0  0  0
 29 30  2  0  0  0  0
 27 29  1  0  0  0  0
 28 30  1  0  0  0  0
 24 27  2  0  0  0  0
 26 28  2  0  0  0  0
 22 23  2  0  0  0  0
 23 25  1  0  0  0  0
 22 24  1  0  0  0  0
 24 26  1  0  0  0  0
 21 22  1  0  0  0  0
 25 26  1  0  0  0  0
  1  3  1  0  0  0  0
  1  7  1  0  0  0  0
  1  2  2  0  0  0  0
 42 43  1  0  0  0  0
 43 51  1  0  0  0  0
 43 44  2  0  0  0  0
  8  9  1  0  0  0  0
  9 17  1  0  0  0  0
  9 10  2  0  0  0  0
 18 19  1  0  0  0  0
 19 41  1  0  0  0  0
 19 20  2  0  0  0  0
 42 45  1  0  0  0  0
  8 11  1  0  0  0  0
 51 52  1  0  0  0  0
 18 21  1  0  0  0  0
 41 42  1  0  0  0  0
  7  8  1  0  0  0  0
 17 18  1  0  0  0  0
 29 39  1  0  0  0  0
 30 40  1  0  0  0  0
 27 37  1  0  0  0  0
 28 38  1  0  0  0  0
 23 35  1  0  0  0  0
  3  4  1  0  0  0  0
  3  5  1  0  0  0  0
  3  6  1  0  0  0  0
 45 48  1  0  0  0  0
 45 49  1  0  0  0  0
 45 50  1  0  0  0  0
 11 14  1  0  0  0  0
 11 15  1  0  0  0  0
 11 16  1  0  0  0  0
 52 54  1  0  0  0  0
 52 55  1  0  0  0  0
 52 56  1  0  0  0  0
 21 33  1  0  0  0  0
 21 34  1  0  0  0  0
 42 47  1  0  0  0  0
  8 13  1  0  0  0  0
 18 32  1  0  0  0  0
 25 36  1  0  0  0  0
 51 53  1  0  0  0  0
  7 12  1  0  0  0  0
 41 46  1  0  0  0  0
 17 31  1  0  0  0  0
M  END
$$$$

  -OEChem-05262214473D

 56 57  0     1  0  0  0  0  0999 V2000
   -2.2900    0.3401    4.1553 C   0  0  0  0  0  0  0  0  0  0  0  0
   -1.3426   -0.2746    3.6796 O   0  0  0  0  0  0  0  0  0  0  0  0
   -2.7219    0.0577    5.5560 C   0  0  0  0  0  0  0  0  0  0  0  0
   -3.4815   -0.7386    5.6094 H   0  0  0  0  0  0  0  0  0  0  0  0
   -1.8906   -0.2899    6.1903 H   0  0  0  0  0  0  0  0  0  0  0  0
   -3.1599    0.9126    6.0956 H   0  0  0  0  0  0  0  0  0  0  0  0
   -3.0397    1.3125    3.5142 N   0  0  0  0  0  0  0  0  0  0  0  0
   -2.7928    1.7385    2.1618 C   0  0  2  0  0  0  0  0  0  0  0  0
   -1.4579    1.1532    1.7206 C   0  0  0  0  0  0  0  0  0  0  0  0
   -0.5858    0.8004    2.5118 O   0  0  0  0  0  0  0  0  0  0  0  0
   -2.7841    3.2553    2.0523 C   0  0  0  0  0  0  0  0  0  0  0  0
   -3.8047    1.7484    4.0260 H   0  0  0  0  0  0  0  0  0  0  0  0
   -3.5969    1.3201    1.5466 H   0  0  0  0  0  0  0  0  0  0  0  0
   -1.9850    3.6926    2.6620 H   0  0  0  0  0  0  0  0  0  0  0  0
   -2.6246    3.5776    1.0180 H   0  0  0  0  0  0  0  0  0  0  0  0
   -3.7342    3.6765    2.3981 H   0  0  0  0  0  0  0  0  0  0  0  0
   -1.3352    1.1101    0.3372 N   0  0  0  0  0  0  0  0  0  0  0  0
   -0.1579    0.6093   -0.3265 C   0  0  2  0  0  0  0  0  0  0  0  0
   -0.4025    0.7246   -1.8268 C   0  0  0  0  0  0  0  0  0  0  0  0
    0.3319    1.3636   -2.5774 O   0  0  0  0  0  0  0  0  0  0  0  0
    0.1469   -0.8443    0.0536 C   0  0  0  0  0  0  0  0  0  0  0  0
    0.5505   -0.9970    1.4998 C   0  0  0  0  0  0  0  0  0  0  0  0
   -0.2825   -1.3618    2.5321 C   0  0  0  0  0  0  0  0  0  0  0  0
    1.8501   -0.7943    2.0429 C   0  0  0  0  0  0  0  0  0  0  0  0
    0.4591   -1.3886    3.6827 N   0  0  0  0  0  0  0  0  0  0  0  0
    1.7652   -1.0465    3.4138 C   0  0  0  0  0  0  0  0  0  0  0  0
    3.0943   -0.4194    1.4980 C   0  0  0  0  0  0  0  0  0  0  0  0
    2.8667   -0.9420    4.2706 C   0  0  0  0  0  0  0  0  0  0  0  0
    4.2048   -0.3109    2.3430 C   0  0  0  0  0  0  0  0  0  0  0  0
    4.0905   -0.5687    3.7076 C   0  0  0  0  0  0  0  0  0  0  0  0
   -2.1183    1.4068   -0.2401 H   0  0  0  0  0  0  0  0  0  0  0  0
    0.6664    1.2751   -0.0450 H   0  0  0  0  0  0  0  0  0  0  0  0
    0.9354   -1.2497   -0.5949 H   0  0  0  0  0  0  0  0  0  0  0  0
   -0.7299   -1.4800   -0.1276 H   0  0  0  0  0  0  0  0  0  0  0  0
   -1.3364   -1.6032    2.5526 H   0  0  0  0  0  0  0  0  0  0  0  0
    0.1004   -1.6254    4.5974 H   0  0  0  0  0  0  0  0  0  0  0  0
    3.1995   -0.2142    0.4365 H   0  0  0  0  0  0  0  0  0  0  0  0
    2.7789   -1.1435    5.3328 H   0  0  0  0  0  0  0  0  0  0  0  0
    5.1668   -0.0217    1.9286 H   0  0  0  0  0  0  0  0  0  0  0  0
    4.9660   -0.4785    4.3455 H   0  0  0  0  0  0  0  0  0  0  0  0
   -1.5078   -0.0111   -2.2312 N   0  0  0  0  0  0  0  0  0  0  0  0
   -1.9473   -0.0927   -3.6056 C   0  0  2  0  0  0  0  0  0  0  0  0
   -2.0376    1.3248   -4.1553 C   0  0  0  0  0  0  0  0  0  0  0  0
   -2.1658    2.3153   -3.4387 O   0  0  0  0  0  0  0  0  0  0  0  0
   -3.2861   -0.8052   -3.7170 C   0  0  0  0  0  0  0  0  0  0  0  0
   -2.0343   -0.5178   -1.5256 H   0  0  0  0  0  0  0  0  0  0  0  0
   -1.1770   -0.6483   -4.1515 H   0  0  0  0  0  0  0  0  0  0  0  0
   -4.0704   -0.2632   -3.1762 H   0  0  0  0  0  0  0  0  0  0  0  0
   -3.6040   -0.8914   -4.7613 H   0  0  0  0  0  0  0  0  0  0  0  0
   -3.2271   -1.8139   -3.2941 H   0  0  0  0  0  0  0  0  0  0  0  0
   -2.0015    1.3498   -5.5425 N   0  0  0  0  0  0  0  0  0  0  0  0
   -2.0840    2.5752   -6.3025 C   0  0  0  0  0  0  0  0  0  0  0  0
   -1.8741    0.4820   -6.0548 H   0  0  0  0  0  0  0  0  0  0  0  0
   -3.1337    2.7756   -6.5633 H   0  0  0  0  0  0  0  0  0  0  0  0
   -1.6907    3.4073   -5.7002 H   0  0  0  0  0  0  0  0  0  0  0  0
   -1.4901    2.4762   -7.2231 H   0  0  0  0  0  0  0  0  0  0  0  0
 29 30  2  0  0  0  0
 27 29  1  0  0  0  0
 28 30  1  0  0  0  0
 24 27  2  0  0  0  0
 26 28  2  0  0  0  0
 22 23  2  0  0  0  0
 23 25  1  0  0  0  0
 22 24  1  0  0  0  0
 24 26  1  0  0  0  0
 21 22  1  0  0  0  0
 25 26  1  0  0  0  0
  1  3  1  0  0  0  0
  1  7  1  0  0  0  0
  1  2  2  0  0  0  0
 42 43  1  0  0  0  0
 43 51  1  0  0  0  0
 43 44  2  0  0  0  0
  8  9  1  0  0  0  0
  9 17  1  0  0  0  0
  9 10  2  0  0  0  0
 18 19  1  0  0  0  0
 19 41  1  0  0  0  0
 19 20  2  0  0  0  0
 42 45  1  0  0  0  0
  8 11  1  0  0  0  0
 51 52  1  0  0  0  0
 18 21  1  0  0  0  0
 41 42  1  0  0  0  0
  7  8  1  0  0  0  0
 17 18  1  0  0  0  0
 29 39  1  0  0  0  0
 30 40  1  0  0  0  0
 27 37  1  0  0  0  0
 28 38  1  0  0  0  0
 23 35  1  0  0  0  0
  3  4  1  0  0  0  0
  3  5  1  0  0  0  0
  3  6  1  0  0  0  0
 45 48  1  0  0  0  0
 45 49  1  0  0  0  0
 45 50  1  0  0  0  0
 11 14  1  0  0  0  0
 11 15  1  0  0  0  0
 11 16  1  0  0  0  0
 52 54  1  0  0  0  0
 52 55  1  0  0  0  0
 52 56  1  0  0  0  0
 21 33  1  0  0  0  0
 21 34  1  0  0  0  0
 42 47  1  0  0  0  0
  8 13  1  0  0  0  0
 18 32  1  0  0  0  0
 25 36  1  0  0  0  0
 51 53  1  0  0  0  0
  7 12  1  0  0  0  0
 41 46  1  0  0  0  0
 17 31  1  0  0  0  0
M  END
$$$$

  -OEChem-05262214473D

 56 57  0     1  0  0  0  0  0999 V2000
   -2.2900    0.3401    4.1553 C   0  0  0  0  0  0  0  0  0  0  0  0
   -1.3426   -0.2746    3.6796 O   0  0  0  0  0  0  0  0  0  0  0  0
   -2.7219    0.0577    5.5560 C   0  0  0  0  0  0  0  0  0  0  0  0
   -3.4815   -0.7386    5.6094 H   0  0  0  0  0  0  0  0  0  0  0  0
   -1.8906   -0.2899    6.1903 H   0  0  0  0  0  0  0  0  0  0  0  0
   -3.1599    0.9126    6.0956 H   0  0  0  0  0  0  0  0  0  0  0  0
   -3.0397    1.3125    3.5142 N   0  0  0  0  0  0  0  0  0  0  0  0
   -2.7928    1.7385    2.1618 C   0  0  2  0  0  0  0  0  0  0  0  0
   -1.4579    1.1532    1.7206 C   0  0  0  0  0  0  0  0  0  0  0  0
   -0.5858    0.8004    2.5118 O   0  0  0  0  0  0  0  0  0  0  0  0
   -2.7841    3.2553    2.0523 C   0  0  0  0  0  0  0  0  0  0  0  0
   -3.8047    1.7484    4.0260 H   0  0  0  0  0  0  0  0  0  0  0  0
   -3.5969    1.3201    1.5466 H   0  0  0  0  0  0  0  0  0  0  0  0
   -1.9850    3.6926    2.6620 H   0  0  0  0  0  0  0  0  0  0  0  0
   -2.6246    3.5776    1.0180 H   0  0  0  0  0  0  0  0  0  0  0  0
   -3.7342    3.6765    2.3981 H   0  0  0  0  0  0  0  0  0  0  0  0
   -1.3352    1.1101    0.3372 N   0  0  0  0  0  0  0  0  0  0  0  0
   -0.1579    0.6093   -0.3265 C   0  0  2  0  0  0  0  0  0  0  0  0
   -0.4025    0.7246   -1.8268 C   0  0  0  0  0  0  0  0  0  0  0  0
    0.4513    1.1253   -2.6151 O   0  0  0  0  0  0  0  0  0  0  0  0
    0.1469   -0.8443    0.0536 C   0  0  0  0  0  0  0  0  0  0  0  0
    0.5505   -0.9970    1.4998 C   0  0  0  0  0  0  0  0  0  0  0  0
   -0.2825   -1.3618    2.5321 C   0  0  0  0  0  0  0  0  0  0  0  0
    1.8501   -0.7943    2.0429 C   0  0  0  0  0  0  0  0  0  0  0  0
    0.4591   -1.3886    3.6827 N   0  0  0  0  0  0  0  0  0  0  0  0
    1.7652   -1.0465    3.4138 C   0  0  0  0  0  0  0  0  0  0  0  0
    3.0943   -0.4194    1.4980 C   0  0  0  0  0  0  0  0  0  0  0  0
    2.8667   -0.9420    4.2706 C   0  0  0  0  0  0  0  0  0  0  0  0
    4.2048   -0.3109    2.3430 C   0  0  0  0  0  0  0  0  0  0  0  0
    4.0905   -0.5687    3.7076 C   0  0  0  0  0  0  0  0  0  0  0  0
   -2.1183    1.4068   -0.2401 H   0  0  0  0  0  0  0  0  0  0  0  0
    0.6664    1.2751   -0.0450 H   0  0  0  0  0  0  0  0  0  0  0  0
    0.9354   -1.2497   -0.5949 H   0  0  0  0  0  0  0  0  0  0  0  0
   -0.7299   -1.4800   -0.1276 H   0  0  0  0  0  0  0  0  0  0  0  0
   -1.3364   -1.6032    2.5526 H   0  0  0  0  0  0  0  0  0  0  0  0
    0.1004   -1.6254    4.5974 H   0  0  0  0  0  0  0  0  0  0  0  0
    3.1995   -0.2142    0.4365 H   0  0  0  0  0  0  0  0  0  0  0  0
    2.7789   -1.1435    5.3328 H   0  0  0  0  0  0  0  0  0  0  0  0
    5.1668   -0.0217    1.9286 H   0  0  0  0  0  0  0  0  0  0  0  0
    4.9660   -0.4785    4.3455 H   0  0  0  0  0  0  0  0  0  0  0  0
   -1.6683    0.2800   -2.1826 N   0  0  0  0  0  0  0  0  0  0  0  0
   -2.1482    0.2598   -3.5457 C   0  0  2  0  0  0  0  0  0  0  0  0
   -1.8888    1.6308   -4.1560 C   0  0  0  0  0  0  0  0  0  0  0  0
   -1.7430    2.6484   -3.4820 O   0  0  0  0  0  0  0  0  0  0  0  0
   -3.6266   -0.0914   -3.6066 C   0  0  0  0  0  0  0  0  0  0  0  0
   -2.2885   -0.0476   -1.4480 H   0  0  0  0  0  0  0  0  0  0  0  0
   -1.5585   -0.4948   -4.0775 H   0  0  0  0  0  0  0  0  0  0  0  0
   -4.2335    0.6535   -3.0791 H   0  0  0  0  0  0  0  0  0  0  0  0
   -3.9819   -0.1343   -4.6415 H   0  0  0  0  0  0  0  0  0  0  0  0
   -3.8156   -1.0645   -3.1406 H   0  0  0  0  0  0  0  0  0  0  0  0
   -1.8822    1.5917   -5.5433 N   0  0  0  0  0  0  0  0  0  0  0  0
   -1.6693    2.7670   -6.3554 C   0  0  0  0  0  0  0  0  0  0  0  0
   -1.9925    0.7008   -6.0186 H   0  0  0  0  0  0  0  0  0  0  0  0
   -2.6397    3.2182   -6.6098 H   0  0  0  0  0  0  0  0  0  0  0  0
   -1.0624    3.4940   -5.7959 H   0  0  0  0  0  0  0  0  0  0  0  0
   -1.1433    2.4839   -7.2791 H   0  0  0  0  0  0  0  0  0  0  0  0
 29 30  2  0  0  0  0
 27 29  1  0  0  0  0
 28 30  1  0  0  0  0
 24 27  2  0  0  0  0
 26 28  2  0  0  0  0
 22 23  2  0  0  0  0
 23 25  1  0  0  0  0
 22 24  1  0  0  0  0
 24 26  1  0  0  0  0
 21 22  1  0  0  0  0
 25 26  1  0  0  0  0
  1  3  1  0  0  0  0
  1  7  1  0  0  0  0
  1  2  2  0  0  0  0
 42 43  1  0  0  0  0
 43 51  1  0  0  0  0
 43 44  2  0  0  0  0
  8  9  1  0  0  0  0
  9 17  1  0  0  0  0
  9 10  2  0  0  0  0
 18 19  1  0  0  0  0
 19 41  1  0  0  0  0
 19 20  2  0  0  0  0
 42 45  1  0  0  0  0
  8 11  1  0  0  0  0
 51 52  1  0  0  0  0
 18 21  1  0  0  0  0
 41 42  1  0  0  0  0
  7  8  1  0  0  0  0
 17 18  1  0  0  0  0
 29 39  1  0  0  0  0
 30 40  1  0  0  0  0
 27 37  1  0  0  0  0
 28 38  1  0  0  0  0
 23 35  1  0  0  0  0
  3  4  1  0  0  0  0
  3  5  1  0  0  0  0
  3  6  1  0  0  0  0
 45 48  1  0  0  0  0
 45 49  1  0  0  0  0
 45 50  1  0  0  0  0
 11 14  1  0  0  0  0
 11 15  1  0  0  0  0
 11 16  1  0  0  0  0
 52 54  1  0  0  0  0
 52 55  1  0  0  0  0
 52 56  1  0  0  0  0
 21 33  1  0  0  0  0
 21 34  1  0  0  0  0
 42 47  1  0  0  0  0
  8 13  1  0  0  0  0
 18 32  1  0  0  0  0
 25 36  1  0  0  0  0
 51 53  1  0  0  0  0
  7 12  1  0  0  0  0
 41 46  1  0  0  0  0
 17 31  1  0  0  0  0
M  END
$$$$

  -OEChem-05262214473D

 56 57  0     1  0  0  0  0  0999 V2000
   -2.2900    0.3401    4.1553 C   0  0  0  0  0  0  0  0  0  0  0  0
   -1.3426   -0.2746    3.6796 O   0  0  0  0  0  0  0  0  0  0  0  0
   -2.7219    0.0577    5.5560 C   0  0  0  0  0  0  0  0  0  0  0  0
   -3.4815   -0.7386    5.6094 H   0  0  0  0  0  0  0  0  0  0  0  0
   -1.8906   -0.2899    6.1903 H   0  0  0  0  0  0  0  0  0  0  0  0
   -3.1599    0.9126    6.0956 H   0  0  0  0  0  0  0  0  0  0  0  0
   -3.0397    1.3125    3.5142 N   0  0  0  0  0  0  0  0  0  0  0  0
   -2.7928    1.7385    2.1618 C   0  0  2  0  0  0  0  0  0  0  0  0
   -1.4579    1.1532    1.7206 C   0  0  0  0  0  0  0  0  0  0  0  0
   -0.5858    0.8004    2.5118 O   0  0  0  0  0  0  0  0  0  0  0  0
   -2.7841    3.2553    2.0523 C   0  0  0  0  0  0  0  0  0  0  0  0
   -3.8047    1.7484    4.0260 H   0  0  0  0  0  0  0  0  0  0  0  0
   -3.5969    1.3201    1.5466 H   0  0  0  0  0  0  0  0  0  0  0  0
   -1.9850    3.6926    2.6620 H   0  0  0  0  0  0  0  0  0  0  0  0
   -2.6246    3.5776    1.0180 H   0  0  0  0  0  0  0  0  0  0  0  0
   -3.7342    3.6765    2.3981 H   0  0  0  0  0  0  0  0  0  0  0  0
   -1.3352    1.1101    0.3372 N   0  0  0  0  0  0  0  0  0  0  0  0
   -0.1579    0.6093   -0.3265 C   0  0  2  0  0  0  0  0  0  0  0  0
   -0.4025    0.7246   -1.8268 C   0  0  0  0  0  0  0  0  0  0  0  0
    0.5052    0.8632   -2.6441 O   0  0  0  0  0  0  0  0  0  0  0  0
    0.1469   -0.8443    0.0536 C   0  0  0  0  0  0  0  0  0  0  0  0
    0.5505   -0.9970    1.4998 C   0  0  0  0  0  0  0  0  0  0  0  0
   -0.2825   -1.3618    2.5321 C   0  0  0  0  0  0  0  0  0  0  0  0
    1.8501   -0.7943    2.0429 C   0  0  0  0  0  0  0  0  0  0  0  0
    0.4591   -1.3886    3.6827 N   0  0  0  0  0  0  0  0  0  0  0  0
    1.7652   -1.0465    3.4138 C   0  0  0  0  0  0  0  0  0  0  0  0
    3.0943   -0.4194    1.4980 C   0  0  0  0  0  0  0  0  0  0  0  0
    2.8667   -0.9420    4.2706 C   0  0  0  0  0  0  0  0  0  0  0  0
    4.2048   -0.3109    2.3430 C   0  0  0  0  0  0  0  0  0  0  0  0
    4.0905   -0.5687    3.7076 C   0  0  0  0  0  0  0  0  0  0  0  0
   -2.1183    1.4068   -0.2401 H   0  0  0  0  0  0  0  0  0  0  0  0
    0.6664    1.2751   -0.0450 H   0  0  0  0  0  0  0  0  0  0  0  0
    0.9354   -1.2497   -0.5949 H   0  0  0  0  0  0  0  0  0  0  0  0
   -0.7299   -1.4800   -0.1276 H   0  0  0  0  0  0  0  0  0  0  0  0
   -1.3364   -1.6032    2.5526 H   0  0  0  0  0  0  0  0  0  0  0  0
    0.1004   -1.6254    4.5974 H   0  0  0  0  0  0  0  0  0  0  0  0
    3.1995   -0.2142    0.4365 H   0  0  0  0  0  0  0  0  0  0  0  0
    2.7789   -1.1435    5.3328 H   0  0  0  0  0  0  0  0  0  0  0  0
    5.1668   -0.0217    1.9286 H   0  0  0  0  0  0  0  0  0  0  0  0
    4.9660   -0.4785    4.3455 H   0  0  0  0  0  0  0  0  0  0  0  0
   -1.7482    0.6042   -2.1447 N   0  0  0  0  0  0  0  0  0  0  0  0
   -2.2514    0.6539   -3.4986 C   0  0  2  0  0  0  0  0  0  0  0  0
   -1.6672    1.8885   -4.1724 C   0  0  0  0  0  0  0  0  0  0  0  0
   -1.2506    2.8607   -3.5460 O   0  0  0  0  0  0  0  0  0  0  0  0
   -3.7715    0.6894   -3.5230 C   0  0  0  0  0  0  0  0  0  0  0  0
   -2.4129    0.4745   -1.3876 H   0  0  0  0  0  0  0  0  0  0  0  0
   -1.8864   -0.2464   -4.0049 H   0  0  0  0  0  0  0  0  0  0  0  0
   -4.1557    1.5845   -3.0202 H   0  0  0  0  0  0  0  0  0  0  0  0
   -4.1518    0.6982   -4.5498 H   0  0  0  0  0  0  0  0  0  0  0  0
   -4.1900   -0.1843   -3.0119 H   0  0  0  0  0  0  0  0  0  0  0  0
   -1.7054    1.7950   -5.5565 N   0  0  0  0  0  0  0  0  0  0  0  0
   -1.2209    2.8444   -6.4225 C   0  0  0  0  0  0  0  0  0  0  0  0
   -2.0504    0.9439   -5.9905 H   0  0  0  0  0  0  0  0  0  0  0  0
   -2.0507    3.5180   -6.6828 H   0  0  0  0  0  0  0  0  0  0  0  0
   -0.4353    3.4138   -5.9043 H   0  0  0  0  0  0  0  0  0  0  0  0
   -0.8074    2.4007   -7.3402 H   0  0  0  0  0  0  0  0  0  0  0  0
 29 30  2  0  0  0  0
 27 29  1  0  0  0  0
 28 30  1  0  0  0  0
 24 27  2  0  0  0  0
 26 28  2  0  0  0  0
 22 23  2  0  0  0  0
 23 25  1  0  0  0  0
 22 24  1  0  0  0  0
 24 26  1  0  0  0  0
 21 22  1  0  0  0  0
 25 26  1  0  0  0  0
  1  3  1  0  0  0  0
  1  7  1  0  0  0  0
  1  2  2  0  0  0  0
 42 43  1  0  0  0  0
 43 51  1  0  0  0  0
 43 44  2  0  0  0  0
  8  9  1  0  0  0  0
  9 17  1  0  0  0  0
  9 10  2  0  0  0  0
 18 19  1  0  0  0  0
 19 41  1  0  0  0  0
 19 20  2  0  0  0  0
 42 45  1  0  0  0  0
  8 11  1  0  0  0  0
 51 52  1  0  0  0  0
 18 21  1  0  0  0  0
 41 42  1  0  0  0  0
  7  8  1  0  0  0  0
 17 18  1  0  0  0  0
 29 39  1  0  0  0  0
 30 40  1  0  0  0  0
 27 37  1  0  0  0  0
 28 38  1  0  0  0  0
 23 35  1  0  0  0  0
  3  4  1  0  0  0  0
  3  5  1  0  0  0  0
  3  6  1  0  0  0  0
 45 48  1  0  0  0  0
 45 49  1  0  0  0  0
 45 50  1  0  0  0  0
 11 14  1  0  0  0  0
 11 15  1  0  0  0  0
 11 16  1  0  0  0  0
 52 54  1  0  0  0  0
 52 55  1  0  0  0  0
 52 56  1  0  0  0  0
 21 33  1  0  0  0  0
 21 34  1  0  0  0  0
 42 47  1  0  0  0  0
  8 13  1  0  0  0  0
 18 32  1  0  0  0  0
 25 36  1  0  0  0  0
 51 53  1  0  0  0  0
  7 12  1  0  0  0  0
 41 46  1  0  0  0  0
 17 31  1  0  0  0  0
M  END
$$$$

  -OEChem-05262214473D

 56 57  0     1  0  0  0  0  0999 V2000
   -2.2900    0.3401    4.1553 C   0  0  0  0  0  0  0  0  0  0  0  0
   -1.3426   -0.2746    3.6796 O   0  0  0  0  0  0  0  0  0  0  0  0
   -2.7219    0.0577    5.5560 C   0  0  0  0  0  0  0  0  0  0  0  0
   -3.4815   -0.7386    5.6094 H   0  0  0  0  0  0  0  0  0  0  0  0
   -1.8906   -0.2899    6.1903 H   0  0  0  0  0  0  0  0  0  0  0  0
   -3.1599    0.9126    6.0956 H   0  0  0  0  0  0  0  0  0  0  0  0
   -3.0397    1.3125    3.5142 N   0  0  0  0  0  0  0  0  0  0  0  0
   -2.7928    1.7385    2.1618 C   0  0  2  0  0  0  0  0  0  0  0  0
   -1.4579    1.1532    1.7206 C   0  0  0  0  0  0  0  0  0  0  0  0
   -0.5858    0.8004    2.5118 O   0  0  0  0  0  0  0  0  0  0  0  0
   -2.7841    3.2553    2.0523 C   0  0  0  0  0  0  0  0  0  0  0  0
   -3.8047    1.7484    4.0260 H   0  0  0  0  0  0  0  0  0  0  0  0
   -3.5969    1.3201    1.5466 H   0  0  0  0  0  0  0  0  0  0  0  0
   -1.9850    3.6926    2.6620 H   0  0  0  0  0  0  0  0  0  0  0  0
   -2.6246    3.5776    1.0180 H   0  0  0  0  0  0  0  0  0  0  0  0
   -3.7342    3.6765    2.3981 H   0  0  0  0  0  0  0  0  0  0  0  0
   -1.3352    1.1101    0.3372 N   0  0  0  0  0  0  0  0  0  0  0  0
   -0.1579    0.6093   -0.3265 C   0  0  2  0  0  0  0  0  0  0  0  0
   -0.4025    0.7246   -1.8268 C   0  0  0  0  0  0  0  0  0  0  0  0
    0.4899    0.5951   -2.6622 O   0  0  0  0  0  0  0  0  0  0  0  0
    0.1469   -0.8443    0.0536 C   0  0  0  0  0  0  0  0  0  0  0  0
    0.5505   -0.9970    1.4998 C   0  0  0  0  0  0  0  0  0  0  0  0
   -0.2825   -1.3618    2.5321 C   0  0  0  0  0  0  0  0  0  0  0  0
    1.8501   -0.7943    2.0429 C   0  0  0  0  0  0  0  0  0  0  0  0
    0.4591   -1.3886    3.6827 N   0  0  0  0  0  0  0  0  0  0  0  0
    1.7652   -1.0465    3.4138 C   0  0  0  0  0  0  0  0  0  0  0  0
    3.0943   -0.4194    1.4980 C   0  0  0  0  0  0  0  0  0  0  0  0
    2.8667   -0.9420    4.2706 C   0  0  0  0  0  0  0  0  0  0  0  0
    4.2048   -0.3109    2.3430 C   0  0  0  0  0  0  0  0  0  0  0  0
    4.0905   -0.5687    3.7076 C   0  0  0  0  0  0  0  0  0  0  0  0
   -2.1183    1.4068   -0.2401 H   0  0  0  0  0  0  0  0  0  0  0  0
    0.6664    1.2751   -0.0450 H   0  0  0  0  0  0  0  0  0  0  0  0
    0.9354   -1.2497   -0.5949 H   0  0  0  0  0  0  0  0  0  0  0  0
   -0.7299   -1.4800   -0.1276 H   0  0  0  0  0  0  0  0  0  0  0  0
   -1.3364   -1.6032    2.5526 H   0  0  0  0  0  0  0  0  0  0  0  0
    0.1004   -1.6254    4.5974 H   0  0  0  0  0  0  0  0  0  0  0  0
    3.1995   -0.2142    0.4365 H   0  0  0  0  0  0  0  0  0  0  0  0
    2.7789   -1.1435    5.3328 H   0  0  0  0  0  0  0  0  0  0  0  0
    5.1668   -0.0217    1.9286 H   0  0  0  0  0  0  0  0  0  0  0  0
    4.9660   -0.4785    4.3455 H   0  0  0  0  0  0  0  0  0  0  0  0
   -1.7421    0.9392   -2.1199 N   0  0  0  0  0  0  0  0  0  0  0  0
   -2.2497    1.0628   -3.4674 C   0  0  2  0  0  0  0  0  0  0  0  0
   -1.3878    2.0803   -4.2032 C   0  0  0  0  0  0  0  0  0  0  0  0
   -0.7222    2.9377   -3.6262 O   0  0  0  0  0  0  0  0  0  0  0  0
   -3.7110    1.4840   -3.4718 C   0  0  0  0  0  0  0  0  0  0  0  0
   -2.3988    1.0130   -1.3485 H   0  0  0  0  0  0  0  0  0  0  0  0
   -2.1384    0.0802   -3.9387 H   0  0  0  0  0  0  0  0  0  0  0  0
   -3.8423    2.4664   -3.0035 H   0  0  0  0  0  0  0  0  0  0  0  0
   -4.1020    1.5495   -4.4925 H   0  0  0  0  0  0  0  0  0  0  0  0
   -4.3250    0.7666   -2.9167 H   0  0  0  0  0  0  0  0  0  0  0  0
   -1.4830    1.9457   -5.5812 N   0  0  0  0  0  0  0  0  0  0  0  0
   -0.7694    2.8022   -6.4994 C   0  0  0  0  0  0  0  0  0  0  0  0
   -2.0439    1.1945   -5.9723 H   0  0  0  0  0  0  0  0  0  0  0  0
   -1.4069    3.6546   -6.7773 H   0  0  0  0  0  0  0  0  0  0  0  0
    0.1478    3.1721   -6.0180 H   0  0  0  0  0  0  0  0  0  0  0  0
   -0.5054    2.2323   -7.4024 H   0  0  0  0  0  0  0  0  0  0  0  0
 29 30  2  0  0  0  0
 27 29  1  0  0  0  0
 28 30  1  0  0  0  0
 24 27  2  0  0  0  0
 26 28  2  0  0  0  0
 22 23  2  0  0  0  0
 23 25  1  0  0  0  0
 22 24  1  0  0  0  0
 24 26  1  0  0  0  0
 21 22  1  0  0  0  0
 25 26  1  0  0  0  0
  1  3  1  0  0  0  0
  1  7  1  0  0  0  0
  1  2  2  0  0  0  0
 42 43  1  0  0  0  0
 43 51  1  0  0  0  0
 43 44  2  0  0  0  0
  8  9  1  0  0  0  0
  9 17  1  0  0  0  0
  9 10  2  0  0  0  0
 18 19  1  0  0  0  0
 19 41  1  0  0  0  0
 19 20  2  0  0  0  0
 42 45  1  0  0  0  0
  8 11  1  0  0  0  0
 51 52  1  0  0  0  0
 18 21  1  0  0  0  0
 41 42  1  0  0  0  0
  7  8  1  0  0  0  0
 17 18  1  0  0  0  0
 29 39  1  0  0  0  0
 30 40  1  0  0  0  0
 27 37  1  0  0  0  0
 28 38  1  0  0  0  0
 23 35  1  0  0  0  0
  3  4  1  0  0  0  0
  3  5  1  0  0  0  0
  3  6  1  0  0  0  0
 45 48  1  0  0  0  0
 45 49  1  0  0  0  0
 45 50  1  0  0  0  0
 11 14  1  0  0  0  0
 11 15  1  0  0  0  0
 11 16  1  0  0  0  0
 52 54  1  0  0  0  0
 52 55  1  0  0  0  0
 52 56  1  0  0  0  0
 21 33  1  0  0  0  0
 21 34  1  0  0  0  0
 42 47  1  0  0  0  0
  8 13  1  0  0  0  0
 18 32  1  0  0  0  0
 25 36  1  0  0  0  0
 51 53  1  0  0  0  0
  7 12  1  0  0  0  0
 41 46  1  0  0  0  0
 17 31  1  0  0  0  0
M  END
$$$$

  -OEChem-05262214473D

 56 57  0     1  0  0  0  0  0999 V2000
   -2.2900    0.3401    4.1553 C   0  0  0  0  0  0  0  0  0  0  0  0
   -1.3426   -0.2746    3.6796 O   0  0  0  0  0  0  0  0  0  0  0  0
   -2.7219    0.0577    5.5560 C   0  0  0  0  0  0  0  0  0  0  0  0
   -3.4815   -0.7386    5.6094 H   0  0  0  0  0  0  0  0  0  0  0  0
   -1.8906   -0.2899    6.1903 H   0  0  0  0  0  0  0  0  0  0  0  0
   -3.1599    0.9126    6.0956 H   0  0  0  0  0  0  0  0  0  0  0  0
   -3.0397    1.3125    3.5142 N   0  0  0  0  0  0  0  0  0  0  0  0
   -2.7928    1.7385    2.1618 C   0  0  2  0  0  0  0  0  0  0  0  0
   -1.4579    1.1532    1.7206 C   0  0  0  0  0  0  0  0  0  0  0  0
   -0.5858    0.8004    2.5118 O   0  0  0  0  0  0  0  0  0  0  0  0
   -2.7841    3.2553    2.0523 C   0  0  0  0  0  0  0  0  0  0  0  0
   -3.8047    1.7484    4.0260 H   0  0  0  0  0  0  0  0  0  0  0  0
   -3.5969    1.3201    1.5466 H   0  0  0  0  0  0  0  0  0  0  0  0
   -1.9850    3.6926    2.6620 H   0  0  0  0  0  0  0  0  0  0  0  0
   -2.6246    3.5776    1.0180 H   0  0  0  0  0  0  0  0  0  0  0  0
   -3.7342    3.6765    2.3981 H   0  0  0  0  0  0  0  0  0  0  0  0
   -1.3352    1.1101    0.3372 N   0  0  0  0  0  0  0  0  0  0  0  0
   -0.1579    0.6093   -0.3265 C   0  0  2  0  0  0  0  0  0  0  0  0
   -0.4025    0.7246   -1.8268 C   0  0  0  0  0  0  0  0  0  0  0  0
    0.4064    0.3392   -2.6683 O   0  0  0  0  0  0  0  0  0  0  0  0
    0.1469   -0.8443    0.0536 C   0  0  0  0  0  0  0  0  0  0  0  0
    0.5505   -0.9970    1.4998 C   0  0  0  0  0  0  0  0  0  0  0  0
   -0.2825   -1.3618    2.5321 C   0  0  0  0  0  0  0  0  0  0  0  0
    1.8501   -0.7943    2.0429 C   0  0  0  0  0  0  0  0  0  0  0  0
    0.4591   -1.3886    3.6827 N   0  0  0  0  0  0  0  0  0  0  0  0
    1.7652   -1.0465    3.4138 C   0  0  0  0  0  0  0  0  0  0  0  0
    3.0943   -0.4194    1.4980 C   0  0  0  0  0  0  0  0  0  0  0  0
    2.8667   -0.9420    4.2706 C   0  0  0  0  0  0  0  0  0  0  0  0
    4.2048   -0.3109    2.3430 C   0  0  0  0  0  0  0  0  0  0  0  0
    4.0905   -0.5687    3.7076 C   0  0  0  0  0  0  0  0  0  0  0  0
   -2.1183    1.4068   -0.2401 H   0  0  0  0  0  0  0  0  0  0  0  0
    0.6664    1.2751   -0.0450 H   0  0  0  0  0  0  0  0  0  0  0  0
    0.9354   -1.2497   -0.5949 H   0  0  0  0  0  0  0  0  0  0  0  0
   -0.7299   -1.4800   -0.1276 H   0  0  0  0  0  0  0  0  0  0  0  0
   -1.3364   -1.6032    2.5526 H   0  0  0  0  0  0  0  0  0  0  0  0
    0.1004   -1.6254    4.5974 H   0  0  0  0  0  0  0  0  0  0  0  0
    3.1995   -0.2142    0.4365 H   0  0  0  0  0  0  0  0  0  0  0  0
    2.7789   -1.1435    5.3328 H   0  0  0  0  0  0  0  0  0  0  0  0
    5.1668   -0.0217    1.9286 H   0  0  0  0  0  0  0  0  0  0  0  0
    4.9660   -0.4785    4.3455 H   0  0  0  0  0  0  0  0  0  0  0  0
   -1.6504    1.2623   -2.1100 N   0  0  0  0  0  0  0  0  0  0  0  0
   -2.1434    1.4587   -3.4543 C   0  0  2  0  0  0  0  0  0  0  0  0
   -1.0696    2.1931   -4.2464 C   0  0  0  0  0  0  0  0  0  0  0  0
   -0.1937    2.8741   -3.7173 O   0  0  0  0  0  0  0  0  0  0  0  0
   -3.4491    2.2382   -3.4565 C   0  0  0  0  0  0  0  0  0  0  0  0
   -2.2472    1.5312   -1.3333 H   0  0  0  0  0  0  0  0  0  0  0  0
   -2.2974    0.4626   -3.8834 H   0  0  0  0  0  0  0  0  0  0  0  0
   -3.3145    3.2390   -3.0302 H   0  0  0  0  0  0  0  0  0  0  0  0
   -3.8360    2.3615   -4.4734 H   0  0  0  0  0  0  0  0  0  0  0  0
   -4.2114    1.7234   -2.8617 H   0  0  0  0  0  0  0  0  0  0  0  0
   -1.2304    2.0336   -5.6156 N   0  0  0  0  0  0  0  0  0  0  0  0
   -0.3456    2.6433   -6.5807 C   0  0  0  0  0  0  0  0  0  0  0  0
   -1.9734    1.4358   -5.9653 H   0  0  0  0  0  0  0  0  0  0  0  0
   -0.7520    3.6185   -6.8868 H   0  0  0  0  0  0  0  0  0  0  0  0
    0.6474    2.7854   -6.1292 H   0  0  0  0  0  0  0  0  0  0  0  0
   -0.2577    1.9900   -7.4614 H   0  0  0  0  0  0  0  0  0  0  0  0
 29 30  2  0  0  0  0
 27 29  1  0  0  0  0
 28 30  1  0  0  0  0
 24 27  2  0  0  0  0
 26 28  2  0  0  0  0
 22 23  2  0  0  0  0
 23 25  1  0  0  0  0
 22 24  1  0  0  0  0
 24 26  1  0  0  0  0
 21 22  1  0  0  0  0
 25 26  1  0  0  0  0
  1  3  1  0  0  0  0
  1  7  1  0  0  0  0
  1  2  2  0  0  0  0
 42 43  1  0  0  0  0
 43 51  1  0  0  0  0
 43 44  2  0  0  0  0
  8  9  1  0  0  0  0
  9 17  1  0  0  0  0
  9 10  2  0  0  0  0
 18 19  1  0  0  0  0
 19 41  1  0  0  0  0
 19 20  2  0  0  0  0
 42 45  1  0  0  0  0
  8 11  1  0  0  0  0
 51 52  1  0  0  0  0
 18 21  1  0  0  0  0
 41 42  1  0  0  0  0
  7  8  1  0  0  0  0
 17 18  1  0  0  0  0
 29 39  1  0  0  0  0
 30 40  1  0  0  0  0
 27 37  1  0  0  0  0
 28 38  1  0  0  0  0
 23 35  1  0  0  0  0
  3  4  1  0  0  0  0
  3  5  1  0  0  0  0
  3  6  1  0  0  0  0
 45 48  1  0  0  0  0
 45 49  1  0  0  0  0
 45 50  1  0  0  0  0
 11 14  1  0  0  0  0
 11 15  1  0  0  0  0
 11 16  1  0  0  0  0
 52 54  1  0  0  0  0
 52 55  1  0  0  0  0
 52 56  1  0  0  0  0
 21 33  1  0  0  0  0
 21 34  1  0  0  0  0
 42 47  1  0  0  0  0
  8 13  1  0  0  0  0
 18 32  1  0  0  0  0
 25 36  1  0  0  0  0
 51 53  1  0  0  0  0
  7 12  1  0  0  0  0
 41 46  1  0  0  0  0
 17 31  1  0  0  0  0
M  END
$$$$

  -OEChem-05262214473D

 56 57  0     1  0  0  0  0  0999 V2000
   -2.2900    0.3401    4.1553 C   0  0  0  0  0  0  0  0  0  0  0  0
   -1.3426   -0.2746    3.6796 O   0  0  0  0  0  0  0  0  0  0  0  0
   -2.7219    0.0577    5.5560 C   0  0  0  0  0  0  0  0  0  0  0  0
   -3.4815   -0.7386    5.6094 H   0  0  0  0  0  0  0  0  0  0  0  0
   -1.8906   -0.2899    6.1903 H   0  0  0  0  0  0  0  0  0  0  0  0
   -3.1599    0.9126    6.0956 H   0  0  0  0  0  0  0  0  0  0  0  0
   -3.0397    1.3125    3.5142 N   0  0  0  0  0  0  0  0  0  0  0  0
   -2.7928    1.7385    2.1618 C   0  0  2  0  0  0  0  0  0  0  0  0
   -1.4579    1.1532    1.7206 C   0  0  0  0  0  0  0  0  0  0  0  0
   -0.5858    0.8004    2.5118 O   0  0  0  0  0  0  0  0  0  0  0  0
   -2.7841    3.2553    2.0523 C   0  0  0  0  0  0  0  0  0  0  0  0
   -3.8047    1.7484    4.0260 H   0  0  0  0  0  0  0  0  0  0  0  0
   -3.5969    1.3201    1.5466 H   0  0  0  0  0  0  0  0  0  0  0  0
   -1.9850    3.6926    2.6620 H   0  0  0  0  0  0  0  0  0  0  0  0
   -2.6246    3.5776    1.0180 H   0  0  0  0  0  0  0  0  0  0  0  0
   -3.7342    3.6765    2.3981 H   0  0  0  0  0  0  0  0  0  0  0  0
   -1.3352    1.1101    0.3372 N   0  0  0  0  0  0  0  0  0  0  0  0
   -0.1579    0.6093   -0.3265 C   0  0  2  0  0  0  0  0  0  0  0  0
   -0.4025    0.7246   -1.8268 C   0  0  0  0  0  0  0  0  0  0  0  0
    0.2606    0.1131   -2.6619 O   0  0  0  0  0  0  0  0  0  0  0  0
    0.1469   -0.8443    0.0536 C   0  0  0  0  0  0  0  0  0  0  0  0
    0.5505   -0.9970    1.4998 C   0  0  0  0  0  0  0  0  0  0  0  0
   -0.2825   -1.3618    2.5321 C   0  0  0  0  0  0  0  0  0  0  0  0
    1.8501   -0.7943    2.0429 C   0  0  0  0  0  0  0  0  0  0  0  0
    0.4591   -1.3886    3.6827 N   0  0  0  0  0  0  0  0  0  0  0  0
    1.7652   -1.0465    3.4138 C   0  0  0  0  0  0  0  0  0  0  0  0
    3.0943   -0.4194    1.4980 C   0  0  0  0  0  0  0  0  0  0  0  0
    2.8667   -0.9420    4.2706 C   0  0  0  0  0  0  0  0  0  0  0  0
    4.2048   -0.3109    2.3430 C   0  0  0  0  0  0  0  0  0  0  0  0
    4.0905   -0.5687    3.7076 C   0  0  0  0  0  0  0  0  0  0  0  0
   -2.1183    1.4068   -0.2401 H   0  0  0  0  0  0  0  0  0  0  0  0
    0.6664    1.2751   -0.0450 H   0  0  0  0  0  0  0  0  0  0  0  0
    0.9354   -1.2497   -0.5949 H   0  0  0  0  0  0  0  0  0  0  0  0
   -0.7299   -1.4800   -0.1276 H   0  0  0  0  0  0  0  0  0  0  0  0
   -1.3364   -1.6032    2.5526 H   0  0  0  0  0  0  0  0  0  0  0  0
    0.1004   -1.6254    4.5974 H   0  0  0  0  0  0  0  0  0  0  0  0
    3.1995   -0.2142    0.4365 H   0  0  0  0  0  0  0  0  0  0  0  0
    2.7789   -1.1435    5.3328 H   0  0  0  0  0  0  0  0  0  0  0  0
    5.1668   -0.0217    1.9286 H   0  0  0  0  0  0  0  0  0  0  0  0
    4.9660   -0.4785    4.3455 H   0  0  0  0  0  0  0  0  0  0  0  0
   -1.4793    1.5514   -2.1157 N   0  0  0  0  0  0  0  0  0  0  0  0
   -1.9395    1.8145   -3.4602 C   0  0  2  0  0  0  0  0  0  0  0  0
   -0.7345    2.2192   -4.2990 C   0  0  0  0  0  0  0  0  0  0  0  0
    0.2988    2.6743   -3.8129 O   0  0  0  0  0  0  0  0  0  0  0  0
   -3.0037    2.9007   -3.4782 C   0  0  0  0  0  0  0  0  0  0  0  0
   -1.9685    1.9938   -1.3432 H   0  0  0  0  0  0  0  0  0  0  0  0
   -2.3525    0.8747   -3.8427 H   0  0  0  0  0  0  0  0  0  0  0  0
   -2.6085    3.8499   -3.0983 H   0  0  0  0  0  0  0  0  0  0  0  0
   -3.3718    3.0788   -4.4940 H   0  0  0  0  0  0  0  0  0  0  0  0
   -3.8568    2.6210   -2.8505 H   0  0  0  0  0  0  0  0  0  0  0  0
   -0.9646    2.0527   -5.6575 N   0  0  0  0  0  0  0  0  0  0  0  0
    0.0218    2.3784   -6.6610 C   0  0  0  0  0  0  0  0  0  0  0  0
   -1.8437    1.6511   -5.9698 H   0  0  0  0  0  0  0  0  0  0  0  0
   -0.1308    3.4124   -7.0039 H   0  0  0  0  0  0  0  0  0  0  0  0
    1.0292    2.2800   -6.2303 H   0  0  0  0  0  0  0  0  0  0  0  0
   -0.0814    1.6906   -7.5132 H   0  0  0  0  0  0  0  0  0  0  0  0
 29 30  2  0  0  0  0
 27 29  1  0  0  0  0
 28 30  1  0  0  0  0
 24 27  2  0  0  0  0
 26 28  2  0  0  0  0
 22 23  2  0  0  0  0
 23 25  1  0  0  0  0
 22 24  1  0  0  0  0
 24 26  1  0  0  0  0
 21 22  1  0  0  0  0
 25 26  1  0  0  0  0
  1  3  1  0  0  0  0
  1  7  1  0  0  0  0
  1  2  2  0  0  0  0
 42 43  1  0  0  0  0
 43 51  1  0  0  0  0
 43 44  2  0  0  0  0
  8  9  1  0  0  0  0
  9 17  1  0  0  0  0
  9 10  2  0  0  0  0
 18 19  1  0  0  0  0
 19 41  1  0  0  0  0
 19 20  2  0  0  0  0
 42 45  1  0  0  0  0
  8 11  1  0  0  0  0
 51 52  1  0  0  0  0
 18 21  1  0  0  0  0
 41 42  1  0  0  0  0
  7  8  1  0  0  0  0
 17 18  1  0  0  0  0
 29 39  1  0  0  0  0
 30 40  1  0  0  0  0
 27 37  1  0  0  0  0
 28 38  1  0  0  0  0
 23 35  1  0  0  0  0
  3  4  1  0  0  0  0
  3  5  1  0  0  0  0
  3  6  1  0  0  0  0
 45 48  1  0  0  0  0
 45 49  1  0  0  0  0
 45 50  1  0  0  0  0
 11 14  1  0  0  0  0
 11 15  1  0  0  0  0
 11 16  1  0  0  0  0
 52 54  1  0  0  0  0
 52 55  1  0  0  0  0
 52 56  1  0  0  0  0
 21 33  1  0  0  0  0
 21 34  1  0  0  0  0
 42 47  1  0  0  0  0
  8 13  1  0  0  0  0
 18 32  1  0  0  0  0
 25 36  1  0  0  0  0
 51 53  1  0  0  0  0
  7 12  1  0  0  0  0
 41 46  1  0  0  0  0
 17 31  1  0  0  0  0
M  END
$$$$

  -OEChem-05262214473D

 56 57  0     1  0  0  0  0  0999 V2000
   -2.2900    0.3401    4.1553 C   0  0  0  0  0  0  0  0  0  0  0  0
   -1.3426   -0.2746    3.6796 O   0  0  0  0  0  0  0  0  0  0  0  0
   -2.7219    0.0577    5.5560 C   0  0  0  0  0  0  0  0  0  0  0  0
   -3.4815   -0.7386    5.6094 H   0  0  0  0  0  0  0  0  0  0  0  0
   -1.8906   -0.2899    6.1903 H   0  0  0  0  0  0  0  0  0  0  0  0
   -3.1599    0.9126    6.0956 H   0  0  0  0  0  0  0  0  0  0  0  0
   -3.0397    1.3125    3.5142 N   0  0  0  0  0  0  0  0  0  0  0  0
   -2.7928    1.7385    2.1618 C   0  0  2  0  0  0  0  0  0  0  0  0
   -1.4579    1.1532    1.7206 C   0  0  0  0  0  0  0  0  0  0  0  0
   -0.5858    0.8004    2.5118 O   0  0  0  0  0  0  0  0  0  0  0  0
   -2.7841    3.2553    2.0523 C   0  0  0  0  0  0  0  0  0  0  0  0
   -3.8047    1.7484    4.0260 H   0  0  0  0  0  0  0  0  0  0  0  0
   -3.5969    1.3201    1.5466 H   0  0  0  0  0  0  0  0  0  0  0  0
   -1.9850    3.6926    2.6620 H   0  0  0  0  0  0  0  0  0  0  0  0
   -2.6246    3.5776    1.0180 H   0  0  0  0  0  0  0  0  0  0  0  0
   -3.7342    3.6765    2.3981 H   0  0  0  0  0  0  0  0  0  0  0  0
   -1.3352    1.1101    0.3372 N   0  0  0  0  0  0  0  0  0  0  0  0
   -0.1579    0.6093   -0.3265 C   0  0  2  0  0  0  0  0  0  0  0  0
   -0.4025    0.7246   -1.8268 C   0  0  0  0  0  0  0  0  0  0  0  0
    0.0622   -0.0679   -2.6434 O   0  0  0  0  0  0  0  0  0  0  0  0
    0.1469   -0.8443    0.0536 C   0  0  0  0  0  0  0  0  0  0  0  0
    0.5505   -0.9970    1.4998 C   0  0  0  0  0  0  0  0  0  0  0  0
   -0.2825   -1.3618    2.5321 C   0  0  0  0  0  0  0  0  0  0  0  0
    1.8501   -0.7943    2.0429 C   0  0  0  0  0  0  0  0  0  0  0  0
    0.4591   -1.3886    3.6827 N   0  0  0  0  0  0  0  0  0  0  0  0
    1.7652   -1.0465    3.4138 C   0  0  0  0  0  0  0  0  0  0  0  0
    3.0943   -0.4194    1.4980 C   0  0  0  0  0  0  0  0  0  0  0  0
    2.8667   -0.9420    4.2706 C   0  0  0  0  0  0  0  0  0  0  0  0
    4.2048   -0.3109    2.3430 C   0  0  0  0  0  0  0  0  0  0  0  0
    4.0905   -0.5687    3.7076 C   0  0  0  0  0  0  0  0  0  0  0  0
   -2.1183    1.4068   -0.2401 H   0  0  0  0  0  0  0  0  0  0  0  0
    0.6664    1.2751   -0.0450 H   0  0  0  0  0  0  0  0  0  0  0  0
    0.9354   -1.2497   -0.5949 H   0  0  0  0  0  0  0  0  0  0  0  0
   -0.7299   -1.4800   -0.1276 H   0  0  0  0  0  0  0  0  0  0  0  0
   -1.3364   -1.6032    2.5526 H   0  0  0  0  0  0  0  0  0  0  0  0
    0.1004   -1.6254    4.5974 H   0  0  0  0  0  0  0  0  0  0  0  0
    3.1995   -0.2142    0.4365 H   0  0  0  0  0  0  0  0  0  0  0  0
    2.7789   -1.1435    5.3328 H   0  0  0  0  0  0  0  0  0  0  0  0
    5.1668   -0.0217    1.9286 H   0  0  0  0  0  0  0  0  0  0  0  0
    4.9660   -0.4785    4.3455 H   0  0  0  0  0  0  0  0  0  0  0  0
   -1.2405    1.7868   -2.1365 N   0  0  0  0  0  0  0  0  0  0  0  0
   -1.6521    2.1060   -3.4847 C   0  0  2  0  0  0  0  0  0  0  0  0
   -0.4051    2.1569   -4.3575 C   0  0  0  0  0  0  0  0  0  0  0  0
    0.7217    2.3519   -3.9067 O   0  0  0  0  0  0  0  0  0  0  0  0
   -2.4052    3.4262   -3.5353 C   0  0  0  0  0  0  0  0  0  0  0  0
   -1.5818    2.3692   -1.3774 H   0  0  0  0  0  0  0  0  0  0  0  0
   -2.2999    1.2885   -3.8195 H   0  0  0  0  0  0  0  0  0  0  0  0
   -1.7722    4.2572   -3.2033 H   0  0  0  0  0  0  0  0  0  0  0  0
   -2.7411    3.6526   -4.5527 H   0  0  0  0  0  0  0  0  0  0  0  0
   -3.2854    3.3981   -2.8839 H   0  0  0  0  0  0  0  0  0  0  0  0
   -0.7038    2.0018   -5.7039 N   0  0  0  0  0  0  0  0  0  0  0  0
    0.3076    2.0256   -6.7347 C   0  0  0  0  0  0  0  0  0  0  0  0
   -1.6637    1.8259   -5.9858 H   0  0  0  0  0  0  0  0  0  0  0  0
    0.4144    3.0501   -7.1207 H   0  0  0  0  0  0  0  0  0  0  0  0
    1.2672    1.6903   -6.3144 H   0  0  0  0  0  0  0  0  0  0  0  0
    0.0116    1.3542   -7.5542 H   0  0  0  0  0  0  0  0  0  0  0  0
 29 30  2  0  0  0  0
 27 29  1  0  0  0  0
 28 30  1  0  0  0  0
 24 27  2  0  0  0  0
 26 28  2  0  0  0  0
 22 23  2  0  0  0  0
 23 25  1  0  0  0  0
 22 24  1  0  0  0  0
 24 26  1  0  0  0  0
 21 22  1  0  0  0  0
 25 26  1  0  0  0  0
  1  3  1  0  0  0  0
  1  7  1  0  0  0  0
  1  2  2  0  0  0  0
 42 43  1  0  0  0  0
 43 51  1  0  0  0  0
 43 44  2  0  0  0  0
  8  9  1  0  0  0  0
  9 17  1  0  0  0  0
  9 10  2  0  0  0  0
 18 19  1  0  0  0  0
 19 41  1  0  0  0  0
 19 20  2  0  0  0  0
 42 45  1  0  0  0  0
  8 11  1  0  0  0  0
 51 52  1  0  0  0  0
 18 21  1  0  0  0  0
 41 42  1  0  0  0  0
  7  8  1  0  0  0  0
 17 18  1  0  0  0  0
 29 39  1  0  0  0  0
 30 40  1  0  0  0  0
 27 37  1  0  0  0  0
 28 38  1  0  0  0  0
 23 35  1  0  0  0  0
  3  4  1  0  0  0  0
  3  5  1  0  0  0  0
  3  6  1  0  0  0  0
 45 48  1  0  0  0  0
 45 49  1  0  0  0  0
 45 50  1  0  0  0  0
 11 14  1  0  0  0  0
 11 15  1  0  0  0  0
 11 16  1  0  0  0  0
 52 54  1  0  0  0  0
 52 55  1  0  0  0  0
 52 56  1  0  0  0  0
 21 33  1  0  0  0  0
 21 34  1  0  0  0  0
 42 47  1  0  0  0  0
  8 13  1  0  0  0  0
 18 32  1  0  0  0  0
 25 36  1  0  0  0  0
 51 53  1  0  0  0  0
  7 12  1  0  0  0  0
 41 46  1  0  0  0  0
 17 31  1  0  0  0  0
M  END
$$$$

  -OEChem-05262214473D

 56 57  0     1  0  0  0  0  0999 V2000
   -2.2900    0.3401    4.1553 C   0  0  0  0  0  0  0  0  0  0  0  0
   -1.3426   -0.2746    3.6796 O   0  0  0  0  0  0  0  0  0  0  0  0
   -2.7219    0.0577    5.5560 C   0  0  0  0  0  0  0  0  0  0  0  0
   -3.4815   -0.7386    5.6094 H   0  0  0  0  0  0  0  0  0  0  0  0
   -1.8906   -0.2899    6.1903 H   0  0  0  0  0  0  0  0  0  0  0  0
   -3.1599    0.9126    6.0956 H   0  0  0  0  0  0  0  0  0  0  0  0
   -3.0397    1.3125    3.5142 N   0  0  0  0  0  0  0  0  0  0  0  0
   -2.7928    1.7385    2.1618 C   0  0  2  0  0  0  0  0  0  0  0  0
   -1.4579    1.1532    1.7206 C   0  0  0  0  0  0  0  0  0  0  0  0
   -0.5858    0.8004    2.5118 O   0  0  0  0  0  0  0  0  0  0  0  0
   -2.7841    3.2553    2.0523 C   0  0  0  0  0  0  0  0  0  0  0  0
   -3.8047    1.7484    4.0260 H   0  0  0  0  0  0  0  0  0  0  0  0
   -3.5969    1.3201    1.5466 H   0  0  0  0  0  0  0  0  0  0  0  0
   -1.9850    3.6926    2.6620 H   0  0  0  0  0  0  0  0  0  0  0  0
   -2.6246    3.5776    1.0180 H   0  0  0  0  0  0  0  0  0  0  0  0
   -3.7342    3.6765    2.3981 H   0  0  0  0  0  0  0  0  0  0  0  0
   -1.3352    1.1101    0.3372 N   0  0  0  0  0  0  0  0  0  0  0  0
   -0.1579    0.6093   -0.3265 C   0  0  2  0  0  0  0  0  0  0  0  0
   -0.4025    0.7246   -1.8268 C   0  0  0  0  0  0  0  0  0  0  0  0
   -0.1752   -0.1915   -2.6142 O   0  0  0  0  0  0  0  0  0  0  0  0
    0.1469   -0.8443    0.0536 C   0  0  0  0  0  0  0  0  0  0  0  0
    0.5505   -0.9970    1.4998 C   0  0  0  0  0  0  0  0  0  0  0  0
   -0.2825   -1.3618    2.5321 C   0  0  0  0  0  0  0  0  0  0  0  0
    1.8501   -0.7943    2.0429 C   0  0  0  0  0  0  0  0  0  0  0  0
    0.4591   -1.3886    3.6827 N   0  0  0  0  0  0  0  0  0  0  0  0
    1.7652   -1.0465    3.4138 C   0  0  0  0  0  0  0  0  0  0  0  0
    3.0943   -0.4194    1.4980 C   0  0  0  0  0  0  0  0  0  0  0  0
    2.8667   -0.9420    4.2706 C   0  0  0  0  0  0  0  0  0  0  0  0
    4.2048   -0.3109    2.3430 C   0  0  0  0  0  0  0  0  0  0  0  0
    4.0905   -0.5687    3.7076 C   0  0  0  0  0  0  0  0  0  0  0  0
   -2.1183    1.4068   -0.2401 H   0  0  0  0  0  0  0  0  0  0  0  0
    0.6664    1.2751   -0.0450 H   0  0  0  0  0  0  0  0  0  0  0  0
    0.9354   -1.2497   -0.5949 H   0  0  0  0  0  0  0  0  0  0  0  0
   -0.7299   -1.4800   -0.1276 H   0  0  0  0  0  0  0  0  0  0  0  0
   -1.3364   -1.6032    2.5526 H   0  0  0  0  0  0  0  0  0  0  0  0
    0.1004   -1.6254    4.5974 H   0  0  0  0  0  0  0  0  0  0  0  0
    3.1995   -0.2142    0.4365 H   0  0  0  0  0  0  0  0  0  0  0  0
    2.7789   -1.1435    5.3328 H   0  0  0  0  0  0  0  0  0  0  0  0
    5.1668   -0.0217    1.9286 H   0  0  0  0  0  0  0  0  0  0  0  0
    4.9660   -0.4785    4.3455 H   0  0  0  0  0  0  0  0  0  0  0  0
   -0.9503    1.9526   -2.1711 N   0  0  0  0  0  0  0  0  0  0  0  0
   -1.3007    2.3134   -3.5260 C   0  0  2  0  0  0  0  0  0  0  0  0
   -0.1040    2.0103   -4.4179 C   0  0  0  0  0  0  0  0  0  0  0  0
    1.0463    1.9288   -3.9921 O   0  0  0  0  0  0  0  0  0  0  0  0
   -1.6944    3.7790   -3.6241 C   0  0  0  0  0  0  0  0  0  0  0  0
   -1.1132    2.6318   -1.4336 H   0  0  0  0  0  0  0  0  0  0  0  0
   -2.1433    1.6758   -3.8153 H   0  0  0  0  0  0  0  0  0  0  0  0
   -0.8628    4.4333   -3.3381 H   0  0  0  0  0  0  0  0  0  0  0  0
   -1.9870    4.0438   -4.6456 H   0  0  0  0  0  0  0  0  0  0  0  0
   -2.5362    4.0018   -2.9597 H   0  0  0  0  0  0  0  0  0  0  0  0
   -0.4658    1.8842   -5.7518 N   0  0  0  0  0  0  0  0  0  0  0  0
    0.4923    1.6090   -6.7968 C   0  0  0  0  0  0  0  0  0  0  0  0
   -1.4456    1.9482   -6.0119 H   0  0  0  0  0  0  0  0  0  0  0  0
    0.8465    2.5565   -7.2291 H   0  0  0  0  0  0  0  0  0  0  0  0
    1.3454    1.0567   -6.3759 H   0  0  0  0  0  0  0  0  0  0  0  0
    0.0150    1.0039   -7.5817 H   0  0  0  0  0  0  0  0  0  0  0  0
 29 30  2  0  0  0  0
 27 29  1  0  0  0  0
 28 30  1  0  0  0  0
 24 27  2  0  0  0  0
 26 28  2  0  0  0  0
 22 23  2  0  0  0  0
 23 25  1  0  0  0  0
 22 24  1  0  0  0  0
 24 26  1  0  0  0  0
 21 22  1  0  0  0  0
 25 26  1  0  0  0  0
  1  3  1  0  0  0  0
  1  7  1  0  0  0  0
  1  2  2  0  0  0  0
 42 43  1  0  0  0  0
 43 51  1  0  0  0  0
 43 44  2  0  0  0  0
  8  9  1  0  0  0  0
  9 17  1  0  0  0  0
  9 10  2  0  0  0  0
 18 19  1  0  0  0  0
 19 41  1  0  0  0  0
 19 20  2  0  0  0  0
 42 45  1  0  0  0  0
  8 11  1  0  0  0  0
 51 52  1  0  0  0  0
 18 21  1  0  0  0  0
 41 42  1  0  0  0  0
  7  8  1  0  0  0  0
 17 18  1  0  0  0  0
 29 39  1  0  0  0  0
 30 40  1  0  0  0  0
 27 37  1  0  0  0  0
 28 38  1  0  0  0  0
 23 35  1  0  0  0  0
  3  4  1  0  0  0  0
  3  5  1  0  0  0  0
  3  6  1  0  0  0  0
 45 48  1  0  0  0  0
 45 49  1  0  0  0  0
 45 50  1  0  0  0  0
 11 14  1  0  0  0  0
 11 15  1  0  0  0  0
 11 16  1  0  0  0  0
 52 54  1  0  0  0  0
 52 55  1  0  0  0  0
 52 56  1  0  0  0  0
 21 33  1  0  0  0  0
 21 34  1  0  0  0  0
 42 47  1  0  0  0  0
  8 13  1  0  0  0  0
 18 32  1  0  0  0  0
 25 36  1  0  0  0  0
 51 53  1  0  0  0  0
  7 12  1  0  0  0  0
 41 46  1  0  0  0  0
 17 31  1  0  0  0  0
M  END
$$$$

  -OEChem-05262214473D

 56 57  0     1  0  0  0  0  0999 V2000
   -2.2900    0.3401    4.1553 C   0  0  0  0  0  0  0  0  0  0  0  0
   -1.3426   -0.2746    3.6796 O   0  0  0  0  0  0  0  0  0  0  0  0
   -2.7219    0.0577    5.5560 C   0  0  0  0  0  0  0  0  0  0  0  0
   -3.4815   -0.7386    5.6094 H   0  0  0  0  0  0  0  0  0  0  0  0
   -1.8906   -0.2899    6.1903 H   0  0  0  0  0  0  0  0  0  0  0  0
   -3.1599    0.9126    6.0956 H   0  0  0  0  0  0  0  0  0  0  0  0
   -3.0397    1.3125    3.5142 N   0  0  0  0  0  0  0  0  0  0  0  0
   -2.7928    1.7385    2.1618 C   0  0  2  0  0  0  0  0  0  0  0  0
   -1.4579    1.1532    1.7206 C   0  0  0  0  0  0  0  0  0  0  0  0
   -0.5858    0.8004    2.5118 O   0  0  0  0  0  0  0  0  0  0  0  0
   -2.7841    3.2553    2.0523 C   0  0  0  0  0  0  0  0  0  0  0  0
   -3.8047    1.7484    4.0260 H   0  0  0  0  0  0  0  0  0  0  0  0
   -3.5969    1.3201    1.5466 H   0  0  0  0  0  0  0  0  0  0  0  0
   -1.9850    3.6926    2.6620 H   0  0  0  0  0  0  0  0  0  0  0  0
   -2.6246    3.5776    1.0180 H   0  0  0  0  0  0  0  0  0  0  0  0
   -3.7342    3.6765    2.3981 H   0  0  0  0  0  0  0  0  0  0  0  0
   -1.3352    1.1101    0.3372 N   0  0  0  0  0  0  0  0  0  0  0  0
   -0.1579    0.6093   -0.3265 C   0  0  2  0  0  0  0  0  0  0  0  0
   -0.4025    0.7246   -1.8268 C   0  0  0  0  0  0  0  0  0  0  0  0
   -0.4353   -0.2491   -2.5762 O   0  0  0  0  0  0  0  0  0  0  0  0
    0.1469   -0.8443    0.0536 C   0  0  0  0  0  0  0  0  0  0  0  0
    0.5505   -0.9970    1.4998 C   0  0  0  0  0  0  0  0  0  0  0  0
   -0.2825   -1.3618    2.5321 C   0  0  0  0  0  0  0  0  0  0  0  0
    1.8501   -0.7943    2.0429 C   0  0  0  0  0  0  0  0  0  0  0  0
    0.4591   -1.3886    3.6827 N   0  0  0  0  0  0  0  0  0  0  0  0
    1.7652   -1.0465    3.4138 C   0  0  0  0  0  0  0  0  0  0  0  0
    3.0943   -0.4194    1.4980 C   0  0  0  0  0  0  0  0  0  0  0  0
    2.8667   -0.9420    4.2706 C   0  0  0  0  0  0  0  0  0  0  0  0
    4.2048   -0.3109    2.3430 C   0  0  0  0  0  0  0  0  0  0  0  0
    4.0905   -0.5687    3.7076 C   0  0  0  0  0  0  0  0  0  0  0  0
   -2.1183    1.4068   -0.2401 H   0  0  0  0  0  0  0  0  0  0  0  0
    0.6664    1.2751   -0.0450 H   0  0  0  0  0  0  0  0  0  0  0  0
    0.9354   -1.2497   -0.5949 H   0  0  0  0  0  0  0  0  0  0  0  0
   -0.7299   -1.4800   -0.1276 H   0  0  0  0  0  0  0  0  0  0  0  0
   -1.3364   -1.6032    2.5526 H   0  0  0  0  0  0  0  0  0  0  0  0
    0.1004   -1.6254    4.5974 H   0  0  0  0  0  0  0  0  0  0  0  0
    3.1995   -0.2142    0.4365 H   0  0  0  0  0  0  0  0  0  0  0  0
    2.7789   -1.1435    5.3328 H   0  0  0  0  0  0  0  0  0  0  0  0
    5.1668   -0.0217    1.9286 H   0  0  0  0  0  0  0  0  0  0  0  0
    4.9660   -0.4785    4.3455 H   0  0  0  0  0  0  0  0  0  0  0  0
   -0.6285    2.0373   -2.2170 N   0  0  0  0  0  0  0  0  0  0  0  0
   -0.9093    2.4225   -3.5814 C   0  0  2  0  0  0  0  0  0  0  0  0
    0.1484    1.7896   -4.4760 C   0  0  0  0  0  0  0  0  0  0  0  0
    1.2504    1.4340   -4.0634 O   0  0  0  0  0  0  0  0  0  0  0  0
   -0.9196    3.9351   -3.7384 C   0  0  0  0  0  0  0  0  0  0  0  0
   -0.5948    2.7639   -1.5080 H   0  0  0  0  0  0  0  0  0  0  0  0
   -1.8932    2.0102   -3.8303 H   0  0  0  0  0  0  0  0  0  0  0  0
    0.0579    4.3662   -3.4933 H   0  0  0  0  0  0  0  0  0  0  0  0
   -1.1607    4.2257   -4.7663 H   0  0  0  0  0  0  0  0  0  0  0  0
   -1.6603    4.3910   -3.0726 H   0  0  0  0  0  0  0  0  0  0  0  0
   -0.2668    1.7081   -5.7978 N   0  0  0  0  0  0  0  0  0  0  0  0
    0.5635    1.1570   -6.8432 C   0  0  0  0  0  0  0  0  0  0  0  0
   -1.2043    2.0097   -6.0465 H   0  0  0  0  0  0  0  0  0  0  0  0
    1.1361    1.9652   -7.3217 H   0  0  0  0  0  0  0  0  0  0  0  0
    1.2582    0.4221   -6.4104 H   0  0  0  0  0  0  0  0  0  0  0  0
   -0.0715    0.6636   -7.5937 H   0  0  0  0  0  0  0  0  0  0  0  0
 29 30  2  0  0  0  0
 27 29  1  0  0  0  0
 28 30  1  0  0  0  0
 24 27  2  0  0  0  0
 26 28  2  0  0  0  0
 22 23  2  0  0  0  0
 23 25  1  0  0  0  0
 22 24  1  0  0  0  0
 24 26  1  0  0  0  0
 21 22  1  0  0  0  0
 25 26  1  0  0  0  0
  1  3  1  0  0  0  0
  1  7  1  0  0  0  0
  1  2  2  0  0  0  0
 42 43  1  0  0  0  0
 43 51  1  0  0  0  0
 43 44  2  0  0  0  0
  8  9  1  0  0  0  0
  9 17  1  0  0  0  0
  9 10  2  0  0  0  0
 18 19  1  0  0  0  0
 19 41  1  0  0  0  0
 19 20  2  0  0  0  0
 42 45  1  0  0  0  0
  8 11  1  0  0  0  0
 51 52  1  0  0  0  0
 18 21  1  0  0  0  0
 41 42  1  0  0  0  0
  7  8  1  0  0  0  0
 17 18  1  0  0  0  0
 29 39  1  0  0  0  0
 30 40  1  0  0  0  0
 27 37  1  0  0  0  0
 28 38  1  0  0  0  0
 23 35  1  0  0  0  0
  3  4  1  0  0  0  0
  3  5  1  0  0  0  0
  3  6  1  0  0  0  0
 45 48  1  0  0  0  0
 45 49  1  0  0  0  0
 45 50  1  0  0  0  0
 11 14  1  0  0  0  0
 11 15  1  0  0  0  0
 11 16  1  0  0  0  0
 52 54  1  0  0  0  0
 52 55  1  0  0  0  0
 52 56  1  0  0  0  0
 21 33  1  0  0  0  0
 21 34  1  0  0  0  0
 42 47  1  0  0  0  0
  8 13  1  0  0  0  0
 18 32  1  0  0  0  0
 25 36  1  0  0  0  0
 51 53  1  0  0  0  0
  7 12  1  0  0  0  0
 41 46  1  0  0  0  0
 17 31  1  0  0  0  0
M  END
$$$$

  -OEChem-05262214473D

 56 57  0     1  0  0  0  0  0999 V2000
   -2.2900    0.3401    4.1553 C   0  0  0  0  0  0  0  0  0  0  0  0
   -1.3426   -0.2746    3.6796 O   0  0  0  0  0  0  0  0  0  0  0  0
   -2.7219    0.0577    5.5560 C   0  0  0  0  0  0  0  0  0  0  0  0
   -3.4815   -0.7386    5.6094 H   0  0  0  0  0  0  0  0  0  0  0  0
   -1.8906   -0.2899    6.1903 H   0  0  0  0  0  0  0  0  0  0  0  0
   -3.1599    0.9126    6.0956 H   0  0  0  0  0  0  0  0  0  0  0  0
   -3.0397    1.3125    3.5142 N   0  0  0  0  0  0  0  0  0  0  0  0
   -2.7928    1.7385    2.1618 C   0  0  2  0  0  0  0  0  0  0  0  0
   -1.4579    1.1532    1.7206 C   0  0  0  0  0  0  0  0  0  0  0  0
   -0.5858    0.8004    2.5118 O   0  0  0  0  0  0  0  0  0  0  0  0
   -2.7841    3.2553    2.0523 C   0  0  0  0  0  0  0  0  0  0  0  0
   -3.8047    1.7484    4.0260 H   0  0  0  0  0  0  0  0  0  0  0  0
   -3.5969    1.3201    1.5466 H   0  0  0  0  0  0  0  0  0  0  0  0
   -1.9850    3.6926    2.6620 H   0  0  0  0  0  0  0  0  0  0  0  0
   -2.6246    3.5776    1.0180 H   0  0  0  0  0  0  0  0  0  0  0  0
   -3.7342    3.6765    2.3981 H   0  0  0  0  0  0  0  0  0  0  0  0
   -1.3352    1.1101    0.3372 N   0  0  0  0  0  0  0  0  0  0  0  0
   -0.1579    0.6093   -0.3265 C   0  0  2  0  0  0  0  0  0  0  0  0
   -0.4025    0.7246   -1.8268 C   0  0  0  0  0  0  0  0  0  0  0  0
   -0.7006   -0.2370   -2.5321 O   0  0  0  0  0  0  0  0  0  0  0  0
    0.1469   -0.8443    0.0536 C   0  0  0  0  0  0  0  0  0  0  0  0
    0.5505   -0.9970    1.4998 C   0  0  0  0  0  0  0  0  0  0  0  0
   -0.2825   -1.3618    2.5321 C   0  0  0  0  0  0  0  0  0  0  0  0
    1.8501   -0.7943    2.0429 C   0  0  0  0  0  0  0  0  0  0  0  0
    0.4591   -1.3886    3.6827 N   0  0  0  0  0  0  0  0  0  0  0  0
    1.7652   -1.0465    3.4138 C   0  0  0  0  0  0  0  0  0  0  0  0
    3.0943   -0.4194    1.4980 C   0  0  0  0  0  0  0  0  0  0  0  0
    2.8667   -0.9420    4.2706 C   0  0  0  0  0  0  0  0  0  0  0  0
    4.2048   -0.3109    2.3430 C   0  0  0  0  0  0  0  0  0  0  0  0
    4.0905   -0.5687    3.7076 C   0  0  0  0  0  0  0  0  0  0  0  0
   -2.1183    1.4068   -0.2401 H   0  0  0  0  0  0  0  0  0  0  0  0
    0.6664    1.2751   -0.0450 H   0  0  0  0  0  0  0  0  0  0  0  0
    0.9354   -1.2497   -0.5949 H   0  0  0  0  0  0  0  0  0  0  0  0
   -0.7299   -1.4800   -0.1276 H   0  0  0  0  0  0  0  0  0  0  0  0
   -1.3364   -1.6032    2.5526 H   0  0  0  0  0  0  0  0  0  0  0  0
    0.1004   -1.6254    4.5974 H   0  0  0  0  0  0  0  0  0  0  0  0
    3.1995   -0.2142    0.4365 H   0  0  0  0  0  0  0  0  0  0  0  0
    2.7789   -1.1435    5.3328 H   0  0  0  0  0  0  0  0  0  0  0  0
    5.1668   -0.0217    1.9286 H   0  0  0  0  0  0  0  0  0  0  0  0
    4.9660   -0.4785    4.3455 H   0  0  0  0  0  0  0  0  0  0  0  0
   -0.2969    2.0353   -2.2713 N   0  0  0  0  0  0  0  0  0  0  0  0
   -0.5045    2.4259   -3.6472 C   0  0  2  0  0  0  0  0  0  0  0  0
    0.3348    1.5097   -4.5279 C   0  0  0  0  0  0  0  0  0  0  0  0
    1.3201    0.9011   -4.1157 O   0  0  0  0  0  0  0  0  0  0  0  0
   -0.1338    3.8837   -3.8705 C   0  0  0  0  0  0  0  0  0  0  0  0
   -0.0619    2.7563   -1.5954 H   0  0  0  0  0  0  0  0  0  0  0  0
   -1.5668    2.2688   -3.8636 H   0  0  0  0  0  0  0  0  0  0  0  0
    0.9271    4.0604   -3.6585 H   0  0  0  0  0  0  0  0  0  0  0  0
   -0.3185    4.1859   -4.9066 H   0  0  0  0  0  0  0  0  0  0  0  0
   -0.7173    4.5391   -3.2149 H   0  0  0  0  0  0  0  0  0  0  0  0
   -0.1203    1.4853   -5.8388 N   0  0  0  0  0  0  0  0  0  0  0  0
    0.5161    0.7003   -6.8706 C   0  0  0  0  0  0  0  0  0  0  0  0
   -0.9562    2.0062   -6.0872 H   0  0  0  0  0  0  0  0  0  0  0  0
    1.2633    1.3164   -7.3924 H   0  0  0  0  0  0  0  0  0  0  0  0
    1.0117   -0.1700   -6.4158 H   0  0  0  0  0  0  0  0  0  0  0  0
   -0.2420    0.3563   -7.5896 H   0  0  0  0  0  0  0  0  0  0  0  0
 29 30  2  0  0  0  0
 27 29  1  0  0  0  0
 28 30  1  0  0  0  0
 24 27  2  0  0  0  0
 26 28  2  0  0  0  0
 22 23  2  0  0  0  0
 23 25  1  0  0  0  0
 22 24  1  0  0  0  0
 24 26  1  0  0  0  0
 21 22  1  0  0  0  0
 25 26  1  0  0  0  0
  1  3  1  0  0  0  0
  1  7  1  0  0  0  0
  1  2  2  0  0  0  0
 42 43  1  0  0  0  0
 43 51  1  0  0  0  0
 43 44  2  0  0  0  0
  8  9  1  0  0  0  0
  9 17  1  0  0  0  0
  9 10  2  0  0  0  0
 18 19  1  0  0  0  0
 19 41  1  0  0  0  0
 19 20  2  0  0  0  0
 42 45  1  0  0  0  0
  8 11  1  0  0  0  0
 51 52  1  0  0  0  0
 18 21  1  0  0  0  0
 41 42  1  0  0  0  0
  7  8  1  0  0  0  0
 17 18  1  0  0  0  0
 29 39  1  0  0  0  0
 30 40  1  0  0  0  0
 27 37  1  0  0  0  0
 28 38  1  0  0  0  0
 23 35  1  0  0  0  0
  3  4  1  0  0  0  0
  3  5  1  0  0  0  0
  3  6  1  0  0  0  0
 45 48  1  0  0  0  0
 45 49  1  0  0  0  0
 45 50  1  0  0  0  0
 11 14  1  0  0  0  0
 11 15  1  0  0  0  0
 11 16  1  0  0  0  0
 52 54  1  0  0  0  0
 52 55  1  0  0  0  0
 52 56  1  0  0  0  0
 21 33  1  0  0  0  0
 21 34  1  0  0  0  0
 42 47  1  0  0  0  0
  8 13  1  0  0  0  0
 18 32  1  0  0  0  0
 25 36  1  0  0  0  0
 51 53  1  0  0  0  0
  7 12  1  0  0  0  0
 41 46  1  0  0  0  0
 17 31  1  0  0  0  0
M  END
$$$$

  -OEChem-05262214473D

 56 57  0     1  0  0  0  0  0999 V2000
   -2.2900    0.3401    4.1553 C   0  0  0  0  0  0  0  0  0  0  0  0
   -1.3426   -0.2746    3.6796 O   0  0  0  0  0  0  0  0  0  0  0  0
   -2.7219    0.0577    5.5560 C   0  0  0  0  0  0  0  0  0  0  0  0
   -3.4815   -0.7386    5.6094 H   0  0  0  0  0  0  0  0  0  0  0  0
   -1.8906   -0.2899    6.1903 H   0  0  0  0  0  0  0  0  0  0  0  0
   -3.1599    0.9126    6.0956 H   0  0  0  0  0  0  0  0  0  0  0  0
   -3.0397    1.3125    3.5142 N   0  0  0  0  0  0  0  0  0  0  0  0
   -2.7928    1.7385    2.1618 C   0  0  2  0  0  0  0  0  0  0  0  0
   -1.4579    1.1532    1.7206 C   0  0  0  0  0  0  0  0  0  0  0  0
   -0.5858    0.8004    2.5118 O   0  0  0  0  0  0  0  0  0  0  0  0
   -2.7841    3.2553    2.0523 C   0  0  0  0  0  0  0  0  0  0  0  0
   -3.8047    1.7484    4.0260 H   0  0  0  0  0  0  0  0  0  0  0  0
   -3.5969    1.3201    1.5466 H   0  0  0  0  0  0  0  0  0  0  0  0
   -1.9850    3.6926    2.6620 H   0  0  0  0  0  0  0  0  0  0  0  0
   -2.6246    3.5776    1.0180 H   0  0  0  0  0  0  0  0  0  0  0  0
   -3.7342    3.6765    2.3981 H   0  0  0  0  0  0  0  0  0  0  0  0
   -1.3352    1.1101    0.3372 N   0  0  0  0  0  0  0  0  0  0  0  0
   -0.1579    0.6093   -0.3265 C   0  0  2  0  0  0  0  0  0  0  0  0
   -0.4025    0.7246   -1.8268 C   0  0  0  0  0  0  0  0  0  0  0  0
   -0.9528   -0.1558   -2.4847 O   0  0  0  0  0  0  0  0  0  0  0  0
    0.1469   -0.8443    0.0536 C   0  0  0  0  0  0  0  0  0  0  0  0
    0.5505   -0.9970    1.4998 C   0  0  0  0  0  0  0  0  0  0  0  0
   -0.2825   -1.3618    2.5321 C   0  0  0  0  0  0  0  0  0  0  0  0
    1.8501   -0.7943    2.0429 C   0  0  0  0  0  0  0  0  0  0  0  0
    0.4591   -1.3886    3.6827 N   0  0  0  0  0  0  0  0  0  0  0  0
    1.7652   -1.0465    3.4138 C   0  0  0  0  0  0  0  0  0  0  0  0
    3.0943   -0.4194    1.4980 C   0  0  0  0  0  0  0  0  0  0  0  0
    2.8667   -0.9420    4.2706 C   0  0  0  0  0  0  0  0  0  0  0  0
    4.2048   -0.3109    2.3430 C   0  0  0  0  0  0  0  0  0  0  0  0
    4.0905   -0.5687    3.7076 C   0  0  0  0  0  0  0  0  0  0  0  0
   -2.1183    1.4068   -0.2401 H   0  0  0  0  0  0  0  0  0  0  0  0
    0.6664    1.2751   -0.0450 H   0  0  0  0  0  0  0  0  0  0  0  0
    0.9354   -1.2497   -0.5949 H   0  0  0  0  0  0  0  0  0  0  0  0
   -0.7299   -1.4800   -0.1276 H   0  0  0  0  0  0  0  0  0  0  0  0
   -1.3364   -1.6032    2.5526 H   0  0  0  0  0  0  0  0  0  0  0  0
    0.1004   -1.6254    4.5974 H   0  0  0  0  0  0  0  0  0  0  0  0
    3.1995   -0.2142    0.4365 H   0  0  0  0  0  0  0  0  0  0  0  0
    2.7789   -1.1435    5.3328 H   0  0  0  0  0  0  0  0  0  0  0  0
    5.1668   -0.0217    1.9286 H   0  0  0  0  0  0  0  0  0  0  0  0
    4.9660   -0.4785    4.3455 H   0  0  0  0  0  0  0  0  0  0  0  0
    0.0218    1.9466   -2.3300 N   0  0  0  0  0  0  0  0  0  0  0  0
   -0.1139    2.3233   -3.7187 C   0  0  2  0  0  0  0  0  0  0  0  0
    0.4425    1.1897   -4.5700 C   0  0  0  0  0  0  0  0  0  0  0  0
    1.2506    0.3664   -4.1455 O   0  0  0  0  0  0  0  0  0  0  0  0
    0.6097    3.6284   -4.0113 C   0  0  0  0  0  0  0  0  0  0  0  0
    0.4493    2.6095   -1.6900 H   0  0  0  0  0  0  0  0  0  0  0  0
   -1.1863    2.4342   -3.9130 H   0  0  0  0  0  0  0  0  0  0  0  0
    1.6855    3.5367   -3.8225 H   0  0  0  0  0  0  0  0  0  0  0  0
    0.4820    3.9271   -5.0570 H   0  0  0  0  0  0  0  0  0  0  0  0
    0.2285    4.4361   -3.3770 H   0  0  0  0  0  0  0  0  0  0  0  0
   -0.0364    1.2311   -5.8720 N   0  0  0  0  0  0  0  0  0  0  0  0
    0.3536    0.2701   -6.8771 C   0  0  0  0  0  0  0  0  0  0  0  0
   -0.7183    1.9379   -6.1313 H   0  0  0  0  0  0  0  0  0  0  0  0
    1.2196    0.6543   -7.4361 H   0  0  0  0  0  0  0  0  0  0  0  0
    0.6227   -0.6795   -6.3915 H   0  0  0  0  0  0  0  0  0  0  0  0
   -0.4848    0.1032   -7.5694 H   0  0  0  0  0  0  0  0  0  0  0  0
 29 30  2  0  0  0  0
 27 29  1  0  0  0  0
 28 30  1  0  0  0  0
 24 27  2  0  0  0  0
 26 28  2  0  0  0  0
 22 23  2  0  0  0  0
 23 25  1  0  0  0  0
 22 24  1  0  0  0  0
 24 26  1  0  0  0  0
 21 22  1  0  0  0  0
 25 26  1  0  0  0  0
  1  3  1  0  0  0  0
  1  7  1  0  0  0  0
  1  2  2  0  0  0  0
 42 43  1  0  0  0  0
 43 51  1  0  0  0  0
 43 44  2  0  0  0  0
  8  9  1  0  0  0  0
  9 17  1  0  0  0  0
  9 10  2  0  0  0  0
 18 19  1  0  0  0  0
 19 41  1  0  0  0  0
 19 20  2  0  0  0  0
 42 45  1  0  0  0  0
  8 11  1  0  0  0  0
 51 52  1  0  0  0  0
 18 21  1  0  0  0  0
 41 42  1  0  0  0  0
  7  8  1  0  0  0  0
 17 18  1  0  0  0  0
 29 39  1  0  0  0  0
 30 40  1  0  0  0  0
 27 37  1  0  0  0  0
 28 38  1  0  0  0  0
 23 35  1  0  0  0  0
  3  4  1  0  0  0  0
  3  5  1  0  0  0  0
  3  6  1  0  0  0  0
 45 48  1  0  0  0  0
 45 49  1  0  0  0  0
 45 50  1  0  0  0  0
 11 14  1  0  0  0  0
 11 15  1  0  0  0  0
 11 16  1  0  0  0  0
 52 54  1  0  0  0  0
 52 55  1  0  0  0  0
 52 56  1  0  0  0  0
 21 33  1  0  0  0  0
 21 34  1  0  0  0  0
 42 47  1  0  0  0  0
  8 13  1  0  0  0  0
 18 32  1  0  0  0  0
 25 36  1  0  0  0  0
 51 53  1  0  0  0  0
  7 12  1  0  0  0  0
 41 46  1  0  0  0  0
 17 31  1  0  0  0  0
M  END
$$$$

  -OEChem-05262214473D

 56 57  0     1  0  0  0  0  0999 V2000
   -2.2900    0.3401    4.1553 C   0  0  0  0  0  0  0  0  0  0  0  0
   -1.3426   -0.2746    3.6796 O   0  0  0  0  0  0  0  0  0  0  0  0
   -2.7219    0.0577    5.5560 C   0  0  0  0  0  0  0  0  0  0  0  0
   -3.4815   -0.7386    5.6094 H   0  0  0  0  0  0  0  0  0  0  0  0
   -1.8906   -0.2899    6.1903 H   0  0  0  0  0  0  0  0  0  0  0  0
   -3.1599    0.9126    6.0956 H   0  0  0  0  0  0  0  0  0  0  0  0
   -3.0397    1.3125    3.5142 N   0  0  0  0  0  0  0  0  0  0  0  0
   -2.7928    1.7385    2.1618 C   0  0  2  0  0  0  0  0  0  0  0  0
   -1.4579    1.1532    1.7206 C   0  0  0  0  0  0  0  0  0  0  0  0
   -0.5858    0.8004    2.5118 O   0  0  0  0  0  0  0  0  0  0  0  0
   -2.7841    3.2553    2.0523 C   0  0  0  0  0  0  0  0  0  0  0  0
   -3.8047    1.7484    4.0260 H   0  0  0  0  0  0  0  0  0  0  0  0
   -3.5969    1.3201    1.5466 H   0  0  0  0  0  0  0  0  0  0  0  0
   -1.9850    3.6926    2.6620 H   0  0  0  0  0  0  0  0  0  0  0  0
   -2.6246    3.5776    1.0180 H   0  0  0  0  0  0  0  0  0  0  0  0
   -3.7342    3.6765    2.3981 H   0  0  0  0  0  0  0  0  0  0  0  0
   -1.3352    1.1101    0.3372 N   0  0  0  0  0  0  0  0  0  0  0  0
   -0.1579    0.6093   -0.3265 C   0  0  2  0  0  0  0  0  0  0  0  0
   -0.4025    0.7246   -1.8268 C   0  0  0  0  0  0  0  0  0  0  0  0
   -1.1749   -0.0113   -2.4374 O   0  0  0  0  0  0  0  0  0  0  0  0
    0.1469   -0.8443    0.0536 C   0  0  0  0  0  0  0  0  0  0  0  0
    0.5505   -0.9970    1.4998 C   0  0  0  0  0  0  0  0  0  0  0  0
   -0.2825   -1.3618    2.5321 C   0  0  0  0  0  0  0  0  0  0  0  0
    1.8501   -0.7943    2.0429 C   0  0  0  0  0  0  0  0  0  0  0  0
    0.4591   -1.3886    3.6827 N   0  0  0  0  0  0  0  0  0  0  0  0
    1.7652   -1.0465    3.4138 C   0  0  0  0  0  0  0  0  0  0  0  0
    3.0943   -0.4194    1.4980 C   0  0  0  0  0  0  0  0  0  0  0  0
    2.8667   -0.9420    4.2706 C   0  0  0  0  0  0  0  0  0  0  0  0
    4.2048   -0.3109    2.3430 C   0  0  0  0  0  0  0  0  0  0  0  0
    4.0905   -0.5687    3.7076 C   0  0  0  0  0  0  0  0  0  0  0  0
   -2.1183    1.4068   -0.2401 H   0  0  0  0  0  0  0  0  0  0  0  0
    0.6664    1.2751   -0.0450 H   0  0  0  0  0  0  0  0  0  0  0  0
    0.9354   -1.2497   -0.5949 H   0  0  0  0  0  0  0  0  0  0  0  0
   -0.7299   -1.4800   -0.1276 H   0  0  0  0  0  0  0  0  0  0  0  0
   -1.3364   -1.6032    2.5526 H   0  0  0  0  0  0  0  0  0  0  0  0
    0.1004   -1.6254    4.5974 H   0  0  0  0  0  0  0  0  0  0  0  0
    3.1995   -0.2142    0.4365 H   0  0  0  0  0  0  0  0  0  0  0  0
    2.7789   -1.1435    5.3328 H   0  0  0  0  0  0  0  0  0  0  0  0
    5.1668   -0.0217    1.9286 H   0  0  0  0  0  0  0  0  0  0  0  0
    4.9660   -0.4785    4.3455 H   0  0  0  0  0  0  0  0  0  0  0  0
    0.3059    1.7773   -2.3894 N   0  0  0  0  0  0  0  0  0  0  0  0
    0.2358    2.1217   -3.7912 C   0  0  2  0  0  0  0  0  0  0  0  0
    0.4643    0.8514   -4.5996 C   0  0  0  0  0  0  0  0  0  0  0  0
    1.0468   -0.1337   -4.1507 O   0  0  0  0  0  0  0  0  0  0  0  0
    1.2600    3.1867   -4.1513 C   0  0  0  0  0  0  0  0  0  0  0  0
    0.9037    2.3337   -1.7853 H   0  0  0  0  0  0  0  0  0  0  0  0
   -0.7776    2.4949   -3.9749 H   0  0  0  0  0  0  0  0  0  0  0  0
    2.2815    2.8310   -3.9739 H   0  0  0  0  0  0  0  0  0  0  0  0
    1.1864    3.4670   -5.2072 H   0  0  0  0  0  0  0  0  0  0  0  0
    1.1127    4.0889   -3.5479 H   0  0  0  0  0  0  0  0  0  0  0  0
   -0.0207    0.9629   -5.8952 N   0  0  0  0  0  0  0  0  0  0  0  0
    0.0868   -0.1043   -6.8624 C   0  0  0  0  0  0  0  0  0  0  0  0
   -0.5067    1.8096   -6.1756 H   0  0  0  0  0  0  0  0  0  0  0  0
    1.0078    0.0242   -7.4500 H   0  0  0  0  0  0  0  0  0  0  0  0
    0.1177   -1.0714   -6.3393 H   0  0  0  0  0  0  0  0  0  0  0  0
   -0.7835   -0.0787   -7.5347 H   0  0  0  0  0  0  0  0  0  0  0  0
 29 30  2  0  0  0  0
 27 29  1  0  0  0  0
 28 30  1  0  0  0  0
 24 27  2  0  0  0  0
 26 28  2  0  0  0  0
 22 23  2  0  0  0  0
 23 25  1  0  0  0  0
 22 24  1  0  0  0  0
 24 26  1  0  0  0  0
 21 22  1  0  0  0  0
 25 26  1  0  0  0  0
  1  3  1  0  0  0  0
  1  7  1  0  0  0  0
  1  2  2  0  0  0  0
 42 43  1  0  0  0  0
 43 51  1  0  0  0  0
 43 44  2  0  0  0  0
  8  9  1  0  0  0  0
  9 17  1  0  0  0  0
  9 10  2  0  0  0  0
 18 19  1  0  0  0  0
 19 41  1  0  0  0  0
 19 20  2  0  0  0  0
 42 45  1  0  0  0  0
  8 11  1  0  0  0  0
 51 52  1  0  0  0  0
 18 21  1  0  0  0  0
 41 42  1  0  0  0  0
  7  8  1  0  0  0  0
 17 18  1  0  0  0  0
 29 39  1  0  0  0  0
 30 40  1  0  0  0  0
 27 37  1  0  0  0  0
 28 38  1  0  0  0  0
 23 35  1  0  0  0  0
  3  4  1  0  0  0  0
  3  5  1  0  0  0  0
  3  6  1  0  0  0  0
 45 48  1  0  0  0  0
 45 49  1  0  0  0  0
 45 50  1  0  0  0  0
 11 14  1  0  0  0  0
 11 15  1  0  0  0  0
 11 16  1  0  0  0  0
 52 54  1  0  0  0  0
 52 55  1  0  0  0  0
 52 56  1  0  0  0  0
 21 33  1  0  0  0  0
 21 34  1  0  0  0  0
 42 47  1  0  0  0  0
  8 13  1  0  0  0  0
 18 32  1  0  0  0  0
 25 36  1  0  0  0  0
 51 53  1  0  0  0  0
  7 12  1  0  0  0  0
 41 46  1  0  0  0  0
 17 31  1  0  0  0  0
M  END
$$$$

  -OEChem-05262214473D

 56 57  0     1  0  0  0  0  0999 V2000
   -2.2900    0.3401    4.1553 C   0  0  0  0  0  0  0  0  0  0  0  0
   -1.3426   -0.2746    3.6796 O   0  0  0  0  0  0  0  0  0  0  0  0
   -2.7219    0.0577    5.5560 C   0  0  0  0  0  0  0  0  0  0  0  0
   -3.4815   -0.7386    5.6094 H   0  0  0  0  0  0  0  0  0  0  0  0
   -1.8906   -0.2899    6.1903 H   0  0  0  0  0  0  0  0  0  0  0  0
   -3.1599    0.9126    6.0956 H   0  0  0  0  0  0  0  0  0  0  0  0
   -3.0397    1.3125    3.5142 N   0  0  0  0  0  0  0  0  0  0  0  0
   -2.7928    1.7385    2.1618 C   0  0  2  0  0  0  0  0  0  0  0  0
   -1.4579    1.1532    1.7206 C   0  0  0  0  0  0  0  0  0  0  0  0
   -0.5858    0.8004    2.5118 O   0  0  0  0  0  0  0  0  0  0  0  0
   -2.7841    3.2553    2.0523 C   0  0  0  0  0  0  0  0  0  0  0  0
   -3.8047    1.7484    4.0260 H   0  0  0  0  0  0  0  0  0  0  0  0
   -3.5969    1.3201    1.5466 H   0  0  0  0  0  0  0  0  0  0  0  0
   -1.9850    3.6926    2.6620 H   0  0  0  0  0  0  0  0  0  0  0  0
   -2.6246    3.5776    1.0180 H   0  0  0  0  0  0  0  0  0  0  0  0
   -3.7342    3.6765    2.3981 H   0  0  0  0  0  0  0  0  0  0  0  0
   -1.3352    1.1101    0.3372 N   0  0  0  0  0  0  0  0  0  0  0  0
   -0.1579    0.6093   -0.3265 C   0  0  2  0  0  0  0  0  0  0  0  0
   -0.4025    0.7246   -1.8268 C   0  0  0  0  0  0  0  0  0  0  0  0
   -1.3516    0.1869   -2.3933 O   0  0  0  0  0  0  0  0  0  0  0  0
    0.1469   -0.8443    0.0536 C   0  0  0  0  0  0  0  0  0  0  0  0
    0.5505   -0.9970    1.4998 C   0  0  0  0  0  0  0  0  0  0  0  0
   -0.2825   -1.3618    2.5321 C   0  0  0  0  0  0  0  0  0  0  0  0
    1.8501   -0.7943    2.0429 C   0  0  0  0  0  0  0  0  0  0  0  0
    0.4591   -1.3886    3.6827 N   0  0  0  0  0  0  0  0  0  0  0  0
    1.7652   -1.0465    3.4138 C   0  0  0  0  0  0  0  0  0  0  0  0
    3.0943   -0.4194    1.4980 C   0  0  0  0  0  0  0  0  0  0  0  0
    2.8667   -0.9420    4.2706 C   0  0  0  0  0  0  0  0  0  0  0  0
    4.2048   -0.3109    2.3430 C   0  0  0  0  0  0  0  0  0  0  0  0
    4.0905   -0.5687    3.7076 C   0  0  0  0  0  0  0  0  0  0  0  0
   -2.1183    1.4068   -0.2401 H   0  0  0  0  0  0  0  0  0  0  0  0
    0.6664    1.2751   -0.0450 H   0  0  0  0  0  0  0  0  0  0  0  0
    0.9354   -1.2497   -0.5949 H   0  0  0  0  0  0  0  0  0  0  0  0
   -0.7299   -1.4800   -0.1276 H   0  0  0  0  0  0  0  0  0  0  0  0
   -1.3364   -1.6032    2.5526 H   0  0  0  0  0  0  0  0  0  0  0  0
    0.1004   -1.6254    4.5974 H   0  0  0  0  0  0  0  0  0  0  0  0
    3.1995   -0.2142    0.4365 H   0  0  0  0  0  0  0  0  0  0  0  0
    2.7789   -1.1435    5.3328 H   0  0  0  0  0  0  0  0  0  0  0  0
    5.1668   -0.0217    1.9286 H   0  0  0  0  0  0  0  0  0  0  0  0
    4.9660   -0.4785    4.3455 H   0  0  0  0  0  0  0  0  0  0  0  0
    0.5361    1.5390   -2.4452 N   0  0  0  0  0  0  0  0  0  0  0  0
    0.5208    1.8350   -3.8598 C   0  0  2  0  0  0  0  0  0  0  0  0
    0.3985    0.5178   -4.6145 C   0  0  0  0  0  0  0  0  0  0  0  0
    0.7224   -0.5649   -4.1310 O   0  0  0  0  0  0  0  0  0  0  0  0
    1.7729    2.5885   -4.2809 C   0  0  0  0  0  0  0  0  0  0  0  0
    1.2706    1.9476   -1.8748 H   0  0  0  0  0  0  0  0  0  0  0  0
   -0.3686    2.4469   -4.0453 H   0  0  0  0  0  0  0  0  0  0  0  0
    2.6744    1.9911   -4.1025 H   0  0  0  0  0  0  0  0  0  0  0  0
    1.7466    2.8369   -5.3470 H   0  0  0  0  0  0  0  0  0  0  0  0
    1.8750    3.5212   -3.7158 H   0  0  0  0  0  0  0  0  0  0  0  0
   -0.0744    0.6988   -5.9067 N   0  0  0  0  0  0  0  0  0  0  0  0
   -0.2659   -0.3974   -6.8275 C   0  0  0  0  0  0  0  0  0  0  0  0
   -0.3359    1.6298   -6.2173 H   0  0  0  0  0  0  0  0  0  0  0  0
    0.6425   -0.5312   -7.4332 H   0  0  0  0  0  0  0  0  0  0  0  0
   -0.4690   -1.3192   -6.2627 H   0  0  0  0  0  0  0  0  0  0  0  0
   -1.1176   -0.1768   -7.4878 H   0  0  0  0  0  0  0  0  0  0  0  0
 29 30  2  0  0  0  0
 27 29  1  0  0  0  0
 28 30  1  0  0  0  0
 24 27  2  0  0  0  0
 26 28  2  0  0  0  0
 22 23  2  0  0  0  0
 23 25  1  0  0  0  0
 22 24  1  0  0  0  0
 24 26  1  0  0  0  0
 21 22  1  0  0  0  0
 25 26  1  0  0  0  0
  1  3  1  0  0  0  0
  1  7  1  0  0  0  0
  1  2  2  0  0  0  0
 42 43  1  0  0  0  0
 43 51  1  0  0  0  0
 43 44  2  0  0  0  0
  8  9  1  0  0  0  0
  9 17  1  0  0  0  0
  9 10  2  0  0  0  0
 18 19  1  0  0  0  0
 19 41  1  0  0  0  0
 19 20  2  0  0  0  0
 42 45  1  0  0  0  0
  8 11  1  0  0  0  0
 51 52  1  0  0  0  0
 18 21  1  0  0  0  0
 41 42  1  0  0  0  0
  7  8  1  0  0  0  0
 17 18  1  0  0  0  0
 29 39  1  0  0  0  0
 30 40  1  0  0  0  0
 27 37  1  0  0  0  0
 28 38  1  0  0  0  0
 23 35  1  0  0  0  0
  3  4  1  0  0  0  0
  3  5  1  0  0  0  0
  3  6  1  0  0  0  0
 45 48  1  0  0  0  0
 45 49  1  0  0  0  0
 45 50  1  0  0  0  0
 11 14  1  0  0  0  0
 11 15  1  0  0  0  0
 11 16  1  0  0  0  0
 52 54  1  0  0  0  0
 52 55  1  0  0  0  0
 52 56  1  0  0  0  0
 21 33  1  0  0  0  0
 21 34  1  0  0  0  0
 42 47  1  0  0  0  0
  8 13  1  0  0  0  0
 18 32  1  0  0  0  0
 25 36  1  0  0  0  0
 51 53  1  0  0  0  0
  7 12  1  0  0  0  0
 41 46  1  0  0  0  0
 17 31  1  0  0  0  0
M  END
$$$$

  -OEChem-05262214473D

 56 57  0     1  0  0  0  0  0999 V2000
   -2.2900    0.3401    4.1553 C   0  0  0  0  0  0  0  0  0  0  0  0
   -1.3426   -0.2746    3.6796 O   0  0  0  0  0  0  0  0  0  0  0  0
   -2.7219    0.0577    5.5560 C   0  0  0  0  0  0  0  0  0  0  0  0
   -3.4815   -0.7386    5.6094 H   0  0  0  0  0  0  0  0  0  0  0  0
   -1.8906   -0.2899    6.1903 H   0  0  0  0  0  0  0  0  0  0  0  0
   -3.1599    0.9126    6.0956 H   0  0  0  0  0  0  0  0  0  0  0  0
   -3.0397    1.3125    3.5142 N   0  0  0  0  0  0  0  0  0  0  0  0
   -2.7928    1.7385    2.1618 C   0  0  2  0  0  0  0  0  0  0  0  0
   -1.4579    1.1532    1.7206 C   0  0  0  0  0  0  0  0  0  0  0  0
   -0.5858    0.8004    2.5118 O   0  0  0  0  0  0  0  0  0  0  0  0
   -2.7841    3.2553    2.0523 C   0  0  0  0  0  0  0  0  0  0  0  0
   -3.8047    1.7484    4.0260 H   0  0  0  0  0  0  0  0  0  0  0  0
   -3.5969    1.3201    1.5466 H   0  0  0  0  0  0  0  0  0  0  0  0
   -1.9850    3.6926    2.6620 H   0  0  0  0  0  0  0  0  0  0  0  0
   -2.6246    3.5776    1.0180 H   0  0  0  0  0  0  0  0  0  0  0  0
   -3.7342    3.6765    2.3981 H   0  0  0  0  0  0  0  0  0  0  0  0
   -1.3352    1.1101    0.3372 N   0  0  0  0  0  0  0  0  0  0  0  0
   -0.1579    0.6093   -0.3265 C   0  0  2  0  0  0  0  0  0  0  0  0
   -0.4025    0.7246   -1.8268 C   0  0  0  0  0  0  0  0  0  0  0  0
   -1.4710    0.4252   -2.3556 O   0  0  0  0  0  0  0  0  0  0  0  0
    0.1469   -0.8443    0.0536 C   0  0  0  0  0  0  0  0  0  0  0  0
    0.5505   -0.9970    1.4998 C   0  0  0  0  0  0  0  0  0  0  0  0
   -0.2825   -1.3618    2.5321 C   0  0  0  0  0  0  0  0  0  0  0  0
    1.8501   -0.7943    2.0429 C   0  0  0  0  0  0  0  0  0  0  0  0
    0.4591   -1.3886    3.6827 N   0  0  0  0  0  0  0  0  0  0  0  0
    1.7652   -1.0465    3.4138 C   0  0  0  0  0  0  0  0  0  0  0  0
    3.0943   -0.4194    1.4980 C   0  0  0  0  0  0  0  0  0  0  0  0
    2.8667   -0.9420    4.2706 C   0  0  0  0  0  0  0  0  0  0  0  0
    4.2048   -0.3109    2.3430 C   0  0  0  0  0  0  0  0  0  0  0  0
    4.0905   -0.5687    3.7076 C   0  0  0  0  0  0  0  0  0  0  0  0
   -2.1183    1.4068   -0.2401 H   0  0  0  0  0  0  0  0  0  0  0  0
    0.6664    1.2751   -0.0450 H   0  0  0  0  0  0  0  0  0  0  0  0
    0.9354   -1.2497   -0.5949 H   0  0  0  0  0  0  0  0  0  0  0  0
   -0.7299   -1.4800   -0.1276 H   0  0  0  0  0  0  0  0  0  0  0  0
   -1.3364   -1.6032    2.5526 H   0  0  0  0  0  0  0  0  0  0  0  0
    0.1004   -1.6254    4.5974 H   0  0  0  0  0  0  0  0  0  0  0  0
    3.1995   -0.2142    0.4365 H   0  0  0  0  0  0  0  0  0  0  0  0
    2.7789   -1.1435    5.3328 H   0  0  0  0  0  0  0  0  0  0  0  0
    5.1668   -0.0217    1.9286 H   0  0  0  0  0  0  0  0  0  0  0  0
    4.9660   -0.4785    4.3455 H   0  0  0  0  0  0  0  0  0  0  0  0
    0.6966    1.2479   -2.4938 N   0  0  0  0  0  0  0  0  0  0  0  0
    0.7218    1.4825   -3.9196 C   0  0  2  0  0  0  0  0  0  0  0  0
    0.2497    0.2118   -4.6138 C   0  0  0  0  0  0  0  0  0  0  0  0
    0.2996   -0.8981   -4.0877 O   0  0  0  0  0  0  0  0  0  0  0  0
    2.1134    1.8747   -4.3913 C   0  0  0  0  0  0  0  0  0  0  0  0
    1.5248    1.4774   -1.9524 H   0  0  0  0  0  0  0  0  0  0  0  0
    0.0128    2.2934   -4.1193 H   0  0  0  0  0  0  0  0  0  0  0  0
    2.8375    1.0745   -4.1996 H   0  0  0  0  0  0  0  0  0  0  0  0
    2.1246    2.0798   -5.4668 H   0  0  0  0  0  0  0  0  0  0  0  0
    2.4634    2.7718   -3.8693 H   0  0  0  0  0  0  0  0  0  0  0  0
   -0.1937    0.4569   -5.9059 N   0  0  0  0  0  0  0  0  0  0  0  0
   -0.6806   -0.5892   -6.7746 C   0  0  0  0  0  0  0  0  0  0  0  0
   -0.2175    1.4110   -6.2534 H   0  0  0  0  0  0  0  0  0  0  0  0
    0.1485   -0.9738   -7.3867 H   0  0  0  0  0  0  0  0  0  0  0  0
   -1.0972   -1.4060   -6.1669 H   0  0  0  0  0  0  0  0  0  0  0  0
   -1.4644   -0.1846   -7.4319 H   0  0  0  0  0  0  0  0  0  0  0  0
 29 30  2  0  0  0  0
 27 29  1  0  0  0  0
 28 30  1  0  0  0  0
 24 27  2  0  0  0  0
 26 28  2  0  0  0  0
 22 23  2  0  0  0  0
 23 25  1  0  0  0  0
 22 24  1  0  0  0  0
 24 26  1  0  0  0  0
 21 22  1  0  0  0  0
 25 26  1  0  0  0  0
  1  3  1  0  0  0  0
  1  7  1  0  0  0  0
  1  2  2  0  0  0  0
 42 43  1  0  0  0  0
 43 51  1  0  0  0  0
 43 44  2  0  0  0  0
  8  9  1  0  0  0  0
  9 17  1  0  0  0  0
  9 10  2  0  0  0  0
 18 19  1  0  0  0  0
 19 41  1  0  0  0  0
 19 20  2  0  0  0  0
 42 45  1  0  0  0  0
  8 11  1  0  0  0  0
 51 52  1  0  0  0  0
 18 21  1  0  0  0  0
 41 42  1  0  0  0  0
  7  8  1  0  0  0  0
 17 18  1  0  0  0  0
 29 39  1  0  0  0  0
 30 40  1  0  0  0  0
 27 37  1  0  0  0  0
 28 38  1  0  0  0  0
 23 35  1  0  0  0  0
  3  4  1  0  0  0  0
  3  5  1  0  0  0  0
  3  6  1  0  0  0  0
 45 48  1  0  0  0  0
 45 49  1  0  0  0  0
 45 50  1  0  0  0  0
 11 14  1  0  0  0  0
 11 15  1  0  0  0  0
 11 16  1  0  0  0  0
 52 54  1  0  0  0  0
 52 55  1  0  0  0  0
 52 56  1  0  0  0  0
 21 33  1  0  0  0  0
 21 34  1  0  0  0  0
 42 47  1  0  0  0  0
  8 13  1  0  0  0  0
 18 32  1  0  0  0  0
 25 36  1  0  0  0  0
 51 53  1  0  0  0  0
  7 12  1  0  0  0  0
 41 46  1  0  0  0  0
 17 31  1  0  0  0  0
M  END
$$$$

  -OEChem-05262214473D

 56 57  0     1  0  0  0  0  0999 V2000
   -2.2900    0.3401    4.1553 C   0  0  0  0  0  0  0  0  0  0  0  0
   -1.3426   -0.2746    3.6796 O   0  0  0  0  0  0  0  0  0  0  0  0
   -2.7219    0.0577    5.5560 C   0  0  0  0  0  0  0  0  0  0  0  0
   -3.4815   -0.7386    5.6094 H   0  0  0  0  0  0  0  0  0  0  0  0
   -1.8906   -0.2899    6.1903 H   0  0  0  0  0  0  0  0  0  0  0  0
   -3.1599    0.9126    6.0956 H   0  0  0  0  0  0  0  0  0  0  0  0
   -3.0397    1.3125    3.5142 N   0  0  0  0  0  0  0  0  0  0  0  0
   -2.7928    1.7385    2.1618 C   0  0  2  0  0  0  0  0  0  0  0  0
   -1.4579    1.1532    1.7206 C   0  0  0  0  0  0  0  0  0  0  0  0
   -0.5858    0.8004    2.5118 O   0  0  0  0  0  0  0  0  0  0  0  0
   -2.7841    3.2553    2.0523 C   0  0  0  0  0  0  0  0  0  0  0  0
   -3.8047    1.7484    4.0260 H   0  0  0  0  0  0  0  0  0  0  0  0
   -3.5969    1.3201    1.5466 H   0  0  0  0  0  0  0  0  0  0  0  0
   -1.9850    3.6926    2.6620 H   0  0  0  0  0  0  0  0  0  0  0  0
   -2.6246    3.5776    1.0180 H   0  0  0  0  0  0  0  0  0  0  0  0
   -3.7342    3.6765    2.3981 H   0  0  0  0  0  0  0  0  0  0  0  0
   -1.3352    1.1101    0.3372 N   0  0  0  0  0  0  0  0  0  0  0  0
   -0.1579    0.6093   -0.3265 C   0  0  2  0  0  0  0  0  0  0  0  0
   -0.4025    0.7246   -1.8268 C   0  0  0  0  0  0  0  0  0  0  0  0
   -1.5249    0.6873   -2.3266 O   0  0  0  0  0  0  0  0  0  0  0  0
    0.1469   -0.8443    0.0536 C   0  0  0  0  0  0  0  0  0  0  0  0
    0.5505   -0.9970    1.4998 C   0  0  0  0  0  0  0  0  0  0  0  0
   -0.2825   -1.3618    2.5321 C   0  0  0  0  0  0  0  0  0  0  0  0
    1.8501   -0.7943    2.0429 C   0  0  0  0  0  0  0  0  0  0  0  0
    0.4591   -1.3886    3.6827 N   0  0  0  0  0  0  0  0  0  0  0  0
    1.7652   -1.0465    3.4138 C   0  0  0  0  0  0  0  0  0  0  0  0
    3.0943   -0.4194    1.4980 C   0  0  0  0  0  0  0  0  0  0  0  0
    2.8667   -0.9420    4.2706 C   0  0  0  0  0  0  0  0  0  0  0  0
    4.2048   -0.3109    2.3430 C   0  0  0  0  0  0  0  0  0  0  0  0
    4.0905   -0.5687    3.7076 C   0  0  0  0  0  0  0  0  0  0  0  0
   -2.1183    1.4068   -0.2401 H   0  0  0  0  0  0  0  0  0  0  0  0
    0.6664    1.2751   -0.0450 H   0  0  0  0  0  0  0  0  0  0  0  0
    0.9354   -1.2497   -0.5949 H   0  0  0  0  0  0  0  0  0  0  0  0
   -0.7299   -1.4800   -0.1276 H   0  0  0  0  0  0  0  0  0  0  0  0
   -1.3364   -1.6032    2.5526 H   0  0  0  0  0  0  0  0  0  0  0  0
    0.1004   -1.6254    4.5974 H   0  0  0  0  0  0  0  0  0  0  0  0
    3.1995   -0.2142    0.4365 H   0  0  0  0  0  0  0  0  0  0  0  0
    2.7789   -1.1435    5.3328 H   0  0  0  0  0  0  0  0  0  0  0  0
    5.1668   -0.0217    1.9286 H   0  0  0  0  0  0  0  0  0  0  0  0
    4.9660   -0.4785    4.3455 H   0  0  0  0  0  0  0  0  0  0  0  0
    0.7765    0.9237   -2.5317 N   0  0  0  0  0  0  0  0  0  0  0  0
    0.8250    1.0884   -3.9667 C   0  0  2  0  0  0  0  0  0  0  0  0
    0.0281   -0.0459   -4.5975 C   0  0  0  0  0  0  0  0  0  0  0  0
   -0.1928   -1.1104   -4.0237 O   0  0  0  0  0  0  0  0  0  0  0  0
    2.2583    1.0938   -4.4749 C   0  0  0  0  0  0  0  0  0  0  0  0
    1.6492    0.9553   -2.0128 H   0  0  0  0  0  0  0  0  0  0  0  0
    0.3407    2.0449   -4.1919 H   0  0  0  0  0  0  0  0  0  0  0  0
    2.7597    0.1435   -4.2584 H   0  0  0  0  0  0  0  0  0  0  0  0
    2.2945    1.2473   -5.5585 H   0  0  0  0  0  0  0  0  0  0  0  0
    2.8379    1.8916   -3.9980 H   0  0  0  0  0  0  0  0  0  0  0  0
   -0.3705    0.2536   -5.8927 N   0  0  0  0  0  0  0  0  0  0  0  0
   -1.1290   -0.6666   -6.7075 C   0  0  0  0  0  0  0  0  0  0  0  0
   -0.1596    1.1680   -6.2815 H   0  0  0  0  0  0  0  0  0  0  0  0
   -0.4405   -1.2736   -7.3137 H   0  0  0  0  0  0  0  0  0  0  0  0
   -1.7243   -1.3258   -6.0585 H   0  0  0  0  0  0  0  0  0  0  0  0
   -1.8003   -0.1014   -7.3707 H   0  0  0  0  0  0  0  0  0  0  0  0
 29 30  2  0  0  0  0
 27 29  1  0  0  0  0
 28 30  1  0  0  0  0
 24 27  2  0  0  0  0
 26 28  2  0  0  0  0
 22 23  2  0  0  0  0
 23 25  1  0  0  0  0
 22 24  1  0  0  0  0
 24 26  1  0  0  0  0
 21 22  1  0  0  0  0
 25 26  1  0  0  0  0
  1  3  1  0  0  0  0
  1  7  1  0  0  0  0
  1  2  2  0  0  0  0
 42 43  1  0  0  0  0
 43 51  1  0  0  0  0
 43 44  2  0  0  0  0
  8  9  1  0  0  0  0
  9 17  1  0  0  0  0
  9 10  2  0  0  0  0
 18 19  1  0  0  0  0
 19 41  1  0  0  0  0
 19 20  2  0  0  0  0
 42 45  1  0  0  0  0
  8 11  1  0  0  0  0
 51 52  1  0  0  0  0
 18 21  1  0  0  0  0
 41 42  1  0  0  0  0
  7  8  1  0  0  0  0
 17 18  1  0  0  0  0
 29 39  1  0  0  0  0
 30 40  1  0  0  0  0
 27 37  1  0  0  0  0
 28 38  1  0  0  0  0
 23 35  1  0  0  0  0
  3  4  1  0  0  0  0
  3  5  1  0  0  0  0
  3  6  1  0  0  0  0
 45 48  1  0  0  0  0
 45 49  1  0  0  0  0
 45 50  1  0  0  0  0
 11 14  1  0  0  0  0
 11 15  1  0  0  0  0
 11 16  1  0  0  0  0
 52 54  1  0  0  0  0
 52 55  1  0  0  0  0
 52 56  1  0  0  0  0
 21 33  1  0  0  0  0
 21 34  1  0  0  0  0
 42 47  1  0  0  0  0
  8 13  1  0  0  0  0
 18 32  1  0  0  0  0
 25 36  1  0  0  0  0
 51 53  1  0  0  0  0
  7 12  1  0  0  0  0
 41 46  1  0  0  0  0
 17 31  1  0  0  0  0
M  END
$$$$

  -OEChem-05262214473D

 56 57  0     1  0  0  0  0  0999 V2000
   -2.2900    0.3401    4.1553 C   0  0  0  0  0  0  0  0  0  0  0  0
   -1.3426   -0.2746    3.6796 O   0  0  0  0  0  0  0  0  0  0  0  0
   -2.7219    0.0577    5.5560 C   0  0  0  0  0  0  0  0  0  0  0  0
   -3.4815   -0.7386    5.6094 H   0  0  0  0  0  0  0  0  0  0  0  0
   -1.8906   -0.2899    6.1903 H   0  0  0  0  0  0  0  0  0  0  0  0
   -3.1599    0.9126    6.0956 H   0  0  0  0  0  0  0  0  0  0  0  0
   -3.0397    1.3125    3.5142 N   0  0  0  0  0  0  0  0  0  0  0  0
   -2.7928    1.7385    2.1618 C   0  0  2  0  0  0  0  0  0  0  0  0
   -1.4579    1.1532    1.7206 C   0  0  0  0  0  0  0  0  0  0  0  0
   -0.5858    0.8004    2.5118 O   0  0  0  0  0  0  0  0  0  0  0  0
   -2.7841    3.2553    2.0523 C   0  0  0  0  0  0  0  0  0  0  0  0
   -3.8047    1.7484    4.0260 H   0  0  0  0  0  0  0  0  0  0  0  0
   -3.5969    1.3201    1.5466 H   0  0  0  0  0  0  0  0  0  0  0  0
   -1.9850    3.6926    2.6620 H   0  0  0  0  0  0  0  0  0  0  0  0
   -2.6246    3.5776    1.0180 H   0  0  0  0  0  0  0  0  0  0  0  0
   -3.7342    3.6765    2.3981 H   0  0  0  0  0  0  0  0  0  0  0  0
   -1.3352    1.1101    0.3372 N   0  0  0  0  0  0  0  0  0  0  0  0
   -0.1579    0.6093   -0.3265 C   0  0  2  0  0  0  0  0  0  0  0  0
   -0.4025    0.7246   -1.8268 C   0  0  0  0  0  0  0  0  0  0  0  0
   -1.5096    0.9555   -2.3085 O   0  0  0  0  0  0  0  0  0  0  0  0
    0.1469   -0.8443    0.0536 C   0  0  0  0  0  0  0  0  0  0  0  0
    0.5505   -0.9970    1.4998 C   0  0  0  0  0  0  0  0  0  0  0  0
   -0.2825   -1.3618    2.5321 C   0  0  0  0  0  0  0  0  0  0  0  0
    1.8501   -0.7943    2.0429 C   0  0  0  0  0  0  0  0  0  0  0  0
    0.4591   -1.3886    3.6827 N   0  0  0  0  0  0  0  0  0  0  0  0
    1.7652   -1.0465    3.4138 C   0  0  0  0  0  0  0  0  0  0  0  0
    3.0943   -0.4194    1.4980 C   0  0  0  0  0  0  0  0  0  0  0  0
    2.8667   -0.9420    4.2706 C   0  0  0  0  0  0  0  0  0  0  0  0
    4.2048   -0.3109    2.3430 C   0  0  0  0  0  0  0  0  0  0  0  0
    4.0905   -0.5687    3.7076 C   0  0  0  0  0  0  0  0  0  0  0  0
   -2.1183    1.4068   -0.2401 H   0  0  0  0  0  0  0  0  0  0  0  0
    0.6664    1.2751   -0.0450 H   0  0  0  0  0  0  0  0  0  0  0  0
    0.9354   -1.2497   -0.5949 H   0  0  0  0  0  0  0  0  0  0  0  0
   -0.7299   -1.4800   -0.1276 H   0  0  0  0  0  0  0  0  0  0  0  0
   -1.3364   -1.6032    2.5526 H   0  0  0  0  0  0  0  0  0  0  0  0
    0.1004   -1.6254    4.5974 H   0  0  0  0  0  0  0  0  0  0  0  0
    3.1995   -0.2142    0.4365 H   0  0  0  0  0  0  0  0  0  0  0  0
    2.7789   -1.1435    5.3328 H   0  0  0  0  0  0  0  0  0  0  0  0
    5.1668   -0.0217    1.9286 H   0  0  0  0  0  0  0  0  0  0  0  0
    4.9660   -0.4785    4.3455 H   0  0  0  0  0  0  0  0  0  0  0  0
    0.7704    0.5887   -2.5565 N   0  0  0  0  0  0  0  0  0  0  0  0
    0.8233    0.6795   -3.9979 C   0  0  2  0  0  0  0  0  0  0  0  0
   -0.2513   -0.2377   -4.5667 C   0  0  0  0  0  0  0  0  0  0  0  0
   -0.7213   -1.1874   -3.9435 O   0  0  0  0  0  0  0  0  0  0  0  0
    2.1977    0.2992   -4.5262 C   0  0  0  0  0  0  0  0  0  0  0  0
    1.6351    0.4168   -2.0519 H   0  0  0  0  0  0  0  0  0  0  0  0
    0.5928    1.7183   -4.2580 H   0  0  0  0  0  0  0  0  0  0  0  0
    2.4463   -0.7384   -4.2751 H   0  0  0  0  0  0  0  0  0  0  0  0
    2.2447    0.3960   -5.6159 H   0  0  0  0  0  0  0  0  0  0  0  0
    2.9729    0.9407   -4.0931 H   0  0  0  0  0  0  0  0  0  0  0  0
   -0.5929    0.1029   -5.8680 N   0  0  0  0  0  0  0  0  0  0  0  0
   -1.5805   -0.6244   -6.6306 C   0  0  0  0  0  0  0  0  0  0  0  0
   -0.1662    0.9173   -6.2998 H   0  0  0  0  0  0  0  0  0  0  0  0
   -1.0843   -1.4101   -7.2192 H   0  0  0  0  0  0  0  0  0  0  0  0
   -2.3075   -1.0841   -5.9449 H   0  0  0  0  0  0  0  0  0  0  0  0
   -2.1023    0.0671   -7.3085 H   0  0  0  0  0  0  0  0  0  0  0  0
 29 30  2  0  0  0  0
 27 29  1  0  0  0  0
 28 30  1  0  0  0  0
 24 27  2  0  0  0  0
 26 28  2  0  0  0  0
 22 23  2  0  0  0  0
 23 25  1  0  0  0  0
 22 24  1  0  0  0  0
 24 26  1  0  0  0  0
 21 22  1  0  0  0  0
 25 26  1  0  0  0  0
  1  3  1  0  0  0  0
  1  7  1  0  0  0  0
  1  2  2  0  0  0  0
 42 43  1  0  0  0  0
 43 51  1  0  0  0  0
 43 44  2  0  0  0  0
  8  9  1  0  0  0  0
  9 17  1  0  0  0  0
  9 10  2  0  0  0  0
 18 19  1  0  0  0  0
 19 41  1  0  0  0  0
 19 20  2  0  0  0  0
 42 45  1  0  0  0  0
  8 11  1  0  0  0  0
 51 52  1  0  0  0  0
 18 21  1  0  0  0  0
 41 42  1  0  0  0  0
  7  8  1  0  0  0  0
 17 18  1  0  0  0  0
 29 39  1  0  0  0  0
 30 40  1  0  0  0  0
 27 37  1  0  0  0  0
 28 38  1  0  0  0  0
 23 35  1  0  0  0  0
  3  4  1  0  0  0  0
  3  5  1  0  0  0  0
  3  6  1  0  0  0  0
 45 48  1  0  0  0  0
 45 49  1  0  0  0  0
 45 50  1  0  0  0  0
 11 14  1  0  0  0  0
 11 15  1  0  0  0  0
 11 16  1  0  0  0  0
 52 54  1  0  0  0  0
 52 55  1  0  0  0  0
 52 56  1  0  0  0  0
 21 33  1  0  0  0  0
 21 34  1  0  0  0  0
 42 47  1  0  0  0  0
  8 13  1  0  0  0  0
 18 32  1  0  0  0  0
 25 36  1  0  0  0  0
 51 53  1  0  0  0  0
  7 12  1  0  0  0  0
 41 46  1  0  0  0  0
 17 31  1  0  0  0  0
M  END
$$$$

  -OEChem-05262214473D

 56 57  0     1  0  0  0  0  0999 V2000
   -2.2900    0.3401    4.1553 C   0  0  0  0  0  0  0  0  0  0  0  0
   -1.3426   -0.2746    3.6796 O   0  0  0  0  0  0  0  0  0  0  0  0
   -2.7219    0.0577    5.5560 C   0  0  0  0  0  0  0  0  0  0  0  0
   -3.4815   -0.7386    5.6094 H   0  0  0  0  0  0  0  0  0  0  0  0
   -1.8906   -0.2899    6.1903 H   0  0  0  0  0  0  0  0  0  0  0  0
   -3.1599    0.9126    6.0956 H   0  0  0  0  0  0  0  0  0  0  0  0
   -3.0397    1.3125    3.5142 N   0  0  0  0  0  0  0  0  0  0  0  0
   -2.7928    1.7385    2.1618 C   0  0  2  0  0  0  0  0  0  0  0  0
   -1.4579    1.1532    1.7206 C   0  0  0  0  0  0  0  0  0  0  0  0
   -0.5858    0.8004    2.5118 O   0  0  0  0  0  0  0  0  0  0  0  0
   -2.7841    3.2553    2.0523 C   0  0  0  0  0  0  0  0  0  0  0  0
   -3.8047    1.7484    4.0260 H   0  0  0  0  0  0  0  0  0  0  0  0
   -3.5969    1.3201    1.5466 H   0  0  0  0  0  0  0  0  0  0  0  0
   -1.9850    3.6926    2.6620 H   0  0  0  0  0  0  0  0  0  0  0  0
   -2.6246    3.5776    1.0180 H   0  0  0  0  0  0  0  0  0  0  0  0
   -3.7342    3.6765    2.3981 H   0  0  0  0  0  0  0  0  0  0  0  0
   -1.3352    1.1101    0.3372 N   0  0  0  0  0  0  0  0  0  0  0  0
   -0.1579    0.6093   -0.3265 C   0  0  2  0  0  0  0  0  0  0  0  0
   -0.2329    1.0617   -1.7804 C   0  0  0  0  0  0  0  0  0  0  0  0
   -1.1428    1.7637   -2.2166 O   0  0  0  0  0  0  0  0  0  0  0  0
   -0.0548   -0.9183   -0.2484 C   0  0  0  0  0  0  0  0  0  0  0  0
    0.1790   -1.4163    1.1570 C   0  0  0  0  0  0  0  0  0  0  0  0
   -0.7907   -1.8754    2.0183 C   0  0  0  0  0  0  0  0  0  0  0  0
    1.4302   -1.4990    1.8297 C   0  0  0  0  0  0  0  0  0  0  0  0
   -0.1786   -2.2340    3.1893 N   0  0  0  0  0  0  0  0  0  0  0  0
    1.1778   -2.0150    3.1026 C   0  0  0  0  0  0  0  0  0  0  0  0
    2.7573   -1.1834    1.4767 C   0  0  0  0  0  0  0  0  0  0  0  0
    2.1902   -2.2321    4.0440 C   0  0  0  0  0  0  0  0  0  0  0  0
    3.7803   -1.3953    2.4082 C   0  0  0  0  0  0  0  0  0  0  0  0
    3.4988   -1.9117    3.6715 C   0  0  0  0  0  0  0  0  0  0  0  0
   -2.1183    1.4068   -0.2401 H   0  0  0  0  0  0  0  0  0  0  0  0
    0.7011    1.0910    0.1554 H   0  0  0  0  0  0  0  0  0  0  0  0
    0.7470   -1.2796   -0.9065 H   0  0  0  0  0  0  0  0  0  0  0  0
   -0.9726   -1.3846   -0.6301 H   0  0  0  0  0  0  0  0  0  0  0  0
   -1.8611   -1.9781    1.9046 H   0  0  0  0  0  0  0  0  0  0  0  0
   -0.6531   -2.6059    4.0005 H   0  0  0  0  0  0  0  0  0  0  0  0
    2.9929   -0.7793    0.4963 H   0  0  0  0  0  0  0  0  0  0  0  0
    1.9722   -2.6350    5.0272 H   0  0  0  0  0  0  0  0  0  0  0  0
    4.8057   -1.1534    2.1418 H   0  0  0  0  0  0  0  0  0  0  0  0
    4.3087   -2.0683    4.3793 H   0  0  0  0  0  0  0  0  0  0  0  0
    0.8617    0.6295   -2.5162 N   0  0  0  0  0  0  0  0  0  0  0  0
    1.0499    0.9395   -3.9152 C   0  0  2  0  0  0  0  0  0  0  0  0
   -0.2387    0.5957   -4.6506 C   0  0  0  0  0  0  0  0  0  0  0  0
   -1.0649   -0.2050   -4.2178 O   0  0  0  0  0  0  0  0  0  0  0  0
    2.2286    0.1753   -4.4976 C   0  0  0  0  0  0  0  0  0  0  0  0
    1.5659    0.0669   -2.0479 H   0  0  0  0  0  0  0  0  0  0  0  0
    1.2306    2.0181   -3.9786 H   0  0  0  0  0  0  0  0  0  0  0  0
    2.0658   -0.9073   -4.4429 H   0  0  0  0  0  0  0  0  0  0  0  0
    2.3876    0.4328   -5.5500 H   0  0  0  0  0  0  0  0  0  0  0  0
    3.1492    0.4010   -3.9485 H   0  0  0  0  0  0  0  0  0  0  0  0
   -0.3370    1.2556   -5.8676 N   0  0  0  0  0  0  0  0  0  0  0  0
   -1.4618    1.0863   -6.7577 C   0  0  0  0  0  0  0  0  0  0  0  0
    0.3860    1.9160   -6.1378 H   0  0  0  0  0  0  0  0  0  0  0  0
   -1.2415    0.2862   -7.4796 H   0  0  0  0  0  0  0  0  0  0  0  0
   -2.3542    0.8175   -6.1735 H   0  0  0  0  0  0  0  0  0  0  0  0
   -1.6466    2.0266   -7.2977 H   0  0  0  0  0  0  0  0  0  0  0  0
 29 30  2  0  0  0  0
 27 29  1  0  0  0  0
 28 30  1  0  0  0  0
 24 27  2  0  0  0  0
 26 28  2  0  0  0  0
 22 23  2  0  0  0  0
 23 25  1  0  0  0  0
 22 24  1  0  0  0  0
 24 26  1  0  0  0  0
 21 22  1  0  0  0  0
 25 26  1  0  0  0  0
  1  3  1  0  0  0  0
  1  7  1  0  0  0  0
  1  2  2  0  0  0  0
 42 43  1  0  0  0  0
 43 51  1  0  0  0  0
 43 44  2  0  0  0  0
  8  9  1  0  0  0  0
  9 17  1  0  0  0  0
  9 10  2  0  0  0  0
 18 19  1  0  0  0  0
 19 41  1  0  0  0  0
 19 20  2  0  0  0  0
 42 45  1  0  0  0  0
  8 11  1  0  0  0  0
 51 52  1  0  0  0  0
 18 21  1  0  0  0  0
 41 42  1  0  0  0  0
  7  8  1  0  0  0  0
 17 18  1  0  0  0  0
 29 39  1  0  0  0  0
 30 40  1  0  0  0  0
 27 37  1  0  0  0  0
 28 38  1  0  0  0  0
 23 35  1  0  0  0  0
  3  4  1  0  0  0  0
  3  5  1  0  0  0  0
  3  6  1  0  0  0  0
 45 48  1  0  0  0  0
 45 49  1  0  0  0  0
 45 50  1  0  0  0  0
 11 14  1  0  0  0  0
 11 15  1  0  0  0  0
 11 16  1  0  0  0  0
 52 54  1  0  0  0  0
 52 55  1  0  0  0  0
 52 56  1  0  0  0  0
 21 33  1  0  0  0  0
 21 34  1  0  0  0  0
 42 47  1  0  0  0  0
  8 13  1  0  0  0  0
 18 32  1  0  0  0  0
 25 36  1  0  0  0  0
 51 53  1  0  0  0  0
  7 12  1  0  0  0  0
 41 46  1  0  0  0  0
 17 31  1  0  0  0  0
M  END
$$$$

  -OEChem-05262214473D

 56 57  0     1  0  0  0  0  0999 V2000
   -2.2900    0.3401    4.1553 C   0  0  0  0  0  0  0  0  0  0  0  0
   -1.3426   -0.2746    3.6796 O   0  0  0  0  0  0  0  0  0  0  0  0
   -2.7219    0.0577    5.5560 C   0  0  0  0  0  0  0  0  0  0  0  0
   -3.4815   -0.7386    5.6094 H   0  0  0  0  0  0  0  0  0  0  0  0
   -1.8906   -0.2899    6.1903 H   0  0  0  0  0  0  0  0  0  0  0  0
   -3.1599    0.9126    6.0956 H   0  0  0  0  0  0  0  0  0  0  0  0
   -3.0397    1.3125    3.5142 N   0  0  0  0  0  0  0  0  0  0  0  0
   -2.7928    1.7385    2.1618 C   0  0  2  0  0  0  0  0  0  0  0  0
   -1.4579    1.1532    1.7206 C   0  0  0  0  0  0  0  0  0  0  0  0
   -0.5858    0.8004    2.5118 O   0  0  0  0  0  0  0  0  0  0  0  0
   -2.7841    3.2553    2.0523 C   0  0  0  0  0  0  0  0  0  0  0  0
   -3.8047    1.7484    4.0260 H   0  0  0  0  0  0  0  0  0  0  0  0
   -3.5969    1.3201    1.5466 H   0  0  0  0  0  0  0  0  0  0  0  0
   -1.9850    3.6926    2.6620 H   0  0  0  0  0  0  0  0  0  0  0  0
   -2.6246    3.5776    1.0180 H   0  0  0  0  0  0  0  0  0  0  0  0
   -3.7342    3.6765    2.3981 H   0  0  0  0  0  0  0  0  0  0  0  0
   -1.3352    1.1101    0.3372 N   0  0  0  0  0  0  0  0  0  0  0  0
   -0.1579    0.6093   -0.3265 C   0  0  2  0  0  0  0  0  0  0  0  0
   -0.2329    1.0617   -1.7804 C   0  0  0  0  0  0  0  0  0  0  0  0
   -0.9732    1.9655   -2.1626 O   0  0  0  0  0  0  0  0  0  0  0  0
   -0.0548   -0.9183   -0.2484 C   0  0  0  0  0  0  0  0  0  0  0  0
    0.1790   -1.4163    1.1570 C   0  0  0  0  0  0  0  0  0  0  0  0
   -0.7907   -1.8754    2.0183 C   0  0  0  0  0  0  0  0  0  0  0  0
    1.4302   -1.4990    1.8297 C   0  0  0  0  0  0  0  0  0  0  0  0
   -0.1786   -2.2340    3.1893 N   0  0  0  0  0  0  0  0  0  0  0  0
    1.1778   -2.0150    3.1026 C   0  0  0  0  0  0  0  0  0  0  0  0
    2.7573   -1.1834    1.4767 C   0  0  0  0  0  0  0  0  0  0  0  0
    2.1902   -2.2321    4.0440 C   0  0  0  0  0  0  0  0  0  0  0  0
    3.7803   -1.3953    2.4082 C   0  0  0  0  0  0  0  0  0  0  0  0
    3.4988   -1.9117    3.6715 C   0  0  0  0  0  0  0  0  0  0  0  0
   -2.1183    1.4068   -0.2401 H   0  0  0  0  0  0  0  0  0  0  0  0
    0.7011    1.0910    0.1554 H   0  0  0  0  0  0  0  0  0  0  0  0
    0.7470   -1.2796   -0.9065 H   0  0  0  0  0  0  0  0  0  0  0  0
   -0.9726   -1.3846   -0.6301 H   0  0  0  0  0  0  0  0  0  0  0  0
   -1.8611   -1.9781    1.9046 H   0  0  0  0  0  0  0  0  0  0  0  0
   -0.6531   -2.6059    4.0005 H   0  0  0  0  0  0  0  0  0  0  0  0
    2.9929   -0.7793    0.4963 H   0  0  0  0  0  0  0  0  0  0  0  0
    1.9722   -2.6350    5.0272 H   0  0  0  0  0  0  0  0  0  0  0  0
    4.8057   -1.1534    2.1418 H   0  0  0  0  0  0  0  0  0  0  0  0
    4.3087   -2.0683    4.3793 H   0  0  0  0  0  0  0  0  0  0  0  0
    0.6603    0.3699   -2.5866 N   0  0  0  0  0  0  0  0  0  0  0  0
    0.8088    0.6194   -4.0024 C   0  0  2  0  0  0  0  0  0  0  0  0
   -0.5783    0.6027   -4.6309 C   0  0  0  0  0  0  0  0  0  0  0  0
   -1.5397    0.0326   -4.1194 O   0  0  0  0  0  0  0  0  0  0  0  0
    1.7136   -0.4144   -4.6545 C   0  0  0  0  0  0  0  0  0  0  0  0
    1.2387   -0.3479   -2.1601 H   0  0  0  0  0  0  0  0  0  0  0  0
    1.2441    1.6196   -4.1033 H   0  0  0  0  0  0  0  0  0  0  0  0
    1.2938   -1.4229   -4.5635 H   0  0  0  0  0  0  0  0  0  0  0  0
    1.8480   -0.2075   -5.7214 H   0  0  0  0  0  0  0  0  0  0  0  0
    2.7014   -0.4217   -4.1814 H   0  0  0  0  0  0  0  0  0  0  0  0
   -0.6062    1.2627   -5.8515 N   0  0  0  0  0  0  0  0  0  0  0  0
   -1.8042    1.3741   -6.6505 C   0  0  0  0  0  0  0  0  0  0  0  0
    0.2337    1.7228   -6.1901 H   0  0  0  0  0  0  0  0  0  0  0  0
   -1.8451    0.5420   -7.3688 H   0  0  0  0  0  0  0  0  0  0  0  0
   -2.6867    1.3361   -5.9949 H   0  0  0  0  0  0  0  0  0  0  0  0
   -1.7935    2.3292   -7.1960 H   0  0  0  0  0  0  0  0  0  0  0  0
 29 30  2  0  0  0  0
 27 29  1  0  0  0  0
 28 30  1  0  0  0  0
 24 27  2  0  0  0  0
 26 28  2  0  0  0  0
 22 23  2  0  0  0  0
 23 25  1  0  0  0  0
 22 24  1  0  0  0  0
 24 26  1  0  0  0  0
 21 22  1  0  0  0  0
 25 26  1  0  0  0  0
  1  3  1  0  0  0  0
  1  7  1  0  0  0  0
  1  2  2  0  0  0  0
 42 43  1  0  0  0  0
 43 51  1  0  0  0  0
 43 44  2  0  0  0  0
  8  9  1  0  0  0  0
  9 17  1  0  0  0  0
  9 10  2  0  0  0  0
 18 19  1  0  0  0  0
 19 41  1  0  0  0  0
 19 20  2  0  0  0  0
 42 45  1  0  0  0  0
  8 11  1  0  0  0  0
 51 52  1  0  0  0  0
 18 21  1  0  0  0  0
 41 42  1  0  0  0  0
  7  8  1  0  0  0  0
 17 18  1  0  0  0  0
 29 39  1  0  0  0  0
 30 40  1  0  0  0  0
 27 37  1  0  0  0  0
 28 38  1  0  0  0  0
 23 35  1  0  0  0  0
  3  4  1  0  0  0  0
  3  5  1  0  0  0  0
  3  6  1  0  0  0  0
 45 48  1  0  0  0  0
 45 49  1  0  0  0  0
 45 50  1  0  0  0  0
 11 14  1  0  0  0  0
 11 15  1  0  0  0  0
 11 16  1  0  0  0  0
 52 54  1  0  0  0  0
 52 55  1  0  0  0  0
 52 56  1  0  0  0  0
 21 33  1  0  0  0  0
 21 34  1  0  0  0  0
 42 47  1  0  0  0  0
  8 13  1  0  0  0  0
 18 32  1  0  0  0  0
 25 36  1  0  0  0  0
 51 53  1  0  0  0  0
  7 12  1  0  0  0  0
 41 46  1  0  0  0  0
 17 31  1  0  0  0  0
M  END
$$$$

  -OEChem-05262214473D

 56 57  0     1  0  0  0  0  0999 V2000
   -2.2900    0.3401    4.1553 C   0  0  0  0  0  0  0  0  0  0  0  0
   -1.3426   -0.2746    3.6796 O   0  0  0  0  0  0  0  0  0  0  0  0
   -2.7219    0.0577    5.5560 C   0  0  0  0  0  0  0  0  0  0  0  0
   -3.4815   -0.7386    5.6094 H   0  0  0  0  0  0  0  0  0  0  0  0
   -1.8906   -0.2899    6.1903 H   0  0  0  0  0  0  0  0  0  0  0  0
   -3.1599    0.9126    6.0956 H   0  0  0  0  0  0  0  0  0  0  0  0
   -3.0397    1.3125    3.5142 N   0  0  0  0  0  0  0  0  0  0  0  0
   -2.7928    1.7385    2.1618 C   0  0  2  0  0  0  0  0  0  0  0  0
   -1.4579    1.1532    1.7206 C   0  0  0  0  0  0  0  0  0  0  0  0
   -0.5858    0.8004    2.5118 O   0  0  0  0  0  0  0  0  0  0  0  0
   -2.7841    3.2553    2.0523 C   0  0  0  0  0  0  0  0  0  0  0  0
   -3.8047    1.7484    4.0260 H   0  0  0  0  0  0  0  0  0  0  0  0
   -3.5969    1.3201    1.5466 H   0  0  0  0  0  0  0  0  0  0  0  0
   -1.9850    3.6926    2.6620 H   0  0  0  0  0  0  0  0  0  0  0  0
   -2.6246    3.5776    1.0180 H   0  0  0  0  0  0  0  0  0  0  0  0
   -3.7342    3.6765    2.3981 H   0  0  0  0  0  0  0  0  0  0  0  0
   -1.3352    1.1101    0.3372 N   0  0  0  0  0  0  0  0  0  0  0  0
   -0.1579    0.6093   -0.3265 C   0  0  2  0  0  0  0  0  0  0  0  0
   -0.2329    1.0617   -1.7804 C   0  0  0  0  0  0  0  0  0  0  0  0
   -0.7553    2.1194   -2.1259 O   0  0  0  0  0  0  0  0  0  0  0  0
   -0.0548   -0.9183   -0.2484 C   0  0  0  0  0  0  0  0  0  0  0  0
    0.1790   -1.4163    1.1570 C   0  0  0  0  0  0  0  0  0  0  0  0
   -0.7907   -1.8754    2.0183 C   0  0  0  0  0  0  0  0  0  0  0  0
    1.4302   -1.4990    1.8297 C   0  0  0  0  0  0  0  0  0  0  0  0
   -0.1786   -2.2340    3.1893 N   0  0  0  0  0  0  0  0  0  0  0  0
    1.1778   -2.0150    3.1026 C   0  0  0  0  0  0  0  0  0  0  0  0
    2.7573   -1.1834    1.4767 C   0  0  0  0  0  0  0  0  0  0  0  0
    2.1902   -2.2321    4.0440 C   0  0  0  0  0  0  0  0  0  0  0  0
    3.7803   -1.3953    2.4082 C   0  0  0  0  0  0  0  0  0  0  0  0
    3.4988   -1.9117    3.6715 C   0  0  0  0  0  0  0  0  0  0  0  0
   -2.1183    1.4068   -0.2401 H   0  0  0  0  0  0  0  0  0  0  0  0
    0.7011    1.0910    0.1554 H   0  0  0  0  0  0  0  0  0  0  0  0
    0.7470   -1.2796   -0.9065 H   0  0  0  0  0  0  0  0  0  0  0  0
   -0.9726   -1.3846   -0.6301 H   0  0  0  0  0  0  0  0  0  0  0  0
   -1.8611   -1.9781    1.9046 H   0  0  0  0  0  0  0  0  0  0  0  0
   -0.6531   -2.6059    4.0005 H   0  0  0  0  0  0  0  0  0  0  0  0
    2.9929   -0.7793    0.4963 H   0  0  0  0  0  0  0  0  0  0  0  0
    1.9722   -2.6350    5.0272 H   0  0  0  0  0  0  0  0  0  0  0  0
    4.8057   -1.1534    2.1418 H   0  0  0  0  0  0  0  0  0  0  0  0
    4.3087   -2.0683    4.3793 H   0  0  0  0  0  0  0  0  0  0  0  0
    0.3963    0.1680   -2.6358 N   0  0  0  0  0  0  0  0  0  0  0  0
    0.4903    0.3686   -4.0640 C   0  0  2  0  0  0  0  0  0  0  0  0
   -0.9031    0.6936   -4.5859 C   0  0  0  0  0  0  0  0  0  0  0  0
   -1.9322    0.3806   -3.9908 O   0  0  0  0  0  0  0  0  0  0  0  0
    1.0584   -0.8589   -4.7590 C   0  0  0  0  0  0  0  0  0  0  0  0
    0.8117   -0.6693   -2.2380 H   0  0  0  0  0  0  0  0  0  0  0  0
    1.1492    1.2298   -4.2197 H   0  0  0  0  0  0  0  0  0  0  0  0
    0.4117   -1.7319   -4.6141 H   0  0  0  0  0  0  0  0  0  0  0  0
    1.1556   -0.6949   -5.8373 H   0  0  0  0  0  0  0  0  0  0  0  0
    2.0480   -1.1088   -4.3615 H   0  0  0  0  0  0  0  0  0  0  0  0
   -0.8632    1.3361   -5.8154 N   0  0  0  0  0  0  0  0  0  0  0  0
   -2.0557    1.7379   -6.5243 C   0  0  0  0  0  0  0  0  0  0  0  0
    0.0350    1.5732   -6.2264 H   0  0  0  0  0  0  0  0  0  0  0  0
   -2.3565    0.9396   -7.2187 H   0  0  0  0  0  0  0  0  0  0  0  0
   -2.8662    1.9214   -5.8036 H   0  0  0  0  0  0  0  0  0  0  0  0
   -1.8528    2.6590   -7.0903 H   0  0  0  0  0  0  0  0  0  0  0  0
 29 30  2  0  0  0  0
 27 29  1  0  0  0  0
 28 30  1  0  0  0  0
 24 27  2  0  0  0  0
 26 28  2  0  0  0  0
 22 23  2  0  0  0  0
 23 25  1  0  0  0  0
 22 24  1  0  0  0  0
 24 26  1  0  0  0  0
 21 22  1  0  0  0  0
 25 26  1  0  0  0  0
  1  3  1  0  0  0  0
  1  7  1  0  0  0  0
  1  2  2  0  0  0  0
 42 43  1  0  0  0  0
 43 51  1  0  0  0  0
 43 44  2  0  0  0  0
  8  9  1  0  0  0  0
  9 17  1  0  0  0  0
  9 10  2  0  0  0  0
 18 19  1  0  0  0  0
 19 41  1  0  0  0  0
 19 20  2  0  0  0  0
 42 45  1  0  0  0  0
  8 11  1  0  0  0  0
 51 52  1  0  0  0  0
 18 21  1  0  0  0  0
 41 42  1  0  0  0  0
  7  8  1  0  0  0  0
 17 18  1  0  0  0  0
 29 39  1  0  0  0  0
 30 40  1  0  0  0  0
 27 37  1  0  0  0  0
 28 38  1  0  0  0  0
 23 35  1  0  0  0  0
  3  4  1  0  0  0  0
  3  5  1  0  0  0  0
  3  6  1  0  0  0  0
 45 48  1  0  0  0  0
 45 49  1  0  0  0  0
 45 50  1  0  0  0  0
 11 14  1  0  0  0  0
 11 15  1  0  0  0  0
 11 16  1  0  0  0  0
 52 54  1  0  0  0  0
 52 55  1  0  0  0  0
 52 56  1  0  0  0  0
 21 33  1  0  0  0  0
 21 34  1  0  0  0  0
 42 47  1  0  0  0  0
  8 13  1  0  0  0  0
 18 32  1  0  0  0  0
 25 36  1  0  0  0  0
 51 53  1  0  0  0  0
  7 12  1  0  0  0  0
 41 46  1  0  0  0  0
 17 31  1  0  0  0  0
M  END
$$$$

  -OEChem-05262214473D

 56 57  0     1  0  0  0  0  0999 V2000
   -2.2900    0.3401    4.1553 C   0  0  0  0  0  0  0  0  0  0  0  0
   -1.3426   -0.2746    3.6796 O   0  0  0  0  0  0  0  0  0  0  0  0
   -2.7219    0.0577    5.5560 C   0  0  0  0  0  0  0  0  0  0  0  0
   -3.4815   -0.7386    5.6094 H   0  0  0  0  0  0  0  0  0  0  0  0
   -1.8906   -0.2899    6.1903 H   0  0  0  0  0  0  0  0  0  0  0  0
   -3.1599    0.9126    6.0956 H   0  0  0  0  0  0  0  0  0  0  0  0
   -3.0397    1.3125    3.5142 N   0  0  0  0  0  0  0  0  0  0  0  0
   -2.7928    1.7385    2.1618 C   0  0  2  0  0  0  0  0  0  0  0  0
   -1.4579    1.1532    1.7206 C   0  0  0  0  0  0  0  0  0  0  0  0
   -0.5858    0.8004    2.5118 O   0  0  0  0  0  0  0  0  0  0  0  0
   -2.7841    3.2553    2.0523 C   0  0  0  0  0  0  0  0  0  0  0  0
   -3.8047    1.7484    4.0260 H   0  0  0  0  0  0  0  0  0  0  0  0
   -3.5969    1.3201    1.5466 H   0  0  0  0  0  0  0  0  0  0  0  0
   -1.9850    3.6926    2.6620 H   0  0  0  0  0  0  0  0  0  0  0  0
   -2.6246    3.5776    1.0180 H   0  0  0  0  0  0  0  0  0  0  0  0
   -3.7342    3.6765    2.3981 H   0  0  0  0  0  0  0  0  0  0  0  0
   -1.3352    1.1101    0.3372 N   0  0  0  0  0  0  0  0  0  0  0  0
   -0.1579    0.6093   -0.3265 C   0  0  2  0  0  0  0  0  0  0  0  0
   -0.2329    1.0617   -1.7804 C   0  0  0  0  0  0  0  0  0  0  0  0
   -0.5041    2.2146   -2.1093 O   0  0  0  0  0  0  0  0  0  0  0  0
   -0.0548   -0.9183   -0.2484 C   0  0  0  0  0  0  0  0  0  0  0  0
    0.1790   -1.4163    1.1570 C   0  0  0  0  0  0  0  0  0  0  0  0
   -0.7907   -1.8754    2.0183 C   0  0  0  0  0  0  0  0  0  0  0  0
    1.4302   -1.4990    1.8297 C   0  0  0  0  0  0  0  0  0  0  0  0
   -0.1786   -2.2340    3.1893 N   0  0  0  0  0  0  0  0  0  0  0  0
    1.1778   -2.0150    3.1026 C   0  0  0  0  0  0  0  0  0  0  0  0
    2.7573   -1.1834    1.4767 C   0  0  0  0  0  0  0  0  0  0  0  0
    2.1902   -2.2321    4.0440 C   0  0  0  0  0  0  0  0  0  0  0  0
    3.7803   -1.3953    2.4082 C   0  0  0  0  0  0  0  0  0  0  0  0
    3.4988   -1.9117    3.6715 C   0  0  0  0  0  0  0  0  0  0  0  0
   -2.1183    1.4068   -0.2401 H   0  0  0  0  0  0  0  0  0  0  0  0
    0.7011    1.0910    0.1554 H   0  0  0  0  0  0  0  0  0  0  0  0
    0.7470   -1.2796   -0.9065 H   0  0  0  0  0  0  0  0  0  0  0  0
   -0.9726   -1.3846   -0.6301 H   0  0  0  0  0  0  0  0  0  0  0  0
   -1.8611   -1.9781    1.9046 H   0  0  0  0  0  0  0  0  0  0  0  0
   -0.6531   -2.6059    4.0005 H   0  0  0  0  0  0  0  0  0  0  0  0
    2.9929   -0.7793    0.4963 H   0  0  0  0  0  0  0  0  0  0  0  0
    1.9722   -2.6350    5.0272 H   0  0  0  0  0  0  0  0  0  0  0  0
    4.8057   -1.1534    2.1418 H   0  0  0  0  0  0  0  0  0  0  0  0
    4.3087   -2.0683    4.3793 H   0  0  0  0  0  0  0  0  0  0  0  0
    0.0877    0.0375   -2.6605 N   0  0  0  0  0  0  0  0  0  0  0  0
    0.1159    0.2042   -4.0958 C   0  0  2  0  0  0  0  0  0  0  0  0
   -1.1910    0.8621   -4.5186 C   0  0  0  0  0  0  0  0  0  0  0  0
   -2.2155    0.8152   -3.8410 O   0  0  0  0  0  0  0  0  0  0  0  0
    0.3079   -1.1278   -4.8040 C   0  0  0  0  0  0  0  0  0  0  0  0
    0.3139   -0.8753   -2.2765 H   0  0  0  0  0  0  0  0  0  0  0  0
    0.9524    0.8751   -4.3199 H   0  0  0  0  0  0  0  0  0  0  0  0
   -0.5206   -1.8133   -4.5914 H   0  0  0  0  0  0  0  0  0  0  0  0
    0.3576   -0.9963   -5.8899 H   0  0  0  0  0  0  0  0  0  0  0  0
    1.2335   -1.6135   -4.4765 H   0  0  0  0  0  0  0  0  0  0  0  0
   -1.0905    1.4710   -5.7617 N   0  0  0  0  0  0  0  0  0  0  0  0
   -2.1991    2.1530   -6.3877 C   0  0  0  0  0  0  0  0  0  0  0  0
   -0.1967    1.4773   -6.2443 H   0  0  0  0  0  0  0  0  0  0  0  0
   -2.7408    1.4518   -7.0395 H   0  0  0  0  0  0  0  0  0  0  0  0
   -2.8803    2.5335   -5.6123 H   0  0  0  0  0  0  0  0  0  0  0  0
   -1.8206    2.9936   -6.9879 H   0  0  0  0  0  0  0  0  0  0  0  0
 29 30  2  0  0  0  0
 27 29  1  0  0  0  0
 28 30  1  0  0  0  0
 24 27  2  0  0  0  0
 26 28  2  0  0  0  0
 22 23  2  0  0  0  0
 23 25  1  0  0  0  0
 22 24  1  0  0  0  0
 24 26  1  0  0  0  0
 21 22  1  0  0  0  0
 25 26  1  0  0  0  0
  1  3  1  0  0  0  0
  1  7  1  0  0  0  0
  1  2  2  0  0  0  0
 42 43  1  0  0  0  0
 43 51  1  0  0  0  0
 43 44  2  0  0  0  0
  8  9  1  0  0  0  0
  9 17  1  0  0  0  0
  9 10  2  0  0  0  0
 18 19  1  0  0  0  0
 19 41  1  0  0  0  0
 19 20  2  0  0  0  0
 42 45  1  0  0  0  0
  8 11  1  0  0  0  0
 51 52  1  0  0  0  0
 18 21  1  0  0  0  0
 41 42  1  0  0  0  0
  7  8  1  0  0  0  0
 17 18  1  0  0  0  0
 29 39  1  0  0  0  0
 30 40  1  0  0  0  0
 27 37  1  0  0  0  0
 28 38  1  0  0  0  0
 23 35  1  0  0  0  0
  3  4  1  0  0  0  0
  3  5  1  0  0  0  0
  3  6  1  0  0  0  0
 45 48  1  0  0  0  0
 45 49  1  0  0  0  0
 45 50  1  0  0  0  0
 11 14  1  0  0  0  0
 11 15  1  0  0  0  0
 11 16  1  0  0  0  0
 52 54  1  0  0  0  0
 52 55  1  0  0  0  0
 52 56  1  0  0  0  0
 21 33  1  0  0  0  0
 21 34  1  0  0  0  0
 42 47  1  0  0  0  0
  8 13  1  0  0  0  0
 18 32  1  0  0  0  0
 25 36  1  0  0  0  0
 51 53  1  0  0  0  0
  7 12  1  0  0  0  0
 41 46  1  0  0  0  0
 17 31  1  0  0  0  0
M  END
$$$$

  -OEChem-05262214473D

 56 57  0     1  0  0  0  0  0999 V2000
   -2.2900    0.3401    4.1553 C   0  0  0  0  0  0  0  0  0  0  0  0
   -1.3426   -0.2746    3.6796 O   0  0  0  0  0  0  0  0  0  0  0  0
   -2.7219    0.0577    5.5560 C   0  0  0  0  0  0  0  0  0  0  0  0
   -3.4815   -0.7386    5.6094 H   0  0  0  0  0  0  0  0  0  0  0  0
   -1.8906   -0.2899    6.1903 H   0  0  0  0  0  0  0  0  0  0  0  0
   -3.1599    0.9126    6.0956 H   0  0  0  0  0  0  0  0  0  0  0  0
   -3.0397    1.3125    3.5142 N   0  0  0  0  0  0  0  0  0  0  0  0
   -2.7928    1.7385    2.1618 C   0  0  2  0  0  0  0  0  0  0  0  0
   -1.4579    1.1532    1.7206 C   0  0  0  0  0  0  0  0  0  0  0  0
   -0.5858    0.8004    2.5118 O   0  0  0  0  0  0  0  0  0  0  0  0
   -2.7841    3.2553    2.0523 C   0  0  0  0  0  0  0  0  0  0  0  0
   -3.8047    1.7484    4.0260 H   0  0  0  0  0  0  0  0  0  0  0  0
   -3.5969    1.3201    1.5466 H   0  0  0  0  0  0  0  0  0  0  0  0
   -1.9850    3.6926    2.6620 H   0  0  0  0  0  0  0  0  0  0  0  0
   -2.6246    3.5776    1.0180 H   0  0  0  0  0  0  0  0  0  0  0  0
   -3.7342    3.6765    2.3981 H   0  0  0  0  0  0  0  0  0  0  0  0
   -1.3352    1.1101    0.3372 N   0  0  0  0  0  0  0  0  0  0  0  0
   -0.1579    0.6093   -0.3265 C   0  0  2  0  0  0  0  0  0  0  0  0
   -0.2329    1.0617   -1.7804 C   0  0  0  0  0  0  0  0  0  0  0  0
   -0.2367    2.2449   -2.1137 O   0  0  0  0  0  0  0  0  0  0  0  0
   -0.0548   -0.9183   -0.2484 C   0  0  0  0  0  0  0  0  0  0  0  0
    0.1790   -1.4163    1.1570 C   0  0  0  0  0  0  0  0  0  0  0  0
   -0.7907   -1.8754    2.0183 C   0  0  0  0  0  0  0  0  0  0  0  0
    1.4302   -1.4990    1.8297 C   0  0  0  0  0  0  0  0  0  0  0  0
   -0.1786   -2.2340    3.1893 N   0  0  0  0  0  0  0  0  0  0  0  0
    1.1778   -2.0150    3.1026 C   0  0  0  0  0  0  0  0  0  0  0  0
    2.7573   -1.1834    1.4767 C   0  0  0  0  0  0  0  0  0  0  0  0
    2.1902   -2.2321    4.0440 C   0  0  0  0  0  0  0  0  0  0  0  0
    3.7803   -1.3953    2.4082 C   0  0  0  0  0  0  0  0  0  0  0  0
    3.4988   -1.9117    3.6715 C   0  0  0  0  0  0  0  0  0  0  0  0
   -2.1183    1.4068   -0.2401 H   0  0  0  0  0  0  0  0  0  0  0  0
    0.7011    1.0910    0.1554 H   0  0  0  0  0  0  0  0  0  0  0  0
    0.7470   -1.2796   -0.9065 H   0  0  0  0  0  0  0  0  0  0  0  0
   -0.9726   -1.3846   -0.6301 H   0  0  0  0  0  0  0  0  0  0  0  0
   -1.8611   -1.9781    1.9046 H   0  0  0  0  0  0  0  0  0  0  0  0
   -0.6531   -2.6059    4.0005 H   0  0  0  0  0  0  0  0  0  0  0  0
    2.9929   -0.7793    0.4963 H   0  0  0  0  0  0  0  0  0  0  0  0
    1.9722   -2.6350    5.0272 H   0  0  0  0  0  0  0  0  0  0  0  0
    4.8057   -1.1534    2.1418 H   0  0  0  0  0  0  0  0  0  0  0  0
    4.3087   -2.0683    4.3793 H   0  0  0  0  0  0  0  0  0  0  0  0
   -0.2445   -0.0127   -2.6590 N   0  0  0  0  0  0  0  0  0  0  0  0
   -0.2887    0.1374   -4.0957 C   0  0  2  0  0  0  0  0  0  0  0  0
   -1.4223    1.0968   -4.4336 C   0  0  0  0  0  0  0  0  0  0  0  0
   -2.3705    1.3068   -3.6800 O   0  0  0  0  0  0  0  0  0  0  0  0
   -0.4869   -1.2029   -4.7863 C   0  0  0  0  0  0  0  0  0  0  0  0
   -0.2207   -0.9519   -2.2727 H   0  0  0  0  0  0  0  0  0  0  0  0
    0.6670    0.5799   -4.3970 H   0  0  0  0  0  0  0  0  0  0  0  0
   -1.4394   -1.6616   -4.4967 H   0  0  0  0  0  0  0  0  0  0  0  0
   -0.4916   -1.0912   -5.8756 H   0  0  0  0  0  0  0  0  0  0  0  0
    0.3132   -1.9014   -4.5186 H   0  0  0  0  0  0  0  0  0  0  0  0
   -1.2727    1.6581   -5.6941 N   0  0  0  0  0  0  0  0  0  0  0  0
   -2.2247    2.5911   -6.2500 C   0  0  0  0  0  0  0  0  0  0  0  0
   -0.4456    1.4416   -6.2425 H   0  0  0  0  0  0  0  0  0  0  0  0
   -2.9718    2.0437   -6.8434 H   0  0  0  0  0  0  0  0  0  0  0  0
   -2.7283    3.1307   -5.4344 H   0  0  0  0  0  0  0  0  0  0  0  0
   -1.6991    3.3101   -6.8956 H   0  0  0  0  0  0  0  0  0  0  0  0
 29 30  2  0  0  0  0
 27 29  1  0  0  0  0
 28 30  1  0  0  0  0
 24 27  2  0  0  0  0
 26 28  2  0  0  0  0
 22 23  2  0  0  0  0
 23 25  1  0  0  0  0
 22 24  1  0  0  0  0
 24 26  1  0  0  0  0
 21 22  1  0  0  0  0
 25 26  1  0  0  0  0
  1  3  1  0  0  0  0
  1  7  1  0  0  0  0
  1  2  2  0  0  0  0
 42 43  1  0  0  0  0
 43 51  1  0  0  0  0
 43 44  2  0  0  0  0
  8  9  1  0  0  0  0
  9 17  1  0  0  0  0
  9 10  2  0  0  0  0
 18 19  1  0  0  0  0
 19 41  1  0  0  0  0
 19 20  2  0  0  0  0
 42 45  1  0  0  0  0
  8 11  1  0  0  0  0
 51 52  1  0  0  0  0
 18 21  1  0  0  0  0
 41 42  1  0  0  0  0
  7  8  1  0  0  0  0
 17 18  1  0  0  0  0
 29 39  1  0  0  0  0
 30 40  1  0  0  0  0
 27 37  1  0  0  0  0
 28 38  1  0  0  0  0
 23 35  1  0  0  0  0
  3  4  1  0  0  0  0
  3  5  1  0  0  0  0
  3  6  1  0  0  0  0
 45 48  1  0  0  0  0
 45 49  1  0  0  0  0
 45 50  1  0  0  0  0
 11 14  1  0  0  0  0
 11 15  1  0  0  0  0
 11 16  1  0  0  0  0
 52 54  1  0  0  0  0
 52 55  1  0  0  0  0
 52 56  1  0  0  0  0
 21 33  1  0  0  0  0
 21 34  1  0  0  0  0
 42 47  1  0  0  0  0
  8 13  1  0  0  0  0
 18 32  1  0  0  0  0
 25 36  1  0  0  0  0
 51 53  1  0  0  0  0
  7 12  1  0  0  0  0
 41 46  1  0  0  0  0
 17 31  1  0  0  0  0
M  END
$$$$

  -OEChem-05262214473D

 56 57  0     1  0  0  0  0  0999 V2000
   -2.2900    0.3401    4.1553 C   0  0  0  0  0  0  0  0  0  0  0  0
   -1.3426   -0.2746    3.6796 O   0  0  0  0  0  0  0  0  0  0  0  0
   -2.7219    0.0577    5.5560 C   0  0  0  0  0  0  0  0  0  0  0  0
   -3.4815   -0.7386    5.6094 H   0  0  0  0  0  0  0  0  0  0  0  0
   -1.8906   -0.2899    6.1903 H   0  0  0  0  0  0  0  0  0  0  0  0
   -3.1599    0.9126    6.0956 H   0  0  0  0  0  0  0  0  0  0  0  0
   -3.0397    1.3125    3.5142 N   0  0  0  0  0  0  0  0  0  0  0  0
   -2.7928    1.7385    2.1618 C   0  0  2  0  0  0  0  0  0  0  0  0
   -1.4579    1.1532    1.7206 C   0  0  0  0  0  0  0  0  0  0  0  0
   -0.5858    0.8004    2.5118 O   0  0  0  0  0  0  0  0  0  0  0  0
   -2.7841    3.2553    2.0523 C   0  0  0  0  0  0  0  0  0  0  0  0
   -3.8047    1.7484    4.0260 H   0  0  0  0  0  0  0  0  0  0  0  0
   -3.5969    1.3201    1.5466 H   0  0  0  0  0  0  0  0  0  0  0  0
   -1.9850    3.6926    2.6620 H   0  0  0  0  0  0  0  0  0  0  0  0
   -2.6246    3.5776    1.0180 H   0  0  0  0  0  0  0  0  0  0  0  0
   -3.7342    3.6765    2.3981 H   0  0  0  0  0  0  0  0  0  0  0  0
   -1.3352    1.1101    0.3372 N   0  0  0  0  0  0  0  0  0  0  0  0
   -0.1579    0.6093   -0.3265 C   0  0  2  0  0  0  0  0  0  0  0  0
   -0.2329    1.0617   -1.7804 C   0  0  0  0  0  0  0  0  0  0  0  0
    0.0287    2.2080   -2.1388 O   0  0  0  0  0  0  0  0  0  0  0  0
   -0.0548   -0.9183   -0.2484 C   0  0  0  0  0  0  0  0  0  0  0  0
    0.1790   -1.4163    1.1570 C   0  0  0  0  0  0  0  0  0  0  0  0
   -0.7907   -1.8754    2.0183 C   0  0  0  0  0  0  0  0  0  0  0  0
    1.4302   -1.4990    1.8297 C   0  0  0  0  0  0  0  0  0  0  0  0
   -0.1786   -2.2340    3.1893 N   0  0  0  0  0  0  0  0  0  0  0  0
    1.1778   -2.0150    3.1026 C   0  0  0  0  0  0  0  0  0  0  0  0
    2.7573   -1.1834    1.4767 C   0  0  0  0  0  0  0  0  0  0  0  0
    2.1902   -2.2321    4.0440 C   0  0  0  0  0  0  0  0  0  0  0  0
    3.7803   -1.3953    2.4082 C   0  0  0  0  0  0  0  0  0  0  0  0
    3.4988   -1.9117    3.6715 C   0  0  0  0  0  0  0  0  0  0  0  0
   -2.1183    1.4068   -0.2401 H   0  0  0  0  0  0  0  0  0  0  0  0
    0.7011    1.0910    0.1554 H   0  0  0  0  0  0  0  0  0  0  0  0
    0.7470   -1.2796   -0.9065 H   0  0  0  0  0  0  0  0  0  0  0  0
   -0.9726   -1.3846   -0.6301 H   0  0  0  0  0  0  0  0  0  0  0  0
   -1.8611   -1.9781    1.9046 H   0  0  0  0  0  0  0  0  0  0  0  0
   -0.6531   -2.6059    4.0005 H   0  0  0  0  0  0  0  0  0  0  0  0
    2.9929   -0.7793    0.4963 H   0  0  0  0  0  0  0  0  0  0  0  0
    1.9722   -2.6350    5.0272 H   0  0  0  0  0  0  0  0  0  0  0  0
    4.8057   -1.1534    2.1418 H   0  0  0  0  0  0  0  0  0  0  0  0
    4.3087   -2.0683    4.3793 H   0  0  0  0  0  0  0  0  0  0  0  0
   -0.5777    0.0208   -2.6313 N   0  0  0  0  0  0  0  0  0  0  0  0
   -0.6961    0.1728   -4.0637 C   0  0  2  0  0  0  0  0  0  0  0  0
   -1.5813    1.3816   -4.3368 C   0  0  0  0  0  0  0  0  0  0  0  0
   -2.3864    1.8220   -3.5189 O   0  0  0  0  0  0  0  0  0  0  0  0
   -1.2718   -1.0790   -4.7073 C   0  0  0  0  0  0  0  0  0  0  0  0
   -0.7557   -0.8939   -2.2270 H   0  0  0  0  0  0  0  0  0  0  0  0
    0.3126    0.3642   -4.4459 H   0  0  0  0  0  0  0  0  0  0  0  0
   -2.2822   -1.2869   -4.3366 H   0  0  0  0  0  0  0  0  0  0  0  0
   -1.3343   -0.9730   -5.7953 H   0  0  0  0  0  0  0  0  0  0  0  0
   -0.6499   -1.9529   -4.4849 H   0  0  0  0  0  0  0  0  0  0  0  0
   -1.3973    1.8846   -5.6172 N   0  0  0  0  0  0  0  0  0  0  0  0
   -2.1307    3.0224   -6.1207 C   0  0  0  0  0  0  0  0  0  0  0  0
   -0.6946    1.4686   -6.2213 H   0  0  0  0  0  0  0  0  0  0  0  0
   -3.0338    2.6749   -6.6438 H   0  0  0  0  0  0  0  0  0  0  0  0
   -2.4203    3.6723   -5.2817 H   0  0  0  0  0  0  0  0  0  0  0  0
   -1.4965    3.5870   -6.8199 H   0  0  0  0  0  0  0  0  0  0  0  0
 29 30  2  0  0  0  0
 27 29  1  0  0  0  0
 28 30  1  0  0  0  0
 24 27  2  0  0  0  0
 26 28  2  0  0  0  0
 22 23  2  0  0  0  0
 23 25  1  0  0  0  0
 22 24  1  0  0  0  0
 24 26  1  0  0  0  0
 21 22  1  0  0  0  0
 25 26  1  0  0  0  0
  1  3  1  0  0  0  0
  1  7  1  0  0  0  0
  1  2  2  0  0  0  0
 42 43  1  0  0  0  0
 43 51  1  0  0  0  0
 43 44  2  0  0  0  0
  8  9  1  0  0  0  0
  9 17  1  0  0  0  0
  9 10  2  0  0  0  0
 18 19  1  0  0  0  0
 19 41  1  0  0  0  0
 19 20  2  0  0  0  0
 42 45  1  0  0  0  0
  8 11  1  0  0  0  0
 51 52  1  0  0  0  0
 18 21  1  0  0  0  0
 41 42  1  0  0  0  0
  7  8  1  0  0  0  0
 17 18  1  0  0  0  0
 29 39  1  0  0  0  0
 30 40  1  0  0  0  0
 27 37  1  0  0  0  0
 28 38  1  0  0  0  0
 23 35  1  0  0  0  0
  3  4  1  0  0  0  0
  3  5  1  0  0  0  0
  3  6  1  0  0  0  0
 45 48  1  0  0  0  0
 45 49  1  0  0  0  0
 45 50  1  0  0  0  0
 11 14  1  0  0  0  0
 11 15  1  0  0  0  0
 11 16  1  0  0  0  0
 52 54  1  0  0  0  0
 52 55  1  0  0  0  0
 52 56  1  0  0  0  0
 21 33  1  0  0  0  0
 21 34  1  0  0  0  0
 42 47  1  0  0  0  0
  8 13  1  0  0  0  0
 18 32  1  0  0  0  0
 25 36  1  0  0  0  0
 51 53  1  0  0  0  0
  7 12  1  0  0  0  0
 41 46  1  0  0  0  0
 17 31  1  0  0  0  0
M  END
$$$$

  -OEChem-05262214473D

 56 57  0     1  0  0  0  0  0999 V2000
   -2.2900    0.3401    4.1553 C   0  0  0  0  0  0  0  0  0  0  0  0
   -1.3426   -0.2746    3.6796 O   0  0  0  0  0  0  0  0  0  0  0  0
   -2.7219    0.0577    5.5560 C   0  0  0  0  0  0  0  0  0  0  0  0
   -3.4815   -0.7386    5.6094 H   0  0  0  0  0  0  0  0  0  0  0  0
   -1.8906   -0.2899    6.1903 H   0  0  0  0  0  0  0  0  0  0  0  0
   -3.1599    0.9126    6.0956 H   0  0  0  0  0  0  0  0  0  0  0  0
   -3.0397    1.3125    3.5142 N   0  0  0  0  0  0  0  0  0  0  0  0
   -2.7928    1.7385    2.1618 C   0  0  2  0  0  0  0  0  0  0  0  0
   -1.4579    1.1532    1.7206 C   0  0  0  0  0  0  0  0  0  0  0  0
   -0.5858    0.8004    2.5118 O   0  0  0  0  0  0  0  0  0  0  0  0
   -2.7841    3.2553    2.0523 C   0  0  0  0  0  0  0  0  0  0  0  0
   -3.8047    1.7484    4.0260 H   0  0  0  0  0  0  0  0  0  0  0  0
   -3.5969    1.3201    1.5466 H   0  0  0  0  0  0  0  0  0  0  0  0
   -1.9850    3.6926    2.6620 H   0  0  0  0  0  0  0  0  0  0  0  0
   -2.6246    3.5776    1.0180 H   0  0  0  0  0  0  0  0  0  0  0  0
   -3.7342    3.6765    2.3981 H   0  0  0  0  0  0  0  0  0  0  0  0
   -1.3352    1.1101    0.3372 N   0  0  0  0  0  0  0  0  0  0  0  0
   -0.1579    0.6093   -0.3265 C   0  0  2  0  0  0  0  0  0  0  0  0
   -0.2329    1.0617   -1.7804 C   0  0  0  0  0  0  0  0  0  0  0  0
    0.2741    2.1065   -2.1831 O   0  0  0  0  0  0  0  0  0  0  0  0
   -0.0548   -0.9183   -0.2484 C   0  0  0  0  0  0  0  0  0  0  0  0
    0.1790   -1.4163    1.1570 C   0  0  0  0  0  0  0  0  0  0  0  0
   -0.7907   -1.8754    2.0183 C   0  0  0  0  0  0  0  0  0  0  0  0
    1.4302   -1.4990    1.8297 C   0  0  0  0  0  0  0  0  0  0  0  0
   -0.1786   -2.2340    3.1893 N   0  0  0  0  0  0  0  0  0  0  0  0
    1.1778   -2.0150    3.1026 C   0  0  0  0  0  0  0  0  0  0  0  0
    2.7573   -1.1834    1.4767 C   0  0  0  0  0  0  0  0  0  0  0  0
    2.1902   -2.2321    4.0440 C   0  0  0  0  0  0  0  0  0  0  0  0
    3.7803   -1.3953    2.4082 C   0  0  0  0  0  0  0  0  0  0  0  0
    3.4988   -1.9117    3.6715 C   0  0  0  0  0  0  0  0  0  0  0  0
   -2.1183    1.4068   -0.2401 H   0  0  0  0  0  0  0  0  0  0  0  0
    0.7011    1.0910    0.1554 H   0  0  0  0  0  0  0  0  0  0  0  0
    0.7470   -1.2796   -0.9065 H   0  0  0  0  0  0  0  0  0  0  0  0
   -0.9726   -1.3846   -0.6301 H   0  0  0  0  0  0  0  0  0  0  0  0
   -1.8611   -1.9781    1.9046 H   0  0  0  0  0  0  0  0  0  0  0  0
   -0.6531   -2.6059    4.0005 H   0  0  0  0  0  0  0  0  0  0  0  0
    2.9929   -0.7793    0.4963 H   0  0  0  0  0  0  0  0  0  0  0  0
    1.9722   -2.6350    5.0272 H   0  0  0  0  0  0  0  0  0  0  0  0
    4.8057   -1.1534    2.1418 H   0  0  0  0  0  0  0  0  0  0  0  0
    4.3087   -2.0683    4.3793 H   0  0  0  0  0  0  0  0  0  0  0  0
   -0.8891    0.1358   -2.5795 N   0  0  0  0  0  0  0  0  0  0  0  0
   -1.0783    0.3079   -4.0019 C   0  0  2  0  0  0  0  0  0  0  0  0
   -1.6571    1.6973   -4.2347 C   0  0  0  0  0  0  0  0  0  0  0  0
   -2.2622    2.3256   -3.3686 O   0  0  0  0  0  0  0  0  0  0  0  0
   -1.9934   -0.7646   -4.5722 C   0  0  0  0  0  0  0  0  0  0  0  0
   -1.2547   -0.7052   -2.1426 H   0  0  0  0  0  0  0  0  0  0  0  0
   -0.0868    0.2427   -4.4631 H   0  0  0  0  0  0  0  0  0  0  0  0
   -2.9916   -0.7150   -4.1220 H   0  0  0  0  0  0  0  0  0  0  0  0
   -2.1128   -0.6498   -5.6546 H   0  0  0  0  0  0  0  0  0  0  0  0
   -1.5904   -1.7644   -4.3777 H   0  0  0  0  0  0  0  0  0  0  0  0
   -1.4559    2.1351   -5.5362 N   0  0  0  0  0  0  0  0  0  0  0  0
   -1.9235    3.4174   -6.0085 C   0  0  0  0  0  0  0  0  0  0  0  0
   -0.9269    1.5564   -6.1820 H   0  0  0  0  0  0  0  0  0  0  0  0
   -2.9226    3.3024   -6.4543 H   0  0  0  0  0  0  0  0  0  0  0  0
   -1.9774    4.1213   -5.1649 H   0  0  0  0  0  0  0  0  0  0  0  0
   -1.2266    3.8054   -6.7659 H   0  0  0  0  0  0  0  0  0  0  0  0
 29 30  2  0  0  0  0
 27 29  1  0  0  0  0
 28 30  1  0  0  0  0
 24 27  2  0  0  0  0
 26 28  2  0  0  0  0
 22 23  2  0  0  0  0
 23 25  1  0  0  0  0
 22 24  1  0  0  0  0
 24 26  1  0  0  0  0
 21 22  1  0  0  0  0
 25 26  1  0  0  0  0
  1  3  1  0  0  0  0
  1  7  1  0  0  0  0
  1  2  2  0  0  0  0
 42 43  1  0  0  0  0
 43 51  1  0  0  0  0
 43 44  2  0  0  0  0
  8  9  1  0  0  0  0
  9 17  1  0  0  0  0
  9 10  2  0  0  0  0
 18 19  1  0  0  0  0
 19 41  1  0  0  0  0
 19 20  2  0  0  0  0
 42 45  1  0  0  0  0
  8 11  1  0  0  0  0
 51 52  1  0  0  0  0
 18 21  1  0  0  0  0
 41 42  1  0  0  0  0
  7  8  1  0  0  0  0
 17 18  1  0  0  0  0
 29 39  1  0  0  0  0
 30 40  1  0  0  0  0
 27 37  1  0  0  0  0
 28 38  1  0  0  0  0
 23 35  1  0  0  0  0
  3  4  1  0  0  0  0
  3  5  1  0  0  0  0
  3  6  1  0  0  0  0
 45 48  1  0  0  0  0
 45 49  1  0  0  0  0
 45 50  1  0  0  0  0
 11 14  1  0  0  0  0
 11 15  1  0  0  0  0
 11 16  1  0  0  0  0
 52 54  1  0  0  0  0
 52 55  1  0  0  0  0
 52 56  1  0  0  0  0
 21 33  1  0  0  0  0
 21 34  1  0  0  0  0
 42 47  1  0  0  0  0
  8 13  1  0  0  0  0
 18 32  1  0  0  0  0
 25 36  1  0  0  0  0
 51 53  1  0  0  0  0
  7 12  1  0  0  0  0
 41 46  1  0  0  0  0
 17 31  1  0  0  0  0
M  END
$$$$

  -OEChem-05262214473D

 56 57  0     1  0  0  0  0  0999 V2000
   -2.2900    0.3401    4.1553 C   0  0  0  0  0  0  0  0  0  0  0  0
   -1.3426   -0.2746    3.6796 O   0  0  0  0  0  0  0  0  0  0  0  0
   -2.7219    0.0577    5.5560 C   0  0  0  0  0  0  0  0  0  0  0  0
   -3.4815   -0.7386    5.6094 H   0  0  0  0  0  0  0  0  0  0  0  0
   -1.8906   -0.2899    6.1903 H   0  0  0  0  0  0  0  0  0  0  0  0
   -3.1599    0.9126    6.0956 H   0  0  0  0  0  0  0  0  0  0  0  0
   -3.0397    1.3125    3.5142 N   0  0  0  0  0  0  0  0  0  0  0  0
   -2.7928    1.7385    2.1618 C   0  0  2  0  0  0  0  0  0  0  0  0
   -1.4579    1.1532    1.7206 C   0  0  0  0  0  0  0  0  0  0  0  0
   -0.5858    0.8004    2.5118 O   0  0  0  0  0  0  0  0  0  0  0  0
   -2.7841    3.2553    2.0523 C   0  0  0  0  0  0  0  0  0  0  0  0
   -3.8047    1.7484    4.0260 H   0  0  0  0  0  0  0  0  0  0  0  0
   -3.5969    1.3201    1.5466 H   0  0  0  0  0  0  0  0  0  0  0  0
   -1.9850    3.6926    2.6620 H   0  0  0  0  0  0  0  0  0  0  0  0
   -2.6246    3.5776    1.0180 H   0  0  0  0  0  0  0  0  0  0  0  0
   -3.7342    3.6765    2.3981 H   0  0  0  0  0  0  0  0  0  0  0  0
   -1.3352    1.1101    0.3372 N   0  0  0  0  0  0  0  0  0  0  0  0
   -0.1579    0.6093   -0.3265 C   0  0  2  0  0  0  0  0  0  0  0  0
   -0.2329    1.0617   -1.7804 C   0  0  0  0  0  0  0  0  0  0  0  0
    0.4827    1.9474   -2.2433 O   0  0  0  0  0  0  0  0  0  0  0  0
   -0.0548   -0.9183   -0.2484 C   0  0  0  0  0  0  0  0  0  0  0  0
    0.1790   -1.4163    1.1570 C   0  0  0  0  0  0  0  0  0  0  0  0
   -0.7907   -1.8754    2.0183 C   0  0  0  0  0  0  0  0  0  0  0  0
    1.4302   -1.4990    1.8297 C   0  0  0  0  0  0  0  0  0  0  0  0
   -0.1786   -2.2340    3.1893 N   0  0  0  0  0  0  0  0  0  0  0  0
    1.1778   -2.0150    3.1026 C   0  0  0  0  0  0  0  0  0  0  0  0
    2.7573   -1.1834    1.4767 C   0  0  0  0  0  0  0  0  0  0  0  0
    2.1902   -2.2321    4.0440 C   0  0  0  0  0  0  0  0  0  0  0  0
    3.7803   -1.3953    2.4082 C   0  0  0  0  0  0  0  0  0  0  0  0
    3.4988   -1.9117    3.6715 C   0  0  0  0  0  0  0  0  0  0  0  0
   -2.1183    1.4068   -0.2401 H   0  0  0  0  0  0  0  0  0  0  0  0
    0.7011    1.0910    0.1554 H   0  0  0  0  0  0  0  0  0  0  0  0
    0.7470   -1.2796   -0.9065 H   0  0  0  0  0  0  0  0  0  0  0  0
   -0.9726   -1.3846   -0.6301 H   0  0  0  0  0  0  0  0  0  0  0  0
   -1.8611   -1.9781    1.9046 H   0  0  0  0  0  0  0  0  0  0  0  0
   -0.6531   -2.6059    4.0005 H   0  0  0  0  0  0  0  0  0  0  0  0
    2.9929   -0.7793    0.4963 H   0  0  0  0  0  0  0  0  0  0  0  0
    1.9722   -2.6350    5.0272 H   0  0  0  0  0  0  0  0  0  0  0  0
    4.8057   -1.1534    2.1418 H   0  0  0  0  0  0  0  0  0  0  0  0
    4.3087   -2.0683    4.3793 H   0  0  0  0  0  0  0  0  0  0  0  0
   -1.1575    0.3244   -2.5069 N   0  0  0  0  0  0  0  0  0  0  0  0
   -1.4095    0.5335   -3.9146 C   0  0  2  0  0  0  0  0  0  0  0  0
   -1.6445    2.0221   -4.1342 C   0  0  0  0  0  0  0  0  0  0  0  0
   -2.0064    2.7833   -3.2394 O   0  0  0  0  0  0  0  0  0  0  0  0
   -2.6023   -0.2811   -4.3903 C   0  0  0  0  0  0  0  0  0  0  0  0
   -1.6836   -0.3987   -2.0250 H   0  0  0  0  0  0  0  0  0  0  0  0
   -0.5038    0.2237   -4.4474 H   0  0  0  0  0  0  0  0  0  0  0  0
   -3.5191    0.0152   -3.8676 H   0  0  0  0  0  0  0  0  0  0  0  0
   -2.7743   -0.1436   -5.4629 H   0  0  0  0  0  0  0  0  0  0  0  0
   -2.4441   -1.3489   -4.2044 H   0  0  0  0  0  0  0  0  0  0  0  0
   -1.4444    2.3926   -5.4567 N   0  0  0  0  0  0  0  0  0  0  0  0
   -1.6173    3.7492   -5.9210 C   0  0  0  0  0  0  0  0  0  0  0  0
   -1.1266    1.6990   -6.1273 H   0  0  0  0  0  0  0  0  0  0  0  0
   -2.6456    3.8836   -6.2877 H   0  0  0  0  0  0  0  0  0  0  0  0
   -1.4298    4.4472   -5.0917 H   0  0  0  0  0  0  0  0  0  0  0  0
   -0.9079    3.9505   -6.7372 H   0  0  0  0  0  0  0  0  0  0  0  0
 29 30  2  0  0  0  0
 27 29  1  0  0  0  0
 28 30  1  0  0  0  0
 24 27  2  0  0  0  0
 26 28  2  0  0  0  0
 22 23  2  0  0  0  0
 23 25  1  0  0  0  0
 22 24  1  0  0  0  0
 24 26  1  0  0  0  0
 21 22  1  0  0  0  0
 25 26  1  0  0  0  0
  1  3  1  0  0  0  0
  1  7  1  0  0  0  0
  1  2  2  0  0  0  0
 42 43  1  0  0  0  0
 43 51  1  0  0  0  0
 43 44  2  0  0  0  0
  8  9  1  0  0  0  0
  9 17  1  0  0  0  0
  9 10  2  0  0  0  0
 18 19  1  0  0  0  0
 19 41  1  0  0  0  0
 19 20  2  0  0  0  0
 42 45  1  0  0  0  0
  8 11  1  0  0  0  0
 51 52  1  0  0  0  0
 18 21  1  0  0  0  0
 41 42  1  0  0  0  0
  7  8  1  0  0  0  0
 17 18  1  0  0  0  0
 29 39  1  0  0  0  0
 30 40  1  0  0  0  0
 27 37  1  0  0  0  0
 28 38  1  0  0  0  0
 23 35  1  0  0  0  0
  3  4  1  0  0  0  0
  3  5  1  0  0  0  0
  3  6  1  0  0  0  0
 45 48  1  0  0  0  0
 45 49  1  0  0  0  0
 45 50  1  0  0  0  0
 11 14  1  0  0  0  0
 11 15  1  0  0  0  0
 11 16  1  0  0  0  0
 52 54  1  0  0  0  0
 52 55  1  0  0  0  0
 52 56  1  0  0  0  0
 21 33  1  0  0  0  0
 21 34  1  0  0  0  0
 42 47  1  0  0  0  0
  8 13  1  0  0  0  0
 18 32  1  0  0  0  0
 25 36  1  0  0  0  0
 51 53  1  0  0  0  0
  7 12  1  0  0  0  0
 41 46  1  0  0  0  0
 17 31  1  0  0  0  0
M  END
$$$$

  -OEChem-05262214473D

 56 57  0     1  0  0  0  0  0999 V2000
   -2.2900    0.3401    4.1553 C   0  0  0  0  0  0  0  0  0  0  0  0
   -1.3426   -0.2746    3.6796 O   0  0  0  0  0  0  0  0  0  0  0  0
   -2.7219    0.0577    5.5560 C   0  0  0  0  0  0  0  0  0  0  0  0
   -3.4815   -0.7386    5.6094 H   0  0  0  0  0  0  0  0  0  0  0  0
   -1.8906   -0.2899    6.1903 H   0  0  0  0  0  0  0  0  0  0  0  0
   -3.1599    0.9126    6.0956 H   0  0  0  0  0  0  0  0  0  0  0  0
   -3.0397    1.3125    3.5142 N   0  0  0  0  0  0  0  0  0  0  0  0
   -2.7928    1.7385    2.1618 C   0  0  2  0  0  0  0  0  0  0  0  0
   -1.4579    1.1532    1.7206 C   0  0  0  0  0  0  0  0  0  0  0  0
   -0.5858    0.8004    2.5118 O   0  0  0  0  0  0  0  0  0  0  0  0
   -2.7841    3.2553    2.0523 C   0  0  0  0  0  0  0  0  0  0  0  0
   -3.8047    1.7484    4.0260 H   0  0  0  0  0  0  0  0  0  0  0  0
   -3.5969    1.3201    1.5466 H   0  0  0  0  0  0  0  0  0  0  0  0
   -1.9850    3.6926    2.6620 H   0  0  0  0  0  0  0  0  0  0  0  0
   -2.6246    3.5776    1.0180 H   0  0  0  0  0  0  0  0  0  0  0  0
   -3.7342    3.6765    2.3981 H   0  0  0  0  0  0  0  0  0  0  0  0
   -1.3352    1.1101    0.3372 N   0  0  0  0  0  0  0  0  0  0  0  0
   -0.1579    0.6093   -0.3265 C   0  0  2  0  0  0  0  0  0  0  0  0
   -0.2329    1.0617   -1.7804 C   0  0  0  0  0  0  0  0  0  0  0  0
    0.6402    1.7415   -2.3156 O   0  0  0  0  0  0  0  0  0  0  0  0
   -0.0548   -0.9183   -0.2484 C   0  0  0  0  0  0  0  0  0  0  0  0
    0.1790   -1.4163    1.1570 C   0  0  0  0  0  0  0  0  0  0  0  0
   -0.7907   -1.8754    2.0183 C   0  0  0  0  0  0  0  0  0  0  0  0
    1.4302   -1.4990    1.8297 C   0  0  0  0  0  0  0  0  0  0  0  0
   -0.1786   -2.2340    3.1893 N   0  0  0  0  0  0  0  0  0  0  0  0
    1.1778   -2.0150    3.1026 C   0  0  0  0  0  0  0  0  0  0  0  0
    2.7573   -1.1834    1.4767 C   0  0  0  0  0  0  0  0  0  0  0  0
    2.1902   -2.2321    4.0440 C   0  0  0  0  0  0  0  0  0  0  0  0
    3.7803   -1.3953    2.4082 C   0  0  0  0  0  0  0  0  0  0  0  0
    3.4988   -1.9117    3.6715 C   0  0  0  0  0  0  0  0  0  0  0  0
   -2.1183    1.4068   -0.2401 H   0  0  0  0  0  0  0  0  0  0  0  0
    0.7011    1.0910    0.1554 H   0  0  0  0  0  0  0  0  0  0  0  0
    0.7470   -1.2796   -0.9065 H   0  0  0  0  0  0  0  0  0  0  0  0
   -0.9726   -1.3846   -0.6301 H   0  0  0  0  0  0  0  0  0  0  0  0
   -1.8611   -1.9781    1.9046 H   0  0  0  0  0  0  0  0  0  0  0  0
   -0.6531   -2.6059    4.0005 H   0  0  0  0  0  0  0  0  0  0  0  0
    2.9929   -0.7793    0.4963 H   0  0  0  0  0  0  0  0  0  0  0  0
    1.9722   -2.6350    5.0272 H   0  0  0  0  0  0  0  0  0  0  0  0
    4.8057   -1.1534    2.1418 H   0  0  0  0  0  0  0  0  0  0  0  0
    4.3087   -2.0683    4.3793 H   0  0  0  0  0  0  0  0  0  0  0  0
   -1.3647    0.5737   -2.4187 N   0  0  0  0  0  0  0  0  0  0  0  0
   -1.6669    0.8343   -3.8077 C   0  0  2  0  0  0  0  0  0  0  0  0
   -1.5445    2.3341   -4.0423 C   0  0  0  0  0  0  0  0  0  0  0  0
   -1.6365    3.1639   -3.1400 O   0  0  0  0  0  0  0  0  0  0  0  0
   -3.0572    0.3385   -4.1740 C   0  0  0  0  0  0  0  0  0  0  0  0
   -2.0132    0.0048   -1.8825 H   0  0  0  0  0  0  0  0  0  0  0  0
   -0.9102    0.3085   -4.4001 H   0  0  0  0  0  0  0  0  0  0  0  0
   -3.8288    0.8540   -3.5906 H   0  0  0  0  0  0  0  0  0  0  0  0
   -3.2736    0.5110   -5.2335 H   0  0  0  0  0  0  0  0  0  0  0  0
   -3.1528   -0.7346   -3.9766 H   0  0  0  0  0  0  0  0  0  0  0  0
   -1.3636    2.6395   -5.3840 N   0  0  0  0  0  0  0  0  0  0  0  0
   -1.2329    3.9953   -5.8643 C   0  0  0  0  0  0  0  0  0  0  0  0
   -1.2801    1.8868   -6.0609 H   0  0  0  0  0  0  0  0  0  0  0  0
   -2.2219    4.3786   -6.1556 H   0  0  0  0  0  0  0  0  0  0  0  0
   -0.8148    4.6278   -5.0673 H   0  0  0  0  0  0  0  0  0  0  0  0
   -0.5620    4.0123   -6.7358 H   0  0  0  0  0  0  0  0  0  0  0  0
 29 30  2  0  0  0  0
 27 29  1  0  0  0  0
 28 30  1  0  0  0  0
 24 27  2  0  0  0  0
 26 28  2  0  0  0  0
 22 23  2  0  0  0  0
 23 25  1  0  0  0  0
 22 24  1  0  0  0  0
 24 26  1  0  0  0  0
 21 22  1  0  0  0  0
 25 26  1  0  0  0  0
  1  3  1  0  0  0  0
  1  7  1  0  0  0  0
  1  2  2  0  0  0  0
 42 43  1  0  0  0  0
 43 51  1  0  0  0  0
 43 44  2  0  0  0  0
  8  9  1  0  0  0  0
  9 17  1  0  0  0  0
  9 10  2  0  0  0  0
 18 19  1  0  0  0  0
 19 41  1  0  0  0  0
 19 20  2  0  0  0  0
 42 45  1  0  0  0  0
  8 11  1  0  0  0  0
 51 52  1  0  0  0  0
 18 21  1  0  0  0  0
 41 42  1  0  0  0  0
  7  8  1  0  0  0  0
 17 18  1  0  0  0  0
 29 39  1  0  0  0  0
 30 40  1  0  0  0  0
 27 37  1  0  0  0  0
 28 38  1  0  0  0  0
 23 35  1  0  0  0  0
  3  4  1  0  0  0  0
  3  5  1  0  0  0  0
  3  6  1  0  0  0  0
 45 48  1  0  0  0  0
 45 49  1  0  0  0  0
 45 50  1  0  0  0  0
 11 14  1  0  0  0  0
 11 15  1  0  0  0  0
 11 16  1  0  0  0  0
 52 54  1  0  0  0  0
 52 55  1  0  0  0  0
 52 56  1  0  0  0  0
 21 33  1  0  0  0  0
 21 34  1  0  0  0  0
 42 47  1  0  0  0  0
  8 13  1  0  0  0  0
 18 32  1  0  0  0  0
 25 36  1  0  0  0  0
 51 53  1  0  0  0  0
  7 12  1  0  0  0  0
 41 46  1  0  0  0  0
 17 31  1  0  0  0  0
M  END
$$$$

  -OEChem-05262214473D

 56 57  0     1  0  0  0  0  0999 V2000
   -2.2900    0.3401    4.1553 C   0  0  0  0  0  0  0  0  0  0  0  0
   -1.3426   -0.2746    3.6796 O   0  0  0  0  0  0  0  0  0  0  0  0
   -2.7219    0.0577    5.5560 C   0  0  0  0  0  0  0  0  0  0  0  0
   -3.4815   -0.7386    5.6094 H   0  0  0  0  0  0  0  0  0  0  0  0
   -1.8906   -0.2899    6.1903 H   0  0  0  0  0  0  0  0  0  0  0  0
   -3.1599    0.9126    6.0956 H   0  0  0  0  0  0  0  0  0  0  0  0
   -3.0397    1.3125    3.5142 N   0  0  0  0  0  0  0  0  0  0  0  0
   -2.7928    1.7385    2.1618 C   0  0  2  0  0  0  0  0  0  0  0  0
   -1.4579    1.1532    1.7206 C   0  0  0  0  0  0  0  0  0  0  0  0
   -0.5858    0.8004    2.5118 O   0  0  0  0  0  0  0  0  0  0  0  0
   -2.7841    3.2553    2.0523 C   0  0  0  0  0  0  0  0  0  0  0  0
   -3.8047    1.7484    4.0260 H   0  0  0  0  0  0  0  0  0  0  0  0
   -3.5969    1.3201    1.5466 H   0  0  0  0  0  0  0  0  0  0  0  0
   -1.9850    3.6926    2.6620 H   0  0  0  0  0  0  0  0  0  0  0  0
   -2.6246    3.5776    1.0180 H   0  0  0  0  0  0  0  0  0  0  0  0
   -3.7342    3.6765    2.3981 H   0  0  0  0  0  0  0  0  0  0  0  0
   -1.3352    1.1101    0.3372 N   0  0  0  0  0  0  0  0  0  0  0  0
   -0.1579    0.6093   -0.3265 C   0  0  2  0  0  0  0  0  0  0  0  0
   -0.2329    1.0617   -1.7804 C   0  0  0  0  0  0  0  0  0  0  0  0
    0.7360    1.5027   -2.3948 O   0  0  0  0  0  0  0  0  0  0  0  0
   -0.0548   -0.9183   -0.2484 C   0  0  0  0  0  0  0  0  0  0  0  0
    0.1790   -1.4163    1.1570 C   0  0  0  0  0  0  0  0  0  0  0  0
   -0.7907   -1.8754    2.0183 C   0  0  0  0  0  0  0  0  0  0  0  0
    1.4302   -1.4990    1.8297 C   0  0  0  0  0  0  0  0  0  0  0  0
   -0.1786   -2.2340    3.1893 N   0  0  0  0  0  0  0  0  0  0  0  0
    1.1778   -2.0150    3.1026 C   0  0  0  0  0  0  0  0  0  0  0  0
    2.7573   -1.1834    1.4767 C   0  0  0  0  0  0  0  0  0  0  0  0
    2.1902   -2.2321    4.0440 C   0  0  0  0  0  0  0  0  0  0  0  0
    3.7803   -1.3953    2.4082 C   0  0  0  0  0  0  0  0  0  0  0  0
    3.4988   -1.9117    3.6715 C   0  0  0  0  0  0  0  0  0  0  0  0
   -2.1183    1.4068   -0.2401 H   0  0  0  0  0  0  0  0  0  0  0  0
    0.7011    1.0910    0.1554 H   0  0  0  0  0  0  0  0  0  0  0  0
    0.7470   -1.2796   -0.9065 H   0  0  0  0  0  0  0  0  0  0  0  0
   -0.9726   -1.3846   -0.6301 H   0  0  0  0  0  0  0  0  0  0  0  0
   -1.8611   -1.9781    1.9046 H   0  0  0  0  0  0  0  0  0  0  0  0
   -0.6531   -2.6059    4.0005 H   0  0  0  0  0  0  0  0  0  0  0  0
    2.9929   -0.7793    0.4963 H   0  0  0  0  0  0  0  0  0  0  0  0
    1.9722   -2.6350    5.0272 H   0  0  0  0  0  0  0  0  0  0  0  0
    4.8057   -1.1534    2.1418 H   0  0  0  0  0  0  0  0  0  0  0  0
    4.3087   -2.0683    4.3793 H   0  0  0  0  0  0  0  0  0  0  0  0
   -1.4965    0.8668   -2.3207 N   0  0  0  0  0  0  0  0  0  0  0  0
   -1.8332    1.1898   -3.6885 C   0  0  2  0  0  0  0  0  0  0  0  0
   -1.3638    2.6120   -3.9652 C   0  0  0  0  0  0  0  0  0  0  0  0
   -1.1775    3.4415   -3.0773 O   0  0  0  0  0  0  0  0  0  0  0  0
   -3.3270    1.0521   -3.9380 C   0  0  0  0  0  0  0  0  0  0  0  0
   -2.2211    0.4776   -1.7246 H   0  0  0  0  0  0  0  0  0  0  0  0
   -1.2781    0.4913   -4.3242 H   0  0  0  0  0  0  0  0  0  0  0  0
   -3.8997    1.7442   -3.3099 H   0  0  0  0  0  0  0  0  0  0  0  0
   -3.5766    1.2694   -4.9818 H   0  0  0  0  0  0  0  0  0  0  0  0
   -3.6682    0.0366   -3.7101 H   0  0  0  0  0  0  0  0  0  0  0  0
   -1.2191    2.8589   -5.3232 N   0  0  0  0  0  0  0  0  0  0  0  0
   -0.7965    4.1388   -5.8422 C   0  0  0  0  0  0  0  0  0  0  0  0
   -1.3769    2.1069   -5.9874 H   0  0  0  0  0  0  0  0  0  0  0  0
   -1.6803    4.7540   -6.0667 H   0  0  0  0  0  0  0  0  0  0  0  0
   -0.1743    4.6507   -5.0932 H   0  0  0  0  0  0  0  0  0  0  0  0
   -0.2125    3.9867   -6.7618 H   0  0  0  0  0  0  0  0  0  0  0  0
 29 30  2  0  0  0  0
 27 29  1  0  0  0  0
 28 30  1  0  0  0  0
 24 27  2  0  0  0  0
 26 28  2  0  0  0  0
 22 23  2  0  0  0  0
 23 25  1  0  0  0  0
 22 24  1  0  0  0  0
 24 26  1  0  0  0  0
 21 22  1  0  0  0  0
 25 26  1  0  0  0  0
  1  3  1  0  0  0  0
  1  7  1  0  0  0  0
  1  2  2  0  0  0  0
 42 43  1  0  0  0  0
 43 51  1  0  0  0  0
 43 44  2  0  0  0  0
  8  9  1  0  0  0  0
  9 17  1  0  0  0  0
  9 10  2  0  0  0  0
 18 19  1  0  0  0  0
 19 41  1  0  0  0  0
 19 20  2  0  0  0  0
 42 45  1  0  0  0  0
  8 11  1  0  0  0  0
 51 52  1  0  0  0  0
 18 21  1  0  0  0  0
 41 42  1  0  0  0  0
  7  8  1  0  0  0  0
 17 18  1  0  0  0  0
 29 39  1  0  0  0  0
 30 40  1  0  0  0  0
 27 37  1  0  0  0  0
 28 38  1  0  0  0  0
 23 35  1  0  0  0  0
  3  4  1  0  0  0  0
  3  5  1  0  0  0  0
  3  6  1  0  0  0  0
 45 48  1  0  0  0  0
 45 49  1  0  0  0  0
 45 50  1  0  0  0  0
 11 14  1  0  0  0  0
 11 15  1  0  0  0  0
 11 16  1  0  0  0  0
 52 54  1  0  0  0  0
 52 55  1  0  0  0  0
 52 56  1  0  0  0  0
 21 33  1  0  0  0  0
 21 34  1  0  0  0  0
 42 47  1  0  0  0  0
  8 13  1  0  0  0  0
 18 32  1  0  0  0  0
 25 36  1  0  0  0  0
 51 53  1  0  0  0  0
  7 12  1  0  0  0  0
 41 46  1  0  0  0  0
 17 31  1  0  0  0  0
M  END
$$$$

  -OEChem-05262214473D

 56 57  0     1  0  0  0  0  0999 V2000
   -2.2900    0.3401    4.1553 C   0  0  0  0  0  0  0  0  0  0  0  0
   -1.3426   -0.2746    3.6796 O   0  0  0  0  0  0  0  0  0  0  0  0
   -2.7219    0.0577    5.5560 C   0  0  0  0  0  0  0  0  0  0  0  0
   -3.4815   -0.7386    5.6094 H   0  0  0  0  0  0  0  0  0  0  0  0
   -1.8906   -0.2899    6.1903 H   0  0  0  0  0  0  0  0  0  0  0  0
   -3.1599    0.9126    6.0956 H   0  0  0  0  0  0  0  0  0  0  0  0
   -3.0397    1.3125    3.5142 N   0  0  0  0  0  0  0  0  0  0  0  0
   -2.7928    1.7385    2.1618 C   0  0  2  0  0  0  0  0  0  0  0  0
   -1.4579    1.1532    1.7206 C   0  0  0  0  0  0  0  0  0  0  0  0
   -0.5858    0.8004    2.5118 O   0  0  0  0  0  0  0  0  0  0  0  0
   -2.7841    3.2553    2.0523 C   0  0  0  0  0  0  0  0  0  0  0  0
   -3.8047    1.7484    4.0260 H   0  0  0  0  0  0  0  0  0  0  0  0
   -3.5969    1.3201    1.5466 H   0  0  0  0  0  0  0  0  0  0  0  0
   -1.9850    3.6926    2.6620 H   0  0  0  0  0  0  0  0  0  0  0  0
   -2.6246    3.5776    1.0180 H   0  0  0  0  0  0  0  0  0  0  0  0
   -3.7342    3.6765    2.3981 H   0  0  0  0  0  0  0  0  0  0  0  0
   -1.3352    1.1101    0.3372 N   0  0  0  0  0  0  0  0  0  0  0  0
   -0.1579    0.6093   -0.3265 C   0  0  2  0  0  0  0  0  0  0  0  0
   -0.2329    1.0617   -1.7804 C   0  0  0  0  0  0  0  0  0  0  0  0
    0.7636    1.2475   -2.4757 O   0  0  0  0  0  0  0  0  0  0  0  0
   -0.0548   -0.9183   -0.2484 C   0  0  0  0  0  0  0  0  0  0  0  0
    0.1790   -1.4163    1.1570 C   0  0  0  0  0  0  0  0  0  0  0  0
   -0.7907   -1.8754    2.0183 C   0  0  0  0  0  0  0  0  0  0  0  0
    1.4302   -1.4990    1.8297 C   0  0  0  0  0  0  0  0  0  0  0  0
   -0.1786   -2.2340    3.1893 N   0  0  0  0  0  0  0  0  0  0  0  0
    1.1778   -2.0150    3.1026 C   0  0  0  0  0  0  0  0  0  0  0  0
    2.7573   -1.1834    1.4767 C   0  0  0  0  0  0  0  0  0  0  0  0
    2.1902   -2.2321    4.0440 C   0  0  0  0  0  0  0  0  0  0  0  0
    3.7803   -1.3953    2.4082 C   0  0  0  0  0  0  0  0  0  0  0  0
    3.4988   -1.9117    3.6715 C   0  0  0  0  0  0  0  0  0  0  0  0
   -2.1183    1.4068   -0.2401 H   0  0  0  0  0  0  0  0  0  0  0  0
    0.7011    1.0910    0.1554 H   0  0  0  0  0  0  0  0  0  0  0  0
    0.7470   -1.2796   -0.9065 H   0  0  0  0  0  0  0  0  0  0  0  0
   -0.9726   -1.3846   -0.6301 H   0  0  0  0  0  0  0  0  0  0  0  0
   -1.8611   -1.9781    1.9046 H   0  0  0  0  0  0  0  0  0  0  0  0
   -0.6531   -2.6059    4.0005 H   0  0  0  0  0  0  0  0  0  0  0  0
    2.9929   -0.7793    0.4963 H   0  0  0  0  0  0  0  0  0  0  0  0
    1.9722   -2.6350    5.0272 H   0  0  0  0  0  0  0  0  0  0  0  0
    4.8057   -1.1534    2.1418 H   0  0  0  0  0  0  0  0  0  0  0  0
    4.3087   -2.0683    4.3793 H   0  0  0  0  0  0  0  0  0  0  0  0
   -1.5439    1.1837   -2.2196 N   0  0  0  0  0  0  0  0  0  0  0  0
   -1.8968    1.5757   -3.5652 C   0  0  2  0  0  0  0  0  0  0  0  0
   -1.1148    2.8368   -3.9081 C   0  0  0  0  0  0  0  0  0  0  0  0
   -0.6609    3.5971   -3.0556 O   0  0  0  0  0  0  0  0  0  0  0  0
   -3.3934    1.8110   -3.6985 C   0  0  0  0  0  0  0  0  0  0  0  0
   -2.2930    0.9876   -1.5622 H   0  0  0  0  0  0  0  0  0  0  0  0
   -1.5826    0.7596   -4.2250 H   0  0  0  0  0  0  0  0  0  0  0  0
   -3.7268    2.6252   -3.0447 H   0  0  0  0  0  0  0  0  0  0  0  0
   -3.6628    2.0800   -4.7251 H   0  0  0  0  0  0  0  0  0  0  0  0
   -3.9553    0.9121   -3.4228 H   0  0  0  0  0  0  0  0  0  0  0  0
   -1.0206    3.0360   -5.2783 N   0  0  0  0  0  0  0  0  0  0  0  0
   -0.3378    4.1700   -5.8561 C   0  0  0  0  0  0  0  0  0  0  0  0
   -1.4104    2.3443   -5.9118 H   0  0  0  0  0  0  0  0  0  0  0  0
   -1.0576    4.9839   -6.0273 H   0  0  0  0  0  0  0  0  0  0  0  0
    0.4480    4.5144   -5.1678 H   0  0  0  0  0  0  0  0  0  0  0  0
    0.1168    3.8753   -6.8135 H   0  0  0  0  0  0  0  0  0  0  0  0
 29 30  2  0  0  0  0
 27 29  1  0  0  0  0
 28 30  1  0  0  0  0
 24 27  2  0  0  0  0
 26 28  2  0  0  0  0
 22 23  2  0  0  0  0
 23 25  1  0  0  0  0
 22 24  1  0  0  0  0
 24 26  1  0  0  0  0
 21 22  1  0  0  0  0
 25 26  1  0  0  0  0
  1  3  1  0  0  0  0
  1  7  1  0  0  0  0
  1  2  2  0  0  0  0
 42 43  1  0  0  0  0
 43 51  1  0  0  0  0
 43 44  2  0  0  0  0
  8  9  1  0  0  0  0
  9 17  1  0  0  0  0
  9 10  2  0  0  0  0
 18 19  1  0  0  0  0
 19 41  1  0  0  0  0
 19 20  2  0  0  0  0
 42 45  1  0  0  0  0
  8 11  1  0  0  0  0
 51 52  1  0  0  0  0
 18 21  1  0  0  0  0
 41 42  1  0  0  0  0
  7  8  1  0  0  0  0
 17 18  1  0  0  0  0
 29 39  1  0  0  0  0
 30 40  1  0  0  0  0
 27 37  1  0  0  0  0
 28 38  1  0  0  0  0
 23 35  1  0  0  0  0
  3  4  1  0  0  0  0
  3  5  1  0  0  0  0
  3  6  1  0  0  0  0
 45 48  1  0  0  0  0
 45 49  1  0  0  0  0
 45 50  1  0  0  0  0
 11 14  1  0  0  0  0
 11 15  1  0  0  0  0
 11 16  1  0  0  0  0
 52 54  1  0  0  0  0
 52 55  1  0  0  0  0
 52 56  1  0  0  0  0
 21 33  1  0  0  0  0
 21 34  1  0  0  0  0
 42 47  1  0  0  0  0
  8 13  1  0  0  0  0
 18 32  1  0  0  0  0
 25 36  1  0  0  0  0
 51 53  1  0  0  0  0
  7 12  1  0  0  0  0
 41 46  1  0  0  0  0
 17 31  1  0  0  0  0
M  END
$$$$

  -OEChem-05262214473D

 56 57  0     1  0  0  0  0  0999 V2000
   -2.2900    0.3401    4.1553 C   0  0  0  0  0  0  0  0  0  0  0  0
   -1.3426   -0.2746    3.6796 O   0  0  0  0  0  0  0  0  0  0  0  0
   -2.7219    0.0577    5.5560 C   0  0  0  0  0  0  0  0  0  0  0  0
   -3.4815   -0.7386    5.6094 H   0  0  0  0  0  0  0  0  0  0  0  0
   -1.8906   -0.2899    6.1903 H   0  0  0  0  0  0  0  0  0  0  0  0
   -3.1599    0.9126    6.0956 H   0  0  0  0  0  0  0  0  0  0  0  0
   -3.0397    1.3125    3.5142 N   0  0  0  0  0  0  0  0  0  0  0  0
   -2.7928    1.7385    2.1618 C   0  0  2  0  0  0  0  0  0  0  0  0
   -1.4579    1.1532    1.7206 C   0  0  0  0  0  0  0  0  0  0  0  0
   -0.5858    0.8004    2.5118 O   0  0  0  0  0  0  0  0  0  0  0  0
   -2.7841    3.2553    2.0523 C   0  0  0  0  0  0  0  0  0  0  0  0
   -3.8047    1.7484    4.0260 H   0  0  0  0  0  0  0  0  0  0  0  0
   -3.5969    1.3201    1.5466 H   0  0  0  0  0  0  0  0  0  0  0  0
   -1.9850    3.6926    2.6620 H   0  0  0  0  0  0  0  0  0  0  0  0
   -2.6246    3.5776    1.0180 H   0  0  0  0  0  0  0  0  0  0  0  0
   -3.7342    3.6765    2.3981 H   0  0  0  0  0  0  0  0  0  0  0  0
   -1.3352    1.1101    0.3372 N   0  0  0  0  0  0  0  0  0  0  0  0
   -0.1579    0.6093   -0.3265 C   0  0  2  0  0  0  0  0  0  0  0  0
   -0.2329    1.0617   -1.7804 C   0  0  0  0  0  0  0  0  0  0  0  0
    0.7209    0.9931   -2.5526 O   0  0  0  0  0  0  0  0  0  0  0  0
   -0.0548   -0.9183   -0.2484 C   0  0  0  0  0  0  0  0  0  0  0  0
    0.1790   -1.4163    1.1570 C   0  0  0  0  0  0  0  0  0  0  0  0
   -0.7907   -1.8754    2.0183 C   0  0  0  0  0  0  0  0  0  0  0  0
    1.4302   -1.4990    1.8297 C   0  0  0  0  0  0  0  0  0  0  0  0
   -0.1786   -2.2340    3.1893 N   0  0  0  0  0  0  0  0  0  0  0  0
    1.1778   -2.0150    3.1026 C   0  0  0  0  0  0  0  0  0  0  0  0
    2.7573   -1.1834    1.4767 C   0  0  0  0  0  0  0  0  0  0  0  0
    2.1902   -2.2321    4.0440 C   0  0  0  0  0  0  0  0  0  0  0  0
    3.7803   -1.3953    2.4082 C   0  0  0  0  0  0  0  0  0  0  0  0
    3.4988   -1.9117    3.6715 C   0  0  0  0  0  0  0  0  0  0  0  0
   -2.1183    1.4068   -0.2401 H   0  0  0  0  0  0  0  0  0  0  0  0
    0.7011    1.0910    0.1554 H   0  0  0  0  0  0  0  0  0  0  0  0
    0.7470   -1.2796   -0.9065 H   0  0  0  0  0  0  0  0  0  0  0  0
   -0.9726   -1.3846   -0.6301 H   0  0  0  0  0  0  0  0  0  0  0  0
   -1.8611   -1.9781    1.9046 H   0  0  0  0  0  0  0  0  0  0  0  0
   -0.6531   -2.6059    4.0005 H   0  0  0  0  0  0  0  0  0  0  0  0
    2.9929   -0.7793    0.4963 H   0  0  0  0  0  0  0  0  0  0  0  0
    1.9722   -2.6350    5.0272 H   0  0  0  0  0  0  0  0  0  0  0  0
    4.8057   -1.1534    2.1418 H   0  0  0  0  0  0  0  0  0  0  0  0
    4.3087   -2.0683    4.3793 H   0  0  0  0  0  0  0  0  0  0  0  0
   -1.5037    1.5028   -2.1224 N   0  0  0  0  0  0  0  0  0  0  0  0
   -1.8536    1.9657   -3.4460 C   0  0  2  0  0  0  0  0  0  0  0  0
   -0.8144    2.9931   -3.8749 C   0  0  0  0  0  0  0  0  0  0  0  0
   -0.1218    3.6203   -3.0762 O   0  0  0  0  0  0  0  0  0  0  0  0
   -3.2517    2.5634   -3.4716 C   0  0  0  0  0  0  0  0  0  0  0  0
   -2.2241    1.5001   -1.4063 H   0  0  0  0  0  0  0  0  0  0  0  0
   -1.8028    1.0952   -4.1092 H   0  0  0  0  0  0  0  0  0  0  0  0
   -3.3221    3.4368   -2.8130 H   0  0  0  0  0  0  0  0  0  0  0  0
   -3.5263    2.8876   -4.4809 H   0  0  0  0  0  0  0  0  0  0  0  0
   -3.9944    1.8323   -3.1344 H   0  0  0  0  0  0  0  0  0  0  0  0
   -0.7818    3.1587   -5.2525 N   0  0  0  0  0  0  0  0  0  0  0  0
    0.1119    4.0867   -5.9053 C   0  0  0  0  0  0  0  0  0  0  0  0
   -1.3784    2.5828   -5.8392 H   0  0  0  0  0  0  0  0  0  0  0  0
   -0.3964    5.0529   -6.0400 H   0  0  0  0  0  0  0  0  0  0  0  0
    1.0098    4.2282   -5.2858 H   0  0  0  0  0  0  0  0  0  0  0  0
    0.4033    3.6858   -6.8873 H   0  0  0  0  0  0  0  0  0  0  0  0
 29 30  2  0  0  0  0
 27 29  1  0  0  0  0
 28 30  1  0  0  0  0
 24 27  2  0  0  0  0
 26 28  2  0  0  0  0
 22 23  2  0  0  0  0
 23 25  1  0  0  0  0
 22 24  1  0  0  0  0
 24 26  1  0  0  0  0
 21 22  1  0  0  0  0
 25 26  1  0  0  0  0
  1  3  1  0  0  0  0
  1  7  1  0  0  0  0
  1  2  2  0  0  0  0
 42 43  1  0  0  0  0
 43 51  1  0  0  0  0
 43 44  2  0  0  0  0
  8  9  1  0  0  0  0
  9 17  1  0  0  0  0
  9 10  2  0  0  0  0
 18 19  1  0  0  0  0
 19 41  1  0  0  0  0
 19 20  2  0  0  0  0
 42 45  1  0  0  0  0
  8 11  1  0  0  0  0
 51 52  1  0  0  0  0
 18 21  1  0  0  0  0
 41 42  1  0  0  0  0
  7  8  1  0  0  0  0
 17 18  1  0  0  0  0
 29 39  1  0  0  0  0
 30 40  1  0  0  0  0
 27 37  1  0  0  0  0
 28 38  1  0  0  0  0
 23 35  1  0  0  0  0
  3  4  1  0  0  0  0
  3  5  1  0  0  0  0
  3  6  1  0  0  0  0
 45 48  1  0  0  0  0
 45 49  1  0  0  0  0
 45 50  1  0  0  0  0
 11 14  1  0  0  0  0
 11 15  1  0  0  0  0
 11 16  1  0  0  0  0
 52 54  1  0  0  0  0
 52 55  1  0  0  0  0
 52 56  1  0  0  0  0
 21 33  1  0  0  0  0
 21 34  1  0  0  0  0
 42 47  1  0  0  0  0
  8 13  1  0  0  0  0
 18 32  1  0  0  0  0
 25 36  1  0  0  0  0
 51 53  1  0  0  0  0
  7 12  1  0  0  0  0
 41 46  1  0  0  0  0
 17 31  1  0  0  0  0
M  END
$$$$

  -OEChem-05262214473D

 56 57  0     1  0  0  0  0  0999 V2000
   -2.2900    0.3401    4.1553 C   0  0  0  0  0  0  0  0  0  0  0  0
   -1.3426   -0.2746    3.6796 O   0  0  0  0  0  0  0  0  0  0  0  0
   -2.7219    0.0577    5.5560 C   0  0  0  0  0  0  0  0  0  0  0  0
   -3.4815   -0.7386    5.6094 H   0  0  0  0  0  0  0  0  0  0  0  0
   -1.8906   -0.2899    6.1903 H   0  0  0  0  0  0  0  0  0  0  0  0
   -3.1599    0.9126    6.0956 H   0  0  0  0  0  0  0  0  0  0  0  0
   -3.0397    1.3125    3.5142 N   0  0  0  0  0  0  0  0  0  0  0  0
   -2.7928    1.7385    2.1618 C   0  0  2  0  0  0  0  0  0  0  0  0
   -1.4579    1.1532    1.7206 C   0  0  0  0  0  0  0  0  0  0  0  0
   -0.5858    0.8004    2.5118 O   0  0  0  0  0  0  0  0  0  0  0  0
   -2.7841    3.2553    2.0523 C   0  0  0  0  0  0  0  0  0  0  0  0
   -3.8047    1.7484    4.0260 H   0  0  0  0  0  0  0  0  0  0  0  0
   -3.5969    1.3201    1.5466 H   0  0  0  0  0  0  0  0  0  0  0  0
   -1.9850    3.6926    2.6620 H   0  0  0  0  0  0  0  0  0  0  0  0
   -2.6246    3.5776    1.0180 H   0  0  0  0  0  0  0  0  0  0  0  0
   -3.7342    3.6765    2.3981 H   0  0  0  0  0  0  0  0  0  0  0  0
   -1.3352    1.1101    0.3372 N   0  0  0  0  0  0  0  0  0  0  0  0
   -0.1579    0.6093   -0.3265 C   0  0  2  0  0  0  0  0  0  0  0  0
   -0.2329    1.0617   -1.7804 C   0  0  0  0  0  0  0  0  0  0  0  0
    0.6111    0.7569   -2.6204 O   0  0  0  0  0  0  0  0  0  0  0  0
   -0.0548   -0.9183   -0.2484 C   0  0  0  0  0  0  0  0  0  0  0  0
    0.1790   -1.4163    1.1570 C   0  0  0  0  0  0  0  0  0  0  0  0
   -0.7907   -1.8754    2.0183 C   0  0  0  0  0  0  0  0  0  0  0  0
    1.4302   -1.4990    1.8297 C   0  0  0  0  0  0  0  0  0  0  0  0
   -0.1786   -2.2340    3.1893 N   0  0  0  0  0  0  0  0  0  0  0  0
    1.1778   -2.0150    3.1026 C   0  0  0  0  0  0  0  0  0  0  0  0
    2.7573   -1.1834    1.4767 C   0  0  0  0  0  0  0  0  0  0  0  0
    2.1902   -2.2321    4.0440 C   0  0  0  0  0  0  0  0  0  0  0  0
    3.7803   -1.3953    2.4082 C   0  0  0  0  0  0  0  0  0  0  0  0
    3.4988   -1.9117    3.6715 C   0  0  0  0  0  0  0  0  0  0  0  0
   -2.1183    1.4068   -0.2401 H   0  0  0  0  0  0  0  0  0  0  0  0
    0.7011    1.0910    0.1554 H   0  0  0  0  0  0  0  0  0  0  0  0
    0.7470   -1.2796   -0.9065 H   0  0  0  0  0  0  0  0  0  0  0  0
   -0.9726   -1.3846   -0.6301 H   0  0  0  0  0  0  0  0  0  0  0  0
   -1.8611   -1.9781    1.9046 H   0  0  0  0  0  0  0  0  0  0  0  0
   -0.6531   -2.6059    4.0005 H   0  0  0  0  0  0  0  0  0  0  0  0
    2.9929   -0.7793    0.4963 H   0  0  0  0  0  0  0  0  0  0  0  0
    1.9722   -2.6350    5.0272 H   0  0  0  0  0  0  0  0  0  0  0  0
    4.8057   -1.1534    2.1418 H   0  0  0  0  0  0  0  0  0  0  0  0
    4.3087   -2.0683    4.3793 H   0  0  0  0  0  0  0  0  0  0  0  0
   -1.3787    1.8023   -2.0356 N   0  0  0  0  0  0  0  0  0  0  0  0
   -1.7064    2.3333   -3.3393 C   0  0  2  0  0  0  0  0  0  0  0  0
   -0.4831    3.0704   -3.8680 C   0  0  0  0  0  0  0  0  0  0  0  0
    0.4031    3.5092   -3.1378 O   0  0  0  0  0  0  0  0  0  0  0  0
   -2.9118    3.2582   -3.2730 C   0  0  0  0  0  0  0  0  0  0  0  0
   -2.0191    1.9802   -1.2675 H   0  0  0  0  0  0  0  0  0  0  0  0
   -1.9238    1.4753   -3.9847 H   0  0  0  0  0  0  0  0  0  0  0  0
   -2.7130    4.1238   -2.6307 H   0  0  0  0  0  0  0  0  0  0  0  0
   -3.1763    3.6370   -4.2657 H   0  0  0  0  0  0  0  0  0  0  0  0
   -3.7829    2.7345   -2.8646 H   0  0  0  0  0  0  0  0  0  0  0  0
   -0.5188    3.2185   -5.2474 N   0  0  0  0  0  0  0  0  0  0  0  0
    0.5219    3.8946   -5.9862 C   0  0  0  0  0  0  0  0  0  0  0  0
   -1.2830    2.8063   -5.7746 H   0  0  0  0  0  0  0  0  0  0  0  0
    0.2583    4.9561   -6.1039 H   0  0  0  0  0  0  0  0  0  0  0  0
    1.4727    3.8116   -5.4393 H   0  0  0  0  0  0  0  0  0  0  0  0
    0.6277    3.4311   -6.9781 H   0  0  0  0  0  0  0  0  0  0  0  0
 29 30  2  0  0  0  0
 27 29  1  0  0  0  0
 28 30  1  0  0  0  0
 24 27  2  0  0  0  0
 26 28  2  0  0  0  0
 22 23  2  0  0  0  0
 23 25  1  0  0  0  0
 22 24  1  0  0  0  0
 24 26  1  0  0  0  0
 21 22  1  0  0  0  0
 25 26  1  0  0  0  0
  1  3  1  0  0  0  0
  1  7  1  0  0  0  0
  1  2  2  0  0  0  0
 42 43  1  0  0  0  0
 43 51  1  0  0  0  0
 43 44  2  0  0  0  0
  8  9  1  0  0  0  0
  9 17  1  0  0  0  0
  9 10  2  0  0  0  0
 18 19  1  0  0  0  0
 19 41  1  0  0  0  0
 19 20  2  0  0  0  0
 42 45  1  0  0  0  0
  8 11  1  0  0  0  0
 51 52  1  0  0  0  0
 18 21  1  0  0  0  0
 41 42  1  0  0  0  0
  7  8  1  0  0  0  0
 17 18  1  0  0  0  0
 29 39  1  0  0  0  0
 30 40  1  0  0  0  0
 27 37  1  0  0  0  0
 28 38  1  0  0  0  0
 23 35  1  0  0  0  0
  3  4  1  0  0  0  0
  3  5  1  0  0  0  0
  3  6  1  0  0  0  0
 45 48  1  0  0  0  0
 45 49  1  0  0  0  0
 45 50  1  0  0  0  0
 11 14  1  0  0  0  0
 11 15  1  0  0  0  0
 11 16  1  0  0  0  0
 52 54  1  0  0  0  0
 52 55  1  0  0  0  0
 52 56  1  0  0  0  0
 21 33  1  0  0  0  0
 21 34  1  0  0  0  0
 42 47  1  0  0  0  0
  8 13  1  0  0  0  0
 18 32  1  0  0  0  0
 25 36  1  0  0  0  0
 51 53  1  0  0  0  0
  7 12  1  0  0  0  0
 41 46  1  0  0  0  0
 17 31  1  0  0  0  0
M  END
$$$$

  -OEChem-05262214473D

 56 57  0     1  0  0  0  0  0999 V2000
   -2.2900    0.3401    4.1553 C   0  0  0  0  0  0  0  0  0  0  0  0
   -1.3426   -0.2746    3.6796 O   0  0  0  0  0  0  0  0  0  0  0  0
   -2.7219    0.0577    5.5560 C   0  0  0  0  0  0  0  0  0  0  0  0
   -3.4815   -0.7386    5.6094 H   0  0  0  0  0  0  0  0  0  0  0  0
   -1.8906   -0.2899    6.1903 H   0  0  0  0  0  0  0  0  0  0  0  0
   -3.1599    0.9126    6.0956 H   0  0  0  0  0  0  0  0  0  0  0  0
   -3.0397    1.3125    3.5142 N   0  0  0  0  0  0  0  0  0  0  0  0
   -2.7928    1.7385    2.1618 C   0  0  2  0  0  0  0  0  0  0  0  0
   -1.4579    1.1532    1.7206 C   0  0  0  0  0  0  0  0  0  0  0  0
   -0.5858    0.8004    2.5118 O   0  0  0  0  0  0  0  0  0  0  0  0
   -2.7841    3.2553    2.0523 C   0  0  0  0  0  0  0  0  0  0  0  0
   -3.8047    1.7484    4.0260 H   0  0  0  0  0  0  0  0  0  0  0  0
   -3.5969    1.3201    1.5466 H   0  0  0  0  0  0  0  0  0  0  0  0
   -1.9850    3.6926    2.6620 H   0  0  0  0  0  0  0  0  0  0  0  0
   -2.6246    3.5776    1.0180 H   0  0  0  0  0  0  0  0  0  0  0  0
   -3.7342    3.6765    2.3981 H   0  0  0  0  0  0  0  0  0  0  0  0
   -1.3352    1.1101    0.3372 N   0  0  0  0  0  0  0  0  0  0  0  0
   -0.1579    0.6093   -0.3265 C   0  0  2  0  0  0  0  0  0  0  0  0
   -0.2329    1.0617   -1.7804 C   0  0  0  0  0  0  0  0  0  0  0  0
    0.4414    0.5550   -2.6745 O   0  0  0  0  0  0  0  0  0  0  0  0
   -0.0548   -0.9183   -0.2484 C   0  0  0  0  0  0  0  0  0  0  0  0
    0.1790   -1.4163    1.1570 C   0  0  0  0  0  0  0  0  0  0  0  0
   -0.7907   -1.8754    2.0183 C   0  0  0  0  0  0  0  0  0  0  0  0
    1.4302   -1.4990    1.8297 C   0  0  0  0  0  0  0  0  0  0  0  0
   -0.1786   -2.2340    3.1893 N   0  0  0  0  0  0  0  0  0  0  0  0
    1.1778   -2.0150    3.1026 C   0  0  0  0  0  0  0  0  0  0  0  0
    2.7573   -1.1834    1.4767 C   0  0  0  0  0  0  0  0  0  0  0  0
    2.1902   -2.2321    4.0440 C   0  0  0  0  0  0  0  0  0  0  0  0
    3.7803   -1.3953    2.4082 C   0  0  0  0  0  0  0  0  0  0  0  0
    3.4988   -1.9117    3.6715 C   0  0  0  0  0  0  0  0  0  0  0  0
   -2.1183    1.4068   -0.2401 H   0  0  0  0  0  0  0  0  0  0  0  0
    0.7011    1.0910    0.1554 H   0  0  0  0  0  0  0  0  0  0  0  0
    0.7470   -1.2796   -0.9065 H   0  0  0  0  0  0  0  0  0  0  0  0
   -0.9726   -1.3846   -0.6301 H   0  0  0  0  0  0  0  0  0  0  0  0
   -1.8611   -1.9781    1.9046 H   0  0  0  0  0  0  0  0  0  0  0  0
   -0.6531   -2.6059    4.0005 H   0  0  0  0  0  0  0  0  0  0  0  0
    2.9929   -0.7793    0.4963 H   0  0  0  0  0  0  0  0  0  0  0  0
    1.9722   -2.6350    5.0272 H   0  0  0  0  0  0  0  0  0  0  0  0
    4.8057   -1.1534    2.1418 H   0  0  0  0  0  0  0  0  0  0  0  0
    4.3087   -2.0683    4.3793 H   0  0  0  0  0  0  0  0  0  0  0  0
   -1.1773    2.0619   -1.9652 N   0  0  0  0  0  0  0  0  0  0  0  0
   -1.4654    2.6534   -3.2521 C   0  0  2  0  0  0  0  0  0  0  0  0
   -0.1435    3.0634   -3.8877 C   0  0  0  0  0  0  0  0  0  0  0  0
    0.8780    3.2717   -3.2363 O   0  0  0  0  0  0  0  0  0  0  0  0
   -2.3967    3.8479   -3.1161 C   0  0  0  0  0  0  0  0  0  0  0  0
   -1.6919    2.3950   -1.1553 H   0  0  0  0  0  0  0  0  0  0  0  0
   -1.9372    1.8738   -3.8600 H   0  0  0  0  0  0  0  0  0  0  0  0
   -1.9410    4.6394   -2.5101 H   0  0  0  0  0  0  0  0  0  0  0  0
   -2.6367    4.2773   -4.0944 H   0  0  0  0  0  0  0  0  0  0  0  0
   -3.3352    3.5571   -2.6317 H   0  0  0  0  0  0  0  0  0  0  0  0
   -0.2496    3.2114   -5.2635 N   0  0  0  0  0  0  0  0  0  0  0  0
    0.8643    3.6069   -6.0934 C   0  0  0  0  0  0  0  0  0  0  0  0
   -1.1307    2.9994   -5.7224 H   0  0  0  0  0  0  0  0  0  0  0  0
    0.8619    4.7002   -6.2147 H   0  0  0  0  0  0  0  0  0  0  0  0
    1.8052    3.2929   -5.6179 H   0  0  0  0  0  0  0  0  0  0  0  0
    0.7745    3.1285   -7.0798 H   0  0  0  0  0  0  0  0  0  0  0  0
 29 30  2  0  0  0  0
 27 29  1  0  0  0  0
 28 30  1  0  0  0  0
 24 27  2  0  0  0  0
 26 28  2  0  0  0  0
 22 23  2  0  0  0  0
 23 25  1  0  0  0  0
 22 24  1  0  0  0  0
 24 26  1  0  0  0  0
 21 22  1  0  0  0  0
 25 26  1  0  0  0  0
  1  3  1  0  0  0  0
  1  7  1  0  0  0  0
  1  2  2  0  0  0  0
 42 43  1  0  0  0  0
 43 51  1  0  0  0  0
 43 44  2  0  0  0  0
  8  9  1  0  0  0  0
  9 17  1  0  0  0  0
  9 10  2  0  0  0  0
 18 19  1  0  0  0  0
 19 41  1  0  0  0  0
 19 20  2  0  0  0  0
 42 45  1  0  0  0  0
  8 11  1  0  0  0  0
 51 52  1  0  0  0  0
 18 21  1  0  0  0  0
 41 42  1  0  0  0  0
  7  8  1  0  0  0  0
 17 18  1  0  0  0  0
 29 39  1  0  0  0  0
 30 40  1  0  0  0  0
 27 37  1  0  0  0  0
 28 38  1  0  0  0  0
 23 35  1  0  0  0  0
  3  4  1  0  0  0  0
  3  5  1  0  0  0  0
  3  6  1  0  0  0  0
 45 48  1  0  0  0  0
 45 49  1  0  0  0  0
 45 50  1  0  0  0  0
 11 14  1  0  0  0  0
 11 15  1  0  0  0  0
 11 16  1  0  0  0  0
 52 54  1  0  0  0  0
 52 55  1  0  0  0  0
 52 56  1  0  0  0  0
 21 33  1  0  0  0  0
 21 34  1  0  0  0  0
 42 47  1  0  0  0  0
  8 13  1  0  0  0  0
 18 32  1  0  0  0  0
 25 36  1  0  0  0  0
 51 53  1  0  0  0  0
  7 12  1  0  0  0  0
 41 46  1  0  0  0  0
 17 31  1  0  0  0  0
M  END
$$$$

  -OEChem-05262214473D

 56 57  0     1  0  0  0  0  0999 V2000
   -2.2900    0.3401    4.1553 C   0  0  0  0  0  0  0  0  0  0  0  0
   -1.3426   -0.2746    3.6796 O   0  0  0  0  0  0  0  0  0  0  0  0
   -2.7219    0.0577    5.5560 C   0  0  0  0  0  0  0  0  0  0  0  0
   -3.4815   -0.7386    5.6094 H   0  0  0  0  0  0  0  0  0  0  0  0
   -1.8906   -0.2899    6.1903 H   0  0  0  0  0  0  0  0  0  0  0  0
   -3.1599    0.9126    6.0956 H   0  0  0  0  0  0  0  0  0  0  0  0
   -3.0397    1.3125    3.5142 N   0  0  0  0  0  0  0  0  0  0  0  0
   -2.7928    1.7385    2.1618 C   0  0  2  0  0  0  0  0  0  0  0  0
   -1.4579    1.1532    1.7206 C   0  0  0  0  0  0  0  0  0  0  0  0
   -0.5858    0.8004    2.5118 O   0  0  0  0  0  0  0  0  0  0  0  0
   -2.7841    3.2553    2.0523 C   0  0  0  0  0  0  0  0  0  0  0  0
   -3.8047    1.7484    4.0260 H   0  0  0  0  0  0  0  0  0  0  0  0
   -3.5969    1.3201    1.5466 H   0  0  0  0  0  0  0  0  0  0  0  0
   -1.9850    3.6926    2.6620 H   0  0  0  0  0  0  0  0  0  0  0  0
   -2.6246    3.5776    1.0180 H   0  0  0  0  0  0  0  0  0  0  0  0
   -3.7342    3.6765    2.3981 H   0  0  0  0  0  0  0  0  0  0  0  0
   -1.3352    1.1101    0.3372 N   0  0  0  0  0  0  0  0  0  0  0  0
   -0.1579    0.6093   -0.3265 C   0  0  2  0  0  0  0  0  0  0  0  0
   -0.2329    1.0617   -1.7804 C   0  0  0  0  0  0  0  0  0  0  0  0
    0.2236    0.4012   -2.7111 O   0  0  0  0  0  0  0  0  0  0  0  0
   -0.0548   -0.9183   -0.2484 C   0  0  0  0  0  0  0  0  0  0  0  0
    0.1790   -1.4163    1.1570 C   0  0  0  0  0  0  0  0  0  0  0  0
   -0.7907   -1.8754    2.0183 C   0  0  0  0  0  0  0  0  0  0  0  0
    1.4302   -1.4990    1.8297 C   0  0  0  0  0  0  0  0  0  0  0  0
   -0.1786   -2.2340    3.1893 N   0  0  0  0  0  0  0  0  0  0  0  0
    1.1778   -2.0150    3.1026 C   0  0  0  0  0  0  0  0  0  0  0  0
    2.7573   -1.1834    1.4767 C   0  0  0  0  0  0  0  0  0  0  0  0
    2.1902   -2.2321    4.0440 C   0  0  0  0  0  0  0  0  0  0  0  0
    3.7803   -1.3953    2.4082 C   0  0  0  0  0  0  0  0  0  0  0  0
    3.4988   -1.9117    3.6715 C   0  0  0  0  0  0  0  0  0  0  0  0
   -2.1183    1.4068   -0.2401 H   0  0  0  0  0  0  0  0  0  0  0  0
    0.7011    1.0910    0.1554 H   0  0  0  0  0  0  0  0  0  0  0  0
    0.7470   -1.2796   -0.9065 H   0  0  0  0  0  0  0  0  0  0  0  0
   -0.9726   -1.3846   -0.6301 H   0  0  0  0  0  0  0  0  0  0  0  0
   -1.8611   -1.9781    1.9046 H   0  0  0  0  0  0  0  0  0  0  0  0
   -0.6531   -2.6059    4.0005 H   0  0  0  0  0  0  0  0  0  0  0  0
    2.9929   -0.7793    0.4963 H   0  0  0  0  0  0  0  0  0  0  0  0
    1.9722   -2.6350    5.0272 H   0  0  0  0  0  0  0  0  0  0  0  0
    4.8057   -1.1534    2.1418 H   0  0  0  0  0  0  0  0  0  0  0  0
    4.3087   -2.0683    4.3793 H   0  0  0  0  0  0  0  0  0  0  0  0
   -0.9133    2.2638   -1.9160 N   0  0  0  0  0  0  0  0  0  0  0  0
   -1.1468    2.9042   -3.1905 C   0  0  2  0  0  0  0  0  0  0  0  0
    0.1813    2.9726   -3.9327 C   0  0  0  0  0  0  0  0  0  0  0  0
    1.2705    2.9237   -3.3648 O   0  0  0  0  0  0  0  0  0  0  0  0
   -1.7416    4.2923   -3.0116 C   0  0  0  0  0  0  0  0  0  0  0  0
   -1.2649    2.7163   -1.0773 H   0  0  0  0  0  0  0  0  0  0  0  0
   -1.8423    2.2636   -3.7436 H   0  0  0  0  0  0  0  0  0  0  0  0
   -1.0589    4.9485   -2.4595 H   0  0  0  0  0  0  0  0  0  0  0  0
   -1.9443    4.7647   -3.9784 H   0  0  0  0  0  0  0  0  0  0  0  0
   -2.6818    4.2442   -2.4516 H   0  0  0  0  0  0  0  0  0  0  0  0
    0.0074    3.1380   -5.2997 N   0  0  0  0  0  0  0  0  0  0  0  0
    1.1158    3.2431   -6.2196 C   0  0  0  0  0  0  0  0  0  0  0  0
   -0.9319    3.1490   -5.6861 H   0  0  0  0  0  0  0  0  0  0  0  0
    1.3733    4.3026   -6.3648 H   0  0  0  0  0  0  0  0  0  0  0  0
    1.9847    2.7076   -5.8093 H   0  0  0  0  0  0  0  0  0  0  0  0
    0.8339    2.7987   -7.1855 H   0  0  0  0  0  0  0  0  0  0  0  0
 29 30  2  0  0  0  0
 27 29  1  0  0  0  0
 28 30  1  0  0  0  0
 24 27  2  0  0  0  0
 26 28  2  0  0  0  0
 22 23  2  0  0  0  0
 23 25  1  0  0  0  0
 22 24  1  0  0  0  0
 24 26  1  0  0  0  0
 21 22  1  0  0  0  0
 25 26  1  0  0  0  0
  1  3  1  0  0  0  0
  1  7  1  0  0  0  0
  1  2  2  0  0  0  0
 42 43  1  0  0  0  0
 43 51  1  0  0  0  0
 43 44  2  0  0  0  0
  8  9  1  0  0  0  0
  9 17  1  0  0  0  0
  9 10  2  0  0  0  0
 18 19  1  0  0  0  0
 19 41  1  0  0  0  0
 19 20  2  0  0  0  0
 42 45  1  0  0  0  0
  8 11  1  0  0  0  0
 51 52  1  0  0  0  0
 18 21  1  0  0  0  0
 41 42  1  0  0  0  0
  7  8  1  0  0  0  0
 17 18  1  0  0  0  0
 29 39  1  0  0  0  0
 30 40  1  0  0  0  0
 27 37  1  0  0  0  0
 28 38  1  0  0  0  0
 23 35  1  0  0  0  0
  3  4  1  0  0  0  0
  3  5  1  0  0  0  0
  3  6  1  0  0  0  0
 45 48  1  0  0  0  0
 45 49  1  0  0  0  0
 45 50  1  0  0  0  0
 11 14  1  0  0  0  0
 11 15  1  0  0  0  0
 11 16  1  0  0  0  0
 52 54  1  0  0  0  0
 52 55  1  0  0  0  0
 52 56  1  0  0  0  0
 21 33  1  0  0  0  0
 21 34  1  0  0  0  0
 42 47  1  0  0  0  0
  8 13  1  0  0  0  0
 18 32  1  0  0  0  0
 25 36  1  0  0  0  0
 51 53  1  0  0  0  0
  7 12  1  0  0  0  0
 41 46  1  0  0  0  0
 17 31  1  0  0  0  0
M  END
$$$$

  -OEChem-05262214473D

 56 57  0     1  0  0  0  0  0999 V2000
   -2.2900    0.3401    4.1553 C   0  0  0  0  0  0  0  0  0  0  0  0
   -1.3426   -0.2746    3.6796 O   0  0  0  0  0  0  0  0  0  0  0  0
   -2.7219    0.0577    5.5560 C   0  0  0  0  0  0  0  0  0  0  0  0
   -3.4815   -0.7386    5.6094 H   0  0  0  0  0  0  0  0  0  0  0  0
   -1.8906   -0.2899    6.1903 H   0  0  0  0  0  0  0  0  0  0  0  0
   -3.1599    0.9126    6.0956 H   0  0  0  0  0  0  0  0  0  0  0  0
   -3.0397    1.3125    3.5142 N   0  0  0  0  0  0  0  0  0  0  0  0
   -2.7928    1.7385    2.1618 C   0  0  2  0  0  0  0  0  0  0  0  0
   -1.4579    1.1532    1.7206 C   0  0  0  0  0  0  0  0  0  0  0  0
   -0.5858    0.8004    2.5118 O   0  0  0  0  0  0  0  0  0  0  0  0
   -2.7841    3.2553    2.0523 C   0  0  0  0  0  0  0  0  0  0  0  0
   -3.8047    1.7484    4.0260 H   0  0  0  0  0  0  0  0  0  0  0  0
   -3.5969    1.3201    1.5466 H   0  0  0  0  0  0  0  0  0  0  0  0
   -1.9850    3.6926    2.6620 H   0  0  0  0  0  0  0  0  0  0  0  0
   -2.6246    3.5776    1.0180 H   0  0  0  0  0  0  0  0  0  0  0  0
   -3.7342    3.6765    2.3981 H   0  0  0  0  0  0  0  0  0  0  0  0
   -1.3352    1.1101    0.3372 N   0  0  0  0  0  0  0  0  0  0  0  0
   -0.1579    0.6093   -0.3265 C   0  0  2  0  0  0  0  0  0  0  0  0
   -0.2329    1.0617   -1.7804 C   0  0  0  0  0  0  0  0  0  0  0  0
   -0.0276    0.3059   -2.7278 O   0  0  0  0  0  0  0  0  0  0  0  0
   -0.0548   -0.9183   -0.2484 C   0  0  0  0  0  0  0  0  0  0  0  0
    0.1790   -1.4163    1.1570 C   0  0  0  0  0  0  0  0  0  0  0  0
   -0.7907   -1.8754    2.0183 C   0  0  0  0  0  0  0  0  0  0  0  0
    1.4302   -1.4990    1.8297 C   0  0  0  0  0  0  0  0  0  0  0  0
   -0.1786   -2.2340    3.1893 N   0  0  0  0  0  0  0  0  0  0  0  0
    1.1778   -2.0150    3.1026 C   0  0  0  0  0  0  0  0  0  0  0  0
    2.7573   -1.1834    1.4767 C   0  0  0  0  0  0  0  0  0  0  0  0
    2.1902   -2.2321    4.0440 C   0  0  0  0  0  0  0  0  0  0  0  0
    3.7803   -1.3953    2.4082 C   0  0  0  0  0  0  0  0  0  0  0  0
    3.4988   -1.9117    3.6715 C   0  0  0  0  0  0  0  0  0  0  0  0
   -2.1183    1.4068   -0.2401 H   0  0  0  0  0  0  0  0  0  0  0  0
    0.7011    1.0910    0.1554 H   0  0  0  0  0  0  0  0  0  0  0  0
    0.7470   -1.2796   -0.9065 H   0  0  0  0  0  0  0  0  0  0  0  0
   -0.9726   -1.3846   -0.6301 H   0  0  0  0  0  0  0  0  0  0  0  0
   -1.8611   -1.9781    1.9046 H   0  0  0  0  0  0  0  0  0  0  0  0
   -0.6531   -2.6059    4.0005 H   0  0  0  0  0  0  0  0  0  0  0  0
    2.9929   -0.7793    0.4963 H   0  0  0  0  0  0  0  0  0  0  0  0
    1.9722   -2.6350    5.0272 H   0  0  0  0  0  0  0  0  0  0  0  0
    4.8057   -1.1534    2.1418 H   0  0  0  0  0  0  0  0  0  0  0  0
    4.3087   -2.0683    4.3793 H   0  0  0  0  0  0  0  0  0  0  0  0
   -0.6047    2.3944   -1.8913 N   0  0  0  0  0  0  0  0  0  0  0  0
   -0.7724    3.0686   -3.1587 C   0  0  2  0  0  0  0  0  0  0  0  0
    0.4692    2.8041   -4.0000 C   0  0  0  0  0  0  0  0  0  0  0  0
    1.5538    2.4891   -3.5146 O   0  0  0  0  0  0  0  0  0  0  0  0
   -0.9910    4.5612   -2.9666 C   0  0  0  0  0  0  0  0  0  0  0  0
   -0.7671    2.9223   -1.0389 H   0  0  0  0  0  0  0  0  0  0  0  0
   -1.6455    2.6182   -3.6434 H   0  0  0  0  0  0  0  0  0  0  0  0
   -0.1266    5.0299   -2.4823 H   0  0  0  0  0  0  0  0  0  0  0  0
   -1.1463    5.0661   -3.9258 H   0  0  0  0  0  0  0  0  0  0  0  0
   -1.8672    4.7489   -2.3366 H   0  0  0  0  0  0  0  0  0  0  0  0
    0.2347    3.0031   -5.3534 N   0  0  0  0  0  0  0  0  0  0  0  0
    1.2593    2.8280   -6.3562 C   0  0  0  0  0  0  0  0  0  0  0  0
   -0.7002    3.2450   -5.6682 H   0  0  0  0  0  0  0  0  0  0  0  0
    1.7576    3.7904   -6.5440 H   0  0  0  0  0  0  0  0  0  0  0  0
    1.9989    2.0955   -6.0005 H   0  0  0  0  0  0  0  0  0  0  0  0
    0.8017    2.4641   -7.2880 H   0  0  0  0  0  0  0  0  0  0  0  0
 29 30  2  0  0  0  0
 27 29  1  0  0  0  0
 28 30  1  0  0  0  0
 24 27  2  0  0  0  0
 26 28  2  0  0  0  0
 22 23  2  0  0  0  0
 23 25  1  0  0  0  0
 22 24  1  0  0  0  0
 24 26  1  0  0  0  0
 21 22  1  0  0  0  0
 25 26  1  0  0  0  0
  1  3  1  0  0  0  0
  1  7  1  0  0  0  0
  1  2  2  0  0  0  0
 42 43  1  0  0  0  0
 43 51  1  0  0  0  0
 43 44  2  0  0  0  0
  8  9  1  0  0  0  0
  9 17  1  0  0  0  0
  9 10  2  0  0  0  0
 18 19  1  0  0  0  0
 19 41  1  0  0  0  0
 19 20  2  0  0  0  0
 42 45  1  0  0  0  0
  8 11  1  0  0  0  0
 51 52  1  0  0  0  0
 18 21  1  0  0  0  0
 41 42  1  0  0  0  0
  7  8  1  0  0  0  0
 17 18  1  0  0  0  0
 29 39  1  0  0  0  0
 30 40  1  0  0  0  0
 27 37  1  0  0  0  0
 28 38  1  0  0  0  0
 23 35  1  0  0  0  0
  3  4  1  0  0  0  0
  3  5  1  0  0  0  0
  3  6  1  0  0  0  0
 45 48  1  0  0  0  0
 45 49  1  0  0  0  0
 45 50  1  0  0  0  0
 11 14  1  0  0  0  0
 11 15  1  0  0  0  0
 11 16  1  0  0  0  0
 52 54  1  0  0  0  0
 52 55  1  0  0  0  0
 52 56  1  0  0  0  0
 21 33  1  0  0  0  0
 21 34  1  0  0  0  0
 42 47  1  0  0  0  0
  8 13  1  0  0  0  0
 18 32  1  0  0  0  0
 25 36  1  0  0  0  0
 51 53  1  0  0  0  0
  7 12  1  0  0  0  0
 41 46  1  0  0  0  0
 17 31  1  0  0  0  0
M  END
$$$$

  -OEChem-05262214473D

 56 57  0     1  0  0  0  0  0999 V2000
   -2.2900    0.3401    4.1553 C   0  0  0  0  0  0  0  0  0  0  0  0
   -1.3426   -0.2746    3.6796 O   0  0  0  0  0  0  0  0  0  0  0  0
   -2.7219    0.0577    5.5560 C   0  0  0  0  0  0  0  0  0  0  0  0
   -3.4815   -0.7386    5.6094 H   0  0  0  0  0  0  0  0  0  0  0  0
   -1.8906   -0.2899    6.1903 H   0  0  0  0  0  0  0  0  0  0  0  0
   -3.1599    0.9126    6.0956 H   0  0  0  0  0  0  0  0  0  0  0  0
   -3.0397    1.3125    3.5142 N   0  0  0  0  0  0  0  0  0  0  0  0
   -2.7928    1.7385    2.1618 C   0  0  2  0  0  0  0  0  0  0  0  0
   -1.4579    1.1532    1.7206 C   0  0  0  0  0  0  0  0  0  0  0  0
   -0.5858    0.8004    2.5118 O   0  0  0  0  0  0  0  0  0  0  0  0
   -2.7841    3.2553    2.0523 C   0  0  0  0  0  0  0  0  0  0  0  0
   -3.8047    1.7484    4.0260 H   0  0  0  0  0  0  0  0  0  0  0  0
   -3.5969    1.3201    1.5466 H   0  0  0  0  0  0  0  0  0  0  0  0
   -1.9850    3.6926    2.6620 H   0  0  0  0  0  0  0  0  0  0  0  0
   -2.6246    3.5776    1.0180 H   0  0  0  0  0  0  0  0  0  0  0  0
   -3.7342    3.6765    2.3981 H   0  0  0  0  0  0  0  0  0  0  0  0
   -1.3352    1.1101    0.3372 N   0  0  0  0  0  0  0  0  0  0  0  0
   -0.1579    0.6093   -0.3265 C   0  0  2  0  0  0  0  0  0  0  0  0
   -0.2329    1.0617   -1.7804 C   0  0  0  0  0  0  0  0  0  0  0  0
   -0.2950    0.2757   -2.7234 O   0  0  0  0  0  0  0  0  0  0  0  0
   -0.0548   -0.9183   -0.2484 C   0  0  0  0  0  0  0  0  0  0  0  0
    0.1790   -1.4163    1.1570 C   0  0  0  0  0  0  0  0  0  0  0  0
   -0.7907   -1.8754    2.0183 C   0  0  0  0  0  0  0  0  0  0  0  0
    1.4302   -1.4990    1.8297 C   0  0  0  0  0  0  0  0  0  0  0  0
   -0.1786   -2.2340    3.1893 N   0  0  0  0  0  0  0  0  0  0  0  0
    1.1778   -2.0150    3.1026 C   0  0  0  0  0  0  0  0  0  0  0  0
    2.7573   -1.1834    1.4767 C   0  0  0  0  0  0  0  0  0  0  0  0
    2.1902   -2.2321    4.0440 C   0  0  0  0  0  0  0  0  0  0  0  0
    3.7803   -1.3953    2.4082 C   0  0  0  0  0  0  0  0  0  0  0  0
    3.4988   -1.9117    3.6715 C   0  0  0  0  0  0  0  0  0  0  0  0
   -2.1183    1.4068   -0.2401 H   0  0  0  0  0  0  0  0  0  0  0  0
    0.7011    1.0910    0.1554 H   0  0  0  0  0  0  0  0  0  0  0  0
    0.7470   -1.2796   -0.9065 H   0  0  0  0  0  0  0  0  0  0  0  0
   -0.9726   -1.3846   -0.6301 H   0  0  0  0  0  0  0  0  0  0  0  0
   -1.8611   -1.9781    1.9046 H   0  0  0  0  0  0  0  0  0  0  0  0
   -0.6531   -2.6059    4.0005 H   0  0  0  0  0  0  0  0  0  0  0  0
    2.9929   -0.7793    0.4963 H   0  0  0  0  0  0  0  0  0  0  0  0
    1.9722   -2.6350    5.0272 H   0  0  0  0  0  0  0  0  0  0  0  0
    4.8057   -1.1534    2.1418 H   0  0  0  0  0  0  0  0  0  0  0  0
    4.3087   -2.0683    4.3793 H   0  0  0  0  0  0  0  0  0  0  0  0
   -0.2725    2.4446   -1.8929 N   0  0  0  0  0  0  0  0  0  0  0  0
   -0.3678    3.1354   -3.1588 C   0  0  2  0  0  0  0  0  0  0  0  0
    0.7005    2.5694   -4.0850 C   0  0  0  0  0  0  0  0  0  0  0  0
    1.7087    1.9975   -3.6756 O   0  0  0  0  0  0  0  0  0  0  0  0
   -0.1962    4.6363   -2.9843 C   0  0  0  0  0  0  0  0  0  0  0  0
   -0.2325    2.9989   -1.0427 H   0  0  0  0  0  0  0  0  0  0  0  0
   -1.3601    2.9135   -3.5663 H   0  0  0  0  0  0  0  0  0  0  0  0
    0.7922    4.8781   -2.5769 H   0  0  0  0  0  0  0  0  0  0  0  0
   -0.2971    5.1610   -3.9401 H   0  0  0  0  0  0  0  0  0  0  0  0
   -0.9470    5.0368   -2.2946 H   0  0  0  0  0  0  0  0  0  0  0  0
    0.4169    2.8161   -5.4210 N   0  0  0  0  0  0  0  0  0  0  0  0
    1.2848    2.3898   -6.4938 C   0  0  0  0  0  0  0  0  0  0  0  0
   -0.4514    3.2807   -5.6699 H   0  0  0  0  0  0  0  0  0  0  0  0
    1.9886    3.1986   -6.7401 H   0  0  0  0  0  0  0  0  0  0  0  0
    1.8468    1.4983   -6.1785 H   0  0  0  0  0  0  0  0  0  0  0  0
    0.6802    2.1476   -7.3802 H   0  0  0  0  0  0  0  0  0  0  0  0
 29 30  2  0  0  0  0
 27 29  1  0  0  0  0
 28 30  1  0  0  0  0
 24 27  2  0  0  0  0
 26 28  2  0  0  0  0
 22 23  2  0  0  0  0
 23 25  1  0  0  0  0
 22 24  1  0  0  0  0
 24 26  1  0  0  0  0
 21 22  1  0  0  0  0
 25 26  1  0  0  0  0
  1  3  1  0  0  0  0
  1  7  1  0  0  0  0
  1  2  2  0  0  0  0
 42 43  1  0  0  0  0
 43 51  1  0  0  0  0
 43 44  2  0  0  0  0
  8  9  1  0  0  0  0
  9 17  1  0  0  0  0
  9 10  2  0  0  0  0
 18 19  1  0  0  0  0
 19 41  1  0  0  0  0
 19 20  2  0  0  0  0
 42 45  1  0  0  0  0
  8 11  1  0  0  0  0
 51 52  1  0  0  0  0
 18 21  1  0  0  0  0
 41 42  1  0  0  0  0
  7  8  1  0  0  0  0
 17 18  1  0  0  0  0
 29 39  1  0  0  0  0
 30 40  1  0  0  0  0
 27 37  1  0  0  0  0
 28 38  1  0  0  0  0
 23 35  1  0  0  0  0
  3  4  1  0  0  0  0
  3  5  1  0  0  0  0
  3  6  1  0  0  0  0
 45 48  1  0  0  0  0
 45 49  1  0  0  0  0
 45 50  1  0  0  0  0
 11 14  1  0  0  0  0
 11 15  1  0  0  0  0
 11 16  1  0  0  0  0
 52 54  1  0  0  0  0
 52 55  1  0  0  0  0
 52 56  1  0  0  0  0
 21 33  1  0  0  0  0
 21 34  1  0  0  0  0
 42 47  1  0  0  0  0
  8 13  1  0  0  0  0
 18 32  1  0  0  0  0
 25 36  1  0  0  0  0
 51 53  1  0  0  0  0
  7 12  1  0  0  0  0
 41 46  1  0  0  0  0
 17 31  1  0  0  0  0
M  END
$$$$

  -OEChem-05262214473D

 56 57  0     1  0  0  0  0  0999 V2000
   -2.2900    0.3401    4.1553 C   0  0  0  0  0  0  0  0  0  0  0  0
   -1.3426   -0.2746    3.6796 O   0  0  0  0  0  0  0  0  0  0  0  0
   -2.7219    0.0577    5.5560 C   0  0  0  0  0  0  0  0  0  0  0  0
   -3.4815   -0.7386    5.6094 H   0  0  0  0  0  0  0  0  0  0  0  0
   -1.8906   -0.2899    6.1903 H   0  0  0  0  0  0  0  0  0  0  0  0
   -3.1599    0.9126    6.0956 H   0  0  0  0  0  0  0  0  0  0  0  0
   -3.0397    1.3125    3.5142 N   0  0  0  0  0  0  0  0  0  0  0  0
   -2.7928    1.7385    2.1618 C   0  0  2  0  0  0  0  0  0  0  0  0
   -1.4579    1.1532    1.7206 C   0  0  0  0  0  0  0  0  0  0  0  0
   -0.5858    0.8004    2.5118 O   0  0  0  0  0  0  0  0  0  0  0  0
   -2.7841    3.2553    2.0523 C   0  0  0  0  0  0  0  0  0  0  0  0
   -3.8047    1.7484    4.0260 H   0  0  0  0  0  0  0  0  0  0  0  0
   -3.5969    1.3201    1.5466 H   0  0  0  0  0  0  0  0  0  0  0  0
   -1.9850    3.6926    2.6620 H   0  0  0  0  0  0  0  0  0  0  0  0
   -2.6246    3.5776    1.0180 H   0  0  0  0  0  0  0  0  0  0  0  0
   -3.7342    3.6765    2.3981 H   0  0  0  0  0  0  0  0  0  0  0  0
   -1.3352    1.1101    0.3372 N   0  0  0  0  0  0  0  0  0  0  0  0
   -0.1579    0.6093   -0.3265 C   0  0  2  0  0  0  0  0  0  0  0  0
   -0.2329    1.0617   -1.7804 C   0  0  0  0  0  0  0  0  0  0  0  0
   -0.5605    0.3126   -2.6982 O   0  0  0  0  0  0  0  0  0  0  0  0
   -0.0548   -0.9183   -0.2484 C   0  0  0  0  0  0  0  0  0  0  0  0
    0.1790   -1.4163    1.1570 C   0  0  0  0  0  0  0  0  0  0  0  0
   -0.7907   -1.8754    2.0183 C   0  0  0  0  0  0  0  0  0  0  0  0
    1.4302   -1.4990    1.8297 C   0  0  0  0  0  0  0  0  0  0  0  0
   -0.1786   -2.2340    3.1893 N   0  0  0  0  0  0  0  0  0  0  0  0
    1.1778   -2.0150    3.1026 C   0  0  0  0  0  0  0  0  0  0  0  0
    2.7573   -1.1834    1.4767 C   0  0  0  0  0  0  0  0  0  0  0  0
    2.1902   -2.2321    4.0440 C   0  0  0  0  0  0  0  0  0  0  0  0
    3.7803   -1.3953    2.4082 C   0  0  0  0  0  0  0  0  0  0  0  0
    3.4988   -1.9117    3.6715 C   0  0  0  0  0  0  0  0  0  0  0  0
   -2.1183    1.4068   -0.2401 H   0  0  0  0  0  0  0  0  0  0  0  0
    0.7011    1.0910    0.1554 H   0  0  0  0  0  0  0  0  0  0  0  0
    0.7470   -1.2796   -0.9065 H   0  0  0  0  0  0  0  0  0  0  0  0
   -0.9726   -1.3846   -0.6301 H   0  0  0  0  0  0  0  0  0  0  0  0
   -1.8611   -1.9781    1.9046 H   0  0  0  0  0  0  0  0  0  0  0  0
   -0.6531   -2.6059    4.0005 H   0  0  0  0  0  0  0  0  0  0  0  0
    2.9929   -0.7793    0.4963 H   0  0  0  0  0  0  0  0  0  0  0  0
    1.9722   -2.6350    5.0272 H   0  0  0  0  0  0  0  0  0  0  0  0
    4.8057   -1.1534    2.1418 H   0  0  0  0  0  0  0  0  0  0  0  0
    4.3087   -2.0683    4.3793 H   0  0  0  0  0  0  0  0  0  0  0  0
    0.0607    2.4110   -1.9205 N   0  0  0  0  0  0  0  0  0  0  0  0
    0.0395    3.1000   -3.1908 C   0  0  2  0  0  0  0  0  0  0  0  0
    0.8595    2.2845   -4.1818 C   0  0  0  0  0  0  0  0  0  0  0  0
    1.7246    1.4823   -3.8368 O   0  0  0  0  0  0  0  0  0  0  0  0
    0.5887    4.5124   -3.0634 C   0  0  0  0  0  0  0  0  0  0  0  0
    0.3025    2.9409   -1.0884 H   0  0  0  0  0  0  0  0  0  0  0  0
   -1.0057    3.1292   -3.5174 H   0  0  0  0  0  0  0  0  0  0  0  0
    1.6350    4.5035   -2.7370 H   0  0  0  0  0  0  0  0  0  0  0  0
    0.5455    5.0428   -4.0204 H   0  0  0  0  0  0  0  0  0  0  0  0
    0.0162    5.0883   -2.3282 H   0  0  0  0  0  0  0  0  0  0  0  0
    0.5415    2.5896   -5.4979 N   0  0  0  0  0  0  0  0  0  0  0  0
    1.1908    1.9586   -6.6232 C   0  0  0  0  0  0  0  0  0  0  0  0
   -0.2023    3.2537   -5.6912 H   0  0  0  0  0  0  0  0  0  0  0  0
    2.0506    2.5674   -6.9397 H   0  0  0  0  0  0  0  0  0  0  0  0
    1.5388    0.9568   -6.3311 H   0  0  0  0  0  0  0  0  0  0  0  0
    0.4775    1.8707   -7.4559 H   0  0  0  0  0  0  0  0  0  0  0  0
 29 30  2  0  0  0  0
 27 29  1  0  0  0  0
 28 30  1  0  0  0  0
 24 27  2  0  0  0  0
 26 28  2  0  0  0  0
 22 23  2  0  0  0  0
 23 25  1  0  0  0  0
 22 24  1  0  0  0  0
 24 26  1  0  0  0  0
 21 22  1  0  0  0  0
 25 26  1  0  0  0  0
  1  3  1  0  0  0  0
  1  7  1  0  0  0  0
  1  2  2  0  0  0  0
 42 43  1  0  0  0  0
 43 51  1  0  0  0  0
 43 44  2  0  0  0  0
  8  9  1  0  0  0  0
  9 17  1  0  0  0  0
  9 10  2  0  0  0  0
 18 19  1  0  0  0  0
 19 41  1  0  0  0  0
 19 20  2  0  0  0  0
 42 45  1  0  0  0  0
  8 11  1  0  0  0  0
 51 52  1  0  0  0  0
 18 21  1  0  0  0  0
 41 42  1  0  0  0  0
  7  8  1  0  0  0  0
 17 18  1  0  0  0  0
 29 39  1  0  0  0  0
 30 40  1  0  0  0  0
 27 37  1  0  0  0  0
 28 38  1  0  0  0  0
 23 35  1  0  0  0  0
  3  4  1  0  0  0  0
  3  5  1  0  0  0  0
  3  6  1  0  0  0  0
 45 48  1  0  0  0  0
 45 49  1  0  0  0  0
 45 50  1  0  0  0  0
 11 14  1  0  0  0  0
 11 15  1  0  0  0  0
 11 16  1  0  0  0  0
 52 54  1  0  0  0  0
 52 55  1  0  0  0  0
 52 56  1  0  0  0  0
 21 33  1  0  0  0  0
 21 34  1  0  0  0  0
 42 47  1  0  0  0  0
  8 13  1  0  0  0  0
 18 32  1  0  0  0  0
 25 36  1  0  0  0  0
 51 53  1  0  0  0  0
  7 12  1  0  0  0  0
 41 46  1  0  0  0  0
 17 31  1  0  0  0  0
M  END
$$$$

  -OEChem-05262214473D

 56 57  0     1  0  0  0  0  0999 V2000
   -2.2900    0.3401    4.1553 C   0  0  0  0  0  0  0  0  0  0  0  0
   -1.3426   -0.2746    3.6796 O   0  0  0  0  0  0  0  0  0  0  0  0
   -2.7219    0.0577    5.5560 C   0  0  0  0  0  0  0  0  0  0  0  0
   -3.4815   -0.7386    5.6094 H   0  0  0  0  0  0  0  0  0  0  0  0
   -1.8906   -0.2899    6.1903 H   0  0  0  0  0  0  0  0  0  0  0  0
   -3.1599    0.9126    6.0956 H   0  0  0  0  0  0  0  0  0  0  0  0
   -3.0397    1.3125    3.5142 N   0  0  0  0  0  0  0  0  0  0  0  0
   -2.7928    1.7385    2.1618 C   0  0  2  0  0  0  0  0  0  0  0  0
   -1.4579    1.1532    1.7206 C   0  0  0  0  0  0  0  0  0  0  0  0
   -0.5858    0.8004    2.5118 O   0  0  0  0  0  0  0  0  0  0  0  0
   -2.7841    3.2553    2.0523 C   0  0  0  0  0  0  0  0  0  0  0  0
   -3.8047    1.7484    4.0260 H   0  0  0  0  0  0  0  0  0  0  0  0
   -3.5969    1.3201    1.5466 H   0  0  0  0  0  0  0  0  0  0  0  0
   -1.9850    3.6926    2.6620 H   0  0  0  0  0  0  0  0  0  0  0  0
   -2.6246    3.5776    1.0180 H   0  0  0  0  0  0  0  0  0  0  0  0
   -3.7342    3.6765    2.3981 H   0  0  0  0  0  0  0  0  0  0  0  0
   -1.3352    1.1101    0.3372 N   0  0  0  0  0  0  0  0  0  0  0  0
   -0.1579    0.6093   -0.3265 C   0  0  2  0  0  0  0  0  0  0  0  0
   -0.2329    1.0617   -1.7804 C   0  0  0  0  0  0  0  0  0  0  0  0
   -0.8059    0.4140   -2.6540 O   0  0  0  0  0  0  0  0  0  0  0  0
   -0.0548   -0.9183   -0.2484 C   0  0  0  0  0  0  0  0  0  0  0  0
    0.1790   -1.4163    1.1570 C   0  0  0  0  0  0  0  0  0  0  0  0
   -0.7907   -1.8754    2.0183 C   0  0  0  0  0  0  0  0  0  0  0  0
    1.4302   -1.4990    1.8297 C   0  0  0  0  0  0  0  0  0  0  0  0
   -0.1786   -2.2340    3.1893 N   0  0  0  0  0  0  0  0  0  0  0  0
    1.1778   -2.0150    3.1026 C   0  0  0  0  0  0  0  0  0  0  0  0
    2.7573   -1.1834    1.4767 C   0  0  0  0  0  0  0  0  0  0  0  0
    2.1902   -2.2321    4.0440 C   0  0  0  0  0  0  0  0  0  0  0  0
    3.7803   -1.3953    2.4082 C   0  0  0  0  0  0  0  0  0  0  0  0
    3.4988   -1.9117    3.6715 C   0  0  0  0  0  0  0  0  0  0  0  0
   -2.1183    1.4068   -0.2401 H   0  0  0  0  0  0  0  0  0  0  0  0
    0.7011    1.0910    0.1554 H   0  0  0  0  0  0  0  0  0  0  0  0
    0.7470   -1.2796   -0.9065 H   0  0  0  0  0  0  0  0  0  0  0  0
   -0.9726   -1.3846   -0.6301 H   0  0  0  0  0  0  0  0  0  0  0  0
   -1.8611   -1.9781    1.9046 H   0  0  0  0  0  0  0  0  0  0  0  0
   -0.6531   -2.6059    4.0005 H   0  0  0  0  0  0  0  0  0  0  0  0
    2.9929   -0.7793    0.4963 H   0  0  0  0  0  0  0  0  0  0  0  0
    1.9722   -2.6350    5.0272 H   0  0  0  0  0  0  0  0  0  0  0  0
    4.8057   -1.1534    2.1418 H   0  0  0  0  0  0  0  0  0  0  0  0
    4.3087   -2.0683    4.3793 H   0  0  0  0  0  0  0  0  0  0  0  0
    0.3721    2.2960   -1.9724 N   0  0  0  0  0  0  0  0  0  0  0  0
    0.4218    2.9649   -3.2526 C   0  0  2  0  0  0  0  0  0  0  0  0
    0.9353    1.9689   -4.2839 C   0  0  0  0  0  0  0  0  0  0  0  0
    1.6005    0.9787   -3.9871 O   0  0  0  0  0  0  0  0  0  0  0  0
    1.3102    4.1980   -3.1984 C   0  0  0  0  0  0  0  0  0  0  0  0
    0.8015    2.7522   -1.1728 H   0  0  0  0  0  0  0  0  0  0  0  0
   -0.6063    3.2507   -3.5002 H   0  0  0  0  0  0  0  0  0  0  0  0
    2.3444    3.9316   -2.9516 H   0  0  0  0  0  0  0  0  0  0  0  0
    1.3241    4.7196   -4.1612 H   0  0  0  0  0  0  0  0  0  0  0  0
    0.9567    4.8999   -2.4354 H   0  0  0  0  0  0  0  0  0  0  0  0
    0.6001    2.3390   -5.5789 N   0  0  0  0  0  0  0  0  0  0  0  0
    0.9837    1.5636   -6.7354 C   0  0  0  0  0  0  0  0  0  0  0  0
    0.0300    3.1659   -5.7305 H   0  0  0  0  0  0  0  0  0  0  0  0
    1.9394    1.9398   -7.1292 H   0  0  0  0  0  0  0  0  0  0  0  0
    1.0959    0.5077   -6.4480 H   0  0  0  0  0  0  0  0  0  0  0  0
    0.2077    1.6522   -7.5100 H   0  0  0  0  0  0  0  0  0  0  0  0
 29 30  2  0  0  0  0
 27 29  1  0  0  0  0
 28 30  1  0  0  0  0
 24 27  2  0  0  0  0
 26 28  2  0  0  0  0
 22 23  2  0  0  0  0
 23 25  1  0  0  0  0
 22 24  1  0  0  0  0
 24 26  1  0  0  0  0
 21 22  1  0  0  0  0
 25 26  1  0  0  0  0
  1  3  1  0  0  0  0
  1  7  1  0  0  0  0
  1  2  2  0  0  0  0
 42 43  1  0  0  0  0
 43 51  1  0  0  0  0
 43 44  2  0  0  0  0
  8  9  1  0  0  0  0
  9 17  1  0  0  0  0
  9 10  2  0  0  0  0
 18 19  1  0  0  0  0
 19 41  1  0  0  0  0
 19 20  2  0  0  0  0
 42 45  1  0  0  0  0
  8 11  1  0  0  0  0
 51 52  1  0  0  0  0
 18 21  1  0  0  0  0
 41 42  1  0  0  0  0
  7  8  1  0  0  0  0
 17 18  1  0  0  0  0
 29 39  1  0  0  0  0
 30 40  1  0  0  0  0
 27 37  1  0  0  0  0
 28 38  1  0  0  0  0
 23 35  1  0  0  0  0
  3  4  1  0  0  0  0
  3  5  1  0  0  0  0
  3  6  1  0  0  0  0
 45 48  1  0  0  0  0
 45 49  1  0  0  0  0
 45 50  1  0  0  0  0
 11 14  1  0  0  0  0
 11 15  1  0  0  0  0
 11 16  1  0  0  0  0
 52 54  1  0  0  0  0
 52 55  1  0  0  0  0
 52 56  1  0  0  0  0
 21 33  1  0  0  0  0
 21 34  1  0  0  0  0
 42 47  1  0  0  0  0
  8 13  1  0  0  0  0
 18 32  1  0  0  0  0
 25 36  1  0  0  0  0
 51 53  1  0  0  0  0
  7 12  1  0  0  0  0
 41 46  1  0  0  0  0
 17 31  1  0  0  0  0
M  END
$$$$

  -OEChem-05262214473D

 56 57  0     1  0  0  0  0  0999 V2000
   -2.2900    0.3401    4.1553 C   0  0  0  0  0  0  0  0  0  0  0  0
   -1.3426   -0.2746    3.6796 O   0  0  0  0  0  0  0  0  0  0  0  0
   -2.7219    0.0577    5.5560 C   0  0  0  0  0  0  0  0  0  0  0  0
   -3.4815   -0.7386    5.6094 H   0  0  0  0  0  0  0  0  0  0  0  0
   -1.8906   -0.2899    6.1903 H   0  0  0  0  0  0  0  0  0  0  0  0
   -3.1599    0.9126    6.0956 H   0  0  0  0  0  0  0  0  0  0  0  0
   -3.0397    1.3125    3.5142 N   0  0  0  0  0  0  0  0  0  0  0  0
   -2.7928    1.7385    2.1618 C   0  0  2  0  0  0  0  0  0  0  0  0
   -1.4579    1.1532    1.7206 C   0  0  0  0  0  0  0  0  0  0  0  0
   -0.5858    0.8004    2.5118 O   0  0  0  0  0  0  0  0  0  0  0  0
   -2.7841    3.2553    2.0523 C   0  0  0  0  0  0  0  0  0  0  0  0
   -3.8047    1.7484    4.0260 H   0  0  0  0  0  0  0  0  0  0  0  0
   -3.5969    1.3201    1.5466 H   0  0  0  0  0  0  0  0  0  0  0  0
   -1.9850    3.6926    2.6620 H   0  0  0  0  0  0  0  0  0  0  0  0
   -2.6246    3.5776    1.0180 H   0  0  0  0  0  0  0  0  0  0  0  0
   -3.7342    3.6765    2.3981 H   0  0  0  0  0  0  0  0  0  0  0  0
   -1.3352    1.1101    0.3372 N   0  0  0  0  0  0  0  0  0  0  0  0
   -0.1579    0.6093   -0.3265 C   0  0  2  0  0  0  0  0  0  0  0  0
   -0.2329    1.0617   -1.7804 C   0  0  0  0  0  0  0  0  0  0  0  0
   -1.0144    0.5731   -2.5937 O   0  0  0  0  0  0  0  0  0  0  0  0
   -0.0548   -0.9183   -0.2484 C   0  0  0  0  0  0  0  0  0  0  0  0
    0.1790   -1.4163    1.1570 C   0  0  0  0  0  0  0  0  0  0  0  0
   -0.7907   -1.8754    2.0183 C   0  0  0  0  0  0  0  0  0  0  0  0
    1.4302   -1.4990    1.8297 C   0  0  0  0  0  0  0  0  0  0  0  0
   -0.1786   -2.2340    3.1893 N   0  0  0  0  0  0  0  0  0  0  0  0
    1.1778   -2.0150    3.1026 C   0  0  0  0  0  0  0  0  0  0  0  0
    2.7573   -1.1834    1.4767 C   0  0  0  0  0  0  0  0  0  0  0  0
    2.1902   -2.2321    4.0440 C   0  0  0  0  0  0  0  0  0  0  0  0
    3.7803   -1.3953    2.4082 C   0  0  0  0  0  0  0  0  0  0  0  0
    3.4988   -1.9117    3.6715 C   0  0  0  0  0  0  0  0  0  0  0  0
   -2.1183    1.4068   -0.2401 H   0  0  0  0  0  0  0  0  0  0  0  0
    0.7011    1.0910    0.1554 H   0  0  0  0  0  0  0  0  0  0  0  0
    0.7470   -1.2796   -0.9065 H   0  0  0  0  0  0  0  0  0  0  0  0
   -0.9726   -1.3846   -0.6301 H   0  0  0  0  0  0  0  0  0  0  0  0
   -1.8611   -1.9781    1.9046 H   0  0  0  0  0  0  0  0  0  0  0  0
   -0.6531   -2.6059    4.0005 H   0  0  0  0  0  0  0  0  0  0  0  0
    2.9929   -0.7793    0.4963 H   0  0  0  0  0  0  0  0  0  0  0  0
    1.9722   -2.6350    5.0272 H   0  0  0  0  0  0  0  0  0  0  0  0
    4.8057   -1.1534    2.1418 H   0  0  0  0  0  0  0  0  0  0  0  0
    4.3087   -2.0683    4.3793 H   0  0  0  0  0  0  0  0  0  0  0  0
    0.6405    2.1075   -2.0449 N   0  0  0  0  0  0  0  0  0  0  0  0
    0.7529    2.7393   -3.3399 C   0  0  2  0  0  0  0  0  0  0  0  0
    0.9228    1.6440   -4.3844 C   0  0  0  0  0  0  0  0  0  0  0  0
    1.3447    0.5210   -4.1163 O   0  0  0  0  0  0  0  0  0  0  0  0
    1.9191    3.7145   -3.3803 C   0  0  0  0  0  0  0  0  0  0  0  0
    1.2304    2.4457   -1.2903 H   0  0  0  0  0  0  0  0  0  0  0  0
   -0.1893    3.2697   -3.5158 H   0  0  0  0  0  0  0  0  0  0  0  0
    2.8719    3.2013   -3.2060 H   0  0  0  0  0  0  0  0  0  0  0  0
    1.9856    4.2134   -4.3528 H   0  0  0  0  0  0  0  0  0  0  0  0
    1.8103    4.4844   -2.6088 H   0  0  0  0  0  0  0  0  0  0  0  0
    0.5886    2.0815   -5.6584 N   0  0  0  0  0  0  0  0  0  0  0  0
    0.6774    1.2317   -6.8228 C   0  0  0  0  0  0  0  0  0  0  0  0
    0.2297    3.0233   -5.7852 H   0  0  0  0  0  0  0  0  0  0  0  0
    1.6624    1.3587   -7.2958 H   0  0  0  0  0  0  0  0  0  0  0  0
    0.5483    0.1818   -6.5211 H   0  0  0  0  0  0  0  0  0  0  0  0
   -0.1111    1.5072   -7.5386 H   0  0  0  0  0  0  0  0  0  0  0  0
 29 30  2  0  0  0  0
 27 29  1  0  0  0  0
 28 30  1  0  0  0  0
 24 27  2  0  0  0  0
 26 28  2  0  0  0  0
 22 23  2  0  0  0  0
 23 25  1  0  0  0  0
 22 24  1  0  0  0  0
 24 26  1  0  0  0  0
 21 22  1  0  0  0  0
 25 26  1  0  0  0  0
  1  3  1  0  0  0  0
  1  7  1  0  0  0  0
  1  2  2  0  0  0  0
 42 43  1  0  0  0  0
 43 51  1  0  0  0  0
 43 44  2  0  0  0  0
  8  9  1  0  0  0  0
  9 17  1  0  0  0  0
  9 10  2  0  0  0  0
 18 19  1  0  0  0  0
 19 41  1  0  0  0  0
 19 20  2  0  0  0  0
 42 45  1  0  0  0  0
  8 11  1  0  0  0  0
 51 52  1  0  0  0  0
 18 21  1  0  0  0  0
 41 42  1  0  0  0  0
  7  8  1  0  0  0  0
 17 18  1  0  0  0  0
 29 39  1  0  0  0  0
 30 40  1  0  0  0  0
 27 37  1  0  0  0  0
 28 38  1  0  0  0  0
 23 35  1  0  0  0  0
  3  4  1  0  0  0  0
  3  5  1  0  0  0  0
  3  6  1  0  0  0  0
 45 48  1  0  0  0  0
 45 49  1  0  0  0  0
 45 50  1  0  0  0  0
 11 14  1  0  0  0  0
 11 15  1  0  0  0  0
 11 16  1  0  0  0  0
 52 54  1  0  0  0  0
 52 55  1  0  0  0  0
 52 56  1  0  0  0  0
 21 33  1  0  0  0  0
 21 34  1  0  0  0  0
 42 47  1  0  0  0  0
  8 13  1  0  0  0  0
 18 32  1  0  0  0  0
 25 36  1  0  0  0  0
 51 53  1  0  0  0  0
  7 12  1  0  0  0  0
 41 46  1  0  0  0  0
 17 31  1  0  0  0  0
M  END
$$$$

  -OEChem-05262214473D

 56 57  0     1  0  0  0  0  0999 V2000
   -2.2900    0.3401    4.1553 C   0  0  0  0  0  0  0  0  0  0  0  0
   -1.3426   -0.2746    3.6796 O   0  0  0  0  0  0  0  0  0  0  0  0
   -2.7219    0.0577    5.5560 C   0  0  0  0  0  0  0  0  0  0  0  0
   -3.4815   -0.7386    5.6094 H   0  0  0  0  0  0  0  0  0  0  0  0
   -1.8906   -0.2899    6.1903 H   0  0  0  0  0  0  0  0  0  0  0  0
   -3.1599    0.9126    6.0956 H   0  0  0  0  0  0  0  0  0  0  0  0
   -3.0397    1.3125    3.5142 N   0  0  0  0  0  0  0  0  0  0  0  0
   -2.7928    1.7385    2.1618 C   0  0  2  0  0  0  0  0  0  0  0  0
   -1.4579    1.1532    1.7206 C   0  0  0  0  0  0  0  0  0  0  0  0
   -0.5858    0.8004    2.5118 O   0  0  0  0  0  0  0  0  0  0  0  0
   -2.7841    3.2553    2.0523 C   0  0  0  0  0  0  0  0  0  0  0  0
   -3.8047    1.7484    4.0260 H   0  0  0  0  0  0  0  0  0  0  0  0
   -3.5969    1.3201    1.5466 H   0  0  0  0  0  0  0  0  0  0  0  0
   -1.9850    3.6926    2.6620 H   0  0  0  0  0  0  0  0  0  0  0  0
   -2.6246    3.5776    1.0180 H   0  0  0  0  0  0  0  0  0  0  0  0
   -3.7342    3.6765    2.3981 H   0  0  0  0  0  0  0  0  0  0  0  0
   -1.3352    1.1101    0.3372 N   0  0  0  0  0  0  0  0  0  0  0  0
   -0.1579    0.6093   -0.3265 C   0  0  2  0  0  0  0  0  0  0  0  0
   -0.2329    1.0617   -1.7804 C   0  0  0  0  0  0  0  0  0  0  0  0
   -1.1720    0.7791   -2.5215 O   0  0  0  0  0  0  0  0  0  0  0  0
   -0.0548   -0.9183   -0.2484 C   0  0  0  0  0  0  0  0  0  0  0  0
    0.1790   -1.4163    1.1570 C   0  0  0  0  0  0  0  0  0  0  0  0
   -0.7907   -1.8754    2.0183 C   0  0  0  0  0  0  0  0  0  0  0  0
    1.4302   -1.4990    1.8297 C   0  0  0  0  0  0  0  0  0  0  0  0
   -0.1786   -2.2340    3.1893 N   0  0  0  0  0  0  0  0  0  0  0  0
    1.1778   -2.0150    3.1026 C   0  0  0  0  0  0  0  0  0  0  0  0
    2.7573   -1.1834    1.4767 C   0  0  0  0  0  0  0  0  0  0  0  0
    2.1902   -2.2321    4.0440 C   0  0  0  0  0  0  0  0  0  0  0  0
    3.7803   -1.3953    2.4082 C   0  0  0  0  0  0  0  0  0  0  0  0
    3.4988   -1.9117    3.6715 C   0  0  0  0  0  0  0  0  0  0  0  0
   -2.1183    1.4068   -0.2401 H   0  0  0  0  0  0  0  0  0  0  0  0
    0.7011    1.0910    0.1554 H   0  0  0  0  0  0  0  0  0  0  0  0
    0.7470   -1.2796   -0.9065 H   0  0  0  0  0  0  0  0  0  0  0  0
   -0.9726   -1.3846   -0.6301 H   0  0  0  0  0  0  0  0  0  0  0  0
   -1.8611   -1.9781    1.9046 H   0  0  0  0  0  0  0  0  0  0  0  0
   -0.6531   -2.6059    4.0005 H   0  0  0  0  0  0  0  0  0  0  0  0
    2.9929   -0.7793    0.4963 H   0  0  0  0  0  0  0  0  0  0  0  0
    1.9722   -2.6350    5.0272 H   0  0  0  0  0  0  0  0  0  0  0  0
    4.8057   -1.1534    2.1418 H   0  0  0  0  0  0  0  0  0  0  0  0
    4.3087   -2.0683    4.3793 H   0  0  0  0  0  0  0  0  0  0  0  0
    0.8477    1.8581   -2.1332 N   0  0  0  0  0  0  0  0  0  0  0  0
    1.0104    2.4385   -3.4467 C   0  0  2  0  0  0  0  0  0  0  0  0
    0.8227    1.3320   -4.4763 C   0  0  0  0  0  0  0  0  0  0  0  0
    0.9747    0.1404   -4.2156 O   0  0  0  0  0  0  0  0  0  0  0  0
    2.3740    3.0949   -3.5966 C   0  0  0  0  0  0  0  0  0  0  0  0
    1.5600    2.0423   -1.4329 H   0  0  0  0  0  0  0  0  0  0  0  0
    0.2171    3.1849   -3.5632 H   0  0  0  0  0  0  0  0  0  0  0  0
    3.1816    2.3625   -3.4830 H   0  0  0  0  0  0  0  0  0  0  0  0
    2.4848    3.5588   -4.5823 H   0  0  0  0  0  0  0  0  0  0  0  0
    2.5190    3.8701   -2.8365 H   0  0  0  0  0  0  0  0  0  0  0  0
    0.5078    1.8347   -5.7311 N   0  0  0  0  0  0  0  0  0  0  0  0
    0.2930    0.9857   -6.8796 C   0  0  0  0  0  0  0  0  0  0  0  0
    0.3831    2.8355   -5.8515 H   0  0  0  0  0  0  0  0  0  0  0  0
    1.2387    0.8636   -7.4280 H   0  0  0  0  0  0  0  0  0  0  0  0
   -0.0667    0.0013   -6.5455 H   0  0  0  0  0  0  0  0  0  0  0  0
   -0.4570    1.4454   -7.5400 H   0  0  0  0  0  0  0  0  0  0  0  0
 29 30  2  0  0  0  0
 27 29  1  0  0  0  0
 28 30  1  0  0  0  0
 24 27  2  0  0  0  0
 26 28  2  0  0  0  0
 22 23  2  0  0  0  0
 23 25  1  0  0  0  0
 22 24  1  0  0  0  0
 24 26  1  0  0  0  0
 21 22  1  0  0  0  0
 25 26  1  0  0  0  0
  1  3  1  0  0  0  0
  1  7  1  0  0  0  0
  1  2  2  0  0  0  0
 42 43  1  0  0  0  0
 43 51  1  0  0  0  0
 43 44  2  0  0  0  0
  8  9  1  0  0  0  0
  9 17  1  0  0  0  0
  9 10  2  0  0  0  0
 18 19  1  0  0  0  0
 19 41  1  0  0  0  0
 19 20  2  0  0  0  0
 42 45  1  0  0  0  0
  8 11  1  0  0  0  0
 51 52  1  0  0  0  0
 18 21  1  0  0  0  0
 41 42  1  0  0  0  0
  7  8  1  0  0  0  0
 17 18  1  0  0  0  0
 29 39  1  0  0  0  0
 30 40  1  0  0  0  0
 27 37  1  0  0  0  0
 28 38  1  0  0  0  0
 23 35  1  0  0  0  0
  3  4  1  0  0  0  0
  3  5  1  0  0  0  0
  3  6  1  0  0  0  0
 45 48  1  0  0  0  0
 45 49  1  0  0  0  0
 45 50  1  0  0  0  0
 11 14  1  0  0  0  0
 11 15  1  0  0  0  0
 11 16  1  0  0  0  0
 52 54  1  0  0  0  0
 52 55  1  0  0  0  0
 52 56  1  0  0  0  0
 21 33  1  0  0  0  0
 21 34  1  0  0  0  0
 42 47  1  0  0  0  0
  8 13  1  0  0  0  0
 18 32  1  0  0  0  0
 25 36  1  0  0  0  0
 51 53  1  0  0  0  0
  7 12  1  0  0  0  0
 41 46  1  0  0  0  0
 17 31  1  0  0  0  0
M  END
$$$$

  -OEChem-05262214473D

 56 57  0     1  0  0  0  0  0999 V2000
   -2.2900    0.3401    4.1553 C   0  0  0  0  0  0  0  0  0  0  0  0
   -1.3426   -0.2746    3.6796 O   0  0  0  0  0  0  0  0  0  0  0  0
   -2.7219    0.0577    5.5560 C   0  0  0  0  0  0  0  0  0  0  0  0
   -3.4815   -0.7386    5.6094 H   0  0  0  0  0  0  0  0  0  0  0  0
   -1.8906   -0.2899    6.1903 H   0  0  0  0  0  0  0  0  0  0  0  0
   -3.1599    0.9126    6.0956 H   0  0  0  0  0  0  0  0  0  0  0  0
   -3.0397    1.3125    3.5142 N   0  0  0  0  0  0  0  0  0  0  0  0
   -2.7928    1.7385    2.1618 C   0  0  2  0  0  0  0  0  0  0  0  0
   -1.4579    1.1532    1.7206 C   0  0  0  0  0  0  0  0  0  0  0  0
   -0.5858    0.8004    2.5118 O   0  0  0  0  0  0  0  0  0  0  0  0
   -2.7841    3.2553    2.0523 C   0  0  0  0  0  0  0  0  0  0  0  0
   -3.8047    1.7484    4.0260 H   0  0  0  0  0  0  0  0  0  0  0  0
   -3.5969    1.3201    1.5466 H   0  0  0  0  0  0  0  0  0  0  0  0
   -1.9850    3.6926    2.6620 H   0  0  0  0  0  0  0  0  0  0  0  0
   -2.6246    3.5776    1.0180 H   0  0  0  0  0  0  0  0  0  0  0  0
   -3.7342    3.6765    2.3981 H   0  0  0  0  0  0  0  0  0  0  0  0
   -1.3352    1.1101    0.3372 N   0  0  0  0  0  0  0  0  0  0  0  0
   -0.1579    0.6093   -0.3265 C   0  0  2  0  0  0  0  0  0  0  0  0
   -0.2329    1.0617   -1.7804 C   0  0  0  0  0  0  0  0  0  0  0  0
   -1.2678    1.0178   -2.4423 O   0  0  0  0  0  0  0  0  0  0  0  0
   -0.0548   -0.9183   -0.2484 C   0  0  0  0  0  0  0  0  0  0  0  0
    0.1790   -1.4163    1.1570 C   0  0  0  0  0  0  0  0  0  0  0  0
   -0.7907   -1.8754    2.0183 C   0  0  0  0  0  0  0  0  0  0  0  0
    1.4302   -1.4990    1.8297 C   0  0  0  0  0  0  0  0  0  0  0  0
   -0.1786   -2.2340    3.1893 N   0  0  0  0  0  0  0  0  0  0  0  0
    1.1778   -2.0150    3.1026 C   0  0  0  0  0  0  0  0  0  0  0  0
    2.7573   -1.1834    1.4767 C   0  0  0  0  0  0  0  0  0  0  0  0
    2.1902   -2.2321    4.0440 C   0  0  0  0  0  0  0  0  0  0  0  0
    3.7803   -1.3953    2.4082 C   0  0  0  0  0  0  0  0  0  0  0  0
    3.4988   -1.9117    3.6715 C   0  0  0  0  0  0  0  0  0  0  0  0
   -2.1183    1.4068   -0.2401 H   0  0  0  0  0  0  0  0  0  0  0  0
    0.7011    1.0910    0.1554 H   0  0  0  0  0  0  0  0  0  0  0  0
    0.7470   -1.2796   -0.9065 H   0  0  0  0  0  0  0  0  0  0  0  0
   -0.9726   -1.3846   -0.6301 H   0  0  0  0  0  0  0  0  0  0  0  0
   -1.8611   -1.9781    1.9046 H   0  0  0  0  0  0  0  0  0  0  0  0
   -0.6531   -2.6059    4.0005 H   0  0  0  0  0  0  0  0  0  0  0  0
    2.9929   -0.7793    0.4963 H   0  0  0  0  0  0  0  0  0  0  0  0
    1.9722   -2.6350    5.0272 H   0  0  0  0  0  0  0  0  0  0  0  0
    4.8057   -1.1534    2.1418 H   0  0  0  0  0  0  0  0  0  0  0  0
    4.3087   -2.0683    4.3793 H   0  0  0  0  0  0  0  0  0  0  0  0
    0.9795    1.5650   -2.2312 N   0  0  0  0  0  0  0  0  0  0  0  0
    1.1766    2.0831   -3.5659 C   0  0  2  0  0  0  0  0  0  0  0  0
    0.6421    1.0542   -4.5534 C   0  0  0  0  0  0  0  0  0  0  0  0
    0.5158   -0.1372   -4.2783 O   0  0  0  0  0  0  0  0  0  0  0  0
    2.6438    2.3813   -3.8326 C   0  0  0  0  0  0  0  0  0  0  0  0
    1.7679    1.5695   -1.5908 H   0  0  0  0  0  0  0  0  0  0  0  0
    0.5850    3.0021   -3.6391 H   0  0  0  0  0  0  0  0  0  0  0  0
    3.2525    1.4723   -3.7637 H   0  0  0  0  0  0  0  0  0  0  0  0
    2.7879    2.8004   -4.8339 H   0  0  0  0  0  0  0  0  0  0  0  0
    3.0345    3.0989   -3.1031 H   0  0  0  0  0  0  0  0  0  0  0  0
    0.3633    1.6152   -5.7919 N   0  0  0  0  0  0  0  0  0  0  0  0
   -0.1434    0.8422   -6.9017 C   0  0  0  0  0  0  0  0  0  0  0  0
    0.4799    2.6154   -5.9250 H   0  0  0  0  0  0  0  0  0  0  0  0
    0.6971    0.4883   -7.5168 H   0  0  0  0  0  0  0  0  0  0  0  0
   -0.7072   -0.0217   -6.5196 H   0  0  0  0  0  0  0  0  0  0  0  0
   -0.8065    1.4710   -7.5140 H   0  0  0  0  0  0  0  0  0  0  0  0
 29 30  2  0  0  0  0
 27 29  1  0  0  0  0
 28 30  1  0  0  0  0
 24 27  2  0  0  0  0
 26 28  2  0  0  0  0
 22 23  2  0  0  0  0
 23 25  1  0  0  0  0
 22 24  1  0  0  0  0
 24 26  1  0  0  0  0
 21 22  1  0  0  0  0
 25 26  1  0  0  0  0
  1  3  1  0  0  0  0
  1  7  1  0  0  0  0
  1  2  2  0  0  0  0
 42 43  1  0  0  0  0
 43 51  1  0  0  0  0
 43 44  2  0  0  0  0
  8  9  1  0  0  0  0
  9 17  1  0  0  0  0
  9 10  2  0  0  0  0
 18 19  1  0  0  0  0
 19 41  1  0  0  0  0
 19 20  2  0  0  0  0
 42 45  1  0  0  0  0
  8 11  1  0  0  0  0
 51 52  1  0  0  0  0
 18 21  1  0  0  0  0
 41 42  1  0  0  0  0
  7  8  1  0  0  0  0
 17 18  1  0  0  0  0
 29 39  1  0  0  0  0
 30 40  1  0  0  0  0
 27 37  1  0  0  0  0
 28 38  1  0  0  0  0
 23 35  1  0  0  0  0
  3  4  1  0  0  0  0
  3  5  1  0  0  0  0
  3  6  1  0  0  0  0
 45 48  1  0  0  0  0
 45 49  1  0  0  0  0
 45 50  1  0  0  0  0
 11 14  1  0  0  0  0
 11 15  1  0  0  0  0
 11 16  1  0  0  0  0
 52 54  1  0  0  0  0
 52 55  1  0  0  0  0
 52 56  1  0  0  0  0
 21 33  1  0  0  0  0
 21 34  1  0  0  0  0
 42 47  1  0  0  0  0
  8 13  1  0  0  0  0
 18 32  1  0  0  0  0
 25 36  1  0  0  0  0
 51 53  1  0  0  0  0
  7 12  1  0  0  0  0
 41 46  1  0  0  0  0
 17 31  1  0  0  0  0
M  END
$$$$

  -OEChem-05262214473D

 56 57  0     1  0  0  0  0  0999 V2000
   -2.2900    0.3401    4.1553 C   0  0  0  0  0  0  0  0  0  0  0  0
   -1.3426   -0.2746    3.6796 O   0  0  0  0  0  0  0  0  0  0  0  0
   -2.7219    0.0577    5.5560 C   0  0  0  0  0  0  0  0  0  0  0  0
   -3.4815   -0.7386    5.6094 H   0  0  0  0  0  0  0  0  0  0  0  0
   -1.8906   -0.2899    6.1903 H   0  0  0  0  0  0  0  0  0  0  0  0
   -3.1599    0.9126    6.0956 H   0  0  0  0  0  0  0  0  0  0  0  0
   -3.0397    1.3125    3.5142 N   0  0  0  0  0  0  0  0  0  0  0  0
   -2.7928    1.7385    2.1618 C   0  0  2  0  0  0  0  0  0  0  0  0
   -1.4579    1.1532    1.7206 C   0  0  0  0  0  0  0  0  0  0  0  0
   -0.5858    0.8004    2.5118 O   0  0  0  0  0  0  0  0  0  0  0  0
   -2.7841    3.2553    2.0523 C   0  0  0  0  0  0  0  0  0  0  0  0
   -3.8047    1.7484    4.0260 H   0  0  0  0  0  0  0  0  0  0  0  0
   -3.5969    1.3201    1.5466 H   0  0  0  0  0  0  0  0  0  0  0  0
   -1.9850    3.6926    2.6620 H   0  0  0  0  0  0  0  0  0  0  0  0
   -2.6246    3.5776    1.0180 H   0  0  0  0  0  0  0  0  0  0  0  0
   -3.7342    3.6765    2.3981 H   0  0  0  0  0  0  0  0  0  0  0  0
   -1.3352    1.1101    0.3372 N   0  0  0  0  0  0  0  0  0  0  0  0
   -0.1579    0.6093   -0.3265 C   0  0  2  0  0  0  0  0  0  0  0  0
   -0.2329    1.0617   -1.7804 C   0  0  0  0  0  0  0  0  0  0  0  0
   -1.2953    1.2731   -2.3614 O   0  0  0  0  0  0  0  0  0  0  0  0
   -0.0548   -0.9183   -0.2484 C   0  0  0  0  0  0  0  0  0  0  0  0
    0.1790   -1.4163    1.1570 C   0  0  0  0  0  0  0  0  0  0  0  0
   -0.7907   -1.8754    2.0183 C   0  0  0  0  0  0  0  0  0  0  0  0
    1.4302   -1.4990    1.8297 C   0  0  0  0  0  0  0  0  0  0  0  0
   -0.1786   -2.2340    3.1893 N   0  0  0  0  0  0  0  0  0  0  0  0
    1.1778   -2.0150    3.1026 C   0  0  0  0  0  0  0  0  0  0  0  0
    2.7573   -1.1834    1.4767 C   0  0  0  0  0  0  0  0  0  0  0  0
    2.1902   -2.2321    4.0440 C   0  0  0  0  0  0  0  0  0  0  0  0
    3.7803   -1.3953    2.4082 C   0  0  0  0  0  0  0  0  0  0  0  0
    3.4988   -1.9117    3.6715 C   0  0  0  0  0  0  0  0  0  0  0  0
   -2.1183    1.4068   -0.2401 H   0  0  0  0  0  0  0  0  0  0  0  0
    0.7011    1.0910    0.1554 H   0  0  0  0  0  0  0  0  0  0  0  0
    0.7470   -1.2796   -0.9065 H   0  0  0  0  0  0  0  0  0  0  0  0
   -0.9726   -1.3846   -0.6301 H   0  0  0  0  0  0  0  0  0  0  0  0
   -1.8611   -1.9781    1.9046 H   0  0  0  0  0  0  0  0  0  0  0  0
   -0.6531   -2.6059    4.0005 H   0  0  0  0  0  0  0  0  0  0  0  0
    2.9929   -0.7793    0.4963 H   0  0  0  0  0  0  0  0  0  0  0  0
    1.9722   -2.6350    5.0272 H   0  0  0  0  0  0  0  0  0  0  0  0
    4.8057   -1.1534    2.1418 H   0  0  0  0  0  0  0  0  0  0  0  0
    4.3087   -2.0683    4.3793 H   0  0  0  0  0  0  0  0  0  0  0  0
    1.0269    1.2481   -2.3322 N   0  0  0  0  0  0  0  0  0  0  0  0
    1.2403    1.6972   -3.6893 C   0  0  2  0  0  0  0  0  0  0  0  0
    0.3930    0.8294   -4.6105 C   0  0  0  0  0  0  0  0  0  0  0  0
   -0.0009   -0.2929   -4.3001 O   0  0  0  0  0  0  0  0  0  0  0  0
    2.7102    1.6224   -4.0722 C   0  0  0  0  0  0  0  0  0  0  0  0
    1.8398    1.0594   -1.7532 H   0  0  0  0  0  0  0  0  0  0  0  0
    0.8895    2.7338   -3.7383 H   0  0  0  0  0  0  0  0  0  0  0  0
    3.0796    0.5914   -4.0289 H   0  0  0  0  0  0  0  0  0  0  0  0
    2.8741    1.9898   -5.0906 H   0  0  0  0  0  0  0  0  0  0  0  0
    3.3216    2.2234   -3.3904 H   0  0  0  0  0  0  0  0  0  0  0  0
    0.1648    1.4381   -5.8367 N   0  0  0  0  0  0  0  0  0  0  0  0
   -0.6021    0.8110   -6.8877 C   0  0  0  0  0  0  0  0  0  0  0  0
    0.5134    2.3780   -6.0006 H   0  0  0  0  0  0  0  0  0  0  0  0
    0.0744    0.2583   -7.5562 H   0  0  0  0  0  0  0  0  0  0  0  0
   -1.3295    0.1146   -6.4451 H   0  0  0  0  0  0  0  0  0  0  0  0
   -1.1357    1.5824   -7.4623 H   0  0  0  0  0  0  0  0  0  0  0  0
 29 30  2  0  0  0  0
 27 29  1  0  0  0  0
 28 30  1  0  0  0  0
 24 27  2  0  0  0  0
 26 28  2  0  0  0  0
 22 23  2  0  0  0  0
 23 25  1  0  0  0  0
 22 24  1  0  0  0  0
 24 26  1  0  0  0  0
 21 22  1  0  0  0  0
 25 26  1  0  0  0  0
  1  3  1  0  0  0  0
  1  7  1  0  0  0  0
  1  2  2  0  0  0  0
 42 43  1  0  0  0  0
 43 51  1  0  0  0  0
 43 44  2  0  0  0  0
  8  9  1  0  0  0  0
  9 17  1  0  0  0  0
  9 10  2  0  0  0  0
 18 19  1  0  0  0  0
 19 41  1  0  0  0  0
 19 20  2  0  0  0  0
 42 45  1  0  0  0  0
  8 11  1  0  0  0  0
 51 52  1  0  0  0  0
 18 21  1  0  0  0  0
 41 42  1  0  0  0  0
  7  8  1  0  0  0  0
 17 18  1  0  0  0  0
 29 39  1  0  0  0  0
 30 40  1  0  0  0  0
 27 37  1  0  0  0  0
 28 38  1  0  0  0  0
 23 35  1  0  0  0  0
  3  4  1  0  0  0  0
  3  5  1  0  0  0  0
  3  6  1  0  0  0  0
 45 48  1  0  0  0  0
 45 49  1  0  0  0  0
 45 50  1  0  0  0  0
 11 14  1  0  0  0  0
 11 15  1  0  0  0  0
 11 16  1  0  0  0  0
 52 54  1  0  0  0  0
 52 55  1  0  0  0  0
 52 56  1  0  0  0  0
 21 33  1  0  0  0  0
 21 34  1  0  0  0  0
 42 47  1  0  0  0  0
  8 13  1  0  0  0  0
 18 32  1  0  0  0  0
 25 36  1  0  0  0  0
 51 53  1  0  0  0  0
  7 12  1  0  0  0  0
 41 46  1  0  0  0  0
 17 31  1  0  0  0  0
M  END
$$$$

  -OEChem-05262214473D

 56 57  0     1  0  0  0  0  0999 V2000
   -2.2900    0.3401    4.1553 C   0  0  0  0  0  0  0  0  0  0  0  0
   -1.3426   -0.2746    3.6796 O   0  0  0  0  0  0  0  0  0  0  0  0
   -2.7219    0.0577    5.5560 C   0  0  0  0  0  0  0  0  0  0  0  0
   -3.4815   -0.7386    5.6094 H   0  0  0  0  0  0  0  0  0  0  0  0
   -1.8906   -0.2899    6.1903 H   0  0  0  0  0  0  0  0  0  0  0  0
   -3.1599    0.9126    6.0956 H   0  0  0  0  0  0  0  0  0  0  0  0
   -3.0397    1.3125    3.5142 N   0  0  0  0  0  0  0  0  0  0  0  0
   -2.7928    1.7385    2.1618 C   0  0  2  0  0  0  0  0  0  0  0  0
   -1.4579    1.1532    1.7206 C   0  0  0  0  0  0  0  0  0  0  0  0
   -0.5858    0.8004    2.5118 O   0  0  0  0  0  0  0  0  0  0  0  0
   -2.7841    3.2553    2.0523 C   0  0  0  0  0  0  0  0  0  0  0  0
   -3.8047    1.7484    4.0260 H   0  0  0  0  0  0  0  0  0  0  0  0
   -3.5969    1.3201    1.5466 H   0  0  0  0  0  0  0  0  0  0  0  0
   -1.9850    3.6926    2.6620 H   0  0  0  0  0  0  0  0  0  0  0  0
   -2.6246    3.5776    1.0180 H   0  0  0  0  0  0  0  0  0  0  0  0
   -3.7342    3.6765    2.3981 H   0  0  0  0  0  0  0  0  0  0  0  0
   -1.3352    1.1101    0.3372 N   0  0  0  0  0  0  0  0  0  0  0  0
   -0.1579    0.6093   -0.3265 C   0  0  2  0  0  0  0  0  0  0  0  0
   -0.2329    1.0617   -1.7804 C   0  0  0  0  0  0  0  0  0  0  0  0
   -1.2527    1.5275   -2.2845 O   0  0  0  0  0  0  0  0  0  0  0  0
   -0.0548   -0.9183   -0.2484 C   0  0  0  0  0  0  0  0  0  0  0  0
    0.1790   -1.4163    1.1570 C   0  0  0  0  0  0  0  0  0  0  0  0
   -0.7907   -1.8754    2.0183 C   0  0  0  0  0  0  0  0  0  0  0  0
    1.4302   -1.4990    1.8297 C   0  0  0  0  0  0  0  0  0  0  0  0
   -0.1786   -2.2340    3.1893 N   0  0  0  0  0  0  0  0  0  0  0  0
    1.1778   -2.0150    3.1026 C   0  0  0  0  0  0  0  0  0  0  0  0
    2.7573   -1.1834    1.4767 C   0  0  0  0  0  0  0  0  0  0  0  0
    2.1902   -2.2321    4.0440 C   0  0  0  0  0  0  0  0  0  0  0  0
    3.7803   -1.3953    2.4082 C   0  0  0  0  0  0  0  0  0  0  0  0
    3.4988   -1.9117    3.6715 C   0  0  0  0  0  0  0  0  0  0  0  0
   -2.1183    1.4068   -0.2401 H   0  0  0  0  0  0  0  0  0  0  0  0
    0.7011    1.0910    0.1554 H   0  0  0  0  0  0  0  0  0  0  0  0
    0.7470   -1.2796   -0.9065 H   0  0  0  0  0  0  0  0  0  0  0  0
   -0.9726   -1.3846   -0.6301 H   0  0  0  0  0  0  0  0  0  0  0  0
   -1.8611   -1.9781    1.9046 H   0  0  0  0  0  0  0  0  0  0  0  0
   -0.6531   -2.6059    4.0005 H   0  0  0  0  0  0  0  0  0  0  0  0
    2.9929   -0.7793    0.4963 H   0  0  0  0  0  0  0  0  0  0  0  0
    1.9722   -2.6350    5.0272 H   0  0  0  0  0  0  0  0  0  0  0  0
    4.8057   -1.1534    2.1418 H   0  0  0  0  0  0  0  0  0  0  0  0
    4.3087   -2.0683    4.3793 H   0  0  0  0  0  0  0  0  0  0  0  0
    0.9867    0.9290   -2.4295 N   0  0  0  0  0  0  0  0  0  0  0  0
    1.1971    1.3071   -3.8084 C   0  0  2  0  0  0  0  0  0  0  0  0
    0.0926    0.6731   -4.6437 C   0  0  0  0  0  0  0  0  0  0  0  0
   -0.5400   -0.3160   -4.2794 O   0  0  0  0  0  0  0  0  0  0  0  0
    2.5686    0.8700   -4.2990 C   0  0  0  0  0  0  0  0  0  0  0  0
    1.7709    0.5469   -1.9091 H   0  0  0  0  0  0  0  0  0  0  0  0
    1.1097    2.3981   -3.8541 H   0  0  0  0  0  0  0  0  0  0  0  0
    2.6749   -0.2203   -4.2606 H   0  0  0  0  0  0  0  0  0  0  0  0
    2.7375    1.1822   -5.3348 H   0  0  0  0  0  0  0  0  0  0  0  0
    3.3607    1.3032   -3.6787 H   0  0  0  0  0  0  0  0  0  0  0  0
   -0.0740    1.3155   -5.8626 N   0  0  0  0  0  0  0  0  0  0  0  0
   -1.0518    0.8943   -6.8386 C   0  0  0  0  0  0  0  0  0  0  0  0
    0.4814    2.1394   -6.0732 H   0  0  0  0  0  0  0  0  0  0  0  0
   -0.5868    0.1894   -7.5435 H   0  0  0  0  0  0  0  0  0  0  0  0
   -1.8913    0.4008   -6.3270 H   0  0  0  0  0  0  0  0  0  0  0  0
   -1.4223    1.7719   -7.3886 H   0  0  0  0  0  0  0  0  0  0  0  0
 29 30  2  0  0  0  0
 27 29  1  0  0  0  0
 28 30  1  0  0  0  0
 24 27  2  0  0  0  0
 26 28  2  0  0  0  0
 22 23  2  0  0  0  0
 23 25  1  0  0  0  0
 22 24  1  0  0  0  0
 24 26  1  0  0  0  0
 21 22  1  0  0  0  0
 25 26  1  0  0  0  0
  1  3  1  0  0  0  0
  1  7  1  0  0  0  0
  1  2  2  0  0  0  0
 42 43  1  0  0  0  0
 43 51  1  0  0  0  0
 43 44  2  0  0  0  0
  8  9  1  0  0  0  0
  9 17  1  0  0  0  0
  9 10  2  0  0  0  0
 18 19  1  0  0  0  0
 19 41  1  0  0  0  0
 19 20  2  0  0  0  0
 42 45  1  0  0  0  0
  8 11  1  0  0  0  0
 51 52  1  0  0  0  0
 18 21  1  0  0  0  0
 41 42  1  0  0  0  0
  7  8  1  0  0  0  0
 17 18  1  0  0  0  0
 29 39  1  0  0  0  0
 30 40  1  0  0  0  0
 27 37  1  0  0  0  0
 28 38  1  0  0  0  0
 23 35  1  0  0  0  0
  3  4  1  0  0  0  0
  3  5  1  0  0  0  0
  3  6  1  0  0  0  0
 45 48  1  0  0  0  0
 45 49  1  0  0  0  0
 45 50  1  0  0  0  0
 11 14  1  0  0  0  0
 11 15  1  0  0  0  0
 11 16  1  0  0  0  0
 52 54  1  0  0  0  0
 52 55  1  0  0  0  0
 52 56  1  0  0  0  0
 21 33  1  0  0  0  0
 21 34  1  0  0  0  0
 42 47  1  0  0  0  0
  8 13  1  0  0  0  0
 18 32  1  0  0  0  0
 25 36  1  0  0  0  0
 51 53  1  0  0  0  0
  7 12  1  0  0  0  0
 41 46  1  0  0  0  0
 17 31  1  0  0  0  0
M  END
$$$$

  -OEChem-05262214473D

 56 57  0     1  0  0  0  0  0999 V2000
   -2.2900    0.3401    4.1553 C   0  0  0  0  0  0  0  0  0  0  0  0
   -1.3426   -0.2746    3.6796 O   0  0  0  0  0  0  0  0  0  0  0  0
   -2.7219    0.0577    5.5560 C   0  0  0  0  0  0  0  0  0  0  0  0
   -3.4815   -0.7386    5.6094 H   0  0  0  0  0  0  0  0  0  0  0  0
   -1.8906   -0.2899    6.1903 H   0  0  0  0  0  0  0  0  0  0  0  0
   -3.1599    0.9126    6.0956 H   0  0  0  0  0  0  0  0  0  0  0  0
   -3.0397    1.3125    3.5142 N   0  0  0  0  0  0  0  0  0  0  0  0
   -2.7928    1.7385    2.1618 C   0  0  2  0  0  0  0  0  0  0  0  0
   -1.4579    1.1532    1.7206 C   0  0  0  0  0  0  0  0  0  0  0  0
   -0.5858    0.8004    2.5118 O   0  0  0  0  0  0  0  0  0  0  0  0
   -2.7841    3.2553    2.0523 C   0  0  0  0  0  0  0  0  0  0  0  0
   -3.8047    1.7484    4.0260 H   0  0  0  0  0  0  0  0  0  0  0  0
   -3.5969    1.3201    1.5466 H   0  0  0  0  0  0  0  0  0  0  0  0
   -1.9850    3.6926    2.6620 H   0  0  0  0  0  0  0  0  0  0  0  0
   -2.6246    3.5776    1.0180 H   0  0  0  0  0  0  0  0  0  0  0  0
   -3.7342    3.6765    2.3981 H   0  0  0  0  0  0  0  0  0  0  0  0
   -1.3352    1.1101    0.3372 N   0  0  0  0  0  0  0  0  0  0  0  0
   -0.1579    0.6093   -0.3265 C   0  0  2  0  0  0  0  0  0  0  0  0
   -0.0332    1.3573   -1.6490 C   0  0  0  0  0  0  0  0  0  0  0  0
   -0.8110    2.2453   -1.9915 O   0  0  0  0  0  0  0  0  0  0  0  0
   -0.2313   -0.9019   -0.5738 C   0  0  0  0  0  0  0  0  0  0  0  0
   -0.1991   -1.7046    0.7039 C   0  0  0  0  0  0  0  0  0  0  0  0
   -1.2965   -2.2024    1.3677 C   0  0  0  0  0  0  0  0  0  0  0  0
    0.9598   -2.0846    1.4371 C   0  0  0  0  0  0  0  0  0  0  0  0
   -0.8510   -2.8703    2.4767 N   0  0  0  0  0  0  0  0  0  0  0  0
    0.5229   -2.8148    2.5444 C   0  0  0  0  0  0  0  0  0  0  0  0
    2.3427   -1.8767    1.2643 C   0  0  0  0  0  0  0  0  0  0  0  0
    1.4034   -3.3497    3.4915 C   0  0  0  0  0  0  0  0  0  0  0  0
    3.2351   -2.4059    2.2037 C   0  0  0  0  0  0  0  0  0  0  0  0
    2.7705   -3.1308    3.2994 C   0  0  0  0  0  0  0  0  0  0  0  0
   -2.1183    1.4068   -0.2401 H   0  0  0  0  0  0  0  0  0  0  0  0
    0.6946    0.8666    0.3131 H   0  0  0  0  0  0  0  0  0  0  0  0
    0.5895   -1.2201   -1.2308 H   0  0  0  0  0  0  0  0  0  0  0  0
   -1.1506   -1.1574   -1.1172 H   0  0  0  0  0  0  0  0  0  0  0  0
   -2.3544   -2.1406    1.1523 H   0  0  0  0  0  0  0  0  0  0  0  0
   -1.4442   -3.3369    3.1489 H   0  0  0  0  0  0  0  0  0  0  0  0
    2.7206   -1.3131    0.4161 H   0  0  0  0  0  0  0  0  0  0  0  0
    1.0427   -3.9149    4.3442 H   0  0  0  0  0  0  0  0  0  0  0  0
    4.3027   -2.2485    2.0761 H   0  0  0  0  0  0  0  0  0  0  0  0
    3.4814   -3.5329    4.0167 H   0  0  0  0  0  0  0  0  0  0  0  0
    1.0773    0.9485   -2.3744 N   0  0  0  0  0  0  0  0  0  0  0  0
    1.4411    1.5132   -3.6541 C   0  0  2  0  0  0  0  0  0  0  0  0
    0.2051    1.4972   -4.5437 C   0  0  0  0  0  0  0  0  0  0  0  0
   -0.7439    0.7378   -4.3599 O   0  0  0  0  0  0  0  0  0  0  0  0
    2.5826    0.7399   -4.2957 C   0  0  0  0  0  0  0  0  0  0  0  0
    1.6638    0.2156   -1.9864 H   0  0  0  0  0  0  0  0  0  0  0  0
    1.7444    2.5492   -3.4679 H   0  0  0  0  0  0  0  0  0  0  0  0
    2.2974   -0.3006   -4.4898 H   0  0  0  0  0  0  0  0  0  0  0  0
    2.8761    1.1859   -5.2517 H   0  0  0  0  0  0  0  0  0  0  0  0
    3.4610    0.7271   -3.6414 H   0  0  0  0  0  0  0  0  0  0  0  0
    0.3052    2.4006   -5.5925 N   0  0  0  0  0  0  0  0  0  0  0  0
   -0.7340    2.5646   -6.5821 C   0  0  0  0  0  0  0  0  0  0  0  0
    1.1200    3.0036   -5.6565 H   0  0  0  0  0  0  0  0  0  0  0  0
   -0.5296    1.9087   -7.4412 H   0  0  0  0  0  0  0  0  0  0  0  0
   -1.7058    2.2985   -6.1407 H   0  0  0  0  0  0  0  0  0  0  0  0
   -0.7583    3.6118   -6.9180 H   0  0  0  0  0  0  0  0  0  0  0  0
 29 30  2  0  0  0  0
 27 29  1  0  0  0  0
 28 30  1  0  0  0  0
 24 27  2  0  0  0  0
 26 28  2  0  0  0  0
 22 23  2  0  0  0  0
 23 25  1  0  0  0  0
 22 24  1  0  0  0  0
 24 26  1  0  0  0  0
 21 22  1  0  0  0  0
 25 26  1  0  0  0  0
  1  3  1  0  0  0  0
  1  7  1  0  0  0  0
  1  2  2  0  0  0  0
 42 43  1  0  0  0  0
 43 51  1  0  0  0  0
 43 44  2  0  0  0  0
  8  9  1  0  0  0  0
  9 17  1  0  0  0  0
  9 10  2  0  0  0  0
 18 19  1  0  0  0  0
 19 41  1  0  0  0  0
 19 20  2  0  0  0  0
 42 45  1  0  0  0  0
  8 11  1  0  0  0  0
 51 52  1  0  0  0  0
 18 21  1  0  0  0  0
 41 42  1  0  0  0  0
  7  8  1  0  0  0  0
 17 18  1  0  0  0  0
 29 39  1  0  0  0  0
 30 40  1  0  0  0  0
 27 37  1  0  0  0  0
 28 38  1  0  0  0  0
 23 35  1  0  0  0  0
  3  4  1  0  0  0  0
  3  5  1  0  0  0  0
  3  6  1  0  0  0  0
 45 48  1  0  0  0  0
 45 49  1  0  0  0  0
 45 50  1  0  0  0  0
 11 14  1  0  0  0  0
 11 15  1  0  0  0  0
 11 16  1  0  0  0  0
 52 54  1  0  0  0  0
 52 55  1  0  0  0  0
 52 56  1  0  0  0  0
 21 33  1  0  0  0  0
 21 34  1  0  0  0  0
 42 47  1  0  0  0  0
  8 13  1  0  0  0  0
 18 32  1  0  0  0  0
 25 36  1  0  0  0  0
 51 53  1  0  0  0  0
  7 12  1  0  0  0  0
 41 46  1  0  0  0  0
 17 31  1  0  0  0  0
M  END
$$$$

  -OEChem-05262214473D

 56 57  0     1  0  0  0  0  0999 V2000
   -2.2900    0.3401    4.1553 C   0  0  0  0  0  0  0  0  0  0  0  0
   -1.3426   -0.2746    3.6796 O   0  0  0  0  0  0  0  0  0  0  0  0
   -2.7219    0.0577    5.5560 C   0  0  0  0  0  0  0  0  0  0  0  0
   -3.4815   -0.7386    5.6094 H   0  0  0  0  0  0  0  0  0  0  0  0
   -1.8906   -0.2899    6.1903 H   0  0  0  0  0  0  0  0  0  0  0  0
   -3.1599    0.9126    6.0956 H   0  0  0  0  0  0  0  0  0  0  0  0
   -3.0397    1.3125    3.5142 N   0  0  0  0  0  0  0  0  0  0  0  0
   -2.7928    1.7385    2.1618 C   0  0  2  0  0  0  0  0  0  0  0  0
   -1.4579    1.1532    1.7206 C   0  0  0  0  0  0  0  0  0  0  0  0
   -0.5858    0.8004    2.5118 O   0  0  0  0  0  0  0  0  0  0  0  0
   -2.7841    3.2553    2.0523 C   0  0  0  0  0  0  0  0  0  0  0  0
   -3.8047    1.7484    4.0260 H   0  0  0  0  0  0  0  0  0  0  0  0
   -3.5969    1.3201    1.5466 H   0  0  0  0  0  0  0  0  0  0  0  0
   -1.9850    3.6926    2.6620 H   0  0  0  0  0  0  0  0  0  0  0  0
   -2.6246    3.5776    1.0180 H   0  0  0  0  0  0  0  0  0  0  0  0
   -3.7342    3.6765    2.3981 H   0  0  0  0  0  0  0  0  0  0  0  0
   -1.3352    1.1101    0.3372 N   0  0  0  0  0  0  0  0  0  0  0  0
   -0.1579    0.6093   -0.3265 C   0  0  2  0  0  0  0  0  0  0  0  0
   -0.0332    1.3573   -1.6490 C   0  0  0  0  0  0  0  0  0  0  0  0
   -0.6268    2.4081   -1.8820 O   0  0  0  0  0  0  0  0  0  0  0  0
   -0.2313   -0.9019   -0.5738 C   0  0  0  0  0  0  0  0  0  0  0  0
   -0.1991   -1.7046    0.7039 C   0  0  0  0  0  0  0  0  0  0  0  0
   -1.2965   -2.2024    1.3677 C   0  0  0  0  0  0  0  0  0  0  0  0
    0.9598   -2.0846    1.4371 C   0  0  0  0  0  0  0  0  0  0  0  0
   -0.8510   -2.8703    2.4767 N   0  0  0  0  0  0  0  0  0  0  0  0
    0.5229   -2.8148    2.5444 C   0  0  0  0  0  0  0  0  0  0  0  0
    2.3427   -1.8767    1.2643 C   0  0  0  0  0  0  0  0  0  0  0  0
    1.4034   -3.3497    3.4915 C   0  0  0  0  0  0  0  0  0  0  0  0
    3.2351   -2.4059    2.2037 C   0  0  0  0  0  0  0  0  0  0  0  0
    2.7705   -3.1308    3.2994 C   0  0  0  0  0  0  0  0  0  0  0  0
   -2.1183    1.4068   -0.2401 H   0  0  0  0  0  0  0  0  0  0  0  0
    0.6946    0.8666    0.3131 H   0  0  0  0  0  0  0  0  0  0  0  0
    0.5895   -1.2201   -1.2308 H   0  0  0  0  0  0  0  0  0  0  0  0
   -1.1506   -1.1574   -1.1172 H   0  0  0  0  0  0  0  0  0  0  0  0
   -2.3544   -2.1406    1.1523 H   0  0  0  0  0  0  0  0  0  0  0  0
   -1.4442   -3.3369    3.1489 H   0  0  0  0  0  0  0  0  0  0  0  0
    2.7206   -1.3131    0.4161 H   0  0  0  0  0  0  0  0  0  0  0  0
    1.0427   -3.9149    4.3442 H   0  0  0  0  0  0  0  0  0  0  0  0
    4.3027   -2.2485    2.0761 H   0  0  0  0  0  0  0  0  0  0  0  0
    3.4814   -3.5329    4.0167 H   0  0  0  0  0  0  0  0  0  0  0  0
    0.8570    0.7371   -2.5147 N   0  0  0  0  0  0  0  0  0  0  0  0
    1.1767    1.2517   -3.8270 C   0  0  2  0  0  0  0  0  0  0  0  0
   -0.1320    1.5437   -4.5492 C   0  0  0  0  0  0  0  0  0  0  0  0
   -1.1975    1.0091   -4.2492 O   0  0  0  0  0  0  0  0  0  0  0  0
    2.0249    0.2665   -4.6160 C   0  0  0  0  0  0  0  0  0  0  0  0
    1.3065   -0.1215   -2.2107 H   0  0  0  0  0  0  0  0  0  0  0  0
    1.7269    2.1866   -3.6747 H   0  0  0  0  0  0  0  0  0  0  0  0
    1.4902   -0.6764   -4.7785 H   0  0  0  0  0  0  0  0  0  0  0  0
    2.2901    0.6697   -5.5990 H   0  0  0  0  0  0  0  0  0  0  0  0
    2.9522    0.0348   -4.0810 H   0  0  0  0  0  0  0  0  0  0  0  0
    0.0382    2.4388   -5.5961 N   0  0  0  0  0  0  0  0  0  0  0  0
   -1.0520    2.8658   -6.4418 C   0  0  0  0  0  0  0  0  0  0  0  0
    0.9537    2.8467   -5.7609 H   0  0  0  0  0  0  0  0  0  0  0  0
   -1.1098    2.2119   -7.3245 H   0  0  0  0  0  0  0  0  0  0  0  0
   -1.9961    2.8077   -5.8801 H   0  0  0  0  0  0  0  0  0  0  0  0
   -0.8808    3.9033   -6.7647 H   0  0  0  0  0  0  0  0  0  0  0  0
 29 30  2  0  0  0  0
 27 29  1  0  0  0  0
 28 30  1  0  0  0  0
 24 27  2  0  0  0  0
 26 28  2  0  0  0  0
 22 23  2  0  0  0  0
 23 25  1  0  0  0  0
 22 24  1  0  0  0  0
 24 26  1  0  0  0  0
 21 22  1  0  0  0  0
 25 26  1  0  0  0  0
  1  3  1  0  0  0  0
  1  7  1  0  0  0  0
  1  2  2  0  0  0  0
 42 43  1  0  0  0  0
 43 51  1  0  0  0  0
 43 44  2  0  0  0  0
  8  9  1  0  0  0  0
  9 17  1  0  0  0  0
  9 10  2  0  0  0  0
 18 19  1  0  0  0  0
 19 41  1  0  0  0  0
 19 20  2  0  0  0  0
 42 45  1  0  0  0  0
  8 11  1  0  0  0  0
 51 52  1  0  0  0  0
 18 21  1  0  0  0  0
 41 42  1  0  0  0  0
  7  8  1  0  0  0  0
 17 18  1  0  0  0  0
 29 39  1  0  0  0  0
 30 40  1  0  0  0  0
 27 37  1  0  0  0  0
 28 38  1  0  0  0  0
 23 35  1  0  0  0  0
  3  4  1  0  0  0  0
  3  5  1  0  0  0  0
  3  6  1  0  0  0  0
 45 48  1  0  0  0  0
 45 49  1  0  0  0  0
 45 50  1  0  0  0  0
 11 14  1  0  0  0  0
 11 15  1  0  0  0  0
 11 16  1  0  0  0  0
 52 54  1  0  0  0  0
 52 55  1  0  0  0  0
 52 56  1  0  0  0  0
 21 33  1  0  0  0  0
 21 34  1  0  0  0  0
 42 47  1  0  0  0  0
  8 13  1  0  0  0  0
 18 32  1  0  0  0  0
 25 36  1  0  0  0  0
 51 53  1  0  0  0  0
  7 12  1  0  0  0  0
 41 46  1  0  0  0  0
 17 31  1  0  0  0  0
M  END
$$$$

  -OEChem-05262214473D

 56 57  0     1  0  0  0  0  0999 V2000
   -2.2900    0.3401    4.1553 C   0  0  0  0  0  0  0  0  0  0  0  0
   -1.3426   -0.2746    3.6796 O   0  0  0  0  0  0  0  0  0  0  0  0
   -2.7219    0.0577    5.5560 C   0  0  0  0  0  0  0  0  0  0  0  0
   -3.4815   -0.7386    5.6094 H   0  0  0  0  0  0  0  0  0  0  0  0
   -1.8906   -0.2899    6.1903 H   0  0  0  0  0  0  0  0  0  0  0  0
   -3.1599    0.9126    6.0956 H   0  0  0  0  0  0  0  0  0  0  0  0
   -3.0397    1.3125    3.5142 N   0  0  0  0  0  0  0  0  0  0  0  0
   -2.7928    1.7385    2.1618 C   0  0  2  0  0  0  0  0  0  0  0  0
   -1.4579    1.1532    1.7206 C   0  0  0  0  0  0  0  0  0  0  0  0
   -0.5858    0.8004    2.5118 O   0  0  0  0  0  0  0  0  0  0  0  0
   -2.7841    3.2553    2.0523 C   0  0  0  0  0  0  0  0  0  0  0  0
   -3.8047    1.7484    4.0260 H   0  0  0  0  0  0  0  0  0  0  0  0
   -3.5969    1.3201    1.5466 H   0  0  0  0  0  0  0  0  0  0  0  0
   -1.9850    3.6926    2.6620 H   0  0  0  0  0  0  0  0  0  0  0  0
   -2.6246    3.5776    1.0180 H   0  0  0  0  0  0  0  0  0  0  0  0
   -3.7342    3.6765    2.3981 H   0  0  0  0  0  0  0  0  0  0  0  0
   -1.3352    1.1101    0.3372 N   0  0  0  0  0  0  0  0  0  0  0  0
   -0.1579    0.6093   -0.3265 C   0  0  2  0  0  0  0  0  0  0  0  0
   -0.0332    1.3573   -1.6490 C   0  0  0  0  0  0  0  0  0  0  0  0
   -0.3983    2.5217   -1.7962 O   0  0  0  0  0  0  0  0  0  0  0  0
   -0.2313   -0.9019   -0.5738 C   0  0  0  0  0  0  0  0  0  0  0  0
   -0.1991   -1.7046    0.7039 C   0  0  0  0  0  0  0  0  0  0  0  0
   -1.2965   -2.2024    1.3677 C   0  0  0  0  0  0  0  0  0  0  0  0
    0.9598   -2.0846    1.4371 C   0  0  0  0  0  0  0  0  0  0  0  0
   -0.8510   -2.8703    2.4767 N   0  0  0  0  0  0  0  0  0  0  0  0
    0.5229   -2.8148    2.5444 C   0  0  0  0  0  0  0  0  0  0  0  0
    2.3427   -1.8767    1.2643 C   0  0  0  0  0  0  0  0  0  0  0  0
    1.4034   -3.3497    3.4915 C   0  0  0  0  0  0  0  0  0  0  0  0
    3.2351   -2.4059    2.2037 C   0  0  0  0  0  0  0  0  0  0  0  0
    2.7705   -3.1308    3.2994 C   0  0  0  0  0  0  0  0  0  0  0  0
   -2.1183    1.4068   -0.2401 H   0  0  0  0  0  0  0  0  0  0  0  0
    0.6946    0.8666    0.3131 H   0  0  0  0  0  0  0  0  0  0  0  0
    0.5895   -1.2201   -1.2308 H   0  0  0  0  0  0  0  0  0  0  0  0
   -1.1506   -1.1574   -1.1172 H   0  0  0  0  0  0  0  0  0  0  0  0
   -2.3544   -2.1406    1.1523 H   0  0  0  0  0  0  0  0  0  0  0  0
   -1.4442   -3.3369    3.1489 H   0  0  0  0  0  0  0  0  0  0  0  0
    2.7206   -1.3131    0.4161 H   0  0  0  0  0  0  0  0  0  0  0  0
    1.0427   -3.9149    4.3442 H   0  0  0  0  0  0  0  0  0  0  0  0
    4.3027   -2.2485    2.0761 H   0  0  0  0  0  0  0  0  0  0  0  0
    3.4814   -3.5329    4.0167 H   0  0  0  0  0  0  0  0  0  0  0  0
    0.5790    0.5854   -2.6268 N   0  0  0  0  0  0  0  0  0  0  0  0
    0.8406    1.0621   -3.9659 C   0  0  2  0  0  0  0  0  0  0  0  0
   -0.4478    1.6644   -4.5107 C   0  0  0  0  0  0  0  0  0  0  0  0
   -1.5606    1.3708   -4.0789 O   0  0  0  0  0  0  0  0  0  0  0  0
    1.3393   -0.0587   -4.8646 C   0  0  0  0  0  0  0  0  0  0  0  0
    0.8571   -0.3622   -2.3892 H   0  0  0  0  0  0  0  0  0  0  0  0
    1.6024    1.8446   -3.8798 H   0  0  0  0  0  0  0  0  0  0  0  0
    0.5894   -0.8521   -4.9628 H   0  0  0  0  0  0  0  0  0  0  0  0
    1.5641    0.3099   -5.8709 H   0  0  0  0  0  0  0  0  0  0  0  0
    2.2495   -0.5105   -4.4556 H   0  0  0  0  0  0  0  0  0  0  0  0
   -0.2116    2.5358   -5.5648 N   0  0  0  0  0  0  0  0  0  0  0  0
   -1.2738    3.2251   -6.2594 C   0  0  0  0  0  0  0  0  0  0  0  0
    0.7445    2.7346   -5.8440 H   0  0  0  0  0  0  0  0  0  0  0  0
   -1.5873    2.6326   -7.1316 H   0  0  0  0  0  0  0  0  0  0  0  0
   -2.1290    3.3591   -5.5808 H   0  0  0  0  0  0  0  0  0  0  0  0
   -0.9142    4.2091   -6.5949 H   0  0  0  0  0  0  0  0  0  0  0  0
 29 30  2  0  0  0  0
 27 29  1  0  0  0  0
 28 30  1  0  0  0  0
 24 27  2  0  0  0  0
 26 28  2  0  0  0  0
 22 23  2  0  0  0  0
 23 25  1  0  0  0  0
 22 24  1  0  0  0  0
 24 26  1  0  0  0  0
 21 22  1  0  0  0  0
 25 26  1  0  0  0  0
  1  3  1  0  0  0  0
  1  7  1  0  0  0  0
  1  2  2  0  0  0  0
 42 43  1  0  0  0  0
 43 51  1  0  0  0  0
 43 44  2  0  0  0  0
  8  9  1  0  0  0  0
  9 17  1  0  0  0  0
  9 10  2  0  0  0  0
 18 19  1  0  0  0  0
 19 41  1  0  0  0  0
 19 20  2  0  0  0  0
 42 45  1  0  0  0  0
  8 11  1  0  0  0  0
 51 52  1  0  0  0  0
 18 21  1  0  0  0  0
 41 42  1  0  0  0  0
  7  8  1  0  0  0  0
 17 18  1  0  0  0  0
 29 39  1  0  0  0  0
 30 40  1  0  0  0  0
 27 37  1  0  0  0  0
 28 38  1  0  0  0  0
 23 35  1  0  0  0  0
  3  4  1  0  0  0  0
  3  5  1  0  0  0  0
  3  6  1  0  0  0  0
 45 48  1  0  0  0  0
 45 49  1  0  0  0  0
 45 50  1  0  0  0  0
 11 14  1  0  0  0  0
 11 15  1  0  0  0  0
 11 16  1  0  0  0  0
 52 54  1  0  0  0  0
 52 55  1  0  0  0  0
 52 56  1  0  0  0  0
 21 33  1  0  0  0  0
 21 34  1  0  0  0  0
 42 47  1  0  0  0  0
  8 13  1  0  0  0  0
 18 32  1  0  0  0  0
 25 36  1  0  0  0  0
 51 53  1  0  0  0  0
  7 12  1  0  0  0  0
 41 46  1  0  0  0  0
 17 31  1  0  0  0  0
M  END
$$$$

  -OEChem-05262214473D

 56 57  0     1  0  0  0  0  0999 V2000
   -2.2900    0.3401    4.1553 C   0  0  0  0  0  0  0  0  0  0  0  0
   -1.3426   -0.2746    3.6796 O   0  0  0  0  0  0  0  0  0  0  0  0
   -2.7219    0.0577    5.5560 C   0  0  0  0  0  0  0  0  0  0  0  0
   -3.4815   -0.7386    5.6094 H   0  0  0  0  0  0  0  0  0  0  0  0
   -1.8906   -0.2899    6.1903 H   0  0  0  0  0  0  0  0  0  0  0  0
   -3.1599    0.9126    6.0956 H   0  0  0  0  0  0  0  0  0  0  0  0
   -3.0397    1.3125    3.5142 N   0  0  0  0  0  0  0  0  0  0  0  0
   -2.7928    1.7385    2.1618 C   0  0  2  0  0  0  0  0  0  0  0  0
   -1.4579    1.1532    1.7206 C   0  0  0  0  0  0  0  0  0  0  0  0
   -0.5858    0.8004    2.5118 O   0  0  0  0  0  0  0  0  0  0  0  0
   -2.7841    3.2553    2.0523 C   0  0  0  0  0  0  0  0  0  0  0  0
   -3.8047    1.7484    4.0260 H   0  0  0  0  0  0  0  0  0  0  0  0
   -3.5969    1.3201    1.5466 H   0  0  0  0  0  0  0  0  0  0  0  0
   -1.9850    3.6926    2.6620 H   0  0  0  0  0  0  0  0  0  0  0  0
   -2.6246    3.5776    1.0180 H   0  0  0  0  0  0  0  0  0  0  0  0
   -3.7342    3.6765    2.3981 H   0  0  0  0  0  0  0  0  0  0  0  0
   -1.3352    1.1101    0.3372 N   0  0  0  0  0  0  0  0  0  0  0  0
   -0.1579    0.6093   -0.3265 C   0  0  2  0  0  0  0  0  0  0  0  0
   -0.0332    1.3573   -1.6490 C   0  0  0  0  0  0  0  0  0  0  0  0
   -0.1412    2.5783   -1.7400 O   0  0  0  0  0  0  0  0  0  0  0  0
   -0.2313   -0.9019   -0.5738 C   0  0  0  0  0  0  0  0  0  0  0  0
   -0.1991   -1.7046    0.7039 C   0  0  0  0  0  0  0  0  0  0  0  0
   -1.2965   -2.2024    1.3677 C   0  0  0  0  0  0  0  0  0  0  0  0
    0.9598   -2.0846    1.4371 C   0  0  0  0  0  0  0  0  0  0  0  0
   -0.8510   -2.8703    2.4767 N   0  0  0  0  0  0  0  0  0  0  0  0
    0.5229   -2.8148    2.5444 C   0  0  0  0  0  0  0  0  0  0  0  0
    2.3427   -1.8767    1.2643 C   0  0  0  0  0  0  0  0  0  0  0  0
    1.4034   -3.3497    3.4915 C   0  0  0  0  0  0  0  0  0  0  0  0
    3.2351   -2.4059    2.2037 C   0  0  0  0  0  0  0  0  0  0  0  0
    2.7705   -3.1308    3.2994 C   0  0  0  0  0  0  0  0  0  0  0  0
   -2.1183    1.4068   -0.2401 H   0  0  0  0  0  0  0  0  0  0  0  0
    0.6946    0.8666    0.3131 H   0  0  0  0  0  0  0  0  0  0  0  0
    0.5895   -1.2201   -1.2308 H   0  0  0  0  0  0  0  0  0  0  0  0
   -1.1506   -1.1574   -1.1172 H   0  0  0  0  0  0  0  0  0  0  0  0
   -2.3544   -2.1406    1.1523 H   0  0  0  0  0  0  0  0  0  0  0  0
   -1.4442   -3.3369    3.1489 H   0  0  0  0  0  0  0  0  0  0  0  0
    2.7206   -1.3131    0.4161 H   0  0  0  0  0  0  0  0  0  0  0  0
    1.0427   -3.9149    4.3442 H   0  0  0  0  0  0  0  0  0  0  0  0
    4.3027   -2.2485    2.0761 H   0  0  0  0  0  0  0  0  0  0  0  0
    3.4814   -3.5329    4.0167 H   0  0  0  0  0  0  0  0  0  0  0  0
    0.2621    0.5037   -2.7029 N   0  0  0  0  0  0  0  0  0  0  0  0
    0.4557    0.9574   -4.0614 C   0  0  2  0  0  0  0  0  0  0  0  0
   -0.7209    1.8511   -4.4309 C   0  0  0  0  0  0  0  0  0  0  0  0
   -1.8086    1.7980   -3.8607 O   0  0  0  0  0  0  0  0  0  0  0  0
    0.5724   -0.2136   -5.0246 C   0  0  0  0  0  0  0  0  0  0  0  0
    0.3463   -0.4900   -2.5097 H   0  0  0  0  0  0  0  0  0  0  0  0
    1.3792    1.5466   -4.0694 H   0  0  0  0  0  0  0  0  0  0  0  0
   -0.3436   -0.8156   -5.0302 H   0  0  0  0  0  0  0  0  0  0  0  0
    0.7476    0.1312   -6.0490 H   0  0  0  0  0  0  0  0  0  0  0  0
    1.4007   -0.8714   -4.7398 H   0  0  0  0  0  0  0  0  0  0  0  0
   -0.4271    2.6848   -5.5008 N   0  0  0  0  0  0  0  0  0  0  0  0
   -1.3842    3.6182   -6.0476 C   0  0  0  0  0  0  0  0  0  0  0  0
    0.5068    2.6751   -5.9001 H   0  0  0  0  0  0  0  0  0  0  0  0
   -1.9295    3.1420   -6.8757 H   0  0  0  0  0  0  0  0  0  0  0  0
   -2.0957    3.9153   -5.2631 H   0  0  0  0  0  0  0  0  0  0  0  0
   -0.8563    4.5084   -6.4202 H   0  0  0  0  0  0  0  0  0  0  0  0
 29 30  2  0  0  0  0
 27 29  1  0  0  0  0
 28 30  1  0  0  0  0
 24 27  2  0  0  0  0
 26 28  2  0  0  0  0
 22 23  2  0  0  0  0
 23 25  1  0  0  0  0
 22 24  1  0  0  0  0
 24 26  1  0  0  0  0
 21 22  1  0  0  0  0
 25 26  1  0  0  0  0
  1  3  1  0  0  0  0
  1  7  1  0  0  0  0
  1  2  2  0  0  0  0
 42 43  1  0  0  0  0
 43 51  1  0  0  0  0
 43 44  2  0  0  0  0
  8  9  1  0  0  0  0
  9 17  1  0  0  0  0
  9 10  2  0  0  0  0
 18 19  1  0  0  0  0
 19 41  1  0  0  0  0
 19 20  2  0  0  0  0
 42 45  1  0  0  0  0
  8 11  1  0  0  0  0
 51 52  1  0  0  0  0
 18 21  1  0  0  0  0
 41 42  1  0  0  0  0
  7  8  1  0  0  0  0
 17 18  1  0  0  0  0
 29 39  1  0  0  0  0
 30 40  1  0  0  0  0
 27 37  1  0  0  0  0
 28 38  1  0  0  0  0
 23 35  1  0  0  0  0
  3  4  1  0  0  0  0
  3  5  1  0  0  0  0
  3  6  1  0  0  0  0
 45 48  1  0  0  0  0
 45 49  1  0  0  0  0
 45 50  1  0  0  0  0
 11 14  1  0  0  0  0
 11 15  1  0  0  0  0
 11 16  1  0  0  0  0
 52 54  1  0  0  0  0
 52 55  1  0  0  0  0
 52 56  1  0  0  0  0
 21 33  1  0  0  0  0
 21 34  1  0  0  0  0
 42 47  1  0  0  0  0
  8 13  1  0  0  0  0
 18 32  1  0  0  0  0
 25 36  1  0  0  0  0
 51 53  1  0  0  0  0
  7 12  1  0  0  0  0
 41 46  1  0  0  0  0
 17 31  1  0  0  0  0
M  END
$$$$

  -OEChem-05262214473D

 56 57  0     1  0  0  0  0  0999 V2000
   -2.2900    0.3401    4.1553 C   0  0  0  0  0  0  0  0  0  0  0  0
   -1.3426   -0.2746    3.6796 O   0  0  0  0  0  0  0  0  0  0  0  0
   -2.7219    0.0577    5.5560 C   0  0  0  0  0  0  0  0  0  0  0  0
   -3.4815   -0.7386    5.6094 H   0  0  0  0  0  0  0  0  0  0  0  0
   -1.8906   -0.2899    6.1903 H   0  0  0  0  0  0  0  0  0  0  0  0
   -3.1599    0.9126    6.0956 H   0  0  0  0  0  0  0  0  0  0  0  0
   -3.0397    1.3125    3.5142 N   0  0  0  0  0  0  0  0  0  0  0  0
   -2.7928    1.7385    2.1618 C   0  0  2  0  0  0  0  0  0  0  0  0
   -1.4579    1.1532    1.7206 C   0  0  0  0  0  0  0  0  0  0  0  0
   -0.5858    0.8004    2.5118 O   0  0  0  0  0  0  0  0  0  0  0  0
   -2.7841    3.2553    2.0523 C   0  0  0  0  0  0  0  0  0  0  0  0
   -3.8047    1.7484    4.0260 H   0  0  0  0  0  0  0  0  0  0  0  0
   -3.5969    1.3201    1.5466 H   0  0  0  0  0  0  0  0  0  0  0  0
   -1.9850    3.6926    2.6620 H   0  0  0  0  0  0  0  0  0  0  0  0
   -2.6246    3.5776    1.0180 H   0  0  0  0  0  0  0  0  0  0  0  0
   -3.7342    3.6765    2.3981 H   0  0  0  0  0  0  0  0  0  0  0  0
   -1.3352    1.1101    0.3372 N   0  0  0  0  0  0  0  0  0  0  0  0
   -0.1579    0.6093   -0.3265 C   0  0  2  0  0  0  0  0  0  0  0  0
   -0.0332    1.3573   -1.6490 C   0  0  0  0  0  0  0  0  0  0  0  0
    0.1269    2.5741   -1.7171 O   0  0  0  0  0  0  0  0  0  0  0  0
   -0.2313   -0.9019   -0.5738 C   0  0  0  0  0  0  0  0  0  0  0  0
   -0.1991   -1.7046    0.7039 C   0  0  0  0  0  0  0  0  0  0  0  0
   -1.2965   -2.2024    1.3677 C   0  0  0  0  0  0  0  0  0  0  0  0
    0.9598   -2.0846    1.4371 C   0  0  0  0  0  0  0  0  0  0  0  0
   -0.8510   -2.8703    2.4767 N   0  0  0  0  0  0  0  0  0  0  0  0
    0.5229   -2.8148    2.5444 C   0  0  0  0  0  0  0  0  0  0  0  0
    2.3427   -1.8767    1.2643 C   0  0  0  0  0  0  0  0  0  0  0  0
    1.4034   -3.3497    3.4915 C   0  0  0  0  0  0  0  0  0  0  0  0
    3.2351   -2.4059    2.2037 C   0  0  0  0  0  0  0  0  0  0  0  0
    2.7705   -3.1308    3.2994 C   0  0  0  0  0  0  0  0  0  0  0  0
   -2.1183    1.4068   -0.2401 H   0  0  0  0  0  0  0  0  0  0  0  0
    0.6946    0.8666    0.3131 H   0  0  0  0  0  0  0  0  0  0  0  0
    0.5895   -1.2201   -1.2308 H   0  0  0  0  0  0  0  0  0  0  0  0
   -1.1506   -1.1574   -1.1172 H   0  0  0  0  0  0  0  0  0  0  0  0
   -2.3544   -2.1406    1.1523 H   0  0  0  0  0  0  0  0  0  0  0  0
   -1.4442   -3.3369    3.1489 H   0  0  0  0  0  0  0  0  0  0  0  0
    2.7206   -1.3131    0.4161 H   0  0  0  0  0  0  0  0  0  0  0  0
    1.0427   -3.9149    4.3442 H   0  0  0  0  0  0  0  0  0  0  0  0
    4.3027   -2.2485    2.0761 H   0  0  0  0  0  0  0  0  0  0  0  0
    3.4814   -3.5329    4.0167 H   0  0  0  0  0  0  0  0  0  0  0  0
   -0.0720    0.4975   -2.7379 N   0  0  0  0  0  0  0  0  0  0  0  0
    0.0483    0.9448   -4.1069 C   0  0  2  0  0  0  0  0  0  0  0  0
   -0.9326    2.0910   -4.3152 C   0  0  0  0  0  0  0  0  0  0  0  0
   -1.9244    2.2617   -3.6093 O   0  0  0  0  0  0  0  0  0  0  0  0
   -0.2234   -0.1877   -5.0850 C   0  0  0  0  0  0  0  0  0  0  0  0
   -0.1910   -0.4962   -2.5639 H   0  0  0  0  0  0  0  0  0  0  0  0
    1.0727    1.3129   -4.2305 H   0  0  0  0  0  0  0  0  0  0  0  0
   -1.2451   -0.5695   -4.9760 H   0  0  0  0  0  0  0  0  0  0  0  0
   -0.1039    0.1457   -6.1211 H   0  0  0  0  0  0  0  0  0  0  0  0
    0.4637   -1.0234   -4.9142 H   0  0  0  0  0  0  0  0  0  0  0  0
   -0.5937    2.8758   -5.4085 N   0  0  0  0  0  0  0  0  0  0  0  0
   -1.3756    4.0181   -5.8206 C   0  0  0  0  0  0  0  0  0  0  0  0
    0.2567    2.6722   -5.9254 H   0  0  0  0  0  0  0  0  0  0  0  0
   -2.1133    3.7055   -6.5744 H   0  0  0  0  0  0  0  0  0  0  0  0
   -1.8982    4.4384   -4.9486 H   0  0  0  0  0  0  0  0  0  0  0  0
   -0.7109    4.7808   -6.2524 H   0  0  0  0  0  0  0  0  0  0  0  0
 29 30  2  0  0  0  0
 27 29  1  0  0  0  0
 28 30  1  0  0  0  0
 24 27  2  0  0  0  0
 26 28  2  0  0  0  0
 22 23  2  0  0  0  0
 23 25  1  0  0  0  0
 22 24  1  0  0  0  0
 24 26  1  0  0  0  0
 21 22  1  0  0  0  0
 25 26  1  0  0  0  0
  1  3  1  0  0  0  0
  1  7  1  0  0  0  0
  1  2  2  0  0  0  0
 42 43  1  0  0  0  0
 43 51  1  0  0  0  0
 43 44  2  0  0  0  0
  8  9  1  0  0  0  0
  9 17  1  0  0  0  0
  9 10  2  0  0  0  0
 18 19  1  0  0  0  0
 19 41  1  0  0  0  0
 19 20  2  0  0  0  0
 42 45  1  0  0  0  0
  8 11  1  0  0  0  0
 51 52  1  0  0  0  0
 18 21  1  0  0  0  0
 41 42  1  0  0  0  0
  7  8  1  0  0  0  0
 17 18  1  0  0  0  0
 29 39  1  0  0  0  0
 30 40  1  0  0  0  0
 27 37  1  0  0  0  0
 28 38  1  0  0  0  0
 23 35  1  0  0  0  0
  3  4  1  0  0  0  0
  3  5  1  0  0  0  0
  3  6  1  0  0  0  0
 45 48  1  0  0  0  0
 45 49  1  0  0  0  0
 45 50  1  0  0  0  0
 11 14  1  0  0  0  0
 11 15  1  0  0  0  0
 11 16  1  0  0  0  0
 52 54  1  0  0  0  0
 52 55  1  0  0  0  0
 52 56  1  0  0  0  0
 21 33  1  0  0  0  0
 21 34  1  0  0  0  0
 42 47  1  0  0  0  0
  8 13  1  0  0  0  0
 18 32  1  0  0  0  0
 25 36  1  0  0  0  0
 51 53  1  0  0  0  0
  7 12  1  0  0  0  0
 41 46  1  0  0  0  0
 17 31  1  0  0  0  0
M  END
$$$$

  -OEChem-05262214473D

 56 57  0     1  0  0  0  0  0999 V2000
   -2.2900    0.3401    4.1553 C   0  0  0  0  0  0  0  0  0  0  0  0
   -1.3426   -0.2746    3.6796 O   0  0  0  0  0  0  0  0  0  0  0  0
   -2.7219    0.0577    5.5560 C   0  0  0  0  0  0  0  0  0  0  0  0
   -3.4815   -0.7386    5.6094 H   0  0  0  0  0  0  0  0  0  0  0  0
   -1.8906   -0.2899    6.1903 H   0  0  0  0  0  0  0  0  0  0  0  0
   -3.1599    0.9126    6.0956 H   0  0  0  0  0  0  0  0  0  0  0  0
   -3.0397    1.3125    3.5142 N   0  0  0  0  0  0  0  0  0  0  0  0
   -2.7928    1.7385    2.1618 C   0  0  2  0  0  0  0  0  0  0  0  0
   -1.4579    1.1532    1.7206 C   0  0  0  0  0  0  0  0  0  0  0  0
   -0.5858    0.8004    2.5118 O   0  0  0  0  0  0  0  0  0  0  0  0
   -2.7841    3.2553    2.0523 C   0  0  0  0  0  0  0  0  0  0  0  0
   -3.8047    1.7484    4.0260 H   0  0  0  0  0  0  0  0  0  0  0  0
   -3.5969    1.3201    1.5466 H   0  0  0  0  0  0  0  0  0  0  0  0
   -1.9850    3.6926    2.6620 H   0  0  0  0  0  0  0  0  0  0  0  0
   -2.6246    3.5776    1.0180 H   0  0  0  0  0  0  0  0  0  0  0  0
   -3.7342    3.6765    2.3981 H   0  0  0  0  0  0  0  0  0  0  0  0
   -1.3352    1.1101    0.3372 N   0  0  0  0  0  0  0  0  0  0  0  0
   -0.1579    0.6093   -0.3265 C   0  0  2  0  0  0  0  0  0  0  0  0
   -0.0332    1.3573   -1.6490 C   0  0  0  0  0  0  0  0  0  0  0  0
    0.3879    2.5093   -1.7291 O   0  0  0  0  0  0  0  0  0  0  0  0
   -0.2313   -0.9019   -0.5738 C   0  0  0  0  0  0  0  0  0  0  0  0
   -0.1991   -1.7046    0.7039 C   0  0  0  0  0  0  0  0  0  0  0  0
   -1.2965   -2.2024    1.3677 C   0  0  0  0  0  0  0  0  0  0  0  0
    0.9598   -2.0846    1.4371 C   0  0  0  0  0  0  0  0  0  0  0  0
   -0.8510   -2.8703    2.4767 N   0  0  0  0  0  0  0  0  0  0  0  0
    0.5229   -2.8148    2.5444 C   0  0  0  0  0  0  0  0  0  0  0  0
    2.3427   -1.8767    1.2643 C   0  0  0  0  0  0  0  0  0  0  0  0
    1.4034   -3.3497    3.4915 C   0  0  0  0  0  0  0  0  0  0  0  0
    3.2351   -2.4059    2.2037 C   0  0  0  0  0  0  0  0  0  0  0  0
    2.7705   -3.1308    3.2994 C   0  0  0  0  0  0  0  0  0  0  0  0
   -2.1183    1.4068   -0.2401 H   0  0  0  0  0  0  0  0  0  0  0  0
    0.6946    0.8666    0.3131 H   0  0  0  0  0  0  0  0  0  0  0  0
    0.5895   -1.2201   -1.2308 H   0  0  0  0  0  0  0  0  0  0  0  0
   -1.1506   -1.1574   -1.1172 H   0  0  0  0  0  0  0  0  0  0  0  0
   -2.3544   -2.1406    1.1523 H   0  0  0  0  0  0  0  0  0  0  0  0
   -1.4442   -3.3369    3.1489 H   0  0  0  0  0  0  0  0  0  0  0  0
    2.7206   -1.3131    0.4161 H   0  0  0  0  0  0  0  0  0  0  0  0
    1.0427   -3.9149    4.3442 H   0  0  0  0  0  0  0  0  0  0  0  0
    4.3027   -2.2485    2.0761 H   0  0  0  0  0  0  0  0  0  0  0  0
    3.4814   -3.5329    4.0167 H   0  0  0  0  0  0  0  0  0  0  0  0
   -0.4006    0.5672   -2.7294 N   0  0  0  0  0  0  0  0  0  0  0  0
   -0.3538    1.0249   -4.0995 C   0  0  2  0  0  0  0  0  0  0  0  0
   -1.0685    2.3679   -4.1714 C   0  0  0  0  0  0  0  0  0  0  0  0
   -1.9003    2.7303   -3.3420 O   0  0  0  0  0  0  0  0  0  0  0  0
   -0.9940    0.0174   -5.0417 C   0  0  0  0  0  0  0  0  0  0  0  0
   -0.7183   -0.3803   -2.5481 H   0  0  0  0  0  0  0  0  0  0  0  0
    0.7036    1.1593   -4.3521 H   0  0  0  0  0  0  0  0  0  0  0  0
   -2.0538   -0.1305   -4.8040 H   0  0  0  0  0  0  0  0  0  0  0  0
   -0.9323    0.3524   -6.0823 H   0  0  0  0  0  0  0  0  0  0  0  0
   -0.4977   -0.9562   -4.9668 H   0  0  0  0  0  0  0  0  0  0  0  0
   -0.7000    3.0957   -5.2941 N   0  0  0  0  0  0  0  0  0  0  0  0
   -1.2488    4.3977   -5.5939 C   0  0  0  0  0  0  0  0  0  0  0  0
    0.0112    2.7261   -5.9180 H   0  0  0  0  0  0  0  0  0  0  0  0
   -2.1259    4.2847   -6.2480 H   0  0  0  0  0  0  0  0  0  0  0  0
   -1.5501    4.8926   -4.6589 H   0  0  0  0  0  0  0  0  0  0  0  0
   -0.4880    5.0077   -6.1030 H   0  0  0  0  0  0  0  0  0  0  0  0
 29 30  2  0  0  0  0
 27 29  1  0  0  0  0
 28 30  1  0  0  0  0
 24 27  2  0  0  0  0
 26 28  2  0  0  0  0
 22 23  2  0  0  0  0
 23 25  1  0  0  0  0
 22 24  1  0  0  0  0
 24 26  1  0  0  0  0
 21 22  1  0  0  0  0
 25 26  1  0  0  0  0
  1  3  1  0  0  0  0
  1  7  1  0  0  0  0
  1  2  2  0  0  0  0
 42 43  1  0  0  0  0
 43 51  1  0  0  0  0
 43 44  2  0  0  0  0
  8  9  1  0  0  0  0
  9 17  1  0  0  0  0
  9 10  2  0  0  0  0
 18 19  1  0  0  0  0
 19 41  1  0  0  0  0
 19 20  2  0  0  0  0
 42 45  1  0  0  0  0
  8 11  1  0  0  0  0
 51 52  1  0  0  0  0
 18 21  1  0  0  0  0
 41 42  1  0  0  0  0
  7  8  1  0  0  0  0
 17 18  1  0  0  0  0
 29 39  1  0  0  0  0
 30 40  1  0  0  0  0
 27 37  1  0  0  0  0
 28 38  1  0  0  0  0
 23 35  1  0  0  0  0
  3  4  1  0  0  0  0
  3  5  1  0  0  0  0
  3  6  1  0  0  0  0
 45 48  1  0  0  0  0
 45 49  1  0  0  0  0
 45 50  1  0  0  0  0
 11 14  1  0  0  0  0
 11 15  1  0  0  0  0
 11 16  1  0  0  0  0
 52 54  1  0  0  0  0
 52 55  1  0  0  0  0
 52 56  1  0  0  0  0
 21 33  1  0  0  0  0
 21 34  1  0  0  0  0
 42 47  1  0  0  0  0
  8 13  1  0  0  0  0
 18 32  1  0  0  0  0
 25 36  1  0  0  0  0
 51 53  1  0  0  0  0
  7 12  1  0  0  0  0
 41 46  1  0  0  0  0
 17 31  1  0  0  0  0
M  END
$$$$

  -OEChem-05262214473D

 56 57  0     1  0  0  0  0  0999 V2000
   -2.2900    0.3401    4.1553 C   0  0  0  0  0  0  0  0  0  0  0  0
   -1.3426   -0.2746    3.6796 O   0  0  0  0  0  0  0  0  0  0  0  0
   -2.7219    0.0577    5.5560 C   0  0  0  0  0  0  0  0  0  0  0  0
   -3.4815   -0.7386    5.6094 H   0  0  0  0  0  0  0  0  0  0  0  0
   -1.8906   -0.2899    6.1903 H   0  0  0  0  0  0  0  0  0  0  0  0
   -3.1599    0.9126    6.0956 H   0  0  0  0  0  0  0  0  0  0  0  0
   -3.0397    1.3125    3.5142 N   0  0  0  0  0  0  0  0  0  0  0  0
   -2.7928    1.7385    2.1618 C   0  0  2  0  0  0  0  0  0  0  0  0
   -1.4579    1.1532    1.7206 C   0  0  0  0  0  0  0  0  0  0  0  0
   -0.5858    0.8004    2.5118 O   0  0  0  0  0  0  0  0  0  0  0  0
   -2.7841    3.2553    2.0523 C   0  0  0  0  0  0  0  0  0  0  0  0
   -3.8047    1.7484    4.0260 H   0  0  0  0  0  0  0  0  0  0  0  0
   -3.5969    1.3201    1.5466 H   0  0  0  0  0  0  0  0  0  0  0  0
   -1.9850    3.6926    2.6620 H   0  0  0  0  0  0  0  0  0  0  0  0
   -2.6246    3.5776    1.0180 H   0  0  0  0  0  0  0  0  0  0  0  0
   -3.7342    3.6765    2.3981 H   0  0  0  0  0  0  0  0  0  0  0  0
   -1.3352    1.1101    0.3372 N   0  0  0  0  0  0  0  0  0  0  0  0
   -0.1579    0.6093   -0.3265 C   0  0  2  0  0  0  0  0  0  0  0  0
   -0.0332    1.3573   -1.6490 C   0  0  0  0  0  0  0  0  0  0  0  0
    0.6239    2.3884   -1.7752 O   0  0  0  0  0  0  0  0  0  0  0  0
   -0.2313   -0.9019   -0.5738 C   0  0  0  0  0  0  0  0  0  0  0  0
   -0.1991   -1.7046    0.7039 C   0  0  0  0  0  0  0  0  0  0  0  0
   -1.2965   -2.2024    1.3677 C   0  0  0  0  0  0  0  0  0  0  0  0
    0.9598   -2.0846    1.4371 C   0  0  0  0  0  0  0  0  0  0  0  0
   -0.8510   -2.8703    2.4767 N   0  0  0  0  0  0  0  0  0  0  0  0
    0.5229   -2.8148    2.5444 C   0  0  0  0  0  0  0  0  0  0  0  0
    2.3427   -1.8767    1.2643 C   0  0  0  0  0  0  0  0  0  0  0  0
    1.4034   -3.3497    3.4915 C   0  0  0  0  0  0  0  0  0  0  0  0
    3.2351   -2.4059    2.2037 C   0  0  0  0  0  0  0  0  0  0  0  0
    2.7705   -3.1308    3.2994 C   0  0  0  0  0  0  0  0  0  0  0  0
   -2.1183    1.4068   -0.2401 H   0  0  0  0  0  0  0  0  0  0  0  0
    0.6946    0.8666    0.3131 H   0  0  0  0  0  0  0  0  0  0  0  0
    0.5895   -1.2201   -1.2308 H   0  0  0  0  0  0  0  0  0  0  0  0
   -1.1506   -1.1574   -1.1172 H   0  0  0  0  0  0  0  0  0  0  0  0
   -2.3544   -2.1406    1.1523 H   0  0  0  0  0  0  0  0  0  0  0  0
   -1.4442   -3.3369    3.1489 H   0  0  0  0  0  0  0  0  0  0  0  0
    2.7206   -1.3131    0.4161 H   0  0  0  0  0  0  0  0  0  0  0  0
    1.0427   -3.9149    4.3442 H   0  0  0  0  0  0  0  0  0  0  0  0
    4.3027   -2.2485    2.0761 H   0  0  0  0  0  0  0  0  0  0  0  0
    3.4814   -3.5329    4.0167 H   0  0  0  0  0  0  0  0  0  0  0  0
   -0.7012    0.7082   -2.6781 N   0  0  0  0  0  0  0  0  0  0  0  0
   -0.7233    1.1925   -4.0396 C   0  0  2  0  0  0  0  0  0  0  0  0
   -1.1194    2.6628   -4.0094 C   0  0  0  0  0  0  0  0  0  0  0  0
   -1.7378    3.1718   -3.0770 O   0  0  0  0  0  0  0  0  0  0  0  0
   -1.6868    0.3875   -4.8977 C   0  0  0  0  0  0  0  0  0  0  0  0
   -1.1996   -0.1504   -2.4634 H   0  0  0  0  0  0  0  0  0  0  0  0
    0.2973    1.0965   -4.4260 H   0  0  0  0  0  0  0  0  0  0  0  0
   -2.7145    0.4715   -4.5259 H   0  0  0  0  0  0  0  0  0  0  0  0
   -1.6811    0.7372   -5.9353 H   0  0  0  0  0  0  0  0  0  0  0  0
   -1.4178   -0.6743   -4.8942 H   0  0  0  0  0  0  0  0  0  0  0  0
   -0.7388    3.3296   -5.1655 N   0  0  0  0  0  0  0  0  0  0  0  0
   -1.0122    4.7310   -5.3831 C   0  0  0  0  0  0  0  0  0  0  0  0
   -0.2129    2.8331   -5.8787 H   0  0  0  0  0  0  0  0  0  0  0  0
   -1.9667    4.8401   -5.9189 H   0  0  0  0  0  0  0  0  0  0  0  0
   -1.0750    5.2470   -4.4137 H   0  0  0  0  0  0  0  0  0  0  0  0
   -0.2029    5.1737   -5.9823 H   0  0  0  0  0  0  0  0  0  0  0  0
 29 30  2  0  0  0  0
 27 29  1  0  0  0  0
 28 30  1  0  0  0  0
 24 27  2  0  0  0  0
 26 28  2  0  0  0  0
 22 23  2  0  0  0  0
 23 25  1  0  0  0  0
 22 24  1  0  0  0  0
 24 26  1  0  0  0  0
 21 22  1  0  0  0  0
 25 26  1  0  0  0  0
  1  3  1  0  0  0  0
  1  7  1  0  0  0  0
  1  2  2  0  0  0  0
 42 43  1  0  0  0  0
 43 51  1  0  0  0  0
 43 44  2  0  0  0  0
  8  9  1  0  0  0  0
  9 17  1  0  0  0  0
  9 10  2  0  0  0  0
 18 19  1  0  0  0  0
 19 41  1  0  0  0  0
 19 20  2  0  0  0  0
 42 45  1  0  0  0  0
  8 11  1  0  0  0  0
 51 52  1  0  0  0  0
 18 21  1  0  0  0  0
 41 42  1  0  0  0  0
  7  8  1  0  0  0  0
 17 18  1  0  0  0  0
 29 39  1  0  0  0  0
 30 40  1  0  0  0  0
 27 37  1  0  0  0  0
 28 38  1  0  0  0  0
 23 35  1  0  0  0  0
  3  4  1  0  0  0  0
  3  5  1  0  0  0  0
  3  6  1  0  0  0  0
 45 48  1  0  0  0  0
 45 49  1  0  0  0  0
 45 50  1  0  0  0  0
 11 14  1  0  0  0  0
 11 15  1  0  0  0  0
 11 16  1  0  0  0  0
 52 54  1  0  0  0  0
 52 55  1  0  0  0  0
 52 56  1  0  0  0  0
 21 33  1  0  0  0  0
 21 34  1  0  0  0  0
 42 47  1  0  0  0  0
  8 13  1  0  0  0  0
 18 32  1  0  0  0  0
 25 36  1  0  0  0  0
 51 53  1  0  0  0  0
  7 12  1  0  0  0  0
 41 46  1  0  0  0  0
 17 31  1  0  0  0  0
M  END
$$$$

  -OEChem-05262214473D

 56 57  0     1  0  0  0  0  0999 V2000
   -2.2900    0.3401    4.1553 C   0  0  0  0  0  0  0  0  0  0  0  0
   -1.3426   -0.2746    3.6796 O   0  0  0  0  0  0  0  0  0  0  0  0
   -2.7219    0.0577    5.5560 C   0  0  0  0  0  0  0  0  0  0  0  0
   -3.4815   -0.7386    5.6094 H   0  0  0  0  0  0  0  0  0  0  0  0
   -1.8906   -0.2899    6.1903 H   0  0  0  0  0  0  0  0  0  0  0  0
   -3.1599    0.9126    6.0956 H   0  0  0  0  0  0  0  0  0  0  0  0
   -3.0397    1.3125    3.5142 N   0  0  0  0  0  0  0  0  0  0  0  0
   -2.7928    1.7385    2.1618 C   0  0  2  0  0  0  0  0  0  0  0  0
   -1.4579    1.1532    1.7206 C   0  0  0  0  0  0  0  0  0  0  0  0
   -0.5858    0.8004    2.5118 O   0  0  0  0  0  0  0  0  0  0  0  0
   -2.7841    3.2553    2.0523 C   0  0  0  0  0  0  0  0  0  0  0  0
   -3.8047    1.7484    4.0260 H   0  0  0  0  0  0  0  0  0  0  0  0
   -3.5969    1.3201    1.5466 H   0  0  0  0  0  0  0  0  0  0  0  0
   -1.9850    3.6926    2.6620 H   0  0  0  0  0  0  0  0  0  0  0  0
   -2.6246    3.5776    1.0180 H   0  0  0  0  0  0  0  0  0  0  0  0
   -3.7342    3.6765    2.3981 H   0  0  0  0  0  0  0  0  0  0  0  0
   -1.3352    1.1101    0.3372 N   0  0  0  0  0  0  0  0  0  0  0  0
   -0.1579    0.6093   -0.3265 C   0  0  2  0  0  0  0  0  0  0  0  0
   -0.0332    1.3573   -1.6490 C   0  0  0  0  0  0  0  0  0  0  0  0
    0.8189    2.2196   -1.8523 O   0  0  0  0  0  0  0  0  0  0  0  0
   -0.2313   -0.9019   -0.5738 C   0  0  0  0  0  0  0  0  0  0  0  0
   -0.1991   -1.7046    0.7039 C   0  0  0  0  0  0  0  0  0  0  0  0
   -1.2965   -2.2024    1.3677 C   0  0  0  0  0  0  0  0  0  0  0  0
    0.9598   -2.0846    1.4371 C   0  0  0  0  0  0  0  0  0  0  0  0
   -0.8510   -2.8703    2.4767 N   0  0  0  0  0  0  0  0  0  0  0  0
    0.5229   -2.8148    2.5444 C   0  0  0  0  0  0  0  0  0  0  0  0
    2.3427   -1.8767    1.2643 C   0  0  0  0  0  0  0  0  0  0  0  0
    1.4034   -3.3497    3.4915 C   0  0  0  0  0  0  0  0  0  0  0  0
    3.2351   -2.4059    2.2037 C   0  0  0  0  0  0  0  0  0  0  0  0
    2.7705   -3.1308    3.2994 C   0  0  0  0  0  0  0  0  0  0  0  0
   -2.1183    1.4068   -0.2401 H   0  0  0  0  0  0  0  0  0  0  0  0
    0.6946    0.8666    0.3131 H   0  0  0  0  0  0  0  0  0  0  0  0
    0.5895   -1.2201   -1.2308 H   0  0  0  0  0  0  0  0  0  0  0  0
   -1.1506   -1.1574   -1.1172 H   0  0  0  0  0  0  0  0  0  0  0  0
   -2.3544   -2.1406    1.1523 H   0  0  0  0  0  0  0  0  0  0  0  0
   -1.4442   -3.3369    3.1489 H   0  0  0  0  0  0  0  0  0  0  0  0
    2.7206   -1.3131    0.4161 H   0  0  0  0  0  0  0  0  0  0  0  0
    1.0427   -3.9149    4.3442 H   0  0  0  0  0  0  0  0  0  0  0  0
    4.3027   -2.2485    2.0761 H   0  0  0  0  0  0  0  0  0  0  0  0
    3.4814   -3.5329    4.0167 H   0  0  0  0  0  0  0  0  0  0  0  0
   -0.9534    0.9108   -2.5873 N   0  0  0  0  0  0  0  0  0  0  0  0
   -1.0349    1.4361   -3.9312 C   0  0  2  0  0  0  0  0  0  0  0  0
   -1.0817    2.9556   -3.8402 C   0  0  0  0  0  0  0  0  0  0  0  0
   -1.4481    3.5563   -2.8322 O   0  0  0  0  0  0  0  0  0  0  0  0
   -2.2545    0.8975   -4.6628 C   0  0  0  0  0  0  0  0  0  0  0  0
   -1.6022    0.1780   -2.3157 H   0  0  0  0  0  0  0  0  0  0  0  0
   -0.1187    1.1286   -4.4471 H   0  0  0  0  0  0  0  0  0  0  0  0
   -3.1822    1.1954   -4.1605 H   0  0  0  0  0  0  0  0  0  0  0  0
   -2.2993    1.2740   -5.6901 H   0  0  0  0  0  0  0  0  0  0  0  0
   -2.2342   -0.1970   -4.7012 H   0  0  0  0  0  0  0  0  0  0  0  0
   -0.7074    3.5616   -5.0314 N   0  0  0  0  0  0  0  0  0  0  0  0
   -0.6821    4.9955   -5.2024 C   0  0  0  0  0  0  0  0  0  0  0  0
   -0.4003    2.9859   -5.8099 H   0  0  0  0  0  0  0  0  0  0  0  0
   -1.6464    5.3338   -5.6094 H   0  0  0  0  0  0  0  0  0  0  0  0
   -0.5055    5.4776   -4.2296 H   0  0  0  0  0  0  0  0  0  0  0  0
    0.1252    5.2674   -5.8983 H   0  0  0  0  0  0  0  0  0  0  0  0
 29 30  2  0  0  0  0
 27 29  1  0  0  0  0
 28 30  1  0  0  0  0
 24 27  2  0  0  0  0
 26 28  2  0  0  0  0
 22 23  2  0  0  0  0
 23 25  1  0  0  0  0
 22 24  1  0  0  0  0
 24 26  1  0  0  0  0
 21 22  1  0  0  0  0
 25 26  1  0  0  0  0
  1  3  1  0  0  0  0
  1  7  1  0  0  0  0
  1  2  2  0  0  0  0
 42 43  1  0  0  0  0
 43 51  1  0  0  0  0
 43 44  2  0  0  0  0
  8  9  1  0  0  0  0
  9 17  1  0  0  0  0
  9 10  2  0  0  0  0
 18 19  1  0  0  0  0
 19 41  1  0  0  0  0
 19 20  2  0  0  0  0
 42 45  1  0  0  0  0
  8 11  1  0  0  0  0
 51 52  1  0  0  0  0
 18 21  1  0  0  0  0
 41 42  1  0  0  0  0
  7  8  1  0  0  0  0
 17 18  1  0  0  0  0
 29 39  1  0  0  0  0
 30 40  1  0  0  0  0
 27 37  1  0  0  0  0
 28 38  1  0  0  0  0
 23 35  1  0  0  0  0
  3  4  1  0  0  0  0
  3  5  1  0  0  0  0
  3  6  1  0  0  0  0
 45 48  1  0  0  0  0
 45 49  1  0  0  0  0
 45 50  1  0  0  0  0
 11 14  1  0  0  0  0
 11 15  1  0  0  0  0
 11 16  1  0  0  0  0
 52 54  1  0  0  0  0
 52 55  1  0  0  0  0
 52 56  1  0  0  0  0
 21 33  1  0  0  0  0
 21 34  1  0  0  0  0
 42 47  1  0  0  0  0
  8 13  1  0  0  0  0
 18 32  1  0  0  0  0
 25 36  1  0  0  0  0
 51 53  1  0  0  0  0
  7 12  1  0  0  0  0
 41 46  1  0  0  0  0
 17 31  1  0  0  0  0
M  END
$$$$

  -OEChem-05262214473D

 56 57  0     1  0  0  0  0  0999 V2000
   -2.2900    0.3401    4.1553 C   0  0  0  0  0  0  0  0  0  0  0  0
   -1.3426   -0.2746    3.6796 O   0  0  0  0  0  0  0  0  0  0  0  0
   -2.7219    0.0577    5.5560 C   0  0  0  0  0  0  0  0  0  0  0  0
   -3.4815   -0.7386    5.6094 H   0  0  0  0  0  0  0  0  0  0  0  0
   -1.8906   -0.2899    6.1903 H   0  0  0  0  0  0  0  0  0  0  0  0
   -3.1599    0.9126    6.0956 H   0  0  0  0  0  0  0  0  0  0  0  0
   -3.0397    1.3125    3.5142 N   0  0  0  0  0  0  0  0  0  0  0  0
   -2.7928    1.7385    2.1618 C   0  0  2  0  0  0  0  0  0  0  0  0
   -1.4579    1.1532    1.7206 C   0  0  0  0  0  0  0  0  0  0  0  0
   -0.5858    0.8004    2.5118 O   0  0  0  0  0  0  0  0  0  0  0  0
   -2.7841    3.2553    2.0523 C   0  0  0  0  0  0  0  0  0  0  0  0
   -3.8047    1.7484    4.0260 H   0  0  0  0  0  0  0  0  0  0  0  0
   -3.5969    1.3201    1.5466 H   0  0  0  0  0  0  0  0  0  0  0  0
   -1.9850    3.6926    2.6620 H   0  0  0  0  0  0  0  0  0  0  0  0
   -2.6246    3.5776    1.0180 H   0  0  0  0  0  0  0  0  0  0  0  0
   -3.7342    3.6765    2.3981 H   0  0  0  0  0  0  0  0  0  0  0  0
   -1.3352    1.1101    0.3372 N   0  0  0  0  0  0  0  0  0  0  0  0
   -0.1579    0.6093   -0.3265 C   0  0  2  0  0  0  0  0  0  0  0  0
   -0.0332    1.3573   -1.6490 C   0  0  0  0  0  0  0  0  0  0  0  0
    0.9595    2.0144   -1.9551 O   0  0  0  0  0  0  0  0  0  0  0  0
   -0.2313   -0.9019   -0.5738 C   0  0  0  0  0  0  0  0  0  0  0  0
   -0.1991   -1.7046    0.7039 C   0  0  0  0  0  0  0  0  0  0  0  0
   -1.2965   -2.2024    1.3677 C   0  0  0  0  0  0  0  0  0  0  0  0
    0.9598   -2.0846    1.4371 C   0  0  0  0  0  0  0  0  0  0  0  0
   -0.8510   -2.8703    2.4767 N   0  0  0  0  0  0  0  0  0  0  0  0
    0.5229   -2.8148    2.5444 C   0  0  0  0  0  0  0  0  0  0  0  0
    2.3427   -1.8767    1.2643 C   0  0  0  0  0  0  0  0  0  0  0  0
    1.4034   -3.3497    3.4915 C   0  0  0  0  0  0  0  0  0  0  0  0
    3.2351   -2.4059    2.2037 C   0  0  0  0  0  0  0  0  0  0  0  0
    2.7705   -3.1308    3.2994 C   0  0  0  0  0  0  0  0  0  0  0  0
   -2.1183    1.4068   -0.2401 H   0  0  0  0  0  0  0  0  0  0  0  0
    0.6946    0.8666    0.3131 H   0  0  0  0  0  0  0  0  0  0  0  0
    0.5895   -1.2201   -1.2308 H   0  0  0  0  0  0  0  0  0  0  0  0
   -1.1506   -1.1574   -1.1172 H   0  0  0  0  0  0  0  0  0  0  0  0
   -2.3544   -2.1406    1.1523 H   0  0  0  0  0  0  0  0  0  0  0  0
   -1.4442   -3.3369    3.1489 H   0  0  0  0  0  0  0  0  0  0  0  0
    2.7206   -1.3131    0.4161 H   0  0  0  0  0  0  0  0  0  0  0  0
    1.0427   -3.9149    4.3442 H   0  0  0  0  0  0  0  0  0  0  0  0
    4.3027   -2.2485    2.0761 H   0  0  0  0  0  0  0  0  0  0  0  0
    3.4814   -3.5329    4.0167 H   0  0  0  0  0  0  0  0  0  0  0  0
   -1.1400    1.1612   -2.4633 N   0  0  0  0  0  0  0  0  0  0  0  0
   -1.2675    1.7390   -3.7818 C   0  0  2  0  0  0  0  0  0  0  0  0
   -0.9581    3.2264   -3.6754 C   0  0  0  0  0  0  0  0  0  0  0  0
   -1.0509    3.8573   -2.6245 O   0  0  0  0  0  0  0  0  0  0  0  0
   -2.6586    1.5127   -4.3530 C   0  0  0  0  0  0  0  0  0  0  0  0
   -1.8985    0.5824   -2.1149 H   0  0  0  0  0  0  0  0  0  0  0  0
   -0.5161    1.2534   -4.4140 H   0  0  0  0  0  0  0  0  0  0  0  0
   -3.4250    1.9920   -3.7330 H   0  0  0  0  0  0  0  0  0  0  0  0
   -2.7448    1.9260   -5.3633 H   0  0  0  0  0  0  0  0  0  0  0  0
   -2.8910    0.4433   -4.4010 H   0  0  0  0  0  0  0  0  0  0  0  0
   -0.6080    3.7757   -4.9009 N   0  0  0  0  0  0  0  0  0  0  0  0
   -0.2809    5.1729   -5.0642 C   0  0  0  0  0  0  0  0  0  0  0  0
   -0.5383    3.1742   -5.7164 H   0  0  0  0  0  0  0  0  0  0  0  0
   -1.1868    5.7322   -5.3408 H   0  0  0  0  0  0  0  0  0  0  0  0
    0.1198    5.5684   -4.1192 H   0  0  0  0  0  0  0  0  0  0  0  0
    0.4738    5.2825   -5.8569 H   0  0  0  0  0  0  0  0  0  0  0  0
 29 30  2  0  0  0  0
 27 29  1  0  0  0  0
 28 30  1  0  0  0  0
 24 27  2  0  0  0  0
 26 28  2  0  0  0  0
 22 23  2  0  0  0  0
 23 25  1  0  0  0  0
 22 24  1  0  0  0  0
 24 26  1  0  0  0  0
 21 22  1  0  0  0  0
 25 26  1  0  0  0  0
  1  3  1  0  0  0  0
  1  7  1  0  0  0  0
  1  2  2  0  0  0  0
 42 43  1  0  0  0  0
 43 51  1  0  0  0  0
 43 44  2  0  0  0  0
  8  9  1  0  0  0  0
  9 17  1  0  0  0  0
  9 10  2  0  0  0  0
 18 19  1  0  0  0  0
 19 41  1  0  0  0  0
 19 20  2  0  0  0  0
 42 45  1  0  0  0  0
  8 11  1  0  0  0  0
 51 52  1  0  0  0  0
 18 21  1  0  0  0  0
 41 42  1  0  0  0  0
  7  8  1  0  0  0  0
 17 18  1  0  0  0  0
 29 39  1  0  0  0  0
 30 40  1  0  0  0  0
 27 37  1  0  0  0  0
 28 38  1  0  0  0  0
 23 35  1  0  0  0  0
  3  4  1  0  0  0  0
  3  5  1  0  0  0  0
  3  6  1  0  0  0  0
 45 48  1  0  0  0  0
 45 49  1  0  0  0  0
 45 50  1  0  0  0  0
 11 14  1  0  0  0  0
 11 15  1  0  0  0  0
 11 16  1  0  0  0  0
 52 54  1  0  0  0  0
 52 55  1  0  0  0  0
 52 56  1  0  0  0  0
 21 33  1  0  0  0  0
 21 34  1  0  0  0  0
 42 47  1  0  0  0  0
  8 13  1  0  0  0  0
 18 32  1  0  0  0  0
 25 36  1  0  0  0  0
 51 53  1  0  0  0  0
  7 12  1  0  0  0  0
 41 46  1  0  0  0  0
 17 31  1  0  0  0  0
M  END
$$$$

  -OEChem-05262214473D

 56 57  0     1  0  0  0  0  0999 V2000
   -2.2900    0.3401    4.1553 C   0  0  0  0  0  0  0  0  0  0  0  0
   -1.3426   -0.2746    3.6796 O   0  0  0  0  0  0  0  0  0  0  0  0
   -2.7219    0.0577    5.5560 C   0  0  0  0  0  0  0  0  0  0  0  0
   -3.4815   -0.7386    5.6094 H   0  0  0  0  0  0  0  0  0  0  0  0
   -1.8906   -0.2899    6.1903 H   0  0  0  0  0  0  0  0  0  0  0  0
   -3.1599    0.9126    6.0956 H   0  0  0  0  0  0  0  0  0  0  0  0
   -3.0397    1.3125    3.5142 N   0  0  0  0  0  0  0  0  0  0  0  0
   -2.7928    1.7385    2.1618 C   0  0  2  0  0  0  0  0  0  0  0  0
   -1.4579    1.1532    1.7206 C   0  0  0  0  0  0  0  0  0  0  0  0
   -0.5858    0.8004    2.5118 O   0  0  0  0  0  0  0  0  0  0  0  0
   -2.7841    3.2553    2.0523 C   0  0  0  0  0  0  0  0  0  0  0  0
   -3.8047    1.7484    4.0260 H   0  0  0  0  0  0  0  0  0  0  0  0
   -3.5969    1.3201    1.5466 H   0  0  0  0  0  0  0  0  0  0  0  0
   -1.9850    3.6926    2.6620 H   0  0  0  0  0  0  0  0  0  0  0  0
   -2.6246    3.5776    1.0180 H   0  0  0  0  0  0  0  0  0  0  0  0
   -3.7342    3.6765    2.3981 H   0  0  0  0  0  0  0  0  0  0  0  0
   -1.3352    1.1101    0.3372 N   0  0  0  0  0  0  0  0  0  0  0  0
   -0.1579    0.6093   -0.3265 C   0  0  2  0  0  0  0  0  0  0  0  0
   -0.0332    1.3573   -1.6490 C   0  0  0  0  0  0  0  0  0  0  0  0
    1.0363    1.7868   -2.0766 O   0  0  0  0  0  0  0  0  0  0  0  0
   -0.2313   -0.9019   -0.5738 C   0  0  0  0  0  0  0  0  0  0  0  0
   -0.1991   -1.7046    0.7039 C   0  0  0  0  0  0  0  0  0  0  0  0
   -1.2965   -2.2024    1.3677 C   0  0  0  0  0  0  0  0  0  0  0  0
    0.9598   -2.0846    1.4371 C   0  0  0  0  0  0  0  0  0  0  0  0
   -0.8510   -2.8703    2.4767 N   0  0  0  0  0  0  0  0  0  0  0  0
    0.5229   -2.8148    2.5444 C   0  0  0  0  0  0  0  0  0  0  0  0
    2.3427   -1.8767    1.2643 C   0  0  0  0  0  0  0  0  0  0  0  0
    1.4034   -3.3497    3.4915 C   0  0  0  0  0  0  0  0  0  0  0  0
    3.2351   -2.4059    2.2037 C   0  0  0  0  0  0  0  0  0  0  0  0
    2.7705   -3.1308    3.2994 C   0  0  0  0  0  0  0  0  0  0  0  0
   -2.1183    1.4068   -0.2401 H   0  0  0  0  0  0  0  0  0  0  0  0
    0.6946    0.8666    0.3131 H   0  0  0  0  0  0  0  0  0  0  0  0
    0.5895   -1.2201   -1.2308 H   0  0  0  0  0  0  0  0  0  0  0  0
   -1.1506   -1.1574   -1.1172 H   0  0  0  0  0  0  0  0  0  0  0  0
   -2.3544   -2.1406    1.1523 H   0  0  0  0  0  0  0  0  0  0  0  0
   -1.4442   -3.3369    3.1489 H   0  0  0  0  0  0  0  0  0  0  0  0
    2.7206   -1.3131    0.4161 H   0  0  0  0  0  0  0  0  0  0  0  0
    1.0427   -3.9149    4.3442 H   0  0  0  0  0  0  0  0  0  0  0  0
    4.3027   -2.2485    2.0761 H   0  0  0  0  0  0  0  0  0  0  0  0
    3.4814   -3.5329    4.0167 H   0  0  0  0  0  0  0  0  0  0  0  0
   -1.2482    1.4423   -2.3145 N   0  0  0  0  0  0  0  0  0  0  0  0
   -1.4052    2.0807   -3.6016 C   0  0  2  0  0  0  0  0  0  0  0  0
   -0.7570    3.4568   -3.5262 C   0  0  0  0  0  0  0  0  0  0  0  0
   -0.5732    4.0546   -2.4679 O   0  0  0  0  0  0  0  0  0  0  0  0
   -2.8715    2.1910   -3.9894 C   0  0  0  0  0  0  0  0  0  0  0  0
   -2.0685    1.0354   -1.8747 H   0  0  0  0  0  0  0  0  0  0  0  0
   -0.8676    1.4625   -4.3289 H   0  0  0  0  0  0  0  0  0  0  0  0
   -3.4264    2.8068   -3.2722 H   0  0  0  0  0  0  0  0  0  0  0  0
   -2.9873    2.6490   -4.9773 H   0  0  0  0  0  0  0  0  0  0  0  0
   -3.3435    1.2029   -4.0141 H   0  0  0  0  0  0  0  0  0  0  0  0
   -0.4473    3.9574   -4.7830 N   0  0  0  0  0  0  0  0  0  0  0  0
    0.1640    5.2514   -4.9779 C   0  0  0  0  0  0  0  0  0  0  0  0
   -0.6174    3.3850   -5.6047 H   0  0  0  0  0  0  0  0  0  0  0  0
   -0.6194    6.0082   -5.1312 H   0  0  0  0  0  0  0  0  0  0  0  0
    0.7582    5.5135   -4.0901 H   0  0  0  0  0  0  0  0  0  0  0  0
    0.8192    5.2180   -5.8608 H   0  0  0  0  0  0  0  0  0  0  0  0
 29 30  2  0  0  0  0
 27 29  1  0  0  0  0
 28 30  1  0  0  0  0
 24 27  2  0  0  0  0
 26 28  2  0  0  0  0
 22 23  2  0  0  0  0
 23 25  1  0  0  0  0
 22 24  1  0  0  0  0
 24 26  1  0  0  0  0
 21 22  1  0  0  0  0
 25 26  1  0  0  0  0
  1  3  1  0  0  0  0
  1  7  1  0  0  0  0
  1  2  2  0  0  0  0
 42 43  1  0  0  0  0
 43 51  1  0  0  0  0
 43 44  2  0  0  0  0
  8  9  1  0  0  0  0
  9 17  1  0  0  0  0
  9 10  2  0  0  0  0
 18 19  1  0  0  0  0
 19 41  1  0  0  0  0
 19 20  2  0  0  0  0
 42 45  1  0  0  0  0
  8 11  1  0  0  0  0
 51 52  1  0  0  0  0
 18 21  1  0  0  0  0
 41 42  1  0  0  0  0
  7  8  1  0  0  0  0
 17 18  1  0  0  0  0
 29 39  1  0  0  0  0
 30 40  1  0  0  0  0
 27 37  1  0  0  0  0
 28 38  1  0  0  0  0
 23 35  1  0  0  0  0
  3  4  1  0  0  0  0
  3  5  1  0  0  0  0
  3  6  1  0  0  0  0
 45 48  1  0  0  0  0
 45 49  1  0  0  0  0
 45 50  1  0  0  0  0
 11 14  1  0  0  0  0
 11 15  1  0  0  0  0
 11 16  1  0  0  0  0
 52 54  1  0  0  0  0
 52 55  1  0  0  0  0
 52 56  1  0  0  0  0
 21 33  1  0  0  0  0
 21 34  1  0  0  0  0
 42 47  1  0  0  0  0
  8 13  1  0  0  0  0
 18 32  1  0  0  0  0
 25 36  1  0  0  0  0
 51 53  1  0  0  0  0
  7 12  1  0  0  0  0
 41 46  1  0  0  0  0
 17 31  1  0  0  0  0
M  END
$$$$

  -OEChem-05262214473D

 56 57  0     1  0  0  0  0  0999 V2000
   -2.2900    0.3401    4.1553 C   0  0  0  0  0  0  0  0  0  0  0  0
   -1.3426   -0.2746    3.6796 O   0  0  0  0  0  0  0  0  0  0  0  0
   -2.7219    0.0577    5.5560 C   0  0  0  0  0  0  0  0  0  0  0  0
   -3.4815   -0.7386    5.6094 H   0  0  0  0  0  0  0  0  0  0  0  0
   -1.8906   -0.2899    6.1903 H   0  0  0  0  0  0  0  0  0  0  0  0
   -3.1599    0.9126    6.0956 H   0  0  0  0  0  0  0  0  0  0  0  0
   -3.0397    1.3125    3.5142 N   0  0  0  0  0  0  0  0  0  0  0  0
   -2.7928    1.7385    2.1618 C   0  0  2  0  0  0  0  0  0  0  0  0
   -1.4579    1.1532    1.7206 C   0  0  0  0  0  0  0  0  0  0  0  0
   -0.5858    0.8004    2.5118 O   0  0  0  0  0  0  0  0  0  0  0  0
   -2.7841    3.2553    2.0523 C   0  0  0  0  0  0  0  0  0  0  0  0
   -3.8047    1.7484    4.0260 H   0  0  0  0  0  0  0  0  0  0  0  0
   -3.5969    1.3201    1.5466 H   0  0  0  0  0  0  0  0  0  0  0  0
   -1.9850    3.6926    2.6620 H   0  0  0  0  0  0  0  0  0  0  0  0
   -2.6246    3.5776    1.0180 H   0  0  0  0  0  0  0  0  0  0  0  0
   -3.7342    3.6765    2.3981 H   0  0  0  0  0  0  0  0  0  0  0  0
   -1.3352    1.1101    0.3372 N   0  0  0  0  0  0  0  0  0  0  0  0
   -0.1579    0.6093   -0.3265 C   0  0  2  0  0  0  0  0  0  0  0  0
   -0.0332    1.3573   -1.6490 C   0  0  0  0  0  0  0  0  0  0  0  0
    1.0438    1.5523   -2.2085 O   0  0  0  0  0  0  0  0  0  0  0  0
   -0.2313   -0.9019   -0.5738 C   0  0  0  0  0  0  0  0  0  0  0  0
   -0.1991   -1.7046    0.7039 C   0  0  0  0  0  0  0  0  0  0  0  0
   -1.2965   -2.2024    1.3677 C   0  0  0  0  0  0  0  0  0  0  0  0
    0.9598   -2.0846    1.4371 C   0  0  0  0  0  0  0  0  0  0  0  0
   -0.8510   -2.8703    2.4767 N   0  0  0  0  0  0  0  0  0  0  0  0
    0.5229   -2.8148    2.5444 C   0  0  0  0  0  0  0  0  0  0  0  0
    2.3427   -1.8767    1.2643 C   0  0  0  0  0  0  0  0  0  0  0  0
    1.4034   -3.3497    3.4915 C   0  0  0  0  0  0  0  0  0  0  0  0
    3.2351   -2.4059    2.2037 C   0  0  0  0  0  0  0  0  0  0  0  0
    2.7705   -3.1308    3.2994 C   0  0  0  0  0  0  0  0  0  0  0  0
   -2.1183    1.4068   -0.2401 H   0  0  0  0  0  0  0  0  0  0  0  0
    0.6946    0.8666    0.3131 H   0  0  0  0  0  0  0  0  0  0  0  0
    0.5895   -1.2201   -1.2308 H   0  0  0  0  0  0  0  0  0  0  0  0
   -1.1506   -1.1574   -1.1172 H   0  0  0  0  0  0  0  0  0  0  0  0
   -2.3544   -2.1406    1.1523 H   0  0  0  0  0  0  0  0  0  0  0  0
   -1.4442   -3.3369    3.1489 H   0  0  0  0  0  0  0  0  0  0  0  0
    2.7206   -1.3131    0.4161 H   0  0  0  0  0  0  0  0  0  0  0  0
    1.0427   -3.9149    4.3442 H   0  0  0  0  0  0  0  0  0  0  0  0
    4.3027   -2.2485    2.0761 H   0  0  0  0  0  0  0  0  0  0  0  0
    3.4814   -3.5329    4.0167 H   0  0  0  0  0  0  0  0  0  0  0  0
   -1.2708    1.7350   -2.1511 N   0  0  0  0  0  0  0  0  0  0  0  0
   -1.4385    2.4378   -3.4028 C   0  0  2  0  0  0  0  0  0  0  0  0
   -0.4921    3.6310   -3.4026 C   0  0  0  0  0  0  0  0  0  0  0  0
   -0.0476    4.1345   -2.3731 O   0  0  0  0  0  0  0  0  0  0  0  0
   -2.8786    2.8864   -3.5968 C   0  0  0  0  0  0  0  0  0  0  0  0
   -2.1004    1.5059   -1.6116 H   0  0  0  0  0  0  0  0  0  0  0  0
   -1.1494    1.7416   -4.1976 H   0  0  0  0  0  0  0  0  0  0  0  0
   -3.1863    3.5845   -2.8098 H   0  0  0  0  0  0  0  0  0  0  0  0
   -3.0101    3.3935   -4.5583 H   0  0  0  0  0  0  0  0  0  0  0  0
   -3.5610    2.0300   -3.5668 H   0  0  0  0  0  0  0  0  0  0  0  0
   -0.2363    4.0944   -4.6856 N   0  0  0  0  0  0  0  0  0  0  0  0
    0.6223    5.2254   -4.9493 C   0  0  0  0  0  0  0  0  0  0  0  0
   -0.6323    3.6041   -5.4822 H   0  0  0  0  0  0  0  0  0  0  0  0
    0.0174    6.1429   -4.9949 H   0  0  0  0  0  0  0  0  0  0  0  0
    1.3662    5.3164   -4.1442 H   0  0  0  0  0  0  0  0  0  0  0  0
    1.1378    5.0781   -5.9099 H   0  0  0  0  0  0  0  0  0  0  0  0
 29 30  2  0  0  0  0
 27 29  1  0  0  0  0
 28 30  1  0  0  0  0
 24 27  2  0  0  0  0
 26 28  2  0  0  0  0
 22 23  2  0  0  0  0
 23 25  1  0  0  0  0
 22 24  1  0  0  0  0
 24 26  1  0  0  0  0
 21 22  1  0  0  0  0
 25 26  1  0  0  0  0
  1  3  1  0  0  0  0
  1  7  1  0  0  0  0
  1  2  2  0  0  0  0
 42 43  1  0  0  0  0
 43 51  1  0  0  0  0
 43 44  2  0  0  0  0
  8  9  1  0  0  0  0
  9 17  1  0  0  0  0
  9 10  2  0  0  0  0
 18 19  1  0  0  0  0
 19 41  1  0  0  0  0
 19 20  2  0  0  0  0
 42 45  1  0  0  0  0
  8 11  1  0  0  0  0
 51 52  1  0  0  0  0
 18 21  1  0  0  0  0
 41 42  1  0  0  0  0
  7  8  1  0  0  0  0
 17 18  1  0  0  0  0
 29 39  1  0  0  0  0
 30 40  1  0  0  0  0
 27 37  1  0  0  0  0
 28 38  1  0  0  0  0
 23 35  1  0  0  0  0
  3  4  1  0  0  0  0
  3  5  1  0  0  0  0
  3  6  1  0  0  0  0
 45 48  1  0  0  0  0
 45 49  1  0  0  0  0
 45 50  1  0  0  0  0
 11 14  1  0  0  0  0
 11 15  1  0  0  0  0
 11 16  1  0  0  0  0
 52 54  1  0  0  0  0
 52 55  1  0  0  0  0
 52 56  1  0  0  0  0
 21 33  1  0  0  0  0
 21 34  1  0  0  0  0
 42 47  1  0  0  0  0
  8 13  1  0  0  0  0
 18 32  1  0  0  0  0
 25 36  1  0  0  0  0
 51 53  1  0  0  0  0
  7 12  1  0  0  0  0
 41 46  1  0  0  0  0
 17 31  1  0  0  0  0
M  END
$$$$

  -OEChem-05262214473D

 56 57  0     1  0  0  0  0  0999 V2000
   -2.2900    0.3401    4.1553 C   0  0  0  0  0  0  0  0  0  0  0  0
   -1.3426   -0.2746    3.6796 O   0  0  0  0  0  0  0  0  0  0  0  0
   -2.7219    0.0577    5.5560 C   0  0  0  0  0  0  0  0  0  0  0  0
   -3.4815   -0.7386    5.6094 H   0  0  0  0  0  0  0  0  0  0  0  0
   -1.8906   -0.2899    6.1903 H   0  0  0  0  0  0  0  0  0  0  0  0
   -3.1599    0.9126    6.0956 H   0  0  0  0  0  0  0  0  0  0  0  0
   -3.0397    1.3125    3.5142 N   0  0  0  0  0  0  0  0  0  0  0  0
   -2.7928    1.7385    2.1618 C   0  0  2  0  0  0  0  0  0  0  0  0
   -1.4579    1.1532    1.7206 C   0  0  0  0  0  0  0  0  0  0  0  0
   -0.5858    0.8004    2.5118 O   0  0  0  0  0  0  0  0  0  0  0  0
   -2.7841    3.2553    2.0523 C   0  0  0  0  0  0  0  0  0  0  0  0
   -3.8047    1.7484    4.0260 H   0  0  0  0  0  0  0  0  0  0  0  0
   -3.5969    1.3201    1.5466 H   0  0  0  0  0  0  0  0  0  0  0  0
   -1.9850    3.6926    2.6620 H   0  0  0  0  0  0  0  0  0  0  0  0
   -2.6246    3.5776    1.0180 H   0  0  0  0  0  0  0  0  0  0  0  0
   -3.7342    3.6765    2.3981 H   0  0  0  0  0  0  0  0  0  0  0  0
   -1.3352    1.1101    0.3372 N   0  0  0  0  0  0  0  0  0  0  0  0
   -0.1579    0.6093   -0.3265 C   0  0  2  0  0  0  0  0  0  0  0  0
   -0.0332    1.3573   -1.6490 C   0  0  0  0  0  0  0  0  0  0  0  0
    0.9817    1.3269   -2.3418 O   0  0  0  0  0  0  0  0  0  0  0  0
   -0.2313   -0.9019   -0.5738 C   0  0  0  0  0  0  0  0  0  0  0  0
   -0.1991   -1.7046    0.7039 C   0  0  0  0  0  0  0  0  0  0  0  0
   -1.2965   -2.2024    1.3677 C   0  0  0  0  0  0  0  0  0  0  0  0
    0.9598   -2.0846    1.4371 C   0  0  0  0  0  0  0  0  0  0  0  0
   -0.8510   -2.8703    2.4767 N   0  0  0  0  0  0  0  0  0  0  0  0
    0.5229   -2.8148    2.5444 C   0  0  0  0  0  0  0  0  0  0  0  0
    2.3427   -1.8767    1.2643 C   0  0  0  0  0  0  0  0  0  0  0  0
    1.4034   -3.3497    3.4915 C   0  0  0  0  0  0  0  0  0  0  0  0
    3.2351   -2.4059    2.2037 C   0  0  0  0  0  0  0  0  0  0  0  0
    2.7705   -3.1308    3.2994 C   0  0  0  0  0  0  0  0  0  0  0  0
   -2.1183    1.4068   -0.2401 H   0  0  0  0  0  0  0  0  0  0  0  0
    0.6946    0.8666    0.3131 H   0  0  0  0  0  0  0  0  0  0  0  0
    0.5895   -1.2201   -1.2308 H   0  0  0  0  0  0  0  0  0  0  0  0
   -1.1506   -1.1574   -1.1172 H   0  0  0  0  0  0  0  0  0  0  0  0
   -2.3544   -2.1406    1.1523 H   0  0  0  0  0  0  0  0  0  0  0  0
   -1.4442   -3.3369    3.1489 H   0  0  0  0  0  0  0  0  0  0  0  0
    2.7206   -1.3131    0.4161 H   0  0  0  0  0  0  0  0  0  0  0  0
    1.0427   -3.9149    4.3442 H   0  0  0  0  0  0  0  0  0  0  0  0
    4.3027   -2.2485    2.0761 H   0  0  0  0  0  0  0  0  0  0  0  0
    3.4814   -3.5329    4.0167 H   0  0  0  0  0  0  0  0  0  0  0  0
   -1.2061    2.0193   -1.9842 N   0  0  0  0  0  0  0  0  0  0  0  0
   -1.3653    2.7861   -3.1989 C   0  0  2  0  0  0  0  0  0  0  0  0
   -0.1813    3.7371   -3.3133 C   0  0  0  0  0  0  0  0  0  0  0  0
    0.4901    4.0917   -2.3466 O   0  0  0  0  0  0  0  0  0  0  0  0
   -2.6795    3.5513   -3.2020 C   0  0  0  0  0  0  0  0  0  0  0  0
   -1.9922    1.9621   -1.3434 H   0  0  0  0  0  0  0  0  0  0  0  0
   -1.3423    2.0717   -4.0291 H   0  0  0  0  0  0  0  0  0  0  0  0
   -2.7211    4.2719   -2.3771 H   0  0  0  0  0  0  0  0  0  0  0  0
   -2.8117    4.1090   -4.1350 H   0  0  0  0  0  0  0  0  0  0  0  0
   -3.5285    2.8683   -3.0897 H   0  0  0  0  0  0  0  0  0  0  0  0
    0.0106    4.1772   -4.6155 N   0  0  0  0  0  0  0  0  0  0  0  0
    1.0628    5.0968   -4.9805 C   0  0  0  0  0  0  0  0  0  0  0  0
   -0.5820    3.8164   -5.3573 H   0  0  0  0  0  0  0  0  0  0  0  0
    0.6799    6.1272   -4.9413 H   0  0  0  0  0  0  0  0  0  0  0  0
    1.9024    4.9907   -4.2778 H   0  0  0  0  0  0  0  0  0  0  0  0
    1.4080    4.8726   -6.0006 H   0  0  0  0  0  0  0  0  0  0  0  0
 29 30  2  0  0  0  0
 27 29  1  0  0  0  0
 28 30  1  0  0  0  0
 24 27  2  0  0  0  0
 26 28  2  0  0  0  0
 22 23  2  0  0  0  0
 23 25  1  0  0  0  0
 22 24  1  0  0  0  0
 24 26  1  0  0  0  0
 21 22  1  0  0  0  0
 25 26  1  0  0  0  0
  1  3  1  0  0  0  0
  1  7  1  0  0  0  0
  1  2  2  0  0  0  0
 42 43  1  0  0  0  0
 43 51  1  0  0  0  0
 43 44  2  0  0  0  0
  8  9  1  0  0  0  0
  9 17  1  0  0  0  0
  9 10  2  0  0  0  0
 18 19  1  0  0  0  0
 19 41  1  0  0  0  0
 19 20  2  0  0  0  0
 42 45  1  0  0  0  0
  8 11  1  0  0  0  0
 51 52  1  0  0  0  0
 18 21  1  0  0  0  0
 41 42  1  0  0  0  0
  7  8  1  0  0  0  0
 17 18  1  0  0  0  0
 29 39  1  0  0  0  0
 30 40  1  0  0  0  0
 27 37  1  0  0  0  0
 28 38  1  0  0  0  0
 23 35  1  0  0  0  0
  3  4  1  0  0  0  0
  3  5  1  0  0  0  0
  3  6  1  0  0  0  0
 45 48  1  0  0  0  0
 45 49  1  0  0  0  0
 45 50  1  0  0  0  0
 11 14  1  0  0  0  0
 11 15  1  0  0  0  0
 11 16  1  0  0  0  0
 52 54  1  0  0  0  0
 52 55  1  0  0  0  0
 52 56  1  0  0  0  0
 21 33  1  0  0  0  0
 21 34  1  0  0  0  0
 42 47  1  0  0  0  0
  8 13  1  0  0  0  0
 18 32  1  0  0  0  0
 25 36  1  0  0  0  0
 51 53  1  0  0  0  0
  7 12  1  0  0  0  0
 41 46  1  0  0  0  0
 17 31  1  0  0  0  0
M  END
$$$$

  -OEChem-05262214473D

 56 57  0     1  0  0  0  0  0999 V2000
   -2.2900    0.3401    4.1553 C   0  0  0  0  0  0  0  0  0  0  0  0
   -1.3426   -0.2746    3.6796 O   0  0  0  0  0  0  0  0  0  0  0  0
   -2.7219    0.0577    5.5560 C   0  0  0  0  0  0  0  0  0  0  0  0
   -3.4815   -0.7386    5.6094 H   0  0  0  0  0  0  0  0  0  0  0  0
   -1.8906   -0.2899    6.1903 H   0  0  0  0  0  0  0  0  0  0  0  0
   -3.1599    0.9126    6.0956 H   0  0  0  0  0  0  0  0  0  0  0  0
   -3.0397    1.3125    3.5142 N   0  0  0  0  0  0  0  0  0  0  0  0
   -2.7928    1.7385    2.1618 C   0  0  2  0  0  0  0  0  0  0  0  0
   -1.4579    1.1532    1.7206 C   0  0  0  0  0  0  0  0  0  0  0  0
   -0.5858    0.8004    2.5118 O   0  0  0  0  0  0  0  0  0  0  0  0
   -2.7841    3.2553    2.0523 C   0  0  0  0  0  0  0  0  0  0  0  0
   -3.8047    1.7484    4.0260 H   0  0  0  0  0  0  0  0  0  0  0  0
   -3.5969    1.3201    1.5466 H   0  0  0  0  0  0  0  0  0  0  0  0
   -1.9850    3.6926    2.6620 H   0  0  0  0  0  0  0  0  0  0  0  0
   -2.6246    3.5776    1.0180 H   0  0  0  0  0  0  0  0  0  0  0  0
   -3.7342    3.6765    2.3981 H   0  0  0  0  0  0  0  0  0  0  0  0
   -1.3352    1.1101    0.3372 N   0  0  0  0  0  0  0  0  0  0  0  0
   -0.1579    0.6093   -0.3265 C   0  0  2  0  0  0  0  0  0  0  0  0
   -0.0332    1.3573   -1.6490 C   0  0  0  0  0  0  0  0  0  0  0  0
    0.8542    1.1259   -2.4675 O   0  0  0  0  0  0  0  0  0  0  0  0
   -0.2313   -0.9019   -0.5738 C   0  0  0  0  0  0  0  0  0  0  0  0
   -0.1991   -1.7046    0.7039 C   0  0  0  0  0  0  0  0  0  0  0  0
   -1.2965   -2.2024    1.3677 C   0  0  0  0  0  0  0  0  0  0  0  0
    0.9598   -2.0846    1.4371 C   0  0  0  0  0  0  0  0  0  0  0  0
   -0.8510   -2.8703    2.4767 N   0  0  0  0  0  0  0  0  0  0  0  0
    0.5229   -2.8148    2.5444 C   0  0  0  0  0  0  0  0  0  0  0  0
    2.3427   -1.8767    1.2643 C   0  0  0  0  0  0  0  0  0  0  0  0
    1.4034   -3.3497    3.4915 C   0  0  0  0  0  0  0  0  0  0  0  0
    3.2351   -2.4059    2.2037 C   0  0  0  0  0  0  0  0  0  0  0  0
    2.7705   -3.1308    3.2994 C   0  0  0  0  0  0  0  0  0  0  0  0
   -2.1183    1.4068   -0.2401 H   0  0  0  0  0  0  0  0  0  0  0  0
    0.6946    0.8666    0.3131 H   0  0  0  0  0  0  0  0  0  0  0  0
    0.5895   -1.2201   -1.2308 H   0  0  0  0  0  0  0  0  0  0  0  0
   -1.1506   -1.1574   -1.1172 H   0  0  0  0  0  0  0  0  0  0  0  0
   -2.3544   -2.1406    1.1523 H   0  0  0  0  0  0  0  0  0  0  0  0
   -1.4442   -3.3369    3.1489 H   0  0  0  0  0  0  0  0  0  0  0  0
    2.7206   -1.3131    0.4161 H   0  0  0  0  0  0  0  0  0  0  0  0
    1.0427   -3.9149    4.3442 H   0  0  0  0  0  0  0  0  0  0  0  0
    4.3027   -2.2485    2.0761 H   0  0  0  0  0  0  0  0  0  0  0  0
    3.4814   -3.5329    4.0167 H   0  0  0  0  0  0  0  0  0  0  0  0
   -1.0586    2.2759   -1.8251 N   0  0  0  0  0  0  0  0  0  0  0  0
   -1.1905    3.1017   -3.0039 C   0  0  2  0  0  0  0  0  0  0  0  0
    0.1540    3.7680   -3.2642 C   0  0  0  0  0  0  0  0  0  0  0  0
    1.0032    3.9291   -2.3902 O   0  0  0  0  0  0  0  0  0  0  0  0
   -2.2878    4.1405   -2.8318 C   0  0  0  0  0  0  0  0  0  0  0  0
   -1.7512    2.3727   -1.0885 H   0  0  0  0  0  0  0  0  0  0  0  0
   -1.4330    2.4303   -3.8348 H   0  0  0  0  0  0  0  0  0  0  0  0
   -2.0624    4.8223   -2.0037 H   0  0  0  0  0  0  0  0  0  0  0  0
   -2.4058    4.7466   -3.7361 H   0  0  0  0  0  0  0  0  0  0  0  0
   -3.2483    3.6606   -2.6151 H   0  0  0  0  0  0  0  0  0  0  0  0
    0.2766    4.2004   -4.5773 N   0  0  0  0  0  0  0  0  0  0  0  0
    1.4555    4.8743   -5.0693 C   0  0  0  0  0  0  0  0  0  0  0  0
   -0.4698    4.0076   -5.2387 H   0  0  0  0  0  0  0  0  0  0  0  0
    1.3232    5.9622   -4.9740 H   0  0  0  0  0  0  0  0  0  0  0  0
    2.3302    4.5586   -4.4819 H   0  0  0  0  0  0  0  0  0  0  0  0
    1.6112    4.6153   -6.1270 H   0  0  0  0  0  0  0  0  0  0  0  0
 29 30  2  0  0  0  0
 27 29  1  0  0  0  0
 28 30  1  0  0  0  0
 24 27  2  0  0  0  0
 26 28  2  0  0  0  0
 22 23  2  0  0  0  0
 23 25  1  0  0  0  0
 22 24  1  0  0  0  0
 24 26  1  0  0  0  0
 21 22  1  0  0  0  0
 25 26  1  0  0  0  0
  1  3  1  0  0  0  0
  1  7  1  0  0  0  0
  1  2  2  0  0  0  0
 42 43  1  0  0  0  0
 43 51  1  0  0  0  0
 43 44  2  0  0  0  0
  8  9  1  0  0  0  0
  9 17  1  0  0  0  0
  9 10  2  0  0  0  0
 18 19  1  0  0  0  0
 19 41  1  0  0  0  0
 19 20  2  0  0  0  0
 42 45  1  0  0  0  0
  8 11  1  0  0  0  0
 51 52  1  0  0  0  0
 18 21  1  0  0  0  0
 41 42  1  0  0  0  0
  7  8  1  0  0  0  0
 17 18  1  0  0  0  0
 29 39  1  0  0  0  0
 30 40  1  0  0  0  0
 27 37  1  0  0  0  0
 28 38  1  0  0  0  0
 23 35  1  0  0  0  0
  3  4  1  0  0  0  0
  3  5  1  0  0  0  0
  3  6  1  0  0  0  0
 45 48  1  0  0  0  0
 45 49  1  0  0  0  0
 45 50  1  0  0  0  0
 11 14  1  0  0  0  0
 11 15  1  0  0  0  0
 11 16  1  0  0  0  0
 52 54  1  0  0  0  0
 52 55  1  0  0  0  0
 52 56  1  0  0  0  0
 21 33  1  0  0  0  0
 21 34  1  0  0  0  0
 42 47  1  0  0  0  0
  8 13  1  0  0  0  0
 18 32  1  0  0  0  0
 25 36  1  0  0  0  0
 51 53  1  0  0  0  0
  7 12  1  0  0  0  0
 41 46  1  0  0  0  0
 17 31  1  0  0  0  0
M  END
$$$$

  -OEChem-05262214473D

 56 57  0     1  0  0  0  0  0999 V2000
   -2.2900    0.3401    4.1553 C   0  0  0  0  0  0  0  0  0  0  0  0
   -1.3426   -0.2746    3.6796 O   0  0  0  0  0  0  0  0  0  0  0  0
   -2.7219    0.0577    5.5560 C   0  0  0  0  0  0  0  0  0  0  0  0
   -3.4815   -0.7386    5.6094 H   0  0  0  0  0  0  0  0  0  0  0  0
   -1.8906   -0.2899    6.1903 H   0  0  0  0  0  0  0  0  0  0  0  0
   -3.1599    0.9126    6.0956 H   0  0  0  0  0  0  0  0  0  0  0  0
   -3.0397    1.3125    3.5142 N   0  0  0  0  0  0  0  0  0  0  0  0
   -2.7928    1.7385    2.1618 C   0  0  2  0  0  0  0  0  0  0  0  0
   -1.4579    1.1532    1.7206 C   0  0  0  0  0  0  0  0  0  0  0  0
   -0.5858    0.8004    2.5118 O   0  0  0  0  0  0  0  0  0  0  0  0
   -2.7841    3.2553    2.0523 C   0  0  0  0  0  0  0  0  0  0  0  0
   -3.8047    1.7484    4.0260 H   0  0  0  0  0  0  0  0  0  0  0  0
   -3.5969    1.3201    1.5466 H   0  0  0  0  0  0  0  0  0  0  0  0
   -1.9850    3.6926    2.6620 H   0  0  0  0  0  0  0  0  0  0  0  0
   -2.6246    3.5776    1.0180 H   0  0  0  0  0  0  0  0  0  0  0  0
   -3.7342    3.6765    2.3981 H   0  0  0  0  0  0  0  0  0  0  0  0
   -1.3352    1.1101    0.3372 N   0  0  0  0  0  0  0  0  0  0  0  0
   -0.1579    0.6093   -0.3265 C   0  0  2  0  0  0  0  0  0  0  0  0
   -0.0332    1.3573   -1.6490 C   0  0  0  0  0  0  0  0  0  0  0  0
    0.6699    0.9630   -2.5770 O   0  0  0  0  0  0  0  0  0  0  0  0
   -0.2313   -0.9019   -0.5738 C   0  0  0  0  0  0  0  0  0  0  0  0
   -0.1991   -1.7046    0.7039 C   0  0  0  0  0  0  0  0  0  0  0  0
   -1.2965   -2.2024    1.3677 C   0  0  0  0  0  0  0  0  0  0  0  0
    0.9598   -2.0846    1.4371 C   0  0  0  0  0  0  0  0  0  0  0  0
   -0.8510   -2.8703    2.4767 N   0  0  0  0  0  0  0  0  0  0  0  0
    0.5229   -2.8148    2.5444 C   0  0  0  0  0  0  0  0  0  0  0  0
    2.3427   -1.8767    1.2643 C   0  0  0  0  0  0  0  0  0  0  0  0
    1.4034   -3.3497    3.4915 C   0  0  0  0  0  0  0  0  0  0  0  0
    3.2351   -2.4059    2.2037 C   0  0  0  0  0  0  0  0  0  0  0  0
    2.7705   -3.1308    3.2994 C   0  0  0  0  0  0  0  0  0  0  0  0
   -2.1183    1.4068   -0.2401 H   0  0  0  0  0  0  0  0  0  0  0  0
    0.6946    0.8666    0.3131 H   0  0  0  0  0  0  0  0  0  0  0  0
    0.5895   -1.2201   -1.2308 H   0  0  0  0  0  0  0  0  0  0  0  0
   -1.1506   -1.1574   -1.1172 H   0  0  0  0  0  0  0  0  0  0  0  0
   -2.3544   -2.1406    1.1523 H   0  0  0  0  0  0  0  0  0  0  0  0
   -1.4442   -3.3369    3.1489 H   0  0  0  0  0  0  0  0  0  0  0  0
    2.7206   -1.3131    0.4161 H   0  0  0  0  0  0  0  0  0  0  0  0
    1.0427   -3.9149    4.3442 H   0  0  0  0  0  0  0  0  0  0  0  0
    4.3027   -2.2485    2.0761 H   0  0  0  0  0  0  0  0  0  0  0  0
    3.4814   -3.5329    4.0167 H   0  0  0  0  0  0  0  0  0  0  0  0
   -0.8383    2.4873   -1.6848 N   0  0  0  0  0  0  0  0  0  0  0  0
   -0.9261    3.3632   -2.8311 C   0  0  2  0  0  0  0  0  0  0  0  0
    0.4910    3.7215   -3.2587 C   0  0  0  0  0  0  0  0  0  0  0  0
    1.4568    3.6577   -2.5009 O   0  0  0  0  0  0  0  0  0  0  0  0
   -1.7301    4.6139   -2.5115 C   0  0  0  0  0  0  0  0  0  0  0  0
   -1.3938    2.7099   -0.8641 H   0  0  0  0  0  0  0  0  0  0  0  0
   -1.4155    2.7929   -3.6281 H   0  0  0  0  0  0  0  0  0  0  0  0
   -1.2551    5.1982   -1.7150 H   0  0  0  0  0  0  0  0  0  0  0  0
   -1.8198    5.2628   -3.3889 H   0  0  0  0  0  0  0  0  0  0  0  0
   -2.7395    4.3530   -2.1756 H   0  0  0  0  0  0  0  0  0  0  0  0
    0.5436    4.1621   -4.5737 N   0  0  0  0  0  0  0  0  0  0  0  0
    1.7735    4.5731   -5.2096 C   0  0  0  0  0  0  0  0  0  0  0  0
   -0.3035    4.1645   -5.1342 H   0  0  0  0  0  0  0  0  0  0  0  0
    1.9033    5.6590   -5.0908 H   0  0  0  0  0  0  0  0  0  0  0  0
    2.6205    4.0494   -4.7424 H   0  0  0  0  0  0  0  0  0  0  0  0
    1.7337    4.3238   -6.2803 H   0  0  0  0  0  0  0  0  0  0  0  0
 29 30  2  0  0  0  0
 27 29  1  0  0  0  0
 28 30  1  0  0  0  0
 24 27  2  0  0  0  0
 26 28  2  0  0  0  0
 22 23  2  0  0  0  0
 23 25  1  0  0  0  0
 22 24  1  0  0  0  0
 24 26  1  0  0  0  0
 21 22  1  0  0  0  0
 25 26  1  0  0  0  0
  1  3  1  0  0  0  0
  1  7  1  0  0  0  0
  1  2  2  0  0  0  0
 42 43  1  0  0  0  0
 43 51  1  0  0  0  0
 43 44  2  0  0  0  0
  8  9  1  0  0  0  0
  9 17  1  0  0  0  0
  9 10  2  0  0  0  0
 18 19  1  0  0  0  0
 19 41  1  0  0  0  0
 19 20  2  0  0  0  0
 42 45  1  0  0  0  0
  8 11  1  0  0  0  0
 51 52  1  0  0  0  0
 18 21  1  0  0  0  0
 41 42  1  0  0  0  0
  7  8  1  0  0  0  0
 17 18  1  0  0  0  0
 29 39  1  0  0  0  0
 30 40  1  0  0  0  0
 27 37  1  0  0  0  0
 28 38  1  0  0  0  0
 23 35  1  0  0  0  0
  3  4  1  0  0  0  0
  3  5  1  0  0  0  0
  3  6  1  0  0  0  0
 45 48  1  0  0  0  0
 45 49  1  0  0  0  0
 45 50  1  0  0  0  0
 11 14  1  0  0  0  0
 11 15  1  0  0  0  0
 11 16  1  0  0  0  0
 52 54  1  0  0  0  0
 52 55  1  0  0  0  0
 52 56  1  0  0  0  0
 21 33  1  0  0  0  0
 21 34  1  0  0  0  0
 42 47  1  0  0  0  0
  8 13  1  0  0  0  0
 18 32  1  0  0  0  0
 25 36  1  0  0  0  0
 51 53  1  0  0  0  0
  7 12  1  0  0  0  0
 41 46  1  0  0  0  0
 17 31  1  0  0  0  0
M  END
$$$$

  -OEChem-05262214473D

 56 57  0     1  0  0  0  0  0999 V2000
   -2.2900    0.3401    4.1553 C   0  0  0  0  0  0  0  0  0  0  0  0
   -1.3426   -0.2746    3.6796 O   0  0  0  0  0  0  0  0  0  0  0  0
   -2.7219    0.0577    5.5560 C   0  0  0  0  0  0  0  0  0  0  0  0
   -3.4815   -0.7386    5.6094 H   0  0  0  0  0  0  0  0  0  0  0  0
   -1.8906   -0.2899    6.1903 H   0  0  0  0  0  0  0  0  0  0  0  0
   -3.1599    0.9126    6.0956 H   0  0  0  0  0  0  0  0  0  0  0  0
   -3.0397    1.3125    3.5142 N   0  0  0  0  0  0  0  0  0  0  0  0
   -2.7928    1.7385    2.1618 C   0  0  2  0  0  0  0  0  0  0  0  0
   -1.4579    1.1532    1.7206 C   0  0  0  0  0  0  0  0  0  0  0  0
   -0.5858    0.8004    2.5118 O   0  0  0  0  0  0  0  0  0  0  0  0
   -2.7841    3.2553    2.0523 C   0  0  0  0  0  0  0  0  0  0  0  0
   -3.8047    1.7484    4.0260 H   0  0  0  0  0  0  0  0  0  0  0  0
   -3.5969    1.3201    1.5466 H   0  0  0  0  0  0  0  0  0  0  0  0
   -1.9850    3.6926    2.6620 H   0  0  0  0  0  0  0  0  0  0  0  0
   -2.6246    3.5776    1.0180 H   0  0  0  0  0  0  0  0  0  0  0  0
   -3.7342    3.6765    2.3981 H   0  0  0  0  0  0  0  0  0  0  0  0
   -1.3352    1.1101    0.3372 N   0  0  0  0  0  0  0  0  0  0  0  0
   -0.1579    0.6093   -0.3265 C   0  0  2  0  0  0  0  0  0  0  0  0
   -0.0332    1.3573   -1.6490 C   0  0  0  0  0  0  0  0  0  0  0  0
    0.4415    0.8494   -2.6628 O   0  0  0  0  0  0  0  0  0  0  0  0
   -0.2313   -0.9019   -0.5738 C   0  0  0  0  0  0  0  0  0  0  0  0
   -0.1991   -1.7046    0.7039 C   0  0  0  0  0  0  0  0  0  0  0  0
   -1.2965   -2.2024    1.3677 C   0  0  0  0  0  0  0  0  0  0  0  0
    0.9598   -2.0846    1.4371 C   0  0  0  0  0  0  0  0  0  0  0  0
   -0.8510   -2.8703    2.4767 N   0  0  0  0  0  0  0  0  0  0  0  0
    0.5229   -2.8148    2.5444 C   0  0  0  0  0  0  0  0  0  0  0  0
    2.3427   -1.8767    1.2643 C   0  0  0  0  0  0  0  0  0  0  0  0
    1.4034   -3.3497    3.4915 C   0  0  0  0  0  0  0  0  0  0  0  0
    3.2351   -2.4059    2.2037 C   0  0  0  0  0  0  0  0  0  0  0  0
    2.7705   -3.1308    3.2994 C   0  0  0  0  0  0  0  0  0  0  0  0
   -2.1183    1.4068   -0.2401 H   0  0  0  0  0  0  0  0  0  0  0  0
    0.6946    0.8666    0.3131 H   0  0  0  0  0  0  0  0  0  0  0  0
    0.5895   -1.2201   -1.2308 H   0  0  0  0  0  0  0  0  0  0  0  0
   -1.1506   -1.1574   -1.1172 H   0  0  0  0  0  0  0  0  0  0  0  0
   -2.3544   -2.1406    1.1523 H   0  0  0  0  0  0  0  0  0  0  0  0
   -1.4442   -3.3369    3.1489 H   0  0  0  0  0  0  0  0  0  0  0  0
    2.7206   -1.3131    0.4161 H   0  0  0  0  0  0  0  0  0  0  0  0
    1.0427   -3.9149    4.3442 H   0  0  0  0  0  0  0  0  0  0  0  0
    4.3027   -2.2485    2.0761 H   0  0  0  0  0  0  0  0  0  0  0  0
    3.4814   -3.5329    4.0167 H   0  0  0  0  0  0  0  0  0  0  0  0
   -0.5603    2.6390   -1.5728 N   0  0  0  0  0  0  0  0  0  0  0  0
   -0.5900    3.5527   -2.6922 C   0  0  2  0  0  0  0  0  0  0  0  0
    0.8068    3.6008   -3.2972 C   0  0  0  0  0  0  0  0  0  0  0  0
    1.8199    3.2961   -2.6711 O   0  0  0  0  0  0  0  0  0  0  0  0
   -1.0444    4.9391   -2.2629 C   0  0  0  0  0  0  0  0  0  0  0  0
   -0.9445    2.9505   -0.6856 H   0  0  0  0  0  0  0  0  0  0  0  0
   -1.2910    3.1349   -3.4230 H   0  0  0  0  0  0  0  0  0  0  0  0
   -0.3543    5.3739   -1.5307 H   0  0  0  0  0  0  0  0  0  0  0  0
   -1.0938    5.6226   -3.1169 H   0  0  0  0  0  0  0  0  0  0  0  0
   -2.0367    4.8983   -1.8009 H   0  0  0  0  0  0  0  0  0  0  0  0
    0.7934    4.0652   -4.6050 N   0  0  0  0  0  0  0  0  0  0  0  0
    1.9953    4.2138   -5.3920 C   0  0  0  0  0  0  0  0  0  0  0  0
   -0.0944    4.2766   -5.0511 H   0  0  0  0  0  0  0  0  0  0  0  0
    2.3808    5.2383   -5.2836 H   0  0  0  0  0  0  0  0  0  0  0  0
    2.7535    3.4979   -5.0418 H   0  0  0  0  0  0  0  0  0  0  0  0
    1.7671    4.0180   -6.4501 H   0  0  0  0  0  0  0  0  0  0  0  0
 29 30  2  0  0  0  0
 27 29  1  0  0  0  0
 28 30  1  0  0  0  0
 24 27  2  0  0  0  0
 26 28  2  0  0  0  0
 22 23  2  0  0  0  0
 23 25  1  0  0  0  0
 22 24  1  0  0  0  0
 24 26  1  0  0  0  0
 21 22  1  0  0  0  0
 25 26  1  0  0  0  0
  1  3  1  0  0  0  0
  1  7  1  0  0  0  0
  1  2  2  0  0  0  0
 42 43  1  0  0  0  0
 43 51  1  0  0  0  0
 43 44  2  0  0  0  0
  8  9  1  0  0  0  0
  9 17  1  0  0  0  0
  9 10  2  0  0  0  0
 18 19  1  0  0  0  0
 19 41  1  0  0  0  0
 19 20  2  0  0  0  0
 42 45  1  0  0  0  0
  8 11  1  0  0  0  0
 51 52  1  0  0  0  0
 18 21  1  0  0  0  0
 41 42  1  0  0  0  0
  7  8  1  0  0  0  0
 17 18  1  0  0  0  0
 29 39  1  0  0  0  0
 30 40  1  0  0  0  0
 27 37  1  0  0  0  0
 28 38  1  0  0  0  0
 23 35  1  0  0  0  0
  3  4  1  0  0  0  0
  3  5  1  0  0  0  0
  3  6  1  0  0  0  0
 45 48  1  0  0  0  0
 45 49  1  0  0  0  0
 45 50  1  0  0  0  0
 11 14  1  0  0  0  0
 11 15  1  0  0  0  0
 11 16  1  0  0  0  0
 52 54  1  0  0  0  0
 52 55  1  0  0  0  0
 52 56  1  0  0  0  0
 21 33  1  0  0  0  0
 21 34  1  0  0  0  0
 42 47  1  0  0  0  0
  8 13  1  0  0  0  0
 18 32  1  0  0  0  0
 25 36  1  0  0  0  0
 51 53  1  0  0  0  0
  7 12  1  0  0  0  0
 41 46  1  0  0  0  0
 17 31  1  0  0  0  0
M  END
$$$$

  -OEChem-05262214473D

 56 57  0     1  0  0  0  0  0999 V2000
   -2.2900    0.3401    4.1553 C   0  0  0  0  0  0  0  0  0  0  0  0
   -1.3426   -0.2746    3.6796 O   0  0  0  0  0  0  0  0  0  0  0  0
   -2.7219    0.0577    5.5560 C   0  0  0  0  0  0  0  0  0  0  0  0
   -3.4815   -0.7386    5.6094 H   0  0  0  0  0  0  0  0  0  0  0  0
   -1.8906   -0.2899    6.1903 H   0  0  0  0  0  0  0  0  0  0  0  0
   -3.1599    0.9126    6.0956 H   0  0  0  0  0  0  0  0  0  0  0  0
   -3.0397    1.3125    3.5142 N   0  0  0  0  0  0  0  0  0  0  0  0
   -2.7928    1.7385    2.1618 C   0  0  2  0  0  0  0  0  0  0  0  0
   -1.4579    1.1532    1.7206 C   0  0  0  0  0  0  0  0  0  0  0  0
   -0.5858    0.8004    2.5118 O   0  0  0  0  0  0  0  0  0  0  0  0
   -2.7841    3.2553    2.0523 C   0  0  0  0  0  0  0  0  0  0  0  0
   -3.8047    1.7484    4.0260 H   0  0  0  0  0  0  0  0  0  0  0  0
   -3.5969    1.3201    1.5466 H   0  0  0  0  0  0  0  0  0  0  0  0
   -1.9850    3.6926    2.6620 H   0  0  0  0  0  0  0  0  0  0  0  0
   -2.6246    3.5776    1.0180 H   0  0  0  0  0  0  0  0  0  0  0  0
   -3.7342    3.6765    2.3981 H   0  0  0  0  0  0  0  0  0  0  0  0
   -1.3352    1.1101    0.3372 N   0  0  0  0  0  0  0  0  0  0  0  0
   -0.1579    0.6093   -0.3265 C   0  0  2  0  0  0  0  0  0  0  0  0
   -0.0332    1.3573   -1.6490 C   0  0  0  0  0  0  0  0  0  0  0  0
    0.1844    0.7928   -2.7191 O   0  0  0  0  0  0  0  0  0  0  0  0
   -0.2313   -0.9019   -0.5738 C   0  0  0  0  0  0  0  0  0  0  0  0
   -0.1991   -1.7046    0.7039 C   0  0  0  0  0  0  0  0  0  0  0  0
   -1.2965   -2.2024    1.3677 C   0  0  0  0  0  0  0  0  0  0  0  0
    0.9598   -2.0846    1.4371 C   0  0  0  0  0  0  0  0  0  0  0  0
   -0.8510   -2.8703    2.4767 N   0  0  0  0  0  0  0  0  0  0  0  0
    0.5229   -2.8148    2.5444 C   0  0  0  0  0  0  0  0  0  0  0  0
    2.3427   -1.8767    1.2643 C   0  0  0  0  0  0  0  0  0  0  0  0
    1.4034   -3.3497    3.4915 C   0  0  0  0  0  0  0  0  0  0  0  0
    3.2351   -2.4059    2.2037 C   0  0  0  0  0  0  0  0  0  0  0  0
    2.7705   -3.1308    3.2994 C   0  0  0  0  0  0  0  0  0  0  0  0
   -2.1183    1.4068   -0.2401 H   0  0  0  0  0  0  0  0  0  0  0  0
    0.6946    0.8666    0.3131 H   0  0  0  0  0  0  0  0  0  0  0  0
    0.5895   -1.2201   -1.2308 H   0  0  0  0  0  0  0  0  0  0  0  0
   -1.1506   -1.1574   -1.1172 H   0  0  0  0  0  0  0  0  0  0  0  0
   -2.3544   -2.1406    1.1523 H   0  0  0  0  0  0  0  0  0  0  0  0
   -1.4442   -3.3369    3.1489 H   0  0  0  0  0  0  0  0  0  0  0  0
    2.7206   -1.3131    0.4161 H   0  0  0  0  0  0  0  0  0  0  0  0
    1.0427   -3.9149    4.3442 H   0  0  0  0  0  0  0  0  0  0  0  0
    4.3027   -2.2485    2.0761 H   0  0  0  0  0  0  0  0  0  0  0  0
    3.4814   -3.5329    4.0167 H   0  0  0  0  0  0  0  0  0  0  0  0
   -0.2434    2.7208   -1.4967 N   0  0  0  0  0  0  0  0  0  0  0  0
   -0.2051    3.6574   -2.5967 C   0  0  2  0  0  0  0  0  0  0  0  0
    1.0799    3.4141   -3.3770 C   0  0  0  0  0  0  0  0  0  0  0  0
    2.0678    2.8689   -2.8894 O   0  0  0  0  0  0  0  0  0  0  0  0
   -0.2775    5.0940   -2.1030 C   0  0  0  0  0  0  0  0  0  0  0  0
   -0.4337    3.0783   -0.5652 H   0  0  0  0  0  0  0  0  0  0  0  0
   -1.0678    3.4329   -3.2334 H   0  0  0  0  0  0  0  0  0  0  0  0
    0.5786    5.3374   -1.4633 H   0  0  0  0  0  0  0  0  0  0  0  0
   -0.2773    5.8013   -2.9389 H   0  0  0  0  0  0  0  0  0  0  0  0
   -1.1880    5.2592   -1.5167 H   0  0  0  0  0  0  0  0  0  0  0  0
    1.0089    3.9162   -4.6690 N   0  0  0  0  0  0  0  0  0  0  0  0
    2.1057    3.8208   -5.6038 C   0  0  0  0  0  0  0  0  0  0  0  0
    0.1434    4.3361   -4.9950 H   0  0  0  0  0  0  0  0  0  0  0  0
    2.7231    4.7289   -5.5395 H   0  0  0  0  0  0  0  0  0  0  0  0
    2.7201    2.9417   -5.3595 H   0  0  0  0  0  0  0  0  0  0  0  0
    1.7092    3.7187   -6.6248 H   0  0  0  0  0  0  0  0  0  0  0  0
 29 30  2  0  0  0  0
 27 29  1  0  0  0  0
 28 30  1  0  0  0  0
 24 27  2  0  0  0  0
 26 28  2  0  0  0  0
 22 23  2  0  0  0  0
 23 25  1  0  0  0  0
 22 24  1  0  0  0  0
 24 26  1  0  0  0  0
 21 22  1  0  0  0  0
 25 26  1  0  0  0  0
  1  3  1  0  0  0  0
  1  7  1  0  0  0  0
  1  2  2  0  0  0  0
 42 43  1  0  0  0  0
 43 51  1  0  0  0  0
 43 44  2  0  0  0  0
  8  9  1  0  0  0  0
  9 17  1  0  0  0  0
  9 10  2  0  0  0  0
 18 19  1  0  0  0  0
 19 41  1  0  0  0  0
 19 20  2  0  0  0  0
 42 45  1  0  0  0  0
  8 11  1  0  0  0  0
 51 52  1  0  0  0  0
 18 21  1  0  0  0  0
 41 42  1  0  0  0  0
  7  8  1  0  0  0  0
 17 18  1  0  0  0  0
 29 39  1  0  0  0  0
 30 40  1  0  0  0  0
 27 37  1  0  0  0  0
 28 38  1  0  0  0  0
 23 35  1  0  0  0  0
  3  4  1  0  0  0  0
  3  5  1  0  0  0  0
  3  6  1  0  0  0  0
 45 48  1  0  0  0  0
 45 49  1  0  0  0  0
 45 50  1  0  0  0  0
 11 14  1  0  0  0  0
 11 15  1  0  0  0  0
 11 16  1  0  0  0  0
 52 54  1  0  0  0  0
 52 55  1  0  0  0  0
 52 56  1  0  0  0  0
 21 33  1  0  0  0  0
 21 34  1  0  0  0  0
 42 47  1  0  0  0  0
  8 13  1  0  0  0  0
 18 32  1  0  0  0  0
 25 36  1  0  0  0  0
 51 53  1  0  0  0  0
  7 12  1  0  0  0  0
 41 46  1  0  0  0  0
 17 31  1  0  0  0  0
M  END
$$$$

  -OEChem-05262214473D

 56 57  0     1  0  0  0  0  0999 V2000
   -2.2900    0.3401    4.1553 C   0  0  0  0  0  0  0  0  0  0  0  0
   -1.3426   -0.2746    3.6796 O   0  0  0  0  0  0  0  0  0  0  0  0
   -2.7219    0.0577    5.5560 C   0  0  0  0  0  0  0  0  0  0  0  0
   -3.4815   -0.7386    5.6094 H   0  0  0  0  0  0  0  0  0  0  0  0
   -1.8906   -0.2899    6.1903 H   0  0  0  0  0  0  0  0  0  0  0  0
   -3.1599    0.9126    6.0956 H   0  0  0  0  0  0  0  0  0  0  0  0
   -3.0397    1.3125    3.5142 N   0  0  0  0  0  0  0  0  0  0  0  0
   -2.7928    1.7385    2.1618 C   0  0  2  0  0  0  0  0  0  0  0  0
   -1.4579    1.1532    1.7206 C   0  0  0  0  0  0  0  0  0  0  0  0
   -0.5858    0.8004    2.5118 O   0  0  0  0  0  0  0  0  0  0  0  0
   -2.7841    3.2553    2.0523 C   0  0  0  0  0  0  0  0  0  0  0  0
   -3.8047    1.7484    4.0260 H   0  0  0  0  0  0  0  0  0  0  0  0
   -3.5969    1.3201    1.5466 H   0  0  0  0  0  0  0  0  0  0  0  0
   -1.9850    3.6926    2.6620 H   0  0  0  0  0  0  0  0  0  0  0  0
   -2.6246    3.5776    1.0180 H   0  0  0  0  0  0  0  0  0  0  0  0
   -3.7342    3.6765    2.3981 H   0  0  0  0  0  0  0  0  0  0  0  0
   -1.3352    1.1101    0.3372 N   0  0  0  0  0  0  0  0  0  0  0  0
   -0.1579    0.6093   -0.3265 C   0  0  2  0  0  0  0  0  0  0  0  0
   -0.0332    1.3573   -1.6490 C   0  0  0  0  0  0  0  0  0  0  0  0
   -0.0837    0.7971   -2.7420 O   0  0  0  0  0  0  0  0  0  0  0  0
   -0.2313   -0.9019   -0.5738 C   0  0  0  0  0  0  0  0  0  0  0  0
   -0.1991   -1.7046    0.7039 C   0  0  0  0  0  0  0  0  0  0  0  0
   -1.2965   -2.2024    1.3677 C   0  0  0  0  0  0  0  0  0  0  0  0
    0.9598   -2.0846    1.4371 C   0  0  0  0  0  0  0  0  0  0  0  0
   -0.8510   -2.8703    2.4767 N   0  0  0  0  0  0  0  0  0  0  0  0
    0.5229   -2.8148    2.5444 C   0  0  0  0  0  0  0  0  0  0  0  0
    2.3427   -1.8767    1.2643 C   0  0  0  0  0  0  0  0  0  0  0  0
    1.4034   -3.3497    3.4915 C   0  0  0  0  0  0  0  0  0  0  0  0
    3.2351   -2.4059    2.2037 C   0  0  0  0  0  0  0  0  0  0  0  0
    2.7705   -3.1308    3.2994 C   0  0  0  0  0  0  0  0  0  0  0  0
   -2.1183    1.4068   -0.2401 H   0  0  0  0  0  0  0  0  0  0  0  0
    0.6946    0.8666    0.3131 H   0  0  0  0  0  0  0  0  0  0  0  0
    0.5895   -1.2201   -1.2308 H   0  0  0  0  0  0  0  0  0  0  0  0
   -1.1506   -1.1574   -1.1172 H   0  0  0  0  0  0  0  0  0  0  0  0
   -2.3544   -2.1406    1.1523 H   0  0  0  0  0  0  0  0  0  0  0  0
   -1.4442   -3.3369    3.1489 H   0  0  0  0  0  0  0  0  0  0  0  0
    2.7206   -1.3131    0.4161 H   0  0  0  0  0  0  0  0  0  0  0  0
    1.0427   -3.9149    4.3442 H   0  0  0  0  0  0  0  0  0  0  0  0
    4.3027   -2.2485    2.0761 H   0  0  0  0  0  0  0  0  0  0  0  0
    3.4814   -3.5329    4.0167 H   0  0  0  0  0  0  0  0  0  0  0  0
    0.0907    2.7270   -1.4617 N   0  0  0  0  0  0  0  0  0  0  0  0
    0.2022    3.6701   -2.5511 C   0  0  2  0  0  0  0  0  0  0  0  0
    1.2916    3.1742   -3.4928 C   0  0  0  0  0  0  0  0  0  0  0  0
    2.1837    2.4052   -3.1407 O   0  0  0  0  0  0  0  0  0  0  0  0
    0.5183    5.0680   -2.0426 C   0  0  0  0  0  0  0  0  0  0  0  0
    0.1036    3.0845   -0.5110 H   0  0  0  0  0  0  0  0  0  0  0  0
   -0.7613    3.6666   -3.0723 H   0  0  0  0  0  0  0  0  0  0  0  0
    1.4802    5.0913   -1.5175 H   0  0  0  0  0  0  0  0  0  0  0  0
    0.5742    5.7868   -2.8667 H   0  0  0  0  0  0  0  0  0  0  0  0
   -0.2510    5.4112   -1.3424 H   0  0  0  0  0  0  0  0  0  0  0  0
    1.1755    3.7252   -4.7613 N   0  0  0  0  0  0  0  0  0  0  0  0
    2.0971    3.4208   -5.8308 C   0  0  0  0  0  0  0  0  0  0  0  0
    0.3935    4.3390   -4.9698 H   0  0  0  0  0  0  0  0  0  0  0  0
    2.9068    4.1654   -5.8408 H   0  0  0  0  0  0  0  0  0  0  0  0
    2.5227    2.4187   -5.6740 H   0  0  0  0  0  0  0  0  0  0  0  0
    1.5639    3.4463   -6.7926 H   0  0  0  0  0  0  0  0  0  0  0  0
 29 30  2  0  0  0  0
 27 29  1  0  0  0  0
 28 30  1  0  0  0  0
 24 27  2  0  0  0  0
 26 28  2  0  0  0  0
 22 23  2  0  0  0  0
 23 25  1  0  0  0  0
 22 24  1  0  0  0  0
 24 26  1  0  0  0  0
 21 22  1  0  0  0  0
 25 26  1  0  0  0  0
  1  3  1  0  0  0  0
  1  7  1  0  0  0  0
  1  2  2  0  0  0  0
 42 43  1  0  0  0  0
 43 51  1  0  0  0  0
 43 44  2  0  0  0  0
  8  9  1  0  0  0  0
  9 17  1  0  0  0  0
  9 10  2  0  0  0  0
 18 19  1  0  0  0  0
 19 41  1  0  0  0  0
 19 20  2  0  0  0  0
 42 45  1  0  0  0  0
  8 11  1  0  0  0  0
 51 52  1  0  0  0  0
 18 21  1  0  0  0  0
 41 42  1  0  0  0  0
  7  8  1  0  0  0  0
 17 18  1  0  0  0  0
 29 39  1  0  0  0  0
 30 40  1  0  0  0  0
 27 37  1  0  0  0  0
 28 38  1  0  0  0  0
 23 35  1  0  0  0  0
  3  4  1  0  0  0  0
  3  5  1  0  0  0  0
  3  6  1  0  0  0  0
 45 48  1  0  0  0  0
 45 49  1  0  0  0  0
 45 50  1  0  0  0  0
 11 14  1  0  0  0  0
 11 15  1  0  0  0  0
 11 16  1  0  0  0  0
 52 54  1  0  0  0  0
 52 55  1  0  0  0  0
 52 56  1  0  0  0  0
 21 33  1  0  0  0  0
 21 34  1  0  0  0  0
 42 47  1  0  0  0  0
  8 13  1  0  0  0  0
 18 32  1  0  0  0  0
 25 36  1  0  0  0  0
 51 53  1  0  0  0  0
  7 12  1  0  0  0  0
 41 46  1  0  0  0  0
 17 31  1  0  0  0  0
M  END
$$$$

  -OEChem-05262214473D

 56 57  0     1  0  0  0  0  0999 V2000
   -2.2900    0.3401    4.1553 C   0  0  0  0  0  0  0  0  0  0  0  0
   -1.3426   -0.2746    3.6796 O   0  0  0  0  0  0  0  0  0  0  0  0
   -2.7219    0.0577    5.5560 C   0  0  0  0  0  0  0  0  0  0  0  0
   -3.4815   -0.7386    5.6094 H   0  0  0  0  0  0  0  0  0  0  0  0
   -1.8906   -0.2899    6.1903 H   0  0  0  0  0  0  0  0  0  0  0  0
   -3.1599    0.9126    6.0956 H   0  0  0  0  0  0  0  0  0  0  0  0
   -3.0397    1.3125    3.5142 N   0  0  0  0  0  0  0  0  0  0  0  0
   -2.7928    1.7385    2.1618 C   0  0  2  0  0  0  0  0  0  0  0  0
   -1.4579    1.1532    1.7206 C   0  0  0  0  0  0  0  0  0  0  0  0
   -0.5858    0.8004    2.5118 O   0  0  0  0  0  0  0  0  0  0  0  0
   -2.7841    3.2553    2.0523 C   0  0  0  0  0  0  0  0  0  0  0  0
   -3.8047    1.7484    4.0260 H   0  0  0  0  0  0  0  0  0  0  0  0
   -3.5969    1.3201    1.5466 H   0  0  0  0  0  0  0  0  0  0  0  0
   -1.9850    3.6926    2.6620 H   0  0  0  0  0  0  0  0  0  0  0  0
   -2.6246    3.5776    1.0180 H   0  0  0  0  0  0  0  0  0  0  0  0
   -3.7342    3.6765    2.3981 H   0  0  0  0  0  0  0  0  0  0  0  0
   -1.3352    1.1101    0.3372 N   0  0  0  0  0  0  0  0  0  0  0  0
   -0.1579    0.6093   -0.3265 C   0  0  2  0  0  0  0  0  0  0  0  0
   -0.0332    1.3573   -1.6490 C   0  0  0  0  0  0  0  0  0  0  0  0
   -0.3447    0.8618   -2.7299 O   0  0  0  0  0  0  0  0  0  0  0  0
   -0.2313   -0.9019   -0.5738 C   0  0  0  0  0  0  0  0  0  0  0  0
   -0.1991   -1.7046    0.7039 C   0  0  0  0  0  0  0  0  0  0  0  0
   -1.2965   -2.2024    1.3677 C   0  0  0  0  0  0  0  0  0  0  0  0
    0.9598   -2.0846    1.4371 C   0  0  0  0  0  0  0  0  0  0  0  0
   -0.8510   -2.8703    2.4767 N   0  0  0  0  0  0  0  0  0  0  0  0
    0.5229   -2.8148    2.5444 C   0  0  0  0  0  0  0  0  0  0  0  0
    2.3427   -1.8767    1.2643 C   0  0  0  0  0  0  0  0  0  0  0  0
    1.4034   -3.3497    3.4915 C   0  0  0  0  0  0  0  0  0  0  0  0
    3.2351   -2.4059    2.2037 C   0  0  0  0  0  0  0  0  0  0  0  0
    2.7705   -3.1308    3.2994 C   0  0  0  0  0  0  0  0  0  0  0  0
   -2.1183    1.4068   -0.2401 H   0  0  0  0  0  0  0  0  0  0  0  0
    0.6946    0.8666    0.3131 H   0  0  0  0  0  0  0  0  0  0  0  0
    0.5895   -1.2201   -1.2308 H   0  0  0  0  0  0  0  0  0  0  0  0
   -1.1506   -1.1574   -1.1172 H   0  0  0  0  0  0  0  0  0  0  0  0
   -2.3544   -2.1406    1.1523 H   0  0  0  0  0  0  0  0  0  0  0  0
   -1.4442   -3.3369    3.1489 H   0  0  0  0  0  0  0  0  0  0  0  0
    2.7206   -1.3131    0.4161 H   0  0  0  0  0  0  0  0  0  0  0  0
    1.0427   -3.9149    4.3442 H   0  0  0  0  0  0  0  0  0  0  0  0
    4.3027   -2.2485    2.0761 H   0  0  0  0  0  0  0  0  0  0  0  0
    3.4814   -3.5329    4.0167 H   0  0  0  0  0  0  0  0  0  0  0  0
    0.4193    2.6572   -1.4701 N   0  0  0  0  0  0  0  0  0  0  0  0
    0.6044    3.5899   -2.5585 C   0  0  2  0  0  0  0  0  0  0  0  0
    1.4275    2.8973   -3.6365 C   0  0  0  0  0  0  0  0  0  0  0  0
    2.1595    1.9366   -3.4080 O   0  0  0  0  0  0  0  0  0  0  0  0
    1.2888    4.8630   -2.0858 C   0  0  0  0  0  0  0  0  0  0  0  0
    0.6309    2.9687   -0.5267 H   0  0  0  0  0  0  0  0  0  0  0  0
   -0.3923    3.8201   -2.9506 H   0  0  0  0  0  0  0  0  0  0  0  0
    2.2888    4.6523   -1.6895 H   0  0  0  0  0  0  0  0  0  0  0  0
    1.4026    5.5801   -2.9055 H   0  0  0  0  0  0  0  0  0  0  0  0
    0.7104    5.3440   -1.2897 H   0  0  0  0  0  0  0  0  0  0  0  0
    1.2818    3.5052   -4.8756 N   0  0  0  0  0  0  0  0  0  0  0  0
    1.9703    3.0413   -6.0575 C   0  0  0  0  0  0  0  0  0  0  0  0
    0.6390    4.2851   -4.9771 H   0  0  0  0  0  0  0  0  0  0  0  0
    2.9195    3.5862   -6.1672 H   0  0  0  0  0  0  0  0  0  0  0  0
    2.1746    1.9645   -5.9637 H   0  0  0  0  0  0  0  0  0  0  0  0
    1.3410    3.2194   -6.9419 H   0  0  0  0  0  0  0  0  0  0  0  0
 29 30  2  0  0  0  0
 27 29  1  0  0  0  0
 28 30  1  0  0  0  0
 24 27  2  0  0  0  0
 26 28  2  0  0  0  0
 22 23  2  0  0  0  0
 23 25  1  0  0  0  0
 22 24  1  0  0  0  0
 24 26  1  0  0  0  0
 21 22  1  0  0  0  0
 25 26  1  0  0  0  0
  1  3  1  0  0  0  0
  1  7  1  0  0  0  0
  1  2  2  0  0  0  0
 42 43  1  0  0  0  0
 43 51  1  0  0  0  0
 43 44  2  0  0  0  0
  8  9  1  0  0  0  0
  9 17  1  0  0  0  0
  9 10  2  0  0  0  0
 18 19  1  0  0  0  0
 19 41  1  0  0  0  0
 19 20  2  0  0  0  0
 42 45  1  0  0  0  0
  8 11  1  0  0  0  0
 51 52  1  0  0  0  0
 18 21  1  0  0  0  0
 41 42  1  0  0  0  0
  7  8  1  0  0  0  0
 17 18  1  0  0  0  0
 29 39  1  0  0  0  0
 30 40  1  0  0  0  0
 27 37  1  0  0  0  0
 28 38  1  0  0  0  0
 23 35  1  0  0  0  0
  3  4  1  0  0  0  0
  3  5  1  0  0  0  0
  3  6  1  0  0  0  0
 45 48  1  0  0  0  0
 45 49  1  0  0  0  0
 45 50  1  0  0  0  0
 11 14  1  0  0  0  0
 11 15  1  0  0  0  0
 11 16  1  0  0  0  0
 52 54  1  0  0  0  0
 52 55  1  0  0  0  0
 52 56  1  0  0  0  0
 21 33  1  0  0  0  0
 21 34  1  0  0  0  0
 42 47  1  0  0  0  0
  8 13  1  0  0  0  0
 18 32  1  0  0  0  0
 25 36  1  0  0  0  0
 51 53  1  0  0  0  0
  7 12  1  0  0  0  0
 41 46  1  0  0  0  0
 17 31  1  0  0  0  0
M  END
$$$$

  -OEChem-05262214473D

 56 57  0     1  0  0  0  0  0999 V2000
   -2.2900    0.3401    4.1553 C   0  0  0  0  0  0  0  0  0  0  0  0
   -1.3426   -0.2746    3.6796 O   0  0  0  0  0  0  0  0  0  0  0  0
   -2.7219    0.0577    5.5560 C   0  0  0  0  0  0  0  0  0  0  0  0
   -3.4815   -0.7386    5.6094 H   0  0  0  0  0  0  0  0  0  0  0  0
   -1.8906   -0.2899    6.1903 H   0  0  0  0  0  0  0  0  0  0  0  0
   -3.1599    0.9126    6.0956 H   0  0  0  0  0  0  0  0  0  0  0  0
   -3.0397    1.3125    3.5142 N   0  0  0  0  0  0  0  0  0  0  0  0
   -2.7928    1.7385    2.1618 C   0  0  2  0  0  0  0  0  0  0  0  0
   -1.4579    1.1532    1.7206 C   0  0  0  0  0  0  0  0  0  0  0  0
   -0.5858    0.8004    2.5118 O   0  0  0  0  0  0  0  0  0  0  0  0
   -2.7841    3.2553    2.0523 C   0  0  0  0  0  0  0  0  0  0  0  0
   -3.8047    1.7484    4.0260 H   0  0  0  0  0  0  0  0  0  0  0  0
   -3.5969    1.3201    1.5466 H   0  0  0  0  0  0  0  0  0  0  0  0
   -1.9850    3.6926    2.6620 H   0  0  0  0  0  0  0  0  0  0  0  0
   -2.6246    3.5776    1.0180 H   0  0  0  0  0  0  0  0  0  0  0  0
   -3.7342    3.6765    2.3981 H   0  0  0  0  0  0  0  0  0  0  0  0
   -1.3352    1.1101    0.3372 N   0  0  0  0  0  0  0  0  0  0  0  0
   -0.1579    0.6093   -0.3265 C   0  0  2  0  0  0  0  0  0  0  0  0
   -0.0332    1.3573   -1.6490 C   0  0  0  0  0  0  0  0  0  0  0  0
   -0.5807    0.9827   -2.6838 O   0  0  0  0  0  0  0  0  0  0  0  0
   -0.2313   -0.9019   -0.5738 C   0  0  0  0  0  0  0  0  0  0  0  0
   -0.1991   -1.7046    0.7039 C   0  0  0  0  0  0  0  0  0  0  0  0
   -1.2965   -2.2024    1.3677 C   0  0  0  0  0  0  0  0  0  0  0  0
    0.9598   -2.0846    1.4371 C   0  0  0  0  0  0  0  0  0  0  0  0
   -0.8510   -2.8703    2.4767 N   0  0  0  0  0  0  0  0  0  0  0  0
    0.5229   -2.8148    2.5444 C   0  0  0  0  0  0  0  0  0  0  0  0
    2.3427   -1.8767    1.2643 C   0  0  0  0  0  0  0  0  0  0  0  0
    1.4034   -3.3497    3.4915 C   0  0  0  0  0  0  0  0  0  0  0  0
    3.2351   -2.4059    2.2037 C   0  0  0  0  0  0  0  0  0  0  0  0
    2.7705   -3.1308    3.2994 C   0  0  0  0  0  0  0  0  0  0  0  0
   -2.1183    1.4068   -0.2401 H   0  0  0  0  0  0  0  0  0  0  0  0
    0.6946    0.8666    0.3131 H   0  0  0  0  0  0  0  0  0  0  0  0
    0.5895   -1.2201   -1.2308 H   0  0  0  0  0  0  0  0  0  0  0  0
   -1.1506   -1.1574   -1.1172 H   0  0  0  0  0  0  0  0  0  0  0  0
   -2.3544   -2.1406    1.1523 H   0  0  0  0  0  0  0  0  0  0  0  0
   -1.4442   -3.3369    3.1489 H   0  0  0  0  0  0  0  0  0  0  0  0
    2.7206   -1.3131    0.4161 H   0  0  0  0  0  0  0  0  0  0  0  0
    1.0427   -3.9149    4.3442 H   0  0  0  0  0  0  0  0  0  0  0  0
    4.3027   -2.2485    2.0761 H   0  0  0  0  0  0  0  0  0  0  0  0
    3.4814   -3.5329    4.0167 H   0  0  0  0  0  0  0  0  0  0  0  0
    0.7199    2.5162   -1.5215 N   0  0  0  0  0  0  0  0  0  0  0  0
    0.9738    3.4223   -2.6184 C   0  0  2  0  0  0  0  0  0  0  0  0
    1.4784    2.6024   -3.7985 C   0  0  0  0  0  0  0  0  0  0  0  0
    1.9971    1.4950   -3.6731 O   0  0  0  0  0  0  0  0  0  0  0  0
    1.9816    4.4929   -2.2298 C   0  0  0  0  0  0  0  0  0  0  0  0
    1.1123    2.7387   -0.6114 H   0  0  0  0  0  0  0  0  0  0  0  0
    0.0141    3.8830   -2.8768 H   0  0  0  0  0  0  0  0  0  0  0  0
    2.9495    4.0503   -1.9676 H   0  0  0  0  0  0  0  0  0  0  0  0
    2.1514    5.1953   -3.0525 H   0  0  0  0  0  0  0  0  0  0  0  0
    1.6306    5.0621   -1.3624 H   0  0  0  0  0  0  0  0  0  0  0  0
    1.3206    3.2713   -5.0043 N   0  0  0  0  0  0  0  0  0  0  0  0
    1.7337    2.7079   -6.2683 C   0  0  0  0  0  0  0  0  0  0  0  0
    0.8631    4.1781   -5.0165 H   0  0  0  0  0  0  0  0  0  0  0  0
    2.7602    3.0308   -6.4963 H   0  0  0  0  0  0  0  0  0  0  0  0
    1.6995    1.6100   -6.2089 H   0  0  0  0  0  0  0  0  0  0  0  0
    1.0558    3.0534   -7.0627 H   0  0  0  0  0  0  0  0  0  0  0  0
 29 30  2  0  0  0  0
 27 29  1  0  0  0  0
 28 30  1  0  0  0  0
 24 27  2  0  0  0  0
 26 28  2  0  0  0  0
 22 23  2  0  0  0  0
 23 25  1  0  0  0  0
 22 24  1  0  0  0  0
 24 26  1  0  0  0  0
 21 22  1  0  0  0  0
 25 26  1  0  0  0  0
  1  3  1  0  0  0  0
  1  7  1  0  0  0  0
  1  2  2  0  0  0  0
 42 43  1  0  0  0  0
 43 51  1  0  0  0  0
 43 44  2  0  0  0  0
  8  9  1  0  0  0  0
  9 17  1  0  0  0  0
  9 10  2  0  0  0  0
 18 19  1  0  0  0  0
 19 41  1  0  0  0  0
 19 20  2  0  0  0  0
 42 45  1  0  0  0  0
  8 11  1  0  0  0  0
 51 52  1  0  0  0  0
 18 21  1  0  0  0  0
 41 42  1  0  0  0  0
  7  8  1  0  0  0  0
 17 18  1  0  0  0  0
 29 39  1  0  0  0  0
 30 40  1  0  0  0  0
 27 37  1  0  0  0  0
 28 38  1  0  0  0  0
 23 35  1  0  0  0  0
  3  4  1  0  0  0  0
  3  5  1  0  0  0  0
  3  6  1  0  0  0  0
 45 48  1  0  0  0  0
 45 49  1  0  0  0  0
 45 50  1  0  0  0  0
 11 14  1  0  0  0  0
 11 15  1  0  0  0  0
 11 16  1  0  0  0  0
 52 54  1  0  0  0  0
 52 55  1  0  0  0  0
 52 56  1  0  0  0  0
 21 33  1  0  0  0  0
 21 34  1  0  0  0  0
 42 47  1  0  0  0  0
  8 13  1  0  0  0  0
 18 32  1  0  0  0  0
 25 36  1  0  0  0  0
 51 53  1  0  0  0  0
  7 12  1  0  0  0  0
 41 46  1  0  0  0  0
 17 31  1  0  0  0  0
M  END
$$$$

  -OEChem-05262214473D

 56 57  0     1  0  0  0  0  0999 V2000
   -2.2900    0.3401    4.1553 C   0  0  0  0  0  0  0  0  0  0  0  0
   -1.3426   -0.2746    3.6796 O   0  0  0  0  0  0  0  0  0  0  0  0
   -2.7219    0.0577    5.5560 C   0  0  0  0  0  0  0  0  0  0  0  0
   -3.4815   -0.7386    5.6094 H   0  0  0  0  0  0  0  0  0  0  0  0
   -1.8906   -0.2899    6.1903 H   0  0  0  0  0  0  0  0  0  0  0  0
   -3.1599    0.9126    6.0956 H   0  0  0  0  0  0  0  0  0  0  0  0
   -3.0397    1.3125    3.5142 N   0  0  0  0  0  0  0  0  0  0  0  0
   -2.7928    1.7385    2.1618 C   0  0  2  0  0  0  0  0  0  0  0  0
   -1.4579    1.1532    1.7206 C   0  0  0  0  0  0  0  0  0  0  0  0
   -0.5858    0.8004    2.5118 O   0  0  0  0  0  0  0  0  0  0  0  0
   -2.7841    3.2553    2.0523 C   0  0  0  0  0  0  0  0  0  0  0  0
   -3.8047    1.7484    4.0260 H   0  0  0  0  0  0  0  0  0  0  0  0
   -3.5969    1.3201    1.5466 H   0  0  0  0  0  0  0  0  0  0  0  0
   -1.9850    3.6926    2.6620 H   0  0  0  0  0  0  0  0  0  0  0  0
   -2.6246    3.5776    1.0180 H   0  0  0  0  0  0  0  0  0  0  0  0
   -3.7342    3.6765    2.3981 H   0  0  0  0  0  0  0  0  0  0  0  0
   -1.3352    1.1101    0.3372 N   0  0  0  0  0  0  0  0  0  0  0  0
   -0.1579    0.6093   -0.3265 C   0  0  2  0  0  0  0  0  0  0  0  0
   -0.0332    1.3573   -1.6490 C   0  0  0  0  0  0  0  0  0  0  0  0
   -0.7757    1.1516   -2.6067 O   0  0  0  0  0  0  0  0  0  0  0  0
   -0.2313   -0.9019   -0.5738 C   0  0  0  0  0  0  0  0  0  0  0  0
   -0.1991   -1.7046    0.7039 C   0  0  0  0  0  0  0  0  0  0  0  0
   -1.2965   -2.2024    1.3677 C   0  0  0  0  0  0  0  0  0  0  0  0
    0.9598   -2.0846    1.4371 C   0  0  0  0  0  0  0  0  0  0  0  0
   -0.8510   -2.8703    2.4767 N   0  0  0  0  0  0  0  0  0  0  0  0
    0.5229   -2.8148    2.5444 C   0  0  0  0  0  0  0  0  0  0  0  0
    2.3427   -1.8767    1.2643 C   0  0  0  0  0  0  0  0  0  0  0  0
    1.4034   -3.3497    3.4915 C   0  0  0  0  0  0  0  0  0  0  0  0
    3.2351   -2.4059    2.2037 C   0  0  0  0  0  0  0  0  0  0  0  0
    2.7705   -3.1308    3.2994 C   0  0  0  0  0  0  0  0  0  0  0  0
   -2.1183    1.4068   -0.2401 H   0  0  0  0  0  0  0  0  0  0  0  0
    0.6946    0.8666    0.3131 H   0  0  0  0  0  0  0  0  0  0  0  0
    0.5895   -1.2201   -1.2308 H   0  0  0  0  0  0  0  0  0  0  0  0
   -1.1506   -1.1574   -1.1172 H   0  0  0  0  0  0  0  0  0  0  0  0
   -2.3544   -2.1406    1.1523 H   0  0  0  0  0  0  0  0  0  0  0  0
   -1.4442   -3.3369    3.1489 H   0  0  0  0  0  0  0  0  0  0  0  0
    2.7206   -1.3131    0.4161 H   0  0  0  0  0  0  0  0  0  0  0  0
    1.0427   -3.9149    4.3442 H   0  0  0  0  0  0  0  0  0  0  0  0
    4.3027   -2.2485    2.0761 H   0  0  0  0  0  0  0  0  0  0  0  0
    3.4814   -3.5329    4.0167 H   0  0  0  0  0  0  0  0  0  0  0  0
    0.9721    2.3136   -1.6123 N   0  0  0  0  0  0  0  0  0  0  0  0
    1.2855    3.1788   -2.7268 C   0  0  2  0  0  0  0  0  0  0  0  0
    1.4407    2.3096   -3.9677 C   0  0  0  0  0  0  0  0  0  0  0  0
    1.7074    1.1106   -3.9178 O   0  0  0  0  0  0  0  0  0  0  0  0
    2.5494    3.9828   -2.4647 C   0  0  0  0  0  0  0  0  0  0  0  0
    1.5148    2.4103   -0.7591 H   0  0  0  0  0  0  0  0  0  0  0  0
    0.4301    3.8509   -2.8557 H   0  0  0  0  0  0  0  0  0  0  0  0
    3.4172    3.3264   -2.3330 H   0  0  0  0  0  0  0  0  0  0  0  0
    2.7696    4.6586   -3.2978 H   0  0  0  0  0  0  0  0  0  0  0  0
    2.4469    4.5848   -1.5554 H   0  0  0  0  0  0  0  0  0  0  0  0
    1.2892    3.0394   -5.1384 N   0  0  0  0  0  0  0  0  0  0  0  0
    1.4036    2.4435   -6.4490 C   0  0  0  0  0  0  0  0  0  0  0  0
    1.0505    4.0253   -5.0852 H   0  0  0  0  0  0  0  0  0  0  0  0
    2.4399    2.5371   -6.8058 H   0  0  0  0  0  0  0  0  0  0  0  0
    1.1300    1.3795   -6.3930 H   0  0  0  0  0  0  0  0  0  0  0  0
    0.7277    2.9597   -7.1467 H   0  0  0  0  0  0  0  0  0  0  0  0
 29 30  2  0  0  0  0
 27 29  1  0  0  0  0
 28 30  1  0  0  0  0
 24 27  2  0  0  0  0
 26 28  2  0  0  0  0
 22 23  2  0  0  0  0
 23 25  1  0  0  0  0
 22 24  1  0  0  0  0
 24 26  1  0  0  0  0
 21 22  1  0  0  0  0
 25 26  1  0  0  0  0
  1  3  1  0  0  0  0
  1  7  1  0  0  0  0
  1  2  2  0  0  0  0
 42 43  1  0  0  0  0
 43 51  1  0  0  0  0
 43 44  2  0  0  0  0
  8  9  1  0  0  0  0
  9 17  1  0  0  0  0
  9 10  2  0  0  0  0
 18 19  1  0  0  0  0
 19 41  1  0  0  0  0
 19 20  2  0  0  0  0
 42 45  1  0  0  0  0
  8 11  1  0  0  0  0
 51 52  1  0  0  0  0
 18 21  1  0  0  0  0
 41 42  1  0  0  0  0
  7  8  1  0  0  0  0
 17 18  1  0  0  0  0
 29 39  1  0  0  0  0
 30 40  1  0  0  0  0
 27 37  1  0  0  0  0
 28 38  1  0  0  0  0
 23 35  1  0  0  0  0
  3  4  1  0  0  0  0
  3  5  1  0  0  0  0
  3  6  1  0  0  0  0
 45 48  1  0  0  0  0
 45 49  1  0  0  0  0
 45 50  1  0  0  0  0
 11 14  1  0  0  0  0
 11 15  1  0  0  0  0
 11 16  1  0  0  0  0
 52 54  1  0  0  0  0
 52 55  1  0  0  0  0
 52 56  1  0  0  0  0
 21 33  1  0  0  0  0
 21 34  1  0  0  0  0
 42 47  1  0  0  0  0
  8 13  1  0  0  0  0
 18 32  1  0  0  0  0
 25 36  1  0  0  0  0
 51 53  1  0  0  0  0
  7 12  1  0  0  0  0
 41 46  1  0  0  0  0
 17 31  1  0  0  0  0
M  END
$$$$

  -OEChem-05262214473D

 56 57  0     1  0  0  0  0  0999 V2000
   -2.2900    0.3401    4.1553 C   0  0  0  0  0  0  0  0  0  0  0  0
   -1.3426   -0.2746    3.6796 O   0  0  0  0  0  0  0  0  0  0  0  0
   -2.7219    0.0577    5.5560 C   0  0  0  0  0  0  0  0  0  0  0  0
   -3.4815   -0.7386    5.6094 H   0  0  0  0  0  0  0  0  0  0  0  0
   -1.8906   -0.2899    6.1903 H   0  0  0  0  0  0  0  0  0  0  0  0
   -3.1599    0.9126    6.0956 H   0  0  0  0  0  0  0  0  0  0  0  0
   -3.0397    1.3125    3.5142 N   0  0  0  0  0  0  0  0  0  0  0  0
   -2.7928    1.7385    2.1618 C   0  0  2  0  0  0  0  0  0  0  0  0
   -1.4579    1.1532    1.7206 C   0  0  0  0  0  0  0  0  0  0  0  0
   -0.5858    0.8004    2.5118 O   0  0  0  0  0  0  0  0  0  0  0  0
   -2.7841    3.2553    2.0523 C   0  0  0  0  0  0  0  0  0  0  0  0
   -3.8047    1.7484    4.0260 H   0  0  0  0  0  0  0  0  0  0  0  0
   -3.5969    1.3201    1.5466 H   0  0  0  0  0  0  0  0  0  0  0  0
   -1.9850    3.6926    2.6620 H   0  0  0  0  0  0  0  0  0  0  0  0
   -2.6246    3.5776    1.0180 H   0  0  0  0  0  0  0  0  0  0  0  0
   -3.7342    3.6765    2.3981 H   0  0  0  0  0  0  0  0  0  0  0  0
   -1.3352    1.1101    0.3372 N   0  0  0  0  0  0  0  0  0  0  0  0
   -0.1579    0.6093   -0.3265 C   0  0  2  0  0  0  0  0  0  0  0  0
   -0.0332    1.3573   -1.6490 C   0  0  0  0  0  0  0  0  0  0  0  0
   -0.9164    1.3568   -2.5039 O   0  0  0  0  0  0  0  0  0  0  0  0
   -0.2313   -0.9019   -0.5738 C   0  0  0  0  0  0  0  0  0  0  0  0
   -0.1991   -1.7046    0.7039 C   0  0  0  0  0  0  0  0  0  0  0  0
   -1.2965   -2.2024    1.3677 C   0  0  0  0  0  0  0  0  0  0  0  0
    0.9598   -2.0846    1.4371 C   0  0  0  0  0  0  0  0  0  0  0  0
   -0.8510   -2.8703    2.4767 N   0  0  0  0  0  0  0  0  0  0  0  0
    0.5229   -2.8148    2.5444 C   0  0  0  0  0  0  0  0  0  0  0  0
    2.3427   -1.8767    1.2643 C   0  0  0  0  0  0  0  0  0  0  0  0
    1.4034   -3.3497    3.4915 C   0  0  0  0  0  0  0  0  0  0  0  0
    3.2351   -2.4059    2.2037 C   0  0  0  0  0  0  0  0  0  0  0  0
    2.7705   -3.1308    3.2994 C   0  0  0  0  0  0  0  0  0  0  0  0
   -2.1183    1.4068   -0.2401 H   0  0  0  0  0  0  0  0  0  0  0  0
    0.6946    0.8666    0.3131 H   0  0  0  0  0  0  0  0  0  0  0  0
    0.5895   -1.2201   -1.2308 H   0  0  0  0  0  0  0  0  0  0  0  0
   -1.1506   -1.1574   -1.1172 H   0  0  0  0  0  0  0  0  0  0  0  0
   -2.3544   -2.1406    1.1523 H   0  0  0  0  0  0  0  0  0  0  0  0
   -1.4442   -3.3369    3.1489 H   0  0  0  0  0  0  0  0  0  0  0  0
    2.7206   -1.3131    0.4161 H   0  0  0  0  0  0  0  0  0  0  0  0
    1.0427   -3.9149    4.3442 H   0  0  0  0  0  0  0  0  0  0  0  0
    4.3027   -2.2485    2.0761 H   0  0  0  0  0  0  0  0  0  0  0  0
    3.4814   -3.5329    4.0167 H   0  0  0  0  0  0  0  0  0  0  0  0
    1.1587    2.0632   -1.7363 N   0  0  0  0  0  0  0  0  0  0  0  0
    1.5181    2.8758   -2.8762 C   0  0  2  0  0  0  0  0  0  0  0  0
    1.3172    2.0387   -4.1325 C   0  0  0  0  0  0  0  0  0  0  0  0
    1.3101    0.8095   -4.1256 O   0  0  0  0  0  0  0  0  0  0  0  0
    2.9535    3.3677   -2.7745 C   0  0  0  0  0  0  0  0  0  0  0  0
    1.8112    2.0059   -0.9599 H   0  0  0  0  0  0  0  0  0  0  0  0
    0.8274    3.7261   -2.8888 H   0  0  0  0  0  0  0  0  0  0  0  0
    3.6601    2.5298   -2.7606 H   0  0  0  0  0  0  0  0  0  0  0  0
    3.2151    4.0065   -3.6245 H   0  0  0  0  0  0  0  0  0  0  0  0
    3.1037    3.9445   -1.8555 H   0  0  0  0  0  0  0  0  0  0  0  0
    1.1898    2.8253   -5.2689 N   0  0  0  0  0  0  0  0  0  0  0  0
    1.0024    2.2660   -6.5872 C   0  0  0  0  0  0  0  0  0  0  0  0
    1.1884    3.8370   -5.1787 H   0  0  0  0  0  0  0  0  0  0  0  0
    1.9804    2.1387   -7.0744 H   0  0  0  0  0  0  0  0  0  0  0  0
    0.5047    1.2886   -6.5034 H   0  0  0  0  0  0  0  0  0  0  0  0
    0.3791    2.9446   -7.1881 H   0  0  0  0  0  0  0  0  0  0  0  0
 29 30  2  0  0  0  0
 27 29  1  0  0  0  0
 28 30  1  0  0  0  0
 24 27  2  0  0  0  0
 26 28  2  0  0  0  0
 22 23  2  0  0  0  0
 23 25  1  0  0  0  0
 22 24  1  0  0  0  0
 24 26  1  0  0  0  0
 21 22  1  0  0  0  0
 25 26  1  0  0  0  0
  1  3  1  0  0  0  0
  1  7  1  0  0  0  0
  1  2  2  0  0  0  0
 42 43  1  0  0  0  0
 43 51  1  0  0  0  0
 43 44  2  0  0  0  0
  8  9  1  0  0  0  0
  9 17  1  0  0  0  0
  9 10  2  0  0  0  0
 18 19  1  0  0  0  0
 19 41  1  0  0  0  0
 19 20  2  0  0  0  0
 42 45  1  0  0  0  0
  8 11  1  0  0  0  0
 51 52  1  0  0  0  0
 18 21  1  0  0  0  0
 41 42  1  0  0  0  0
  7  8  1  0  0  0  0
 17 18  1  0  0  0  0
 29 39  1  0  0  0  0
 30 40  1  0  0  0  0
 27 37  1  0  0  0  0
 28 38  1  0  0  0  0
 23 35  1  0  0  0  0
  3  4  1  0  0  0  0
  3  5  1  0  0  0  0
  3  6  1  0  0  0  0
 45 48  1  0  0  0  0
 45 49  1  0  0  0  0
 45 50  1  0  0  0  0
 11 14  1  0  0  0  0
 11 15  1  0  0  0  0
 11 16  1  0  0  0  0
 52 54  1  0  0  0  0
 52 55  1  0  0  0  0
 52 56  1  0  0  0  0
 21 33  1  0  0  0  0
 21 34  1  0  0  0  0
 42 47  1  0  0  0  0
  8 13  1  0  0  0  0
 18 32  1  0  0  0  0
 25 36  1  0  0  0  0
 51 53  1  0  0  0  0
  7 12  1  0  0  0  0
 41 46  1  0  0  0  0
 17 31  1  0  0  0  0
M  END
$$$$

  -OEChem-05262214473D

 56 57  0     1  0  0  0  0  0999 V2000
   -2.2900    0.3401    4.1553 C   0  0  0  0  0  0  0  0  0  0  0  0
   -1.3426   -0.2746    3.6796 O   0  0  0  0  0  0  0  0  0  0  0  0
   -2.7219    0.0577    5.5560 C   0  0  0  0  0  0  0  0  0  0  0  0
   -3.4815   -0.7386    5.6094 H   0  0  0  0  0  0  0  0  0  0  0  0
   -1.8906   -0.2899    6.1903 H   0  0  0  0  0  0  0  0  0  0  0  0
   -3.1599    0.9126    6.0956 H   0  0  0  0  0  0  0  0  0  0  0  0
   -3.0397    1.3125    3.5142 N   0  0  0  0  0  0  0  0  0  0  0  0
   -2.7928    1.7385    2.1618 C   0  0  2  0  0  0  0  0  0  0  0  0
   -1.4579    1.1532    1.7206 C   0  0  0  0  0  0  0  0  0  0  0  0
   -0.5858    0.8004    2.5118 O   0  0  0  0  0  0  0  0  0  0  0  0
   -2.7841    3.2553    2.0523 C   0  0  0  0  0  0  0  0  0  0  0  0
   -3.8047    1.7484    4.0260 H   0  0  0  0  0  0  0  0  0  0  0  0
   -3.5969    1.3201    1.5466 H   0  0  0  0  0  0  0  0  0  0  0  0
   -1.9850    3.6926    2.6620 H   0  0  0  0  0  0  0  0  0  0  0  0
   -2.6246    3.5776    1.0180 H   0  0  0  0  0  0  0  0  0  0  0  0
   -3.7342    3.6765    2.3981 H   0  0  0  0  0  0  0  0  0  0  0  0
   -1.3352    1.1101    0.3372 N   0  0  0  0  0  0  0  0  0  0  0  0
   -0.1579    0.6093   -0.3265 C   0  0  2  0  0  0  0  0  0  0  0  0
   -0.0332    1.3573   -1.6490 C   0  0  0  0  0  0  0  0  0  0  0  0
   -0.9931    1.5844   -2.3824 O   0  0  0  0  0  0  0  0  0  0  0  0
   -0.2313   -0.9019   -0.5738 C   0  0  0  0  0  0  0  0  0  0  0  0
   -0.1991   -1.7046    0.7039 C   0  0  0  0  0  0  0  0  0  0  0  0
   -1.2965   -2.2024    1.3677 C   0  0  0  0  0  0  0  0  0  0  0  0
    0.9598   -2.0846    1.4371 C   0  0  0  0  0  0  0  0  0  0  0  0
   -0.8510   -2.8703    2.4767 N   0  0  0  0  0  0  0  0  0  0  0  0
    0.5229   -2.8148    2.5444 C   0  0  0  0  0  0  0  0  0  0  0  0
    2.3427   -1.8767    1.2643 C   0  0  0  0  0  0  0  0  0  0  0  0
    1.4034   -3.3497    3.4915 C   0  0  0  0  0  0  0  0  0  0  0  0
    3.2351   -2.4059    2.2037 C   0  0  0  0  0  0  0  0  0  0  0  0
    2.7705   -3.1308    3.2994 C   0  0  0  0  0  0  0  0  0  0  0  0
   -2.1183    1.4068   -0.2401 H   0  0  0  0  0  0  0  0  0  0  0  0
    0.6946    0.8666    0.3131 H   0  0  0  0  0  0  0  0  0  0  0  0
    0.5895   -1.2201   -1.2308 H   0  0  0  0  0  0  0  0  0  0  0  0
   -1.1506   -1.1574   -1.1172 H   0  0  0  0  0  0  0  0  0  0  0  0
   -2.3544   -2.1406    1.1523 H   0  0  0  0  0  0  0  0  0  0  0  0
   -1.4442   -3.3369    3.1489 H   0  0  0  0  0  0  0  0  0  0  0  0
    2.7206   -1.3131    0.4161 H   0  0  0  0  0  0  0  0  0  0  0  0
    1.0427   -3.9149    4.3442 H   0  0  0  0  0  0  0  0  0  0  0  0
    4.3027   -2.2485    2.0761 H   0  0  0  0  0  0  0  0  0  0  0  0
    3.4814   -3.5329    4.0167 H   0  0  0  0  0  0  0  0  0  0  0  0
    1.2669    1.7821   -1.8851 N   0  0  0  0  0  0  0  0  0  0  0  0
    1.6557    2.5342   -3.0564 C   0  0  2  0  0  0  0  0  0  0  0  0
    1.1160    1.8084   -4.2818 C   0  0  0  0  0  0  0  0  0  0  0  0
    0.8324    0.6123   -4.2822 O   0  0  0  0  0  0  0  0  0  0  0  0
    3.1663    2.6893   -3.1381 C   0  0  0  0  0  0  0  0  0  0  0  0
    1.9811    1.5530   -1.2001 H   0  0  0  0  0  0  0  0  0  0  0  0
    1.1790    3.5170   -2.9739 H   0  0  0  0  0  0  0  0  0  0  0  0
    3.6615    1.7150   -3.2213 H   0  0  0  0  0  0  0  0  0  0  0  0
    3.4576    3.2835   -4.0106 H   0  0  0  0  0  0  0  0  0  0  0  0
    3.5562    3.1849   -2.2424 H   0  0  0  0  0  0  0  0  0  0  0  0
    1.0291    2.6436   -5.3868 N   0  0  0  0  0  0  0  0  0  0  0  0
    0.5575    2.1876   -6.6735 C   0  0  0  0  0  0  0  0  0  0  0  0
    1.2676    3.6262   -5.2905 H   0  0  0  0  0  0  0  0  0  0  0  0
    1.4129    1.8627   -7.2841 H   0  0  0  0  0  0  0  0  0  0  0  0
   -0.1337    1.3436   -6.5325 H   0  0  0  0  0  0  0  0  0  0  0  0
    0.0337    3.0091   -7.1842 H   0  0  0  0  0  0  0  0  0  0  0  0
 29 30  2  0  0  0  0
 27 29  1  0  0  0  0
 28 30  1  0  0  0  0
 24 27  2  0  0  0  0
 26 28  2  0  0  0  0
 22 23  2  0  0  0  0
 23 25  1  0  0  0  0
 22 24  1  0  0  0  0
 24 26  1  0  0  0  0
 21 22  1  0  0  0  0
 25 26  1  0  0  0  0
  1  3  1  0  0  0  0
  1  7  1  0  0  0  0
  1  2  2  0  0  0  0
 42 43  1  0  0  0  0
 43 51  1  0  0  0  0
 43 44  2  0  0  0  0
  8  9  1  0  0  0  0
  9 17  1  0  0  0  0
  9 10  2  0  0  0  0
 18 19  1  0  0  0  0
 19 41  1  0  0  0  0
 19 20  2  0  0  0  0
 42 45  1  0  0  0  0
  8 11  1  0  0  0  0
 51 52  1  0  0  0  0
 18 21  1  0  0  0  0
 41 42  1  0  0  0  0
  7  8  1  0  0  0  0
 17 18  1  0  0  0  0
 29 39  1  0  0  0  0
 30 40  1  0  0  0  0
 27 37  1  0  0  0  0
 28 38  1  0  0  0  0
 23 35  1  0  0  0  0
  3  4  1  0  0  0  0
  3  5  1  0  0  0  0
  3  6  1  0  0  0  0
 45 48  1  0  0  0  0
 45 49  1  0  0  0  0
 45 50  1  0  0  0  0
 11 14  1  0  0  0  0
 11 15  1  0  0  0  0
 11 16  1  0  0  0  0
 52 54  1  0  0  0  0
 52 55  1  0  0  0  0
 52 56  1  0  0  0  0
 21 33  1  0  0  0  0
 21 34  1  0  0  0  0
 42 47  1  0  0  0  0
  8 13  1  0  0  0  0
 18 32  1  0  0  0  0
 25 36  1  0  0  0  0
 51 53  1  0  0  0  0
  7 12  1  0  0  0  0
 41 46  1  0  0  0  0
 17 31  1  0  0  0  0
M  END
$$$$

  -OEChem-05262214473D

 56 57  0     1  0  0  0  0  0999 V2000
   -2.2900    0.3401    4.1553 C   0  0  0  0  0  0  0  0  0  0  0  0
   -1.3426   -0.2746    3.6796 O   0  0  0  0  0  0  0  0  0  0  0  0
   -2.7219    0.0577    5.5560 C   0  0  0  0  0  0  0  0  0  0  0  0
   -3.4815   -0.7386    5.6094 H   0  0  0  0  0  0  0  0  0  0  0  0
   -1.8906   -0.2899    6.1903 H   0  0  0  0  0  0  0  0  0  0  0  0
   -3.1599    0.9126    6.0956 H   0  0  0  0  0  0  0  0  0  0  0  0
   -3.0397    1.3125    3.5142 N   0  0  0  0  0  0  0  0  0  0  0  0
   -2.7928    1.7385    2.1618 C   0  0  2  0  0  0  0  0  0  0  0  0
   -1.4579    1.1532    1.7206 C   0  0  0  0  0  0  0  0  0  0  0  0
   -0.5858    0.8004    2.5118 O   0  0  0  0  0  0  0  0  0  0  0  0
   -2.7841    3.2553    2.0523 C   0  0  0  0  0  0  0  0  0  0  0  0
   -3.8047    1.7484    4.0260 H   0  0  0  0  0  0  0  0  0  0  0  0
   -3.5969    1.3201    1.5466 H   0  0  0  0  0  0  0  0  0  0  0  0
   -1.9850    3.6926    2.6620 H   0  0  0  0  0  0  0  0  0  0  0  0
   -2.6246    3.5776    1.0180 H   0  0  0  0  0  0  0  0  0  0  0  0
   -3.7342    3.6765    2.3981 H   0  0  0  0  0  0  0  0  0  0  0  0
   -1.3352    1.1101    0.3372 N   0  0  0  0  0  0  0  0  0  0  0  0
   -0.1579    0.6093   -0.3265 C   0  0  2  0  0  0  0  0  0  0  0  0
   -0.0332    1.3573   -1.6490 C   0  0  0  0  0  0  0  0  0  0  0  0
   -1.0006    1.8189   -2.2505 O   0  0  0  0  0  0  0  0  0  0  0  0
   -0.2313   -0.9019   -0.5738 C   0  0  0  0  0  0  0  0  0  0  0  0
   -0.1991   -1.7046    0.7039 C   0  0  0  0  0  0  0  0  0  0  0  0
   -1.2965   -2.2024    1.3677 C   0  0  0  0  0  0  0  0  0  0  0  0
    0.9598   -2.0846    1.4371 C   0  0  0  0  0  0  0  0  0  0  0  0
   -0.8510   -2.8703    2.4767 N   0  0  0  0  0  0  0  0  0  0  0  0
    0.5229   -2.8148    2.5444 C   0  0  0  0  0  0  0  0  0  0  0  0
    2.3427   -1.8767    1.2643 C   0  0  0  0  0  0  0  0  0  0  0  0
    1.4034   -3.3497    3.4915 C   0  0  0  0  0  0  0  0  0  0  0  0
    3.2351   -2.4059    2.2037 C   0  0  0  0  0  0  0  0  0  0  0  0
    2.7705   -3.1308    3.2994 C   0  0  0  0  0  0  0  0  0  0  0  0
   -2.1183    1.4068   -0.2401 H   0  0  0  0  0  0  0  0  0  0  0  0
    0.6946    0.8666    0.3131 H   0  0  0  0  0  0  0  0  0  0  0  0
    0.5895   -1.2201   -1.2308 H   0  0  0  0  0  0  0  0  0  0  0  0
   -1.1506   -1.1574   -1.1172 H   0  0  0  0  0  0  0  0  0  0  0  0
   -2.3544   -2.1406    1.1523 H   0  0  0  0  0  0  0  0  0  0  0  0
   -1.4442   -3.3369    3.1489 H   0  0  0  0  0  0  0  0  0  0  0  0
    2.7206   -1.3131    0.4161 H   0  0  0  0  0  0  0  0  0  0  0  0
    1.0427   -3.9149    4.3442 H   0  0  0  0  0  0  0  0  0  0  0  0
    4.3027   -2.2485    2.0761 H   0  0  0  0  0  0  0  0  0  0  0  0
    3.4814   -3.5329    4.0167 H   0  0  0  0  0  0  0  0  0  0  0  0
    1.2895    1.4894   -2.0485 N   0  0  0  0  0  0  0  0  0  0  0  0
    1.6891    2.1770   -3.2553 C   0  0  2  0  0  0  0  0  0  0  0  0
    0.8511    1.6342   -4.4053 C   0  0  0  0  0  0  0  0  0  0  0  0
    0.3068    0.5324   -4.3769 O   0  0  0  0  0  0  0  0  0  0  0  0
    3.1735    1.9940   -3.5307 C   0  0  0  0  0  0  0  0  0  0  0  0
    2.0130    1.0824   -1.4632 H   0  0  0  0  0  0  0  0  0  0  0  0
    1.4608    3.2379   -3.1052 H   0  0  0  0  0  0  0  0  0  0  0  0
    3.4214    0.9373   -3.6837 H   0  0  0  0  0  0  0  0  0  0  0  0
    3.4804    2.5390   -4.4295 H   0  0  0  0  0  0  0  0  0  0  0  0
    3.7737    2.3578   -2.6897 H   0  0  0  0  0  0  0  0  0  0  0  0
    0.8181    2.5066   -5.4842 N   0  0  0  0  0  0  0  0  0  0  0  0
    0.0992    2.2135   -6.7021 C   0  0  0  0  0  0  0  0  0  0  0  0
    1.2825    3.4072   -5.4130 H   0  0  0  0  0  0  0  0  0  0  0  0
    0.7762    1.7280   -7.4203 H   0  0  0  0  0  0  0  0  0  0  0  0
   -0.7418    1.5406   -6.4784 H   0  0  0  0  0  0  0  0  0  0  0  0
   -0.2849    3.1489   -7.1351 H   0  0  0  0  0  0  0  0  0  0  0  0
 29 30  2  0  0  0  0
 27 29  1  0  0  0  0
 28 30  1  0  0  0  0
 24 27  2  0  0  0  0
 26 28  2  0  0  0  0
 22 23  2  0  0  0  0
 23 25  1  0  0  0  0
 22 24  1  0  0  0  0
 24 26  1  0  0  0  0
 21 22  1  0  0  0  0
 25 26  1  0  0  0  0
  1  3  1  0  0  0  0
  1  7  1  0  0  0  0
  1  2  2  0  0  0  0
 42 43  1  0  0  0  0
 43 51  1  0  0  0  0
 43 44  2  0  0  0  0
  8  9  1  0  0  0  0
  9 17  1  0  0  0  0
  9 10  2  0  0  0  0
 18 19  1  0  0  0  0
 19 41  1  0  0  0  0
 19 20  2  0  0  0  0
 42 45  1  0  0  0  0
  8 11  1  0  0  0  0
 51 52  1  0  0  0  0
 18 21  1  0  0  0  0
 41 42  1  0  0  0  0
  7  8  1  0  0  0  0
 17 18  1  0  0  0  0
 29 39  1  0  0  0  0
 30 40  1  0  0  0  0
 27 37  1  0  0  0  0
 28 38  1  0  0  0  0
 23 35  1  0  0  0  0
  3  4  1  0  0  0  0
  3  5  1  0  0  0  0
  3  6  1  0  0  0  0
 45 48  1  0  0  0  0
 45 49  1  0  0  0  0
 45 50  1  0  0  0  0
 11 14  1  0  0  0  0
 11 15  1  0  0  0  0
 11 16  1  0  0  0  0
 52 54  1  0  0  0  0
 52 55  1  0  0  0  0
 52 56  1  0  0  0  0
 21 33  1  0  0  0  0
 21 34  1  0  0  0  0
 42 47  1  0  0  0  0
  8 13  1  0  0  0  0
 18 32  1  0  0  0  0
 25 36  1  0  0  0  0
 51 53  1  0  0  0  0
  7 12  1  0  0  0  0
 41 46  1  0  0  0  0
 17 31  1  0  0  0  0
M  END
$$$$

  -OEChem-05262214473D

 56 57  0     1  0  0  0  0  0999 V2000
   -2.2900    0.3401    4.1553 C   0  0  0  0  0  0  0  0  0  0  0  0
   -1.3426   -0.2746    3.6796 O   0  0  0  0  0  0  0  0  0  0  0  0
   -2.7219    0.0577    5.5560 C   0  0  0  0  0  0  0  0  0  0  0  0
   -3.4815   -0.7386    5.6094 H   0  0  0  0  0  0  0  0  0  0  0  0
   -1.8906   -0.2899    6.1903 H   0  0  0  0  0  0  0  0  0  0  0  0
   -3.1599    0.9126    6.0956 H   0  0  0  0  0  0  0  0  0  0  0  0
   -3.0397    1.3125    3.5142 N   0  0  0  0  0  0  0  0  0  0  0  0
   -2.7928    1.7385    2.1618 C   0  0  2  0  0  0  0  0  0  0  0  0
   -1.4579    1.1532    1.7206 C   0  0  0  0  0  0  0  0  0  0  0  0
   -0.5858    0.8004    2.5118 O   0  0  0  0  0  0  0  0  0  0  0  0
   -2.7841    3.2553    2.0523 C   0  0  0  0  0  0  0  0  0  0  0  0
   -3.8047    1.7484    4.0260 H   0  0  0  0  0  0  0  0  0  0  0  0
   -3.5969    1.3201    1.5466 H   0  0  0  0  0  0  0  0  0  0  0  0
   -1.9850    3.6926    2.6620 H   0  0  0  0  0  0  0  0  0  0  0  0
   -2.6246    3.5776    1.0180 H   0  0  0  0  0  0  0  0  0  0  0  0
   -3.7342    3.6765    2.3981 H   0  0  0  0  0  0  0  0  0  0  0  0
   -1.3352    1.1101    0.3372 N   0  0  0  0  0  0  0  0  0  0  0  0
   -0.1579    0.6093   -0.3265 C   0  0  2  0  0  0  0  0  0  0  0  0
   -0.0332    1.3573   -1.6490 C   0  0  0  0  0  0  0  0  0  0  0  0
   -0.9386    2.0443   -2.1172 O   0  0  0  0  0  0  0  0  0  0  0  0
   -0.2313   -0.9019   -0.5738 C   0  0  0  0  0  0  0  0  0  0  0  0
   -0.1991   -1.7046    0.7039 C   0  0  0  0  0  0  0  0  0  0  0  0
   -1.2965   -2.2024    1.3677 C   0  0  0  0  0  0  0  0  0  0  0  0
    0.9598   -2.0846    1.4371 C   0  0  0  0  0  0  0  0  0  0  0  0
   -0.8510   -2.8703    2.4767 N   0  0  0  0  0  0  0  0  0  0  0  0
    0.5229   -2.8148    2.5444 C   0  0  0  0  0  0  0  0  0  0  0  0
    2.3427   -1.8767    1.2643 C   0  0  0  0  0  0  0  0  0  0  0  0
    1.4034   -3.3497    3.4915 C   0  0  0  0  0  0  0  0  0  0  0  0
    3.2351   -2.4059    2.2037 C   0  0  0  0  0  0  0  0  0  0  0  0
    2.7705   -3.1308    3.2994 C   0  0  0  0  0  0  0  0  0  0  0  0
   -2.1183    1.4068   -0.2401 H   0  0  0  0  0  0  0  0  0  0  0  0
    0.6946    0.8666    0.3131 H   0  0  0  0  0  0  0  0  0  0  0  0
    0.5895   -1.2201   -1.2308 H   0  0  0  0  0  0  0  0  0  0  0  0
   -1.1506   -1.1574   -1.1172 H   0  0  0  0  0  0  0  0  0  0  0  0
   -2.3544   -2.1406    1.1523 H   0  0  0  0  0  0  0  0  0  0  0  0
   -1.4442   -3.3369    3.1489 H   0  0  0  0  0  0  0  0  0  0  0  0
    2.7206   -1.3131    0.4161 H   0  0  0  0  0  0  0  0  0  0  0  0
    1.0427   -3.9149    4.3442 H   0  0  0  0  0  0  0  0  0  0  0  0
    4.3027   -2.2485    2.0761 H   0  0  0  0  0  0  0  0  0  0  0  0
    3.4814   -3.5329    4.0167 H   0  0  0  0  0  0  0  0  0  0  0  0
    1.2248    1.2051   -2.2154 N   0  0  0  0  0  0  0  0  0  0  0  0
    1.6159    1.8288   -3.4591 C   0  0  2  0  0  0  0  0  0  0  0  0
    0.5404    1.5280   -4.4946 C   0  0  0  0  0  0  0  0  0  0  0  0
   -0.2308    0.5752   -4.4034 O   0  0  0  0  0  0  0  0  0  0  0  0
    2.9744    1.3291   -3.9256 C   0  0  0  0  0  0  0  0  0  0  0  0
    1.9048    0.6262   -1.7314 H   0  0  0  0  0  0  0  0  0  0  0  0
    1.6536    2.9078   -3.2737 H   0  0  0  0  0  0  0  0  0  0  0  0
    2.9561    0.2498   -4.1164 H   0  0  0  0  0  0  0  0  0  0  0  0
    3.2820    1.8235   -4.8529 H   0  0  0  0  0  0  0  0  0  0  0  0
    3.7412    1.5195   -3.1669 H   0  0  0  0  0  0  0  0  0  0  0  0
    0.5712    2.4237   -5.5543 N   0  0  0  0  0  0  0  0  0  0  0  0
   -0.3413    2.3421   -6.6709 C   0  0  0  0  0  0  0  0  0  0  0  0
    1.2322    3.1948   -5.5378 H   0  0  0  0  0  0  0  0  0  0  0  0
    0.1136    1.7437   -7.4739 H   0  0  0  0  0  0  0  0  0  0  0  0
   -1.2779    1.8663   -6.3448 H   0  0  0  0  0  0  0  0  0  0  0  0
   -0.5550    3.3545   -7.0443 H   0  0  0  0  0  0  0  0  0  0  0  0
 29 30  2  0  0  0  0
 27 29  1  0  0  0  0
 28 30  1  0  0  0  0
 24 27  2  0  0  0  0
 26 28  2  0  0  0  0
 22 23  2  0  0  0  0
 23 25  1  0  0  0  0
 22 24  1  0  0  0  0
 24 26  1  0  0  0  0
 21 22  1  0  0  0  0
 25 26  1  0  0  0  0
  1  3  1  0  0  0  0
  1  7  1  0  0  0  0
  1  2  2  0  0  0  0
 42 43  1  0  0  0  0
 43 51  1  0  0  0  0
 43 44  2  0  0  0  0
  8  9  1  0  0  0  0
  9 17  1  0  0  0  0
  9 10  2  0  0  0  0
 18 19  1  0  0  0  0
 19 41  1  0  0  0  0
 19 20  2  0  0  0  0
 42 45  1  0  0  0  0
  8 11  1  0  0  0  0
 51 52  1  0  0  0  0
 18 21  1  0  0  0  0
 41 42  1  0  0  0  0
  7  8  1  0  0  0  0
 17 18  1  0  0  0  0
 29 39  1  0  0  0  0
 30 40  1  0  0  0  0
 27 37  1  0  0  0  0
 28 38  1  0  0  0  0
 23 35  1  0  0  0  0
  3  4  1  0  0  0  0
  3  5  1  0  0  0  0
  3  6  1  0  0  0  0
 45 48  1  0  0  0  0
 45 49  1  0  0  0  0
 45 50  1  0  0  0  0
 11 14  1  0  0  0  0
 11 15  1  0  0  0  0
 11 16  1  0  0  0  0
 52 54  1  0  0  0  0
 52 55  1  0  0  0  0
 52 56  1  0  0  0  0
 21 33  1  0  0  0  0
 21 34  1  0  0  0  0
 42 47  1  0  0  0  0
  8 13  1  0  0  0  0
 18 32  1  0  0  0  0
 25 36  1  0  0  0  0
 51 53  1  0  0  0  0
  7 12  1  0  0  0  0
 41 46  1  0  0  0  0
 17 31  1  0  0  0  0
M  END
$$$$

  -OEChem-05262214473D

 56 57  0     1  0  0  0  0  0999 V2000
   -2.2900    0.3401    4.1553 C   0  0  0  0  0  0  0  0  0  0  0  0
   -1.3426   -0.2746    3.6796 O   0  0  0  0  0  0  0  0  0  0  0  0
   -2.7219    0.0577    5.5560 C   0  0  0  0  0  0  0  0  0  0  0  0
   -3.4815   -0.7386    5.6094 H   0  0  0  0  0  0  0  0  0  0  0  0
   -1.8906   -0.2899    6.1903 H   0  0  0  0  0  0  0  0  0  0  0  0
   -3.1599    0.9126    6.0956 H   0  0  0  0  0  0  0  0  0  0  0  0
   -3.0397    1.3125    3.5142 N   0  0  0  0  0  0  0  0  0  0  0  0
   -2.7928    1.7385    2.1618 C   0  0  2  0  0  0  0  0  0  0  0  0
   -1.4579    1.1532    1.7206 C   0  0  0  0  0  0  0  0  0  0  0  0
   -0.5858    0.8004    2.5118 O   0  0  0  0  0  0  0  0  0  0  0  0
   -2.7841    3.2553    2.0523 C   0  0  0  0  0  0  0  0  0  0  0  0
   -3.8047    1.7484    4.0260 H   0  0  0  0  0  0  0  0  0  0  0  0
   -3.5969    1.3201    1.5466 H   0  0  0  0  0  0  0  0  0  0  0  0
   -1.9850    3.6926    2.6620 H   0  0  0  0  0  0  0  0  0  0  0  0
   -2.6246    3.5776    1.0180 H   0  0  0  0  0  0  0  0  0  0  0  0
   -3.7342    3.6765    2.3981 H   0  0  0  0  0  0  0  0  0  0  0  0
   -1.3352    1.1101    0.3372 N   0  0  0  0  0  0  0  0  0  0  0  0
   -0.1579    0.6093   -0.3265 C   0  0  2  0  0  0  0  0  0  0  0  0
    0.1832    1.5912   -1.4417 C   0  0  0  0  0  0  0  0  0  0  0  0
   -0.4534    2.6234   -1.6424 O   0  0  0  0  0  0  0  0  0  0  0  0
   -0.3705   -0.7962   -0.9005 C   0  0  0  0  0  0  0  0  0  0  0  0
   -0.5579   -1.8421    0.1712 C   0  0  0  0  0  0  0  0  0  0  0  0
   -1.7656   -2.3204    0.6247 C   0  0  0  0  0  0  0  0  0  0  0  0
    0.4709   -2.5111    0.8917 C   0  0  0  0  0  0  0  0  0  0  0  0
   -1.5122   -3.2541    1.5934 N   0  0  0  0  0  0  0  0  0  0  0  0
   -0.1547   -3.3912    1.7773 C   0  0  0  0  0  0  0  0  0  0  0  0
    1.8786   -2.4521    0.8753 C   0  0  0  0  0  0  0  0  0  0  0  0
    0.5599   -4.2186    2.6509 C   0  0  0  0  0  0  0  0  0  0  0  0
    2.6065   -3.2739    1.7435 C   0  0  0  0  0  0  0  0  0  0  0  0
    1.9552   -4.1428    2.6168 C   0  0  0  0  0  0  0  0  0  0  0  0
   -2.1183    1.4068   -0.2401 H   0  0  0  0  0  0  0  0  0  0  0  0
    0.6474    0.6173    0.4175 H   0  0  0  0  0  0  0  0  0  0  0  0
    0.4736   -1.0754   -1.5456 H   0  0  0  0  0  0  0  0  0  0  0  0
   -1.2515   -0.8137   -1.5557 H   0  0  0  0  0  0  0  0  0  0  0  0
   -2.7826   -2.0798    0.3468 H   0  0  0  0  0  0  0  0  0  0  0  0
   -2.2188   -3.7688    2.1006 H   0  0  0  0  0  0  0  0  0  0  0  0
    2.4011   -1.7794    0.2012 H   0  0  0  0  0  0  0  0  0  0  0  0
    0.0538   -4.8961    3.3302 H   0  0  0  0  0  0  0  0  0  0  0  0
    3.6924   -3.2325    1.7358 H   0  0  0  0  0  0  0  0  0  0  0  0
    2.5403   -4.7722    3.2824 H   0  0  0  0  0  0  0  0  0  0  0  0
    1.3109    1.2010   -2.1506 N   0  0  0  0  0  0  0  0  0  0  0  0
    1.8639    1.9654   -3.2454 C   0  0  2  0  0  0  0  0  0  0  0  0
    0.7315    2.2924   -4.2099 C   0  0  0  0  0  0  0  0  0  0  0  0
   -0.3088    1.6402   -4.2689 O   0  0  0  0  0  0  0  0  0  0  0  0
    2.9737    1.2003   -3.9495 C   0  0  0  0  0  0  0  0  0  0  0  0
    1.7706    0.3345   -1.8867 H   0  0  0  0  0  0  0  0  0  0  0  0
    2.2581    2.8930   -2.8162 H   0  0  0  0  0  0  0  0  0  0  0  0
    2.5977    0.2678   -4.3860 H   0  0  0  0  0  0  0  0  0  0  0  0
    3.4109    1.7922   -4.7605 H   0  0  0  0  0  0  0  0  0  0  0  0
    3.7735    0.9401   -3.2478 H   0  0  0  0  0  0  0  0  0  0  0  0
    1.0371    3.3719   -5.0269 N   0  0  0  0  0  0  0  0  0  0  0  0
    0.1294    3.8687   -6.0345 C   0  0  0  0  0  0  0  0  0  0  0  0
    1.9154    3.8650   -4.8956 H   0  0  0  0  0  0  0  0  0  0  0  0
    0.3479    3.3831   -6.9971 H   0  0  0  0  0  0  0  0  0  0  0  0
   -0.9058    3.6448   -5.7377 H   0  0  0  0  0  0  0  0  0  0  0  0
    0.2546    4.9568   -6.1362 H   0  0  0  0  0  0  0  0  0  0  0  0
 29 30  2  0  0  0  0
 27 29  1  0  0  0  0
 28 30  1  0  0  0  0
 24 27  2  0  0  0  0
 26 28  2  0  0  0  0
 22 23  2  0  0  0  0
 23 25  1  0  0  0  0
 22 24  1  0  0  0  0
 24 26  1  0  0  0  0
 21 22  1  0  0  0  0
 25 26  1  0  0  0  0
  1  3  1  0  0  0  0
  1  7  1  0  0  0  0
  1  2  2  0  0  0  0
 42 43  1  0  0  0  0
 43 51  1  0  0  0  0
 43 44  2  0  0  0  0
  8  9  1  0  0  0  0
  9 17  1  0  0  0  0
  9 10  2  0  0  0  0
 18 19  1  0  0  0  0
 19 41  1  0  0  0  0
 19 20  2  0  0  0  0
 42 45  1  0  0  0  0
  8 11  1  0  0  0  0
 51 52  1  0  0  0  0
 18 21  1  0  0  0  0
 41 42  1  0  0  0  0
  7  8  1  0  0  0  0
 17 18  1  0  0  0  0
 29 39  1  0  0  0  0
 30 40  1  0  0  0  0
 27 37  1  0  0  0  0
 28 38  1  0  0  0  0
 23 35  1  0  0  0  0
  3  4  1  0  0  0  0
  3  5  1  0  0  0  0
  3  6  1  0  0  0  0
 45 48  1  0  0  0  0
 45 49  1  0  0  0  0
 45 50  1  0  0  0  0
 11 14  1  0  0  0  0
 11 15  1  0  0  0  0
 11 16  1  0  0  0  0
 52 54  1  0  0  0  0
 52 55  1  0  0  0  0
 52 56  1  0  0  0  0
 21 33  1  0  0  0  0
 21 34  1  0  0  0  0
 42 47  1  0  0  0  0
  8 13  1  0  0  0  0
 18 32  1  0  0  0  0
 25 36  1  0  0  0  0
 51 53  1  0  0  0  0
  7 12  1  0  0  0  0
 41 46  1  0  0  0  0
 17 31  1  0  0  0  0
M  END
$$$$

  -OEChem-05262214473D

 56 57  0     1  0  0  0  0  0999 V2000
   -2.2900    0.3401    4.1553 C   0  0  0  0  0  0  0  0  0  0  0  0
   -1.3426   -0.2746    3.6796 O   0  0  0  0  0  0  0  0  0  0  0  0
   -2.7219    0.0577    5.5560 C   0  0  0  0  0  0  0  0  0  0  0  0
   -3.4815   -0.7386    5.6094 H   0  0  0  0  0  0  0  0  0  0  0  0
   -1.8906   -0.2899    6.1903 H   0  0  0  0  0  0  0  0  0  0  0  0
   -3.1599    0.9126    6.0956 H   0  0  0  0  0  0  0  0  0  0  0  0
   -3.0397    1.3125    3.5142 N   0  0  0  0  0  0  0  0  0  0  0  0
   -2.7928    1.7385    2.1618 C   0  0  2  0  0  0  0  0  0  0  0  0
   -1.4579    1.1532    1.7206 C   0  0  0  0  0  0  0  0  0  0  0  0
   -0.5858    0.8004    2.5118 O   0  0  0  0  0  0  0  0  0  0  0  0
   -2.7841    3.2553    2.0523 C   0  0  0  0  0  0  0  0  0  0  0  0
   -3.8047    1.7484    4.0260 H   0  0  0  0  0  0  0  0  0  0  0  0
   -3.5969    1.3201    1.5466 H   0  0  0  0  0  0  0  0  0  0  0  0
   -1.9850    3.6926    2.6620 H   0  0  0  0  0  0  0  0  0  0  0  0
   -2.6246    3.5776    1.0180 H   0  0  0  0  0  0  0  0  0  0  0  0
   -3.7342    3.6765    2.3981 H   0  0  0  0  0  0  0  0  0  0  0  0
   -1.3352    1.1101    0.3372 N   0  0  0  0  0  0  0  0  0  0  0  0
   -0.1579    0.6093   -0.3265 C   0  0  2  0  0  0  0  0  0  0  0  0
    0.1832    1.5912   -1.4417 C   0  0  0  0  0  0  0  0  0  0  0  0
   -0.2646    2.7350   -1.4863 O   0  0  0  0  0  0  0  0  0  0  0  0
   -0.3705   -0.7962   -0.9005 C   0  0  0  0  0  0  0  0  0  0  0  0
   -0.5579   -1.8421    0.1712 C   0  0  0  0  0  0  0  0  0  0  0  0
   -1.7656   -2.3204    0.6247 C   0  0  0  0  0  0  0  0  0  0  0  0
    0.4709   -2.5111    0.8917 C   0  0  0  0  0  0  0  0  0  0  0  0
   -1.5122   -3.2541    1.5934 N   0  0  0  0  0  0  0  0  0  0  0  0
   -0.1547   -3.3912    1.7773 C   0  0  0  0  0  0  0  0  0  0  0  0
    1.8786   -2.4521    0.8753 C   0  0  0  0  0  0  0  0  0  0  0  0
    0.5599   -4.2186    2.6509 C   0  0  0  0  0  0  0  0  0  0  0  0
    2.6065   -3.2739    1.7435 C   0  0  0  0  0  0  0  0  0  0  0  0
    1.9552   -4.1428    2.6168 C   0  0  0  0  0  0  0  0  0  0  0  0
   -2.1183    1.4068   -0.2401 H   0  0  0  0  0  0  0  0  0  0  0  0
    0.6474    0.6173    0.4175 H   0  0  0  0  0  0  0  0  0  0  0  0
    0.4736   -1.0754   -1.5456 H   0  0  0  0  0  0  0  0  0  0  0  0
   -1.2515   -0.8137   -1.5557 H   0  0  0  0  0  0  0  0  0  0  0  0
   -2.7826   -2.0798    0.3468 H   0  0  0  0  0  0  0  0  0  0  0  0
   -2.2188   -3.7688    2.1006 H   0  0  0  0  0  0  0  0  0  0  0  0
    2.4011   -1.7794    0.2012 H   0  0  0  0  0  0  0  0  0  0  0  0
    0.0538   -4.8961    3.3302 H   0  0  0  0  0  0  0  0  0  0  0  0
    3.6924   -3.2325    1.7358 H   0  0  0  0  0  0  0  0  0  0  0  0
    2.5403   -4.7722    3.2824 H   0  0  0  0  0  0  0  0  0  0  0  0
    1.0844    1.0532   -2.3500 N   0  0  0  0  0  0  0  0  0  0  0  0
    1.5915    1.7814   -3.4907 C   0  0  2  0  0  0  0  0  0  0  0  0
    0.4039    2.3821   -4.2312 C   0  0  0  0  0  0  0  0  0  0  0  0
   -0.7389    1.9390   -4.1373 O   0  0  0  0  0  0  0  0  0  0  0  0
    2.4034    0.8790   -4.4069 C   0  0  0  0  0  0  0  0  0  0  0  0
    1.4034    0.0998   -2.2057 H   0  0  0  0  0  0  0  0  0  0  0  0
    2.2223    2.5861   -3.0974 H   0  0  0  0  0  0  0  0  0  0  0  0
    1.7881    0.0667   -4.8107 H   0  0  0  0  0  0  0  0  0  0  0  0
    2.8107    1.4384   -5.2555 H   0  0  0  0  0  0  0  0  0  0  0  0
    3.2398    0.4245   -3.8650 H   0  0  0  0  0  0  0  0  0  0  0  0
    0.7777    3.4441   -5.0427 N   0  0  0  0  0  0  0  0  0  0  0  0
   -0.1664    4.1729   -5.8572 C   0  0  0  0  0  0  0  0  0  0  0  0
    1.7445    3.7557   -5.0441 H   0  0  0  0  0  0  0  0  0  0  0  0
   -0.2045    3.7279   -6.8624 H   0  0  0  0  0  0  0  0  0  0  0  0
   -1.1639    4.1225   -5.3960 H   0  0  0  0  0  0  0  0  0  0  0  0
    0.1496    5.2238   -5.9332 H   0  0  0  0  0  0  0  0  0  0  0  0
 29 30  2  0  0  0  0
 27 29  1  0  0  0  0
 28 30  1  0  0  0  0
 24 27  2  0  0  0  0
 26 28  2  0  0  0  0
 22 23  2  0  0  0  0
 23 25  1  0  0  0  0
 22 24  1  0  0  0  0
 24 26  1  0  0  0  0
 21 22  1  0  0  0  0
 25 26  1  0  0  0  0
  1  3  1  0  0  0  0
  1  7  1  0  0  0  0
  1  2  2  0  0  0  0
 42 43  1  0  0  0  0
 43 51  1  0  0  0  0
 43 44  2  0  0  0  0
  8  9  1  0  0  0  0
  9 17  1  0  0  0  0
  9 10  2  0  0  0  0
 18 19  1  0  0  0  0
 19 41  1  0  0  0  0
 19 20  2  0  0  0  0
 42 45  1  0  0  0  0
  8 11  1  0  0  0  0
 51 52  1  0  0  0  0
 18 21  1  0  0  0  0
 41 42  1  0  0  0  0
  7  8  1  0  0  0  0
 17 18  1  0  0  0  0
 29 39  1  0  0  0  0
 30 40  1  0  0  0  0
 27 37  1  0  0  0  0
 28 38  1  0  0  0  0
 23 35  1  0  0  0  0
  3  4  1  0  0  0  0
  3  5  1  0  0  0  0
  3  6  1  0  0  0  0
 45 48  1  0  0  0  0
 45 49  1  0  0  0  0
 45 50  1  0  0  0  0
 11 14  1  0  0  0  0
 11 15  1  0  0  0  0
 11 16  1  0  0  0  0
 52 54  1  0  0  0  0
 52 55  1  0  0  0  0
 52 56  1  0  0  0  0
 21 33  1  0  0  0  0
 21 34  1  0  0  0  0
 42 47  1  0  0  0  0
  8 13  1  0  0  0  0
 18 32  1  0  0  0  0
 25 36  1  0  0  0  0
 51 53  1  0  0  0  0
  7 12  1  0  0  0  0
 41 46  1  0  0  0  0
 17 31  1  0  0  0  0
M  END
$$$$

  -OEChem-05262214473D

 56 57  0     1  0  0  0  0  0999 V2000
   -2.2900    0.3401    4.1553 C   0  0  0  0  0  0  0  0  0  0  0  0
   -1.3426   -0.2746    3.6796 O   0  0  0  0  0  0  0  0  0  0  0  0
   -2.7219    0.0577    5.5560 C   0  0  0  0  0  0  0  0  0  0  0  0
   -3.4815   -0.7386    5.6094 H   0  0  0  0  0  0  0  0  0  0  0  0
   -1.8906   -0.2899    6.1903 H   0  0  0  0  0  0  0  0  0  0  0  0
   -3.1599    0.9126    6.0956 H   0  0  0  0  0  0  0  0  0  0  0  0
   -3.0397    1.3125    3.5142 N   0  0  0  0  0  0  0  0  0  0  0  0
   -2.7928    1.7385    2.1618 C   0  0  2  0  0  0  0  0  0  0  0  0
   -1.4579    1.1532    1.7206 C   0  0  0  0  0  0  0  0  0  0  0  0
   -0.5858    0.8004    2.5118 O   0  0  0  0  0  0  0  0  0  0  0  0
   -2.7841    3.2553    2.0523 C   0  0  0  0  0  0  0  0  0  0  0  0
   -3.8047    1.7484    4.0260 H   0  0  0  0  0  0  0  0  0  0  0  0
   -3.5969    1.3201    1.5466 H   0  0  0  0  0  0  0  0  0  0  0  0
   -1.9850    3.6926    2.6620 H   0  0  0  0  0  0  0  0  0  0  0  0
   -2.6246    3.5776    1.0180 H   0  0  0  0  0  0  0  0  0  0  0  0
   -3.7342    3.6765    2.3981 H   0  0  0  0  0  0  0  0  0  0  0  0
   -1.3352    1.1101    0.3372 N   0  0  0  0  0  0  0  0  0  0  0  0
   -0.1579    0.6093   -0.3265 C   0  0  2  0  0  0  0  0  0  0  0  0
    0.1832    1.5912   -1.4417 C   0  0  0  0  0  0  0  0  0  0  0  0
   -0.0351    2.7981   -1.3606 O   0  0  0  0  0  0  0  0  0  0  0  0
   -0.3705   -0.7962   -0.9005 C   0  0  0  0  0  0  0  0  0  0  0  0
   -0.5579   -1.8421    0.1712 C   0  0  0  0  0  0  0  0  0  0  0  0
   -1.7656   -2.3204    0.6247 C   0  0  0  0  0  0  0  0  0  0  0  0
    0.4709   -2.5111    0.8917 C   0  0  0  0  0  0  0  0  0  0  0  0
   -1.5122   -3.2541    1.5934 N   0  0  0  0  0  0  0  0  0  0  0  0
   -0.1547   -3.3912    1.7773 C   0  0  0  0  0  0  0  0  0  0  0  0
    1.8786   -2.4521    0.8753 C   0  0  0  0  0  0  0  0  0  0  0  0
    0.5599   -4.2186    2.6509 C   0  0  0  0  0  0  0  0  0  0  0  0
    2.6065   -3.2739    1.7435 C   0  0  0  0  0  0  0  0  0  0  0  0
    1.9552   -4.1428    2.6168 C   0  0  0  0  0  0  0  0  0  0  0  0
   -2.1183    1.4068   -0.2401 H   0  0  0  0  0  0  0  0  0  0  0  0
    0.6474    0.6173    0.4175 H   0  0  0  0  0  0  0  0  0  0  0  0
    0.4736   -1.0754   -1.5456 H   0  0  0  0  0  0  0  0  0  0  0  0
   -1.2515   -0.8137   -1.5557 H   0  0  0  0  0  0  0  0  0  0  0  0
   -2.7826   -2.0798    0.3468 H   0  0  0  0  0  0  0  0  0  0  0  0
   -2.2188   -3.7688    2.1006 H   0  0  0  0  0  0  0  0  0  0  0  0
    2.4011   -1.7794    0.2012 H   0  0  0  0  0  0  0  0  0  0  0  0
    0.0538   -4.8961    3.3302 H   0  0  0  0  0  0  0  0  0  0  0  0
    3.6924   -3.2325    1.7358 H   0  0  0  0  0  0  0  0  0  0  0  0
    2.5403   -4.7722    3.2824 H   0  0  0  0  0  0  0  0  0  0  0  0
    0.8044    0.9650   -2.5134 N   0  0  0  0  0  0  0  0  0  0  0  0
    1.2528    1.6695   -3.6929 C   0  0  2  0  0  0  0  0  0  0  0  0
    0.1009    2.5319   -4.1919 C   0  0  0  0  0  0  0  0  0  0  0  0
   -1.0758    2.3015   -3.9212 O   0  0  0  0  0  0  0  0  0  0  0  0
    1.7154    0.7031   -4.7722 C   0  0  0  0  0  0  0  0  0  0  0  0
    0.9511   -0.0390   -2.4663 H   0  0  0  0  0  0  0  0  0  0  0  0
    2.0828    2.3126   -3.3808 H   0  0  0  0  0  0  0  0  0  0  0  0
    0.8972    0.0503   -5.0977 H   0  0  0  0  0  0  0  0  0  0  0  0
    2.0815    1.2390   -5.6542 H   0  0  0  0  0  0  0  0  0  0  0  0
    2.5238    0.0634   -4.4020 H   0  0  0  0  0  0  0  0  0  0  0  0
    0.5382    3.5639   -5.0105 N   0  0  0  0  0  0  0  0  0  0  0  0
   -0.3651    4.5125   -5.6189 C   0  0  0  0  0  0  0  0  0  0  0  0
    1.5340    3.6911   -5.1654 H   0  0  0  0  0  0  0  0  0  0  0  0
   -0.6503    4.1577   -6.6203 H   0  0  0  0  0  0  0  0  0  0  0  0
   -1.2657    4.6129   -4.9954 H   0  0  0  0  0  0  0  0  0  0  0  0
    0.1326    5.4897   -5.7043 H   0  0  0  0  0  0  0  0  0  0  0  0
 29 30  2  0  0  0  0
 27 29  1  0  0  0  0
 28 30  1  0  0  0  0
 24 27  2  0  0  0  0
 26 28  2  0  0  0  0
 22 23  2  0  0  0  0
 23 25  1  0  0  0  0
 22 24  1  0  0  0  0
 24 26  1  0  0  0  0
 21 22  1  0  0  0  0
 25 26  1  0  0  0  0
  1  3  1  0  0  0  0
  1  7  1  0  0  0  0
  1  2  2  0  0  0  0
 42 43  1  0  0  0  0
 43 51  1  0  0  0  0
 43 44  2  0  0  0  0
  8  9  1  0  0  0  0
  9 17  1  0  0  0  0
  9 10  2  0  0  0  0
 18 19  1  0  0  0  0
 19 41  1  0  0  0  0
 19 20  2  0  0  0  0
 42 45  1  0  0  0  0
  8 11  1  0  0  0  0
 51 52  1  0  0  0  0
 18 21  1  0  0  0  0
 41 42  1  0  0  0  0
  7  8  1  0  0  0  0
 17 18  1  0  0  0  0
 29 39  1  0  0  0  0
 30 40  1  0  0  0  0
 27 37  1  0  0  0  0
 28 38  1  0  0  0  0
 23 35  1  0  0  0  0
  3  4  1  0  0  0  0
  3  5  1  0  0  0  0
  3  6  1  0  0  0  0
 45 48  1  0  0  0  0
 45 49  1  0  0  0  0
 45 50  1  0  0  0  0
 11 14  1  0  0  0  0
 11 15  1  0  0  0  0
 11 16  1  0  0  0  0
 52 54  1  0  0  0  0
 52 55  1  0  0  0  0
 52 56  1  0  0  0  0
 21 33  1  0  0  0  0
 21 34  1  0  0  0  0
 42 47  1  0  0  0  0
  8 13  1  0  0  0  0
 18 32  1  0  0  0  0
 25 36  1  0  0  0  0
 51 53  1  0  0  0  0
  7 12  1  0  0  0  0
 41 46  1  0  0  0  0
 17 31  1  0  0  0  0
M  END
$$$$

  -OEChem-05262214473D

 56 57  0     1  0  0  0  0  0999 V2000
   -2.2900    0.3401    4.1553 C   0  0  0  0  0  0  0  0  0  0  0  0
   -1.3426   -0.2746    3.6796 O   0  0  0  0  0  0  0  0  0  0  0  0
   -2.7219    0.0577    5.5560 C   0  0  0  0  0  0  0  0  0  0  0  0
   -3.4815   -0.7386    5.6094 H   0  0  0  0  0  0  0  0  0  0  0  0
   -1.8906   -0.2899    6.1903 H   0  0  0  0  0  0  0  0  0  0  0  0
   -3.1599    0.9126    6.0956 H   0  0  0  0  0  0  0  0  0  0  0  0
   -3.0397    1.3125    3.5142 N   0  0  0  0  0  0  0  0  0  0  0  0
   -2.7928    1.7385    2.1618 C   0  0  2  0  0  0  0  0  0  0  0  0
   -1.4579    1.1532    1.7206 C   0  0  0  0  0  0  0  0  0  0  0  0
   -0.5858    0.8004    2.5118 O   0  0  0  0  0  0  0  0  0  0  0  0
   -2.7841    3.2553    2.0523 C   0  0  0  0  0  0  0  0  0  0  0  0
   -3.8047    1.7484    4.0260 H   0  0  0  0  0  0  0  0  0  0  0  0
   -3.5969    1.3201    1.5466 H   0  0  0  0  0  0  0  0  0  0  0  0
   -1.9850    3.6926    2.6620 H   0  0  0  0  0  0  0  0  0  0  0  0
   -2.6246    3.5776    1.0180 H   0  0  0  0  0  0  0  0  0  0  0  0
   -3.7342    3.6765    2.3981 H   0  0  0  0  0  0  0  0  0  0  0  0
   -1.3352    1.1101    0.3372 N   0  0  0  0  0  0  0  0  0  0  0  0
   -0.1579    0.6093   -0.3265 C   0  0  2  0  0  0  0  0  0  0  0  0
    0.1832    1.5912   -1.4417 C   0  0  0  0  0  0  0  0  0  0  0  0
    0.2194    2.8083   -1.2737 O   0  0  0  0  0  0  0  0  0  0  0  0
   -0.3705   -0.7962   -0.9005 C   0  0  0  0  0  0  0  0  0  0  0  0
   -0.5579   -1.8421    0.1712 C   0  0  0  0  0  0  0  0  0  0  0  0
   -1.7656   -2.3204    0.6247 C   0  0  0  0  0  0  0  0  0  0  0  0
    0.4709   -2.5111    0.8917 C   0  0  0  0  0  0  0  0  0  0  0  0
   -1.5122   -3.2541    1.5934 N   0  0  0  0  0  0  0  0  0  0  0  0
   -0.1547   -3.3912    1.7773 C   0  0  0  0  0  0  0  0  0  0  0  0
    1.8786   -2.4521    0.8753 C   0  0  0  0  0  0  0  0  0  0  0  0
    0.5599   -4.2186    2.6509 C   0  0  0  0  0  0  0  0  0  0  0  0
    2.6065   -3.2739    1.7435 C   0  0  0  0  0  0  0  0  0  0  0  0
    1.9552   -4.1428    2.6168 C   0  0  0  0  0  0  0  0  0  0  0  0
   -2.1183    1.4068   -0.2401 H   0  0  0  0  0  0  0  0  0  0  0  0
    0.6474    0.6173    0.4175 H   0  0  0  0  0  0  0  0  0  0  0  0
    0.4736   -1.0754   -1.5456 H   0  0  0  0  0  0  0  0  0  0  0  0
   -1.2515   -0.8137   -1.5557 H   0  0  0  0  0  0  0  0  0  0  0  0
   -2.7826   -2.0798    0.3468 H   0  0  0  0  0  0  0  0  0  0  0  0
   -2.2188   -3.7688    2.1006 H   0  0  0  0  0  0  0  0  0  0  0  0
    2.4011   -1.7794    0.2012 H   0  0  0  0  0  0  0  0  0  0  0  0
    0.0538   -4.8961    3.3302 H   0  0  0  0  0  0  0  0  0  0  0  0
    3.6924   -3.2325    1.7358 H   0  0  0  0  0  0  0  0  0  0  0  0
    2.5403   -4.7722    3.2824 H   0  0  0  0  0  0  0  0  0  0  0  0
    0.4899    0.9422   -2.6296 N   0  0  0  0  0  0  0  0  0  0  0  0
    0.8706    1.6372   -3.8383 C   0  0  2  0  0  0  0  0  0  0  0  0
   -0.1568    2.7318   -4.0948 C   0  0  0  0  0  0  0  0  0  0  0  0
   -1.2966    2.7030   -3.6353 O   0  0  0  0  0  0  0  0  0  0  0  0
    0.9567    0.6846   -5.0206 C   0  0  0  0  0  0  0  0  0  0  0  0
    0.4446   -0.0724   -2.6506 H   0  0  0  0  0  0  0  0  0  0  0  0
    1.8490    2.0914   -3.6471 H   0  0  0  0  0  0  0  0  0  0  0  0
   -0.0142    0.2198   -5.2272 H   0  0  0  0  0  0  0  0  0  0  0  0
    1.2729    1.2075   -5.9292 H   0  0  0  0  0  0  0  0  0  0  0  0
    1.6743   -0.1189   -4.8223 H   0  0  0  0  0  0  0  0  0  0  0  0
    0.3349    3.7230   -4.9326 N   0  0  0  0  0  0  0  0  0  0  0  0
   -0.4529    4.8643   -5.3360 C   0  0  0  0  0  0  0  0  0  0  0  0
    1.2982    3.6755   -5.2512 H   0  0  0  0  0  0  0  0  0  0  0  0
   -0.9592    4.6433   -6.2873 H   0  0  0  0  0  0  0  0  0  0  0  0
   -1.2044    5.0827   -4.5630 H   0  0  0  0  0  0  0  0  0  0  0  0
    0.2047    5.7366   -5.4648 H   0  0  0  0  0  0  0  0  0  0  0  0
 29 30  2  0  0  0  0
 27 29  1  0  0  0  0
 28 30  1  0  0  0  0
 24 27  2  0  0  0  0
 26 28  2  0  0  0  0
 22 23  2  0  0  0  0
 23 25  1  0  0  0  0
 22 24  1  0  0  0  0
 24 26  1  0  0  0  0
 21 22  1  0  0  0  0
 25 26  1  0  0  0  0
  1  3  1  0  0  0  0
  1  7  1  0  0  0  0
  1  2  2  0  0  0  0
 42 43  1  0  0  0  0
 43 51  1  0  0  0  0
 43 44  2  0  0  0  0
  8  9  1  0  0  0  0
  9 17  1  0  0  0  0
  9 10  2  0  0  0  0
 18 19  1  0  0  0  0
 19 41  1  0  0  0  0
 19 20  2  0  0  0  0
 42 45  1  0  0  0  0
  8 11  1  0  0  0  0
 51 52  1  0  0  0  0
 18 21  1  0  0  0  0
 41 42  1  0  0  0  0
  7  8  1  0  0  0  0
 17 18  1  0  0  0  0
 29 39  1  0  0  0  0
 30 40  1  0  0  0  0
 27 37  1  0  0  0  0
 28 38  1  0  0  0  0
 23 35  1  0  0  0  0
  3  4  1  0  0  0  0
  3  5  1  0  0  0  0
  3  6  1  0  0  0  0
 45 48  1  0  0  0  0
 45 49  1  0  0  0  0
 45 50  1  0  0  0  0
 11 14  1  0  0  0  0
 11 15  1  0  0  0  0
 11 16  1  0  0  0  0
 52 54  1  0  0  0  0
 52 55  1  0  0  0  0
 52 56  1  0  0  0  0
 21 33  1  0  0  0  0
 21 34  1  0  0  0  0
 42 47  1  0  0  0  0
  8 13  1  0  0  0  0
 18 32  1  0  0  0  0
 25 36  1  0  0  0  0
 51 53  1  0  0  0  0
  7 12  1  0  0  0  0
 41 46  1  0  0  0  0
 17 31  1  0  0  0  0
M  END
$$$$

  -OEChem-05262214473D

 56 57  0     1  0  0  0  0  0999 V2000
   -2.2900    0.3401    4.1553 C   0  0  0  0  0  0  0  0  0  0  0  0
   -1.3426   -0.2746    3.6796 O   0  0  0  0  0  0  0  0  0  0  0  0
   -2.7219    0.0577    5.5560 C   0  0  0  0  0  0  0  0  0  0  0  0
   -3.4815   -0.7386    5.6094 H   0  0  0  0  0  0  0  0  0  0  0  0
   -1.8906   -0.2899    6.1903 H   0  0  0  0  0  0  0  0  0  0  0  0
   -3.1599    0.9126    6.0956 H   0  0  0  0  0  0  0  0  0  0  0  0
   -3.0397    1.3125    3.5142 N   0  0  0  0  0  0  0  0  0  0  0  0
   -2.7928    1.7385    2.1618 C   0  0  2  0  0  0  0  0  0  0  0  0
   -1.4579    1.1532    1.7206 C   0  0  0  0  0  0  0  0  0  0  0  0
   -0.5858    0.8004    2.5118 O   0  0  0  0  0  0  0  0  0  0  0  0
   -2.7841    3.2553    2.0523 C   0  0  0  0  0  0  0  0  0  0  0  0
   -3.8047    1.7484    4.0260 H   0  0  0  0  0  0  0  0  0  0  0  0
   -3.5969    1.3201    1.5466 H   0  0  0  0  0  0  0  0  0  0  0  0
   -1.9850    3.6926    2.6620 H   0  0  0  0  0  0  0  0  0  0  0  0
   -2.6246    3.5776    1.0180 H   0  0  0  0  0  0  0  0  0  0  0  0
   -3.7342    3.6765    2.3981 H   0  0  0  0  0  0  0  0  0  0  0  0
   -1.3352    1.1101    0.3372 N   0  0  0  0  0  0  0  0  0  0  0  0
   -0.1579    0.6093   -0.3265 C   0  0  2  0  0  0  0  0  0  0  0  0
    0.1832    1.5912   -1.4417 C   0  0  0  0  0  0  0  0  0  0  0  0
    0.4817    2.7649   -1.2317 O   0  0  0  0  0  0  0  0  0  0  0  0
   -0.3705   -0.7962   -0.9005 C   0  0  0  0  0  0  0  0  0  0  0  0
   -0.5579   -1.8421    0.1712 C   0  0  0  0  0  0  0  0  0  0  0  0
   -1.7656   -2.3204    0.6247 C   0  0  0  0  0  0  0  0  0  0  0  0
    0.4709   -2.5111    0.8917 C   0  0  0  0  0  0  0  0  0  0  0  0
   -1.5122   -3.2541    1.5934 N   0  0  0  0  0  0  0  0  0  0  0  0
   -0.1547   -3.3912    1.7773 C   0  0  0  0  0  0  0  0  0  0  0  0
    1.8786   -2.4521    0.8753 C   0  0  0  0  0  0  0  0  0  0  0  0
    0.5599   -4.2186    2.6509 C   0  0  0  0  0  0  0  0  0  0  0  0
    2.6065   -3.2739    1.7435 C   0  0  0  0  0  0  0  0  0  0  0  0
    1.9552   -4.1428    2.6168 C   0  0  0  0  0  0  0  0  0  0  0  0
   -2.1183    1.4068   -0.2401 H   0  0  0  0  0  0  0  0  0  0  0  0
    0.6474    0.6173    0.4175 H   0  0  0  0  0  0  0  0  0  0  0  0
    0.4736   -1.0754   -1.5456 H   0  0  0  0  0  0  0  0  0  0  0  0
   -1.2515   -0.8137   -1.5557 H   0  0  0  0  0  0  0  0  0  0  0  0
   -2.7826   -2.0798    0.3468 H   0  0  0  0  0  0  0  0  0  0  0  0
   -2.2188   -3.7688    2.1006 H   0  0  0  0  0  0  0  0  0  0  0  0
    2.4011   -1.7794    0.2012 H   0  0  0  0  0  0  0  0  0  0  0  0
    0.0538   -4.8961    3.3302 H   0  0  0  0  0  0  0  0  0  0  0  0
    3.6924   -3.2325    1.7358 H   0  0  0  0  0  0  0  0  0  0  0  0
    2.5403   -4.7722    3.2824 H   0  0  0  0  0  0  0  0  0  0  0  0
    0.1625    0.9864   -2.6908 N   0  0  0  0  0  0  0  0  0  0  0  0
    0.4712    1.6868   -3.9168 C   0  0  2  0  0  0  0  0  0  0  0  0
   -0.3517    2.9680   -3.9465 C   0  0  0  0  0  0  0  0  0  0  0  0
   -1.3861    3.1159   -3.2991 O   0  0  0  0  0  0  0  0  0  0  0  0
    0.1790    0.8247   -5.1351 C   0  0  0  0  0  0  0  0  0  0  0  0
   -0.0818    0.0020   -2.7461 H   0  0  0  0  0  0  0  0  0  0  0  0
    1.5369    1.9373   -3.8782 H   0  0  0  0  0  0  0  0  0  0  0  0
   -0.8841    0.5636   -5.1907 H   0  0  0  0  0  0  0  0  0  0  0  0
    0.4401    1.3461   -6.0619 H   0  0  0  0  0  0  0  0  0  0  0  0
    0.7492   -0.1097   -5.0972 H   0  0  0  0  0  0  0  0  0  0  0  0
    0.1816    3.9108   -4.8141 N   0  0  0  0  0  0  0  0  0  0  0  0
   -0.4240    5.2044   -5.0277 C   0  0  0  0  0  0  0  0  0  0  0  0
    1.0531    3.7101   -5.2957 H   0  0  0  0  0  0  0  0  0  0  0  0
   -1.1101    5.1515   -5.8859 H   0  0  0  0  0  0  0  0  0  0  0  0
   -0.9842    5.4999   -4.1283 H   0  0  0  0  0  0  0  0  0  0  0  0
    0.3610    5.9476   -5.2313 H   0  0  0  0  0  0  0  0  0  0  0  0
 29 30  2  0  0  0  0
 27 29  1  0  0  0  0
 28 30  1  0  0  0  0
 24 27  2  0  0  0  0
 26 28  2  0  0  0  0
 22 23  2  0  0  0  0
 23 25  1  0  0  0  0
 22 24  1  0  0  0  0
 24 26  1  0  0  0  0
 21 22  1  0  0  0  0
 25 26  1  0  0  0  0
  1  3  1  0  0  0  0
  1  7  1  0  0  0  0
  1  2  2  0  0  0  0
 42 43  1  0  0  0  0
 43 51  1  0  0  0  0
 43 44  2  0  0  0  0
  8  9  1  0  0  0  0
  9 17  1  0  0  0  0
  9 10  2  0  0  0  0
 18 19  1  0  0  0  0
 19 41  1  0  0  0  0
 19 20  2  0  0  0  0
 42 45  1  0  0  0  0
  8 11  1  0  0  0  0
 51 52  1  0  0  0  0
 18 21  1  0  0  0  0
 41 42  1  0  0  0  0
  7  8  1  0  0  0  0
 17 18  1  0  0  0  0
 29 39  1  0  0  0  0
 30 40  1  0  0  0  0
 27 37  1  0  0  0  0
 28 38  1  0  0  0  0
 23 35  1  0  0  0  0
  3  4  1  0  0  0  0
  3  5  1  0  0  0  0
  3  6  1  0  0  0  0
 45 48  1  0  0  0  0
 45 49  1  0  0  0  0
 45 50  1  0  0  0  0
 11 14  1  0  0  0  0
 11 15  1  0  0  0  0
 11 16  1  0  0  0  0
 52 54  1  0  0  0  0
 52 55  1  0  0  0  0
 52 56  1  0  0  0  0
 21 33  1  0  0  0  0
 21 34  1  0  0  0  0
 42 47  1  0  0  0  0
  8 13  1  0  0  0  0
 18 32  1  0  0  0  0
 25 36  1  0  0  0  0
 51 53  1  0  0  0  0
  7 12  1  0  0  0  0
 41 46  1  0  0  0  0
 17 31  1  0  0  0  0
M  END
$$$$

  -OEChem-05262214473D

 56 57  0     1  0  0  0  0  0999 V2000
   -2.2900    0.3401    4.1553 C   0  0  0  0  0  0  0  0  0  0  0  0
   -1.3426   -0.2746    3.6796 O   0  0  0  0  0  0  0  0  0  0  0  0
   -2.7219    0.0577    5.5560 C   0  0  0  0  0  0  0  0  0  0  0  0
   -3.4815   -0.7386    5.6094 H   0  0  0  0  0  0  0  0  0  0  0  0
   -1.8906   -0.2899    6.1903 H   0  0  0  0  0  0  0  0  0  0  0  0
   -3.1599    0.9126    6.0956 H   0  0  0  0  0  0  0  0  0  0  0  0
   -3.0397    1.3125    3.5142 N   0  0  0  0  0  0  0  0  0  0  0  0
   -2.7928    1.7385    2.1618 C   0  0  2  0  0  0  0  0  0  0  0  0
   -1.4579    1.1532    1.7206 C   0  0  0  0  0  0  0  0  0  0  0  0
   -0.5858    0.8004    2.5118 O   0  0  0  0  0  0  0  0  0  0  0  0
   -2.7841    3.2553    2.0523 C   0  0  0  0  0  0  0  0  0  0  0  0
   -3.8047    1.7484    4.0260 H   0  0  0  0  0  0  0  0  0  0  0  0
   -3.5969    1.3201    1.5466 H   0  0  0  0  0  0  0  0  0  0  0  0
   -1.9850    3.6926    2.6620 H   0  0  0  0  0  0  0  0  0  0  0  0
   -2.6246    3.5776    1.0180 H   0  0  0  0  0  0  0  0  0  0  0  0
   -3.7342    3.6765    2.3981 H   0  0  0  0  0  0  0  0  0  0  0  0
   -1.3352    1.1101    0.3372 N   0  0  0  0  0  0  0  0  0  0  0  0
   -0.1579    0.6093   -0.3265 C   0  0  2  0  0  0  0  0  0  0  0  0
    0.1832    1.5912   -1.4417 C   0  0  0  0  0  0  0  0  0  0  0  0
    0.7339    2.6710   -1.2373 O   0  0  0  0  0  0  0  0  0  0  0  0
   -0.3705   -0.7962   -0.9005 C   0  0  0  0  0  0  0  0  0  0  0  0
   -0.5579   -1.8421    0.1712 C   0  0  0  0  0  0  0  0  0  0  0  0
   -1.7656   -2.3204    0.6247 C   0  0  0  0  0  0  0  0  0  0  0  0
    0.4709   -2.5111    0.8917 C   0  0  0  0  0  0  0  0  0  0  0  0
   -1.5122   -3.2541    1.5934 N   0  0  0  0  0  0  0  0  0  0  0  0
   -0.1547   -3.3912    1.7773 C   0  0  0  0  0  0  0  0  0  0  0  0
    1.8786   -2.4521    0.8753 C   0  0  0  0  0  0  0  0  0  0  0  0
    0.5599   -4.2186    2.6509 C   0  0  0  0  0  0  0  0  0  0  0  0
    2.6065   -3.2739    1.7435 C   0  0  0  0  0  0  0  0  0  0  0  0
    1.9552   -4.1428    2.6168 C   0  0  0  0  0  0  0  0  0  0  0  0
   -2.1183    1.4068   -0.2401 H   0  0  0  0  0  0  0  0  0  0  0  0
    0.6474    0.6173    0.4175 H   0  0  0  0  0  0  0  0  0  0  0  0
    0.4736   -1.0754   -1.5456 H   0  0  0  0  0  0  0  0  0  0  0  0
   -1.2515   -0.8137   -1.5557 H   0  0  0  0  0  0  0  0  0  0  0  0
   -2.7826   -2.0798    0.3468 H   0  0  0  0  0  0  0  0  0  0  0  0
   -2.2188   -3.7688    2.1006 H   0  0  0  0  0  0  0  0  0  0  0  0
    2.4011   -1.7794    0.2012 H   0  0  0  0  0  0  0  0  0  0  0  0
    0.0538   -4.8961    3.3302 H   0  0  0  0  0  0  0  0  0  0  0  0
    3.6924   -3.2325    1.7358 H   0  0  0  0  0  0  0  0  0  0  0  0
    2.5403   -4.7722    3.2824 H   0  0  0  0  0  0  0  0  0  0  0  0
   -0.1555    1.0947   -2.6928 N   0  0  0  0  0  0  0  0  0  0  0  0
    0.0816    1.8148   -3.9232 C   0  0  2  0  0  0  0  0  0  0  0  0
   -0.4705    3.2244   -3.7570 C   0  0  0  0  0  0  0  0  0  0  0  0
   -1.3384    3.5123   -2.9354 O   0  0  0  0  0  0  0  0  0  0  0  0
   -0.5649    1.1140   -5.1079 C   0  0  0  0  0  0  0  0  0  0  0  0
   -0.5921    0.1791   -2.7463 H   0  0  0  0  0  0  0  0  0  0  0  0
    1.1677    1.8610   -4.0583 H   0  0  0  0  0  0  0  0  0  0  0  0
   -1.6532    1.0582   -4.9904 H   0  0  0  0  0  0  0  0  0  0  0  0
   -0.3602    1.6454   -6.0432 H   0  0  0  0  0  0  0  0  0  0  0  0
   -0.1885    0.0902   -5.2080 H   0  0  0  0  0  0  0  0  0  0  0  0
    0.0888    4.1143   -4.6633 N   0  0  0  0  0  0  0  0  0  0  0  0
   -0.2803    5.5096   -4.7151 C   0  0  0  0  0  0  0  0  0  0  0  0
    0.8156    3.7925   -5.2958 H   0  0  0  0  0  0  0  0  0  0  0  0
   -1.0927    5.6478   -5.4437 H   0  0  0  0  0  0  0  0  0  0  0  0
   -0.6201    5.8360   -3.7210 H   0  0  0  0  0  0  0  0  0  0  0  0
    0.5909    6.1082   -5.0195 H   0  0  0  0  0  0  0  0  0  0  0  0
 29 30  2  0  0  0  0
 27 29  1  0  0  0  0
 28 30  1  0  0  0  0
 24 27  2  0  0  0  0
 26 28  2  0  0  0  0
 22 23  2  0  0  0  0
 23 25  1  0  0  0  0
 22 24  1  0  0  0  0
 24 26  1  0  0  0  0
 21 22  1  0  0  0  0
 25 26  1  0  0  0  0
  1  3  1  0  0  0  0
  1  7  1  0  0  0  0
  1  2  2  0  0  0  0
 42 43  1  0  0  0  0
 43 51  1  0  0  0  0
 43 44  2  0  0  0  0
  8  9  1  0  0  0  0
  9 17  1  0  0  0  0
  9 10  2  0  0  0  0
 18 19  1  0  0  0  0
 19 41  1  0  0  0  0
 19 20  2  0  0  0  0
 42 45  1  0  0  0  0
  8 11  1  0  0  0  0
 51 52  1  0  0  0  0
 18 21  1  0  0  0  0
 41 42  1  0  0  0  0
  7  8  1  0  0  0  0
 17 18  1  0  0  0  0
 29 39  1  0  0  0  0
 30 40  1  0  0  0  0
 27 37  1  0  0  0  0
 28 38  1  0  0  0  0
 23 35  1  0  0  0  0
  3  4  1  0  0  0  0
  3  5  1  0  0  0  0
  3  6  1  0  0  0  0
 45 48  1  0  0  0  0
 45 49  1  0  0  0  0
 45 50  1  0  0  0  0
 11 14  1  0  0  0  0
 11 15  1  0  0  0  0
 11 16  1  0  0  0  0
 52 54  1  0  0  0  0
 52 55  1  0  0  0  0
 52 56  1  0  0  0  0
 21 33  1  0  0  0  0
 21 34  1  0  0  0  0
 42 47  1  0  0  0  0
  8 13  1  0  0  0  0
 18 32  1  0  0  0  0
 25 36  1  0  0  0  0
 51 53  1  0  0  0  0
  7 12  1  0  0  0  0
 41 46  1  0  0  0  0
 17 31  1  0  0  0  0
M  END
$$$$

  -OEChem-05262214473D

 56 57  0     1  0  0  0  0  0999 V2000
   -2.2900    0.3401    4.1553 C   0  0  0  0  0  0  0  0  0  0  0  0
   -1.3426   -0.2746    3.6796 O   0  0  0  0  0  0  0  0  0  0  0  0
   -2.7219    0.0577    5.5560 C   0  0  0  0  0  0  0  0  0  0  0  0
   -3.4815   -0.7386    5.6094 H   0  0  0  0  0  0  0  0  0  0  0  0
   -1.8906   -0.2899    6.1903 H   0  0  0  0  0  0  0  0  0  0  0  0
   -3.1599    0.9126    6.0956 H   0  0  0  0  0  0  0  0  0  0  0  0
   -3.0397    1.3125    3.5142 N   0  0  0  0  0  0  0  0  0  0  0  0
   -2.7928    1.7385    2.1618 C   0  0  2  0  0  0  0  0  0  0  0  0
   -1.4579    1.1532    1.7206 C   0  0  0  0  0  0  0  0  0  0  0  0
   -0.5858    0.8004    2.5118 O   0  0  0  0  0  0  0  0  0  0  0  0
   -2.7841    3.2553    2.0523 C   0  0  0  0  0  0  0  0  0  0  0  0
   -3.8047    1.7484    4.0260 H   0  0  0  0  0  0  0  0  0  0  0  0
   -3.5969    1.3201    1.5466 H   0  0  0  0  0  0  0  0  0  0  0  0
   -1.9850    3.6926    2.6620 H   0  0  0  0  0  0  0  0  0  0  0  0
   -2.6246    3.5776    1.0180 H   0  0  0  0  0  0  0  0  0  0  0  0
   -3.7342    3.6765    2.3981 H   0  0  0  0  0  0  0  0  0  0  0  0
   -1.3352    1.1101    0.3372 N   0  0  0  0  0  0  0  0  0  0  0  0
   -0.1579    0.6093   -0.3265 C   0  0  2  0  0  0  0  0  0  0  0  0
    0.1832    1.5912   -1.4417 C   0  0  0  0  0  0  0  0  0  0  0  0
    0.9587    2.5328   -1.2902 O   0  0  0  0  0  0  0  0  0  0  0  0
   -0.3705   -0.7962   -0.9005 C   0  0  0  0  0  0  0  0  0  0  0  0
   -0.5579   -1.8421    0.1712 C   0  0  0  0  0  0  0  0  0  0  0  0
   -1.7656   -2.3204    0.6247 C   0  0  0  0  0  0  0  0  0  0  0  0
    0.4709   -2.5111    0.8917 C   0  0  0  0  0  0  0  0  0  0  0  0
   -1.5122   -3.2541    1.5934 N   0  0  0  0  0  0  0  0  0  0  0  0
   -0.1547   -3.3912    1.7773 C   0  0  0  0  0  0  0  0  0  0  0  0
    1.8786   -2.4521    0.8753 C   0  0  0  0  0  0  0  0  0  0  0  0
    0.5599   -4.2186    2.6509 C   0  0  0  0  0  0  0  0  0  0  0  0
    2.6065   -3.2739    1.7435 C   0  0  0  0  0  0  0  0  0  0  0  0
    1.9552   -4.1428    2.6168 C   0  0  0  0  0  0  0  0  0  0  0  0
   -2.1183    1.4068   -0.2401 H   0  0  0  0  0  0  0  0  0  0  0  0
    0.6474    0.6173    0.4175 H   0  0  0  0  0  0  0  0  0  0  0  0
    0.4736   -1.0754   -1.5456 H   0  0  0  0  0  0  0  0  0  0  0  0
   -1.2515   -0.8137   -1.5557 H   0  0  0  0  0  0  0  0  0  0  0  0
   -2.7826   -2.0798    0.3468 H   0  0  0  0  0  0  0  0  0  0  0  0
   -2.2188   -3.7688    2.1006 H   0  0  0  0  0  0  0  0  0  0  0  0
    2.4011   -1.7794    0.2012 H   0  0  0  0  0  0  0  0  0  0  0  0
    0.0538   -4.8961    3.3302 H   0  0  0  0  0  0  0  0  0  0  0  0
    3.6924   -3.2325    1.7358 H   0  0  0  0  0  0  0  0  0  0  0  0
    2.5403   -4.7722    3.2824 H   0  0  0  0  0  0  0  0  0  0  0  0
   -0.4426    1.2596   -2.6354 N   0  0  0  0  0  0  0  0  0  0  0  0
   -0.2715    2.0126   -3.8570 C   0  0  2  0  0  0  0  0  0  0  0  0
   -0.5052    3.4837   -3.5393 C   0  0  0  0  0  0  0  0  0  0  0  0
   -1.1567    3.8651   -2.5692 O   0  0  0  0  0  0  0  0  0  0  0  0
   -1.2240    1.5326   -4.9409 C   0  0  0  0  0  0  0  0  0  0  0  0
   -1.0515    0.4467   -2.6511 H   0  0  0  0  0  0  0  0  0  0  0  0
    0.7667    1.8676   -4.1752 H   0  0  0  0  0  0  0  0  0  0  0  0
   -2.2691    1.6700   -4.6401 H   0  0  0  0  0  0  0  0  0  0  0  0
   -1.0735    2.0849   -5.8744 H   0  0  0  0  0  0  0  0  0  0  0  0
   -1.0748    0.4673   -5.1471 H   0  0  0  0  0  0  0  0  0  0  0  0
    0.0629    4.3197   -4.4904 N   0  0  0  0  0  0  0  0  0  0  0  0
   -0.0316    5.7591   -4.4193 C   0  0  0  0  0  0  0  0  0  0  0  0
    0.6017    3.9171   -5.2516 H   0  0  0  0  0  0  0  0  0  0  0  0
   -0.9083    6.0982   -4.9907 H   0  0  0  0  0  0  0  0  0  0  0  0
   -0.1368    6.0681   -3.3689 H   0  0  0  0  0  0  0  0  0  0  0  0
    0.8786    6.2076   -4.8440 H   0  0  0  0  0  0  0  0  0  0  0  0
 29 30  2  0  0  0  0
 27 29  1  0  0  0  0
 28 30  1  0  0  0  0
 24 27  2  0  0  0  0
 26 28  2  0  0  0  0
 22 23  2  0  0  0  0
 23 25  1  0  0  0  0
 22 24  1  0  0  0  0
 24 26  1  0  0  0  0
 21 22  1  0  0  0  0
 25 26  1  0  0  0  0
  1  3  1  0  0  0  0
  1  7  1  0  0  0  0
  1  2  2  0  0  0  0
 42 43  1  0  0  0  0
 43 51  1  0  0  0  0
 43 44  2  0  0  0  0
  8  9  1  0  0  0  0
  9 17  1  0  0  0  0
  9 10  2  0  0  0  0
 18 19  1  0  0  0  0
 19 41  1  0  0  0  0
 19 20  2  0  0  0  0
 42 45  1  0  0  0  0
  8 11  1  0  0  0  0
 51 52  1  0  0  0  0
 18 21  1  0  0  0  0
 41 42  1  0  0  0  0
  7  8  1  0  0  0  0
 17 18  1  0  0  0  0
 29 39  1  0  0  0  0
 30 40  1  0  0  0  0
 27 37  1  0  0  0  0
 28 38  1  0  0  0  0
 23 35  1  0  0  0  0
  3  4  1  0  0  0  0
  3  5  1  0  0  0  0
  3  6  1  0  0  0  0
 45 48  1  0  0  0  0
 45 49  1  0  0  0  0
 45 50  1  0  0  0  0
 11 14  1  0  0  0  0
 11 15  1  0  0  0  0
 11 16  1  0  0  0  0
 52 54  1  0  0  0  0
 52 55  1  0  0  0  0
 52 56  1  0  0  0  0
 21 33  1  0  0  0  0
 21 34  1  0  0  0  0
 42 47  1  0  0  0  0
  8 13  1  0  0  0  0
 18 32  1  0  0  0  0
 25 36  1  0  0  0  0
 51 53  1  0  0  0  0
  7 12  1  0  0  0  0
 41 46  1  0  0  0  0
 17 31  1  0  0  0  0
M  END
$$$$

  -OEChem-05262214473D

 56 57  0     1  0  0  0  0  0999 V2000
   -2.2900    0.3401    4.1553 C   0  0  0  0  0  0  0  0  0  0  0  0
   -1.3426   -0.2746    3.6796 O   0  0  0  0  0  0  0  0  0  0  0  0
   -2.7219    0.0577    5.5560 C   0  0  0  0  0  0  0  0  0  0  0  0
   -3.4815   -0.7386    5.6094 H   0  0  0  0  0  0  0  0  0  0  0  0
   -1.8906   -0.2899    6.1903 H   0  0  0  0  0  0  0  0  0  0  0  0
   -3.1599    0.9126    6.0956 H   0  0  0  0  0  0  0  0  0  0  0  0
   -3.0397    1.3125    3.5142 N   0  0  0  0  0  0  0  0  0  0  0  0
   -2.7928    1.7385    2.1618 C   0  0  2  0  0  0  0  0  0  0  0  0
   -1.4579    1.1532    1.7206 C   0  0  0  0  0  0  0  0  0  0  0  0
   -0.5858    0.8004    2.5118 O   0  0  0  0  0  0  0  0  0  0  0  0
   -2.7841    3.2553    2.0523 C   0  0  0  0  0  0  0  0  0  0  0  0
   -3.8047    1.7484    4.0260 H   0  0  0  0  0  0  0  0  0  0  0  0
   -3.5969    1.3201    1.5466 H   0  0  0  0  0  0  0  0  0  0  0  0
   -1.9850    3.6926    2.6620 H   0  0  0  0  0  0  0  0  0  0  0  0
   -2.6246    3.5776    1.0180 H   0  0  0  0  0  0  0  0  0  0  0  0
   -3.7342    3.6765    2.3981 H   0  0  0  0  0  0  0  0  0  0  0  0
   -1.3352    1.1101    0.3372 N   0  0  0  0  0  0  0  0  0  0  0  0
   -0.1579    0.6093   -0.3265 C   0  0  2  0  0  0  0  0  0  0  0  0
    0.1832    1.5912   -1.4417 C   0  0  0  0  0  0  0  0  0  0  0  0
    1.1409    2.3598   -1.3868 O   0  0  0  0  0  0  0  0  0  0  0  0
   -0.3705   -0.7962   -0.9005 C   0  0  0  0  0  0  0  0  0  0  0  0
   -0.5579   -1.8421    0.1712 C   0  0  0  0  0  0  0  0  0  0  0  0
   -1.7656   -2.3204    0.6247 C   0  0  0  0  0  0  0  0  0  0  0  0
    0.4709   -2.5111    0.8917 C   0  0  0  0  0  0  0  0  0  0  0  0
   -1.5122   -3.2541    1.5934 N   0  0  0  0  0  0  0  0  0  0  0  0
   -0.1547   -3.3912    1.7773 C   0  0  0  0  0  0  0  0  0  0  0  0
    1.8786   -2.4521    0.8753 C   0  0  0  0  0  0  0  0  0  0  0  0
    0.5599   -4.2186    2.6509 C   0  0  0  0  0  0  0  0  0  0  0  0
    2.6065   -3.2739    1.7435 C   0  0  0  0  0  0  0  0  0  0  0  0
    1.9552   -4.1428    2.6168 C   0  0  0  0  0  0  0  0  0  0  0  0
   -2.1183    1.4068   -0.2401 H   0  0  0  0  0  0  0  0  0  0  0  0
    0.6474    0.6173    0.4175 H   0  0  0  0  0  0  0  0  0  0  0  0
    0.4736   -1.0754   -1.5456 H   0  0  0  0  0  0  0  0  0  0  0  0
   -1.2515   -0.8137   -1.5557 H   0  0  0  0  0  0  0  0  0  0  0  0
   -2.7826   -2.0798    0.3468 H   0  0  0  0  0  0  0  0  0  0  0  0
   -2.2188   -3.7688    2.1006 H   0  0  0  0  0  0  0  0  0  0  0  0
    2.4011   -1.7794    0.2012 H   0  0  0  0  0  0  0  0  0  0  0  0
    0.0538   -4.8961    3.3302 H   0  0  0  0  0  0  0  0  0  0  0  0
    3.6924   -3.2325    1.7358 H   0  0  0  0  0  0  0  0  0  0  0  0
    2.5403   -4.7722    3.2824 H   0  0  0  0  0  0  0  0  0  0  0  0
   -0.6791    1.4699   -2.5225 N   0  0  0  0  0  0  0  0  0  0  0  0
   -0.5640    2.2667   -3.7228 C   0  0  2  0  0  0  0  0  0  0  0  0
   -0.4533    3.7281   -3.3083 C   0  0  0  0  0  0  0  0  0  0  0  0
   -0.8533    4.1503   -2.2254 O   0  0  0  0  0  0  0  0  0  0  0  0
   -1.7537    2.0522   -4.6455 C   0  0  0  0  0  0  0  0  0  0  0  0
   -1.4287    0.7867   -2.4672 H   0  0  0  0  0  0  0  0  0  0  0  0
    0.3611    1.9567   -4.2208 H   0  0  0  0  0  0  0  0  0  0  0  0
   -2.6898    2.3572   -4.1637 H   0  0  0  0  0  0  0  0  0  0  0  0
   -1.6512    2.6347   -5.5670 H   0  0  0  0  0  0  0  0  0  0  0  0
   -1.8494    0.9957   -4.9187 H   0  0  0  0  0  0  0  0  0  0  0  0
    0.1055    4.5129   -4.3072 N   0  0  0  0  0  0  0  0  0  0  0  0
    0.3052    5.9359   -4.1607 C   0  0  0  0  0  0  0  0  0  0  0  0
    0.4261    4.0753   -5.1660 H   0  0  0  0  0  0  0  0  0  0  0  0
   -0.5693    6.4721   -4.5578 H   0  0  0  0  0  0  0  0  0  0  0  0
    0.4326    6.1804   -3.0958 H   0  0  0  0  0  0  0  0  0  0  0  0
    1.2046    6.2390   -4.7167 H   0  0  0  0  0  0  0  0  0  0  0  0
 29 30  2  0  0  0  0
 27 29  1  0  0  0  0
 28 30  1  0  0  0  0
 24 27  2  0  0  0  0
 26 28  2  0  0  0  0
 22 23  2  0  0  0  0
 23 25  1  0  0  0  0
 22 24  1  0  0  0  0
 24 26  1  0  0  0  0
 21 22  1  0  0  0  0
 25 26  1  0  0  0  0
  1  3  1  0  0  0  0
  1  7  1  0  0  0  0
  1  2  2  0  0  0  0
 42 43  1  0  0  0  0
 43 51  1  0  0  0  0
 43 44  2  0  0  0  0
  8  9  1  0  0  0  0
  9 17  1  0  0  0  0
  9 10  2  0  0  0  0
 18 19  1  0  0  0  0
 19 41  1  0  0  0  0
 19 20  2  0  0  0  0
 42 45  1  0  0  0  0
  8 11  1  0  0  0  0
 51 52  1  0  0  0  0
 18 21  1  0  0  0  0
 41 42  1  0  0  0  0
  7  8  1  0  0  0  0
 17 18  1  0  0  0  0
 29 39  1  0  0  0  0
 30 40  1  0  0  0  0
 27 37  1  0  0  0  0
 28 38  1  0  0  0  0
 23 35  1  0  0  0  0
  3  4  1  0  0  0  0
  3  5  1  0  0  0  0
  3  6  1  0  0  0  0
 45 48  1  0  0  0  0
 45 49  1  0  0  0  0
 45 50  1  0  0  0  0
 11 14  1  0  0  0  0
 11 15  1  0  0  0  0
 11 16  1  0  0  0  0
 52 54  1  0  0  0  0
 52 55  1  0  0  0  0
 52 56  1  0  0  0  0
 21 33  1  0  0  0  0
 21 34  1  0  0  0  0
 42 47  1  0  0  0  0
  8 13  1  0  0  0  0
 18 32  1  0  0  0  0
 25 36  1  0  0  0  0
 51 53  1  0  0  0  0
  7 12  1  0  0  0  0
 41 46  1  0  0  0  0
 17 31  1  0  0  0  0
M  END
$$$$

  -OEChem-05262214473D

 56 57  0     1  0  0  0  0  0999 V2000
   -2.2900    0.3401    4.1553 C   0  0  0  0  0  0  0  0  0  0  0  0
   -1.3426   -0.2746    3.6796 O   0  0  0  0  0  0  0  0  0  0  0  0
   -2.7219    0.0577    5.5560 C   0  0  0  0  0  0  0  0  0  0  0  0
   -3.4815   -0.7386    5.6094 H   0  0  0  0  0  0  0  0  0  0  0  0
   -1.8906   -0.2899    6.1903 H   0  0  0  0  0  0  0  0  0  0  0  0
   -3.1599    0.9126    6.0956 H   0  0  0  0  0  0  0  0  0  0  0  0
   -3.0397    1.3125    3.5142 N   0  0  0  0  0  0  0  0  0  0  0  0
   -2.7928    1.7385    2.1618 C   0  0  2  0  0  0  0  0  0  0  0  0
   -1.4579    1.1532    1.7206 C   0  0  0  0  0  0  0  0  0  0  0  0
   -0.5858    0.8004    2.5118 O   0  0  0  0  0  0  0  0  0  0  0  0
   -2.7841    3.2553    2.0523 C   0  0  0  0  0  0  0  0  0  0  0  0
   -3.8047    1.7484    4.0260 H   0  0  0  0  0  0  0  0  0  0  0  0
   -3.5969    1.3201    1.5466 H   0  0  0  0  0  0  0  0  0  0  0  0
   -1.9850    3.6926    2.6620 H   0  0  0  0  0  0  0  0  0  0  0  0
   -2.6246    3.5776    1.0180 H   0  0  0  0  0  0  0  0  0  0  0  0
   -3.7342    3.6765    2.3981 H   0  0  0  0  0  0  0  0  0  0  0  0
   -1.3352    1.1101    0.3372 N   0  0  0  0  0  0  0  0  0  0  0  0
   -0.1579    0.6093   -0.3265 C   0  0  2  0  0  0  0  0  0  0  0  0
    0.1832    1.5912   -1.4417 C   0  0  0  0  0  0  0  0  0  0  0  0
    1.2681    2.1637   -1.5205 O   0  0  0  0  0  0  0  0  0  0  0  0
   -0.3705   -0.7962   -0.9005 C   0  0  0  0  0  0  0  0  0  0  0  0
   -0.5579   -1.8421    0.1712 C   0  0  0  0  0  0  0  0  0  0  0  0
   -1.7656   -2.3204    0.6247 C   0  0  0  0  0  0  0  0  0  0  0  0
    0.4709   -2.5111    0.8917 C   0  0  0  0  0  0  0  0  0  0  0  0
   -1.5122   -3.2541    1.5934 N   0  0  0  0  0  0  0  0  0  0  0  0
   -0.1547   -3.3912    1.7773 C   0  0  0  0  0  0  0  0  0  0  0  0
    1.8786   -2.4521    0.8753 C   0  0  0  0  0  0  0  0  0  0  0  0
    0.5599   -4.2186    2.6509 C   0  0  0  0  0  0  0  0  0  0  0  0
    2.6065   -3.2739    1.7435 C   0  0  0  0  0  0  0  0  0  0  0  0
    1.9552   -4.1428    2.6168 C   0  0  0  0  0  0  0  0  0  0  0  0
   -2.1183    1.4068   -0.2401 H   0  0  0  0  0  0  0  0  0  0  0  0
    0.6474    0.6173    0.4175 H   0  0  0  0  0  0  0  0  0  0  0  0
    0.4736   -1.0754   -1.5456 H   0  0  0  0  0  0  0  0  0  0  0  0
   -1.2515   -0.8137   -1.5557 H   0  0  0  0  0  0  0  0  0  0  0  0
   -2.7826   -2.0798    0.3468 H   0  0  0  0  0  0  0  0  0  0  0  0
   -2.2188   -3.7688    2.1006 H   0  0  0  0  0  0  0  0  0  0  0  0
    2.4011   -1.7794    0.2012 H   0  0  0  0  0  0  0  0  0  0  0  0
    0.0538   -4.8961    3.3302 H   0  0  0  0  0  0  0  0  0  0  0  0
    3.6924   -3.2325    1.7358 H   0  0  0  0  0  0  0  0  0  0  0  0
    2.5403   -4.7722    3.2824 H   0  0  0  0  0  0  0  0  0  0  0  0
   -0.8488    1.7113   -2.3619 N   0  0  0  0  0  0  0  0  0  0  0  0
   -0.7762    2.5598   -3.5296 C   0  0  2  0  0  0  0  0  0  0  0  0
   -0.3184    3.9409   -3.0796 C   0  0  0  0  0  0  0  0  0  0  0  0
   -0.4489    4.3484   -1.9272 O   0  0  0  0  0  0  0  0  0  0  0  0
   -2.1176    2.6371   -4.2418 C   0  0  0  0  0  0  0  0  0  0  0  0
   -1.6980    1.1758   -2.2069 H   0  0  0  0  0  0  0  0  0  0  0  0
   -0.0215    2.1221   -4.1921 H   0  0  0  0  0  0  0  0  0  0  0  0
   -2.8865    3.0731   -3.5936 H   0  0  0  0  0  0  0  0  0  0  0  0
   -2.0538    3.2573   -5.1420 H   0  0  0  0  0  0  0  0  0  0  0  0
   -2.4595    1.6397   -4.5384 H   0  0  0  0  0  0  0  0  0  0  0  0
    0.2139    4.6810   -4.1261 N   0  0  0  0  0  0  0  0  0  0  0  0
    0.7070    6.0279   -3.9568 C   0  0  0  0  0  0  0  0  0  0  0  0
    0.3007    4.2565   -5.0448 H   0  0  0  0  0  0  0  0  0  0  0  0
   -0.0990    6.7441   -4.1745 H   0  0  0  0  0  0  0  0  0  0  0  0
    1.0494    6.1652   -2.9205 H   0  0  0  0  0  0  0  0  0  0  0  0
    1.5466    6.2002   -4.6462 H   0  0  0  0  0  0  0  0  0  0  0  0
 29 30  2  0  0  0  0
 27 29  1  0  0  0  0
 28 30  1  0  0  0  0
 24 27  2  0  0  0  0
 26 28  2  0  0  0  0
 22 23  2  0  0  0  0
 23 25  1  0  0  0  0
 22 24  1  0  0  0  0
 24 26  1  0  0  0  0
 21 22  1  0  0  0  0
 25 26  1  0  0  0  0
  1  3  1  0  0  0  0
  1  7  1  0  0  0  0
  1  2  2  0  0  0  0
 42 43  1  0  0  0  0
 43 51  1  0  0  0  0
 43 44  2  0  0  0  0
  8  9  1  0  0  0  0
  9 17  1  0  0  0  0
  9 10  2  0  0  0  0
 18 19  1  0  0  0  0
 19 41  1  0  0  0  0
 19 20  2  0  0  0  0
 42 45  1  0  0  0  0
  8 11  1  0  0  0  0
 51 52  1  0  0  0  0
 18 21  1  0  0  0  0
 41 42  1  0  0  0  0
  7  8  1  0  0  0  0
 17 18  1  0  0  0  0
 29 39  1  0  0  0  0
 30 40  1  0  0  0  0
 27 37  1  0  0  0  0
 28 38  1  0  0  0  0
 23 35  1  0  0  0  0
  3  4  1  0  0  0  0
  3  5  1  0  0  0  0
  3  6  1  0  0  0  0
 45 48  1  0  0  0  0
 45 49  1  0  0  0  0
 45 50  1  0  0  0  0
 11 14  1  0  0  0  0
 11 15  1  0  0  0  0
 11 16  1  0  0  0  0
 52 54  1  0  0  0  0
 52 55  1  0  0  0  0
 52 56  1  0  0  0  0
 21 33  1  0  0  0  0
 21 34  1  0  0  0  0
 42 47  1  0  0  0  0
  8 13  1  0  0  0  0
 18 32  1  0  0  0  0
 25 36  1  0  0  0  0
 51 53  1  0  0  0  0
  7 12  1  0  0  0  0
 41 46  1  0  0  0  0
 17 31  1  0  0  0  0
M  END
$$$$

  -OEChem-05262214473D

 56 57  0     1  0  0  0  0  0999 V2000
   -2.2900    0.3401    4.1553 C   0  0  0  0  0  0  0  0  0  0  0  0
   -1.3426   -0.2746    3.6796 O   0  0  0  0  0  0  0  0  0  0  0  0
   -2.7219    0.0577    5.5560 C   0  0  0  0  0  0  0  0  0  0  0  0
   -3.4815   -0.7386    5.6094 H   0  0  0  0  0  0  0  0  0  0  0  0
   -1.8906   -0.2899    6.1903 H   0  0  0  0  0  0  0  0  0  0  0  0
   -3.1599    0.9126    6.0956 H   0  0  0  0  0  0  0  0  0  0  0  0
   -3.0397    1.3125    3.5142 N   0  0  0  0  0  0  0  0  0  0  0  0
   -2.7928    1.7385    2.1618 C   0  0  2  0  0  0  0  0  0  0  0  0
   -1.4579    1.1532    1.7206 C   0  0  0  0  0  0  0  0  0  0  0  0
   -0.5858    0.8004    2.5118 O   0  0  0  0  0  0  0  0  0  0  0  0
   -2.7841    3.2553    2.0523 C   0  0  0  0  0  0  0  0  0  0  0  0
   -3.8047    1.7484    4.0260 H   0  0  0  0  0  0  0  0  0  0  0  0
   -3.5969    1.3201    1.5466 H   0  0  0  0  0  0  0  0  0  0  0  0
   -1.9850    3.6926    2.6620 H   0  0  0  0  0  0  0  0  0  0  0  0
   -2.6246    3.5776    1.0180 H   0  0  0  0  0  0  0  0  0  0  0  0
   -3.7342    3.6765    2.3981 H   0  0  0  0  0  0  0  0  0  0  0  0
   -1.3352    1.1101    0.3372 N   0  0  0  0  0  0  0  0  0  0  0  0
   -0.1579    0.6093   -0.3265 C   0  0  2  0  0  0  0  0  0  0  0  0
    0.1832    1.5912   -1.4417 C   0  0  0  0  0  0  0  0  0  0  0  0
    1.3315    1.9581   -1.6821 O   0  0  0  0  0  0  0  0  0  0  0  0
   -0.3705   -0.7962   -0.9005 C   0  0  0  0  0  0  0  0  0  0  0  0
   -0.5579   -1.8421    0.1712 C   0  0  0  0  0  0  0  0  0  0  0  0
   -1.7656   -2.3204    0.6247 C   0  0  0  0  0  0  0  0  0  0  0  0
    0.4709   -2.5111    0.8917 C   0  0  0  0  0  0  0  0  0  0  0  0
   -1.5122   -3.2541    1.5934 N   0  0  0  0  0  0  0  0  0  0  0  0
   -0.1547   -3.3912    1.7773 C   0  0  0  0  0  0  0  0  0  0  0  0
    1.8786   -2.4521    0.8753 C   0  0  0  0  0  0  0  0  0  0  0  0
    0.5599   -4.2186    2.6509 C   0  0  0  0  0  0  0  0  0  0  0  0
    2.6065   -3.2739    1.7435 C   0  0  0  0  0  0  0  0  0  0  0  0
    1.9552   -4.1428    2.6168 C   0  0  0  0  0  0  0  0  0  0  0  0
   -2.1183    1.4068   -0.2401 H   0  0  0  0  0  0  0  0  0  0  0  0
    0.6474    0.6173    0.4175 H   0  0  0  0  0  0  0  0  0  0  0  0
    0.4736   -1.0754   -1.5456 H   0  0  0  0  0  0  0  0  0  0  0  0
   -1.2515   -0.8137   -1.5557 H   0  0  0  0  0  0  0  0  0  0  0  0
   -2.7826   -2.0798    0.3468 H   0  0  0  0  0  0  0  0  0  0  0  0
   -2.2188   -3.7688    2.1006 H   0  0  0  0  0  0  0  0  0  0  0  0
    2.4011   -1.7794    0.2012 H   0  0  0  0  0  0  0  0  0  0  0  0
    0.0538   -4.8961    3.3302 H   0  0  0  0  0  0  0  0  0  0  0  0
    3.6924   -3.2325    1.7358 H   0  0  0  0  0  0  0  0  0  0  0  0
    2.5403   -4.7722    3.2824 H   0  0  0  0  0  0  0  0  0  0  0  0
   -0.9404    1.9673   -2.1645 N   0  0  0  0  0  0  0  0  0  0  0  0
   -0.8934    2.8719   -3.2907 C   0  0  2  0  0  0  0  0  0  0  0  0
   -0.1096    4.1077   -2.8689 C   0  0  0  0  0  0  0  0  0  0  0  0
    0.0288    4.4459   -1.6952 O   0  0  0  0  0  0  0  0  0  0  0  0
   -2.2912    3.2477   -3.7573 C   0  0  0  0  0  0  0  0  0  0  0  0
   -1.8411    1.5876   -1.8881 H   0  0  0  0  0  0  0  0  0  0  0  0
   -0.3549    2.3527   -4.0911 H   0  0  0  0  0  0  0  0  0  0  0  0
   -2.8460    3.7689   -2.9686 H   0  0  0  0  0  0  0  0  0  0  0  0
   -2.2540    3.9103   -4.6283 H   0  0  0  0  0  0  0  0  0  0  0  0
   -2.8635    2.3551   -4.0320 H   0  0  0  0  0  0  0  0  0  0  0  0
    0.3805    4.8123   -3.9596 N   0  0  0  0  0  0  0  0  0  0  0  0
    1.1466    6.0288   -3.8215 C   0  0  0  0  0  0  0  0  0  0  0  0
    0.2341    4.4482   -4.8964 H   0  0  0  0  0  0  0  0  0  0  0  0
    0.4708    6.8955   -3.8669 H   0  0  0  0  0  0  0  0  0  0  0  0
    1.6716    6.0237   -2.8548 H   0  0  0  0  0  0  0  0  0  0  0  0
    1.8814    6.0939   -4.6374 H   0  0  0  0  0  0  0  0  0  0  0  0
 29 30  2  0  0  0  0
 27 29  1  0  0  0  0
 28 30  1  0  0  0  0
 24 27  2  0  0  0  0
 26 28  2  0  0  0  0
 22 23  2  0  0  0  0
 23 25  1  0  0  0  0
 22 24  1  0  0  0  0
 24 26  1  0  0  0  0
 21 22  1  0  0  0  0
 25 26  1  0  0  0  0
  1  3  1  0  0  0  0
  1  7  1  0  0  0  0
  1  2  2  0  0  0  0
 42 43  1  0  0  0  0
 43 51  1  0  0  0  0
 43 44  2  0  0  0  0
  8  9  1  0  0  0  0
  9 17  1  0  0  0  0
  9 10  2  0  0  0  0
 18 19  1  0  0  0  0
 19 41  1  0  0  0  0
 19 20  2  0  0  0  0
 42 45  1  0  0  0  0
  8 11  1  0  0  0  0
 51 52  1  0  0  0  0
 18 21  1  0  0  0  0
 41 42  1  0  0  0  0
  7  8  1  0  0  0  0
 17 18  1  0  0  0  0
 29 39  1  0  0  0  0
 30 40  1  0  0  0  0
 27 37  1  0  0  0  0
 28 38  1  0  0  0  0
 23 35  1  0  0  0  0
  3  4  1  0  0  0  0
  3  5  1  0  0  0  0
  3  6  1  0  0  0  0
 45 48  1  0  0  0  0
 45 49  1  0  0  0  0
 45 50  1  0  0  0  0
 11 14  1  0  0  0  0
 11 15  1  0  0  0  0
 11 16  1  0  0  0  0
 52 54  1  0  0  0  0
 52 55  1  0  0  0  0
 52 56  1  0  0  0  0
 21 33  1  0  0  0  0
 21 34  1  0  0  0  0
 42 47  1  0  0  0  0
  8 13  1  0  0  0  0
 18 32  1  0  0  0  0
 25 36  1  0  0  0  0
 51 53  1  0  0  0  0
  7 12  1  0  0  0  0
 41 46  1  0  0  0  0
 17 31  1  0  0  0  0
M  END
$$$$

  -OEChem-05262214473D

 56 57  0     1  0  0  0  0  0999 V2000
   -2.2900    0.3401    4.1553 C   0  0  0  0  0  0  0  0  0  0  0  0
   -1.3426   -0.2746    3.6796 O   0  0  0  0  0  0  0  0  0  0  0  0
   -2.7219    0.0577    5.5560 C   0  0  0  0  0  0  0  0  0  0  0  0
   -3.4815   -0.7386    5.6094 H   0  0  0  0  0  0  0  0  0  0  0  0
   -1.8906   -0.2899    6.1903 H   0  0  0  0  0  0  0  0  0  0  0  0
   -3.1599    0.9126    6.0956 H   0  0  0  0  0  0  0  0  0  0  0  0
   -3.0397    1.3125    3.5142 N   0  0  0  0  0  0  0  0  0  0  0  0
   -2.7928    1.7385    2.1618 C   0  0  2  0  0  0  0  0  0  0  0  0
   -1.4579    1.1532    1.7206 C   0  0  0  0  0  0  0  0  0  0  0  0
   -0.5858    0.8004    2.5118 O   0  0  0  0  0  0  0  0  0  0  0  0
   -2.7841    3.2553    2.0523 C   0  0  0  0  0  0  0  0  0  0  0  0
   -3.8047    1.7484    4.0260 H   0  0  0  0  0  0  0  0  0  0  0  0
   -3.5969    1.3201    1.5466 H   0  0  0  0  0  0  0  0  0  0  0  0
   -1.9850    3.6926    2.6620 H   0  0  0  0  0  0  0  0  0  0  0  0
   -2.6246    3.5776    1.0180 H   0  0  0  0  0  0  0  0  0  0  0  0
   -3.7342    3.6765    2.3981 H   0  0  0  0  0  0  0  0  0  0  0  0
   -1.3352    1.1101    0.3372 N   0  0  0  0  0  0  0  0  0  0  0  0
   -0.1579    0.6093   -0.3265 C   0  0  2  0  0  0  0  0  0  0  0  0
    0.1832    1.5912   -1.4417 C   0  0  0  0  0  0  0  0  0  0  0  0
    1.3268    1.7568   -1.8608 O   0  0  0  0  0  0  0  0  0  0  0  0
   -0.3705   -0.7962   -0.9005 C   0  0  0  0  0  0  0  0  0  0  0  0
   -0.5579   -1.8421    0.1712 C   0  0  0  0  0  0  0  0  0  0  0  0
   -1.7656   -2.3204    0.6247 C   0  0  0  0  0  0  0  0  0  0  0  0
    0.4709   -2.5111    0.8917 C   0  0  0  0  0  0  0  0  0  0  0  0
   -1.5122   -3.2541    1.5934 N   0  0  0  0  0  0  0  0  0  0  0  0
   -0.1547   -3.3912    1.7773 C   0  0  0  0  0  0  0  0  0  0  0  0
    1.8786   -2.4521    0.8753 C   0  0  0  0  0  0  0  0  0  0  0  0
    0.5599   -4.2186    2.6509 C   0  0  0  0  0  0  0  0  0  0  0  0
    2.6065   -3.2739    1.7435 C   0  0  0  0  0  0  0  0  0  0  0  0
    1.9552   -4.1428    2.6168 C   0  0  0  0  0  0  0  0  0  0  0  0
   -2.1183    1.4068   -0.2401 H   0  0  0  0  0  0  0  0  0  0  0  0
    0.6474    0.6173    0.4175 H   0  0  0  0  0  0  0  0  0  0  0  0
    0.4736   -1.0754   -1.5456 H   0  0  0  0  0  0  0  0  0  0  0  0
   -1.2515   -0.8137   -1.5557 H   0  0  0  0  0  0  0  0  0  0  0  0
   -2.7826   -2.0798    0.3468 H   0  0  0  0  0  0  0  0  0  0  0  0
   -2.2188   -3.7688    2.1006 H   0  0  0  0  0  0  0  0  0  0  0  0
    2.4011   -1.7794    0.2012 H   0  0  0  0  0  0  0  0  0  0  0  0
    0.0538   -4.8961    3.3302 H   0  0  0  0  0  0  0  0  0  0  0  0
    3.6924   -3.2325    1.7358 H   0  0  0  0  0  0  0  0  0  0  0  0
    2.5403   -4.7722    3.2824 H   0  0  0  0  0  0  0  0  0  0  0  0
   -0.9474    2.2205   -1.9438 N   0  0  0  0  0  0  0  0  0  0  0  0
   -0.9077    3.1816   -3.0224 C   0  0  2  0  0  0  0  0  0  0  0  0
    0.1587    4.2171   -2.6905 C   0  0  0  0  0  0  0  0  0  0  0  0
    0.5475    4.4362   -1.5451 O   0  0  0  0  0  0  0  0  0  0  0  0
   -2.2624    3.8423   -3.2250 C   0  0  0  0  0  0  0  0  0  0  0  0
   -1.8482    1.9941   -1.5325 H   0  0  0  0  0  0  0  0  0  0  0  0
   -0.6164    2.6328   -3.9245 H   0  0  0  0  0  0  0  0  0  0  0  0
   -2.5710    4.3970   -2.3314 H   0  0  0  0  0  0  0  0  0  0  0  0
   -2.2380    4.5492   -4.0608 H   0  0  0  0  0  0  0  0  0  0  0  0
   -3.0339    3.0933   -3.4341 H   0  0  0  0  0  0  0  0  0  0  0  0
    0.5941    4.8979   -3.8188 N   0  0  0  0  0  0  0  0  0  0  0  0
    1.5940    5.9387   -3.7640 C   0  0  0  0  0  0  0  0  0  0  0  0
    0.2307    4.6373   -4.7309 H   0  0  0  0  0  0  0  0  0  0  0  0
    1.1010    6.9161   -3.6560 H   0  0  0  0  0  0  0  0  0  0  0  0
    2.2567    5.7653   -2.9033 H   0  0  0  0  0  0  0  0  0  0  0  0
    2.1862    5.9273   -4.6909 H   0  0  0  0  0  0  0  0  0  0  0  0
 29 30  2  0  0  0  0
 27 29  1  0  0  0  0
 28 30  1  0  0  0  0
 24 27  2  0  0  0  0
 26 28  2  0  0  0  0
 22 23  2  0  0  0  0
 23 25  1  0  0  0  0
 22 24  1  0  0  0  0
 24 26  1  0  0  0  0
 21 22  1  0  0  0  0
 25 26  1  0  0  0  0
  1  3  1  0  0  0  0
  1  7  1  0  0  0  0
  1  2  2  0  0  0  0
 42 43  1  0  0  0  0
 43 51  1  0  0  0  0
 43 44  2  0  0  0  0
  8  9  1  0  0  0  0
  9 17  1  0  0  0  0
  9 10  2  0  0  0  0
 18 19  1  0  0  0  0
 19 41  1  0  0  0  0
 19 20  2  0  0  0  0
 42 45  1  0  0  0  0
  8 11  1  0  0  0  0
 51 52  1  0  0  0  0
 18 21  1  0  0  0  0
 41 42  1  0  0  0  0
  7  8  1  0  0  0  0
 17 18  1  0  0  0  0
 29 39  1  0  0  0  0
 30 40  1  0  0  0  0
 27 37  1  0  0  0  0
 28 38  1  0  0  0  0
 23 35  1  0  0  0  0
  3  4  1  0  0  0  0
  3  5  1  0  0  0  0
  3  6  1  0  0  0  0
 45 48  1  0  0  0  0
 45 49  1  0  0  0  0
 45 50  1  0  0  0  0
 11 14  1  0  0  0  0
 11 15  1  0  0  0  0
 11 16  1  0  0  0  0
 52 54  1  0  0  0  0
 52 55  1  0  0  0  0
 52 56  1  0  0  0  0
 21 33  1  0  0  0  0
 21 34  1  0  0  0  0
 42 47  1  0  0  0  0
  8 13  1  0  0  0  0
 18 32  1  0  0  0  0
 25 36  1  0  0  0  0
 51 53  1  0  0  0  0
  7 12  1  0  0  0  0
 41 46  1  0  0  0  0
 17 31  1  0  0  0  0
M  END
$$$$

  -OEChem-05262214473D

 56 57  0     1  0  0  0  0  0999 V2000
   -2.2900    0.3401    4.1553 C   0  0  0  0  0  0  0  0  0  0  0  0
   -1.3426   -0.2746    3.6796 O   0  0  0  0  0  0  0  0  0  0  0  0
   -2.7219    0.0577    5.5560 C   0  0  0  0  0  0  0  0  0  0  0  0
   -3.4815   -0.7386    5.6094 H   0  0  0  0  0  0  0  0  0  0  0  0
   -1.8906   -0.2899    6.1903 H   0  0  0  0  0  0  0  0  0  0  0  0
   -3.1599    0.9126    6.0956 H   0  0  0  0  0  0  0  0  0  0  0  0
   -3.0397    1.3125    3.5142 N   0  0  0  0  0  0  0  0  0  0  0  0
   -2.7928    1.7385    2.1618 C   0  0  2  0  0  0  0  0  0  0  0  0
   -1.4579    1.1532    1.7206 C   0  0  0  0  0  0  0  0  0  0  0  0
   -0.5858    0.8004    2.5118 O   0  0  0  0  0  0  0  0  0  0  0  0
   -2.7841    3.2553    2.0523 C   0  0  0  0  0  0  0  0  0  0  0  0
   -3.8047    1.7484    4.0260 H   0  0  0  0  0  0  0  0  0  0  0  0
   -3.5969    1.3201    1.5466 H   0  0  0  0  0  0  0  0  0  0  0  0
   -1.9850    3.6926    2.6620 H   0  0  0  0  0  0  0  0  0  0  0  0
   -2.6246    3.5776    1.0180 H   0  0  0  0  0  0  0  0  0  0  0  0
   -3.7342    3.6765    2.3981 H   0  0  0  0  0  0  0  0  0  0  0  0
   -1.3352    1.1101    0.3372 N   0  0  0  0  0  0  0  0  0  0  0  0
   -0.1579    0.6093   -0.3265 C   0  0  2  0  0  0  0  0  0  0  0  0
    0.1832    1.5912   -1.4417 C   0  0  0  0  0  0  0  0  0  0  0  0
    1.2545    1.5736   -2.0442 O   0  0  0  0  0  0  0  0  0  0  0  0
   -0.3705   -0.7962   -0.9005 C   0  0  0  0  0  0  0  0  0  0  0  0
   -0.5579   -1.8421    0.1712 C   0  0  0  0  0  0  0  0  0  0  0  0
   -1.7656   -2.3204    0.6247 C   0  0  0  0  0  0  0  0  0  0  0  0
    0.4709   -2.5111    0.8917 C   0  0  0  0  0  0  0  0  0  0  0  0
   -1.5122   -3.2541    1.5934 N   0  0  0  0  0  0  0  0  0  0  0  0
   -0.1547   -3.3912    1.7773 C   0  0  0  0  0  0  0  0  0  0  0  0
    1.8786   -2.4521    0.8753 C   0  0  0  0  0  0  0  0  0  0  0  0
    0.5599   -4.2186    2.6509 C   0  0  0  0  0  0  0  0  0  0  0  0
    2.6065   -3.2739    1.7435 C   0  0  0  0  0  0  0  0  0  0  0  0
    1.9552   -4.1428    2.6168 C   0  0  0  0  0  0  0  0  0  0  0  0
   -2.1183    1.4068   -0.2401 H   0  0  0  0  0  0  0  0  0  0  0  0
    0.6474    0.6173    0.4175 H   0  0  0  0  0  0  0  0  0  0  0  0
    0.4736   -1.0754   -1.5456 H   0  0  0  0  0  0  0  0  0  0  0  0
   -1.2515   -0.8137   -1.5557 H   0  0  0  0  0  0  0  0  0  0  0  0
   -2.7826   -2.0798    0.3468 H   0  0  0  0  0  0  0  0  0  0  0  0
   -2.2188   -3.7688    2.1006 H   0  0  0  0  0  0  0  0  0  0  0  0
    2.4011   -1.7794    0.2012 H   0  0  0  0  0  0  0  0  0  0  0  0
    0.0538   -4.8961    3.3302 H   0  0  0  0  0  0  0  0  0  0  0  0
    3.6924   -3.2325    1.7358 H   0  0  0  0  0  0  0  0  0  0  0  0
    2.5403   -4.7722    3.2824 H   0  0  0  0  0  0  0  0  0  0  0  0
   -0.8695    2.4536   -1.7147 N   0  0  0  0  0  0  0  0  0  0  0  0
   -0.8181    3.4680   -2.7428 C   0  0  2  0  0  0  0  0  0  0  0  0
    0.4683    4.2616   -2.5566 C   0  0  0  0  0  0  0  0  0  0  0  0
    1.0717    4.3200   -1.4872 O   0  0  0  0  0  0  0  0  0  0  0  0
   -2.0333    4.3803   -2.6812 C   0  0  0  0  0  0  0  0  0  0  0  0
   -1.7188    2.3674   -1.1642 H   0  0  0  0  0  0  0  0  0  0  0  0
   -0.7883    2.9431   -3.7039 H   0  0  0  0  0  0  0  0  0  0  0  0
   -2.0802    4.9148   -1.7254 H   0  0  0  0  0  0  0  0  0  0  0  0
   -2.0071    5.1305   -3.4784 H   0  0  0  0  0  0  0  0  0  0  0  0
   -2.9590    3.8041   -2.7855 H   0  0  0  0  0  0  0  0  0  0  0  0
    0.8401    4.9320   -3.7136 N   0  0  0  0  0  0  0  0  0  0  0  0
    2.0186    5.7636   -3.7883 C   0  0  0  0  0  0  0  0  0  0  0  0
    0.2909    4.8111   -4.5595 H   0  0  0  0  0  0  0  0  0  0  0  0
    1.7488    6.8044   -3.5561 H   0  0  0  0  0  0  0  0  0  0  0  0
    2.7648    5.4078   -3.0626 H   0  0  0  0  0  0  0  0  0  0  0  0
    2.4401    5.7118   -4.8030 H   0  0  0  0  0  0  0  0  0  0  0  0
 29 30  2  0  0  0  0
 27 29  1  0  0  0  0
 28 30  1  0  0  0  0
 24 27  2  0  0  0  0
 26 28  2  0  0  0  0
 22 23  2  0  0  0  0
 23 25  1  0  0  0  0
 22 24  1  0  0  0  0
 24 26  1  0  0  0  0
 21 22  1  0  0  0  0
 25 26  1  0  0  0  0
  1  3  1  0  0  0  0
  1  7  1  0  0  0  0
  1  2  2  0  0  0  0
 42 43  1  0  0  0  0
 43 51  1  0  0  0  0
 43 44  2  0  0  0  0
  8  9  1  0  0  0  0
  9 17  1  0  0  0  0
  9 10  2  0  0  0  0
 18 19  1  0  0  0  0
 19 41  1  0  0  0  0
 19 20  2  0  0  0  0
 42 45  1  0  0  0  0
  8 11  1  0  0  0  0
 51 52  1  0  0  0  0
 18 21  1  0  0  0  0
 41 42  1  0  0  0  0
  7  8  1  0  0  0  0
 17 18  1  0  0  0  0
 29 39  1  0  0  0  0
 30 40  1  0  0  0  0
 27 37  1  0  0  0  0
 28 38  1  0  0  0  0
 23 35  1  0  0  0  0
  3  4  1  0  0  0  0
  3  5  1  0  0  0  0
  3  6  1  0  0  0  0
 45 48  1  0  0  0  0
 45 49  1  0  0  0  0
 45 50  1  0  0  0  0
 11 14  1  0  0  0  0
 11 15  1  0  0  0  0
 11 16  1  0  0  0  0
 52 54  1  0  0  0  0
 52 55  1  0  0  0  0
 52 56  1  0  0  0  0
 21 33  1  0  0  0  0
 21 34  1  0  0  0  0
 42 47  1  0  0  0  0
  8 13  1  0  0  0  0
 18 32  1  0  0  0  0
 25 36  1  0  0  0  0
 51 53  1  0  0  0  0
  7 12  1  0  0  0  0
 41 46  1  0  0  0  0
 17 31  1  0  0  0  0
M  END
$$$$

  -OEChem-05262214473D

 56 57  0     1  0  0  0  0  0999 V2000
   -2.2900    0.3401    4.1553 C   0  0  0  0  0  0  0  0  0  0  0  0
   -1.3426   -0.2746    3.6796 O   0  0  0  0  0  0  0  0  0  0  0  0
   -2.7219    0.0577    5.5560 C   0  0  0  0  0  0  0  0  0  0  0  0
   -3.4815   -0.7386    5.6094 H   0  0  0  0  0  0  0  0  0  0  0  0
   -1.8906   -0.2899    6.1903 H   0  0  0  0  0  0  0  0  0  0  0  0
   -3.1599    0.9126    6.0956 H   0  0  0  0  0  0  0  0  0  0  0  0
   -3.0397    1.3125    3.5142 N   0  0  0  0  0  0  0  0  0  0  0  0
   -2.7928    1.7385    2.1618 C   0  0  2  0  0  0  0  0  0  0  0  0
   -1.4579    1.1532    1.7206 C   0  0  0  0  0  0  0  0  0  0  0  0
   -0.5858    0.8004    2.5118 O   0  0  0  0  0  0  0  0  0  0  0  0
   -2.7841    3.2553    2.0523 C   0  0  0  0  0  0  0  0  0  0  0  0
   -3.8047    1.7484    4.0260 H   0  0  0  0  0  0  0  0  0  0  0  0
   -3.5969    1.3201    1.5466 H   0  0  0  0  0  0  0  0  0  0  0  0
   -1.9850    3.6926    2.6620 H   0  0  0  0  0  0  0  0  0  0  0  0
   -2.6246    3.5776    1.0180 H   0  0  0  0  0  0  0  0  0  0  0  0
   -3.7342    3.6765    2.3981 H   0  0  0  0  0  0  0  0  0  0  0  0
   -1.3352    1.1101    0.3372 N   0  0  0  0  0  0  0  0  0  0  0  0
   -0.1579    0.6093   -0.3265 C   0  0  2  0  0  0  0  0  0  0  0  0
    0.1832    1.5912   -1.4417 C   0  0  0  0  0  0  0  0  0  0  0  0
    1.1193    1.4210   -2.2200 O   0  0  0  0  0  0  0  0  0  0  0  0
   -0.3705   -0.7962   -0.9005 C   0  0  0  0  0  0  0  0  0  0  0  0
   -0.5579   -1.8421    0.1712 C   0  0  0  0  0  0  0  0  0  0  0  0
   -1.7656   -2.3204    0.6247 C   0  0  0  0  0  0  0  0  0  0  0  0
    0.4709   -2.5111    0.8917 C   0  0  0  0  0  0  0  0  0  0  0  0
   -1.5122   -3.2541    1.5934 N   0  0  0  0  0  0  0  0  0  0  0  0
   -0.1547   -3.3912    1.7773 C   0  0  0  0  0  0  0  0  0  0  0  0
    1.8786   -2.4521    0.8753 C   0  0  0  0  0  0  0  0  0  0  0  0
    0.5599   -4.2186    2.6509 C   0  0  0  0  0  0  0  0  0  0  0  0
    2.6065   -3.2739    1.7435 C   0  0  0  0  0  0  0  0  0  0  0  0
    1.9552   -4.1428    2.6168 C   0  0  0  0  0  0  0  0  0  0  0  0
   -2.1183    1.4068   -0.2401 H   0  0  0  0  0  0  0  0  0  0  0  0
    0.6474    0.6173    0.4175 H   0  0  0  0  0  0  0  0  0  0  0  0
    0.4736   -1.0754   -1.5456 H   0  0  0  0  0  0  0  0  0  0  0  0
   -1.2515   -0.8137   -1.5557 H   0  0  0  0  0  0  0  0  0  0  0  0
   -2.7826   -2.0798    0.3468 H   0  0  0  0  0  0  0  0  0  0  0  0
   -2.2188   -3.7688    2.1006 H   0  0  0  0  0  0  0  0  0  0  0  0
    2.4011   -1.7794    0.2012 H   0  0  0  0  0  0  0  0  0  0  0  0
    0.0538   -4.8961    3.3302 H   0  0  0  0  0  0  0  0  0  0  0  0
    3.6924   -3.2325    1.7358 H   0  0  0  0  0  0  0  0  0  0  0  0
    2.5403   -4.7722    3.2824 H   0  0  0  0  0  0  0  0  0  0  0  0
   -0.7119    2.6507   -1.4929 N   0  0  0  0  0  0  0  0  0  0  0  0
   -0.6308    3.7115   -2.4711 C   0  0  2  0  0  0  0  0  0  0  0  0
    0.7982    4.2383   -2.4763 C   0  0  0  0  0  0  0  0  0  0  0  0
    1.5656    4.1051   -1.5253 O   0  0  0  0  0  0  0  0  0  0  0  0
   -1.6195    4.8252   -2.1630 C   0  0  0  0  0  0  0  0  0  0  0  0
   -1.4617    2.6821   -0.8084 H   0  0  0  0  0  0  0  0  0  0  0  0
   -0.8587    3.2626   -3.4441 H   0  0  0  0  0  0  0  0  0  0  0  0
   -1.4071    5.2870   -1.1918 H   0  0  0  0  0  0  0  0  0  0  0  0
   -1.5769    5.6145   -2.9207 H   0  0  0  0  0  0  0  0  0  0  0  0
   -2.6440    4.4388   -2.1303 H   0  0  0  0  0  0  0  0  0  0  0  0
    1.1017    4.9123   -3.6509 N   0  0  0  0  0  0  0  0  0  0  0  0
    2.3916    5.5155   -3.8926 C   0  0  0  0  0  0  0  0  0  0  0  0
    0.4105    4.9577   -4.3938 H   0  0  0  0  0  0  0  0  0  0  0  0
    2.3701    6.5682   -3.5741 H   0  0  0  0  0  0  0  0  0  0  0  0
    3.1615    4.9755   -3.3219 H   0  0  0  0  0  0  0  0  0  0  0  0
    2.6258    5.4620   -4.9661 H   0  0  0  0  0  0  0  0  0  0  0  0
 29 30  2  0  0  0  0
 27 29  1  0  0  0  0
 28 30  1  0  0  0  0
 24 27  2  0  0  0  0
 26 28  2  0  0  0  0
 22 23  2  0  0  0  0
 23 25  1  0  0  0  0
 22 24  1  0  0  0  0
 24 26  1  0  0  0  0
 21 22  1  0  0  0  0
 25 26  1  0  0  0  0
  1  3  1  0  0  0  0
  1  7  1  0  0  0  0
  1  2  2  0  0  0  0
 42 43  1  0  0  0  0
 43 51  1  0  0  0  0
 43 44  2  0  0  0  0
  8  9  1  0  0  0  0
  9 17  1  0  0  0  0
  9 10  2  0  0  0  0
 18 19  1  0  0  0  0
 19 41  1  0  0  0  0
 19 20  2  0  0  0  0
 42 45  1  0  0  0  0
  8 11  1  0  0  0  0
 51 52  1  0  0  0  0
 18 21  1  0  0  0  0
 41 42  1  0  0  0  0
  7  8  1  0  0  0  0
 17 18  1  0  0  0  0
 29 39  1  0  0  0  0
 30 40  1  0  0  0  0
 27 37  1  0  0  0  0
 28 38  1  0  0  0  0
 23 35  1  0  0  0  0
  3  4  1  0  0  0  0
  3  5  1  0  0  0  0
  3  6  1  0  0  0  0
 45 48  1  0  0  0  0
 45 49  1  0  0  0  0
 45 50  1  0  0  0  0
 11 14  1  0  0  0  0
 11 15  1  0  0  0  0
 11 16  1  0  0  0  0
 52 54  1  0  0  0  0
 52 55  1  0  0  0  0
 52 56  1  0  0  0  0
 21 33  1  0  0  0  0
 21 34  1  0  0  0  0
 42 47  1  0  0  0  0
  8 13  1  0  0  0  0
 18 32  1  0  0  0  0
 25 36  1  0  0  0  0
 51 53  1  0  0  0  0
  7 12  1  0  0  0  0
 41 46  1  0  0  0  0
 17 31  1  0  0  0  0
M  END
$$$$

  -OEChem-05262214473D

 56 57  0     1  0  0  0  0  0999 V2000
   -2.2900    0.3401    4.1553 C   0  0  0  0  0  0  0  0  0  0  0  0
   -1.3426   -0.2746    3.6796 O   0  0  0  0  0  0  0  0  0  0  0  0
   -2.7219    0.0577    5.5560 C   0  0  0  0  0  0  0  0  0  0  0  0
   -3.4815   -0.7386    5.6094 H   0  0  0  0  0  0  0  0  0  0  0  0
   -1.8906   -0.2899    6.1903 H   0  0  0  0  0  0  0  0  0  0  0  0
   -3.1599    0.9126    6.0956 H   0  0  0  0  0  0  0  0  0  0  0  0
   -3.0397    1.3125    3.5142 N   0  0  0  0  0  0  0  0  0  0  0  0
   -2.7928    1.7385    2.1618 C   0  0  2  0  0  0  0  0  0  0  0  0
   -1.4579    1.1532    1.7206 C   0  0  0  0  0  0  0  0  0  0  0  0
   -0.5858    0.8004    2.5118 O   0  0  0  0  0  0  0  0  0  0  0  0
   -2.7841    3.2553    2.0523 C   0  0  0  0  0  0  0  0  0  0  0  0
   -3.8047    1.7484    4.0260 H   0  0  0  0  0  0  0  0  0  0  0  0
   -3.5969    1.3201    1.5466 H   0  0  0  0  0  0  0  0  0  0  0  0
   -1.9850    3.6926    2.6620 H   0  0  0  0  0  0  0  0  0  0  0  0
   -2.6246    3.5776    1.0180 H   0  0  0  0  0  0  0  0  0  0  0  0
   -3.7342    3.6765    2.3981 H   0  0  0  0  0  0  0  0  0  0  0  0
   -1.3352    1.1101    0.3372 N   0  0  0  0  0  0  0  0  0  0  0  0
   -0.1579    0.6093   -0.3265 C   0  0  2  0  0  0  0  0  0  0  0  0
    0.1832    1.5912   -1.4417 C   0  0  0  0  0  0  0  0  0  0  0  0
    0.9305    1.3093   -2.3760 O   0  0  0  0  0  0  0  0  0  0  0  0
   -0.3705   -0.7962   -0.9005 C   0  0  0  0  0  0  0  0  0  0  0  0
   -0.5579   -1.8421    0.1712 C   0  0  0  0  0  0  0  0  0  0  0  0
   -1.7656   -2.3204    0.6247 C   0  0  0  0  0  0  0  0  0  0  0  0
    0.4709   -2.5111    0.8917 C   0  0  0  0  0  0  0  0  0  0  0  0
   -1.5122   -3.2541    1.5934 N   0  0  0  0  0  0  0  0  0  0  0  0
   -0.1547   -3.3912    1.7773 C   0  0  0  0  0  0  0  0  0  0  0  0
    1.8786   -2.4521    0.8753 C   0  0  0  0  0  0  0  0  0  0  0  0
    0.5599   -4.2186    2.6509 C   0  0  0  0  0  0  0  0  0  0  0  0
    2.6065   -3.2739    1.7435 C   0  0  0  0  0  0  0  0  0  0  0  0
    1.9552   -4.1428    2.6168 C   0  0  0  0  0  0  0  0  0  0  0  0
   -2.1183    1.4068   -0.2401 H   0  0  0  0  0  0  0  0  0  0  0  0
    0.6474    0.6173    0.4175 H   0  0  0  0  0  0  0  0  0  0  0  0
    0.4736   -1.0754   -1.5456 H   0  0  0  0  0  0  0  0  0  0  0  0
   -1.2515   -0.8137   -1.5557 H   0  0  0  0  0  0  0  0  0  0  0  0
   -2.7826   -2.0798    0.3468 H   0  0  0  0  0  0  0  0  0  0  0  0
   -2.2188   -3.7688    2.1006 H   0  0  0  0  0  0  0  0  0  0  0  0
    2.4011   -1.7794    0.2012 H   0  0  0  0  0  0  0  0  0  0  0  0
    0.0538   -4.8961    3.3302 H   0  0  0  0  0  0  0  0  0  0  0  0
    3.6924   -3.2325    1.7358 H   0  0  0  0  0  0  0  0  0  0  0  0
    2.5403   -4.7722    3.2824 H   0  0  0  0  0  0  0  0  0  0  0  0
   -0.4854    2.7985   -1.2936 N   0  0  0  0  0  0  0  0  0  0  0  0
   -0.3585    3.8955   -2.2258 C   0  0  2  0  0  0  0  0  0  0  0  0
    1.1257    4.1486   -2.4550 C   0  0  0  0  0  0  0  0  0  0  0  0
    1.9957    3.8062   -1.6569 O   0  0  0  0  0  0  0  0  0  0  0  0
   -1.0492    5.1465   -1.7056 C   0  0  0  0  0  0  0  0  0  0  0  0
   -1.0946    2.9169   -0.4894 H   0  0  0  0  0  0  0  0  0  0  0  0
   -0.8229    3.5696   -3.1629 H   0  0  0  0  0  0  0  0  0  0  0  0
   -0.5975    5.4881   -0.7671 H   0  0  0  0  0  0  0  0  0  0  0  0
   -0.9767    5.9683   -2.4256 H   0  0  0  0  0  0  0  0  0  0  0  0
   -2.1103    4.9543   -1.5131 H   0  0  0  0  0  0  0  0  0  0  0  0
    1.3611    4.8401   -3.6351 N   0  0  0  0  0  0  0  0  0  0  0  0
    2.6874    5.2113   -4.0700 C   0  0  0  0  0  0  0  0  0  0  0  0
    0.5814    5.0670   -4.2453 H   0  0  0  0  0  0  0  0  0  0  0  0
    2.9225    6.2234   -3.7088 H   0  0  0  0  0  0  0  0  0  0  0  0
    3.4195    4.4979   -3.6636 H   0  0  0  0  0  0  0  0  0  0  0  0
    2.7308    5.1951   -5.1690 H   0  0  0  0  0  0  0  0  0  0  0  0
 29 30  2  0  0  0  0
 27 29  1  0  0  0  0
 28 30  1  0  0  0  0
 24 27  2  0  0  0  0
 26 28  2  0  0  0  0
 22 23  2  0  0  0  0
 23 25  1  0  0  0  0
 22 24  1  0  0  0  0
 24 26  1  0  0  0  0
 21 22  1  0  0  0  0
 25 26  1  0  0  0  0
  1  3  1  0  0  0  0
  1  7  1  0  0  0  0
  1  2  2  0  0  0  0
 42 43  1  0  0  0  0
 43 51  1  0  0  0  0
 43 44  2  0  0  0  0
  8  9  1  0  0  0  0
  9 17  1  0  0  0  0
  9 10  2  0  0  0  0
 18 19  1  0  0  0  0
 19 41  1  0  0  0  0
 19 20  2  0  0  0  0
 42 45  1  0  0  0  0
  8 11  1  0  0  0  0
 51 52  1  0  0  0  0
 18 21  1  0  0  0  0
 41 42  1  0  0  0  0
  7  8  1  0  0  0  0
 17 18  1  0  0  0  0
 29 39  1  0  0  0  0
 30 40  1  0  0  0  0
 27 37  1  0  0  0  0
 28 38  1  0  0  0  0
 23 35  1  0  0  0  0
  3  4  1  0  0  0  0
  3  5  1  0  0  0  0
  3  6  1  0  0  0  0
 45 48  1  0  0  0  0
 45 49  1  0  0  0  0
 45 50  1  0  0  0  0
 11 14  1  0  0  0  0
 11 15  1  0  0  0  0
 11 16  1  0  0  0  0
 52 54  1  0  0  0  0
 52 55  1  0  0  0  0
 52 56  1  0  0  0  0
 21 33  1  0  0  0  0
 21 34  1  0  0  0  0
 42 47  1  0  0  0  0
  8 13  1  0  0  0  0
 18 32  1  0  0  0  0
 25 36  1  0  0  0  0
 51 53  1  0  0  0  0
  7 12  1  0  0  0  0
 41 46  1  0  0  0  0
 17 31  1  0  0  0  0
M  END
$$$$

  -OEChem-05262214473D

 56 57  0     1  0  0  0  0  0999 V2000
   -2.2900    0.3401    4.1553 C   0  0  0  0  0  0  0  0  0  0  0  0
   -1.3426   -0.2746    3.6796 O   0  0  0  0  0  0  0  0  0  0  0  0
   -2.7219    0.0577    5.5560 C   0  0  0  0  0  0  0  0  0  0  0  0
   -3.4815   -0.7386    5.6094 H   0  0  0  0  0  0  0  0  0  0  0  0
   -1.8906   -0.2899    6.1903 H   0  0  0  0  0  0  0  0  0  0  0  0
   -3.1599    0.9126    6.0956 H   0  0  0  0  0  0  0  0  0  0  0  0
   -3.0397    1.3125    3.5142 N   0  0  0  0  0  0  0  0  0  0  0  0
   -2.7928    1.7385    2.1618 C   0  0  2  0  0  0  0  0  0  0  0  0
   -1.4579    1.1532    1.7206 C   0  0  0  0  0  0  0  0  0  0  0  0
   -0.5858    0.8004    2.5118 O   0  0  0  0  0  0  0  0  0  0  0  0
   -2.7841    3.2553    2.0523 C   0  0  0  0  0  0  0  0  0  0  0  0
   -3.8047    1.7484    4.0260 H   0  0  0  0  0  0  0  0  0  0  0  0
   -3.5969    1.3201    1.5466 H   0  0  0  0  0  0  0  0  0  0  0  0
   -1.9850    3.6926    2.6620 H   0  0  0  0  0  0  0  0  0  0  0  0
   -2.6246    3.5776    1.0180 H   0  0  0  0  0  0  0  0  0  0  0  0
   -3.7342    3.6765    2.3981 H   0  0  0  0  0  0  0  0  0  0  0  0
   -1.3352    1.1101    0.3372 N   0  0  0  0  0  0  0  0  0  0  0  0
   -0.1579    0.6093   -0.3265 C   0  0  2  0  0  0  0  0  0  0  0  0
    0.1832    1.5912   -1.4417 C   0  0  0  0  0  0  0  0  0  0  0  0
    0.7010    1.2462   -2.5018 O   0  0  0  0  0  0  0  0  0  0  0  0
   -0.3705   -0.7962   -0.9005 C   0  0  0  0  0  0  0  0  0  0  0  0
   -0.5579   -1.8421    0.1712 C   0  0  0  0  0  0  0  0  0  0  0  0
   -1.7656   -2.3204    0.6247 C   0  0  0  0  0  0  0  0  0  0  0  0
    0.4709   -2.5111    0.8917 C   0  0  0  0  0  0  0  0  0  0  0  0
   -1.5122   -3.2541    1.5934 N   0  0  0  0  0  0  0  0  0  0  0  0
   -0.1547   -3.3912    1.7773 C   0  0  0  0  0  0  0  0  0  0  0  0
    1.8786   -2.4521    0.8753 C   0  0  0  0  0  0  0  0  0  0  0  0
    0.5599   -4.2186    2.6509 C   0  0  0  0  0  0  0  0  0  0  0  0
    2.6065   -3.2739    1.7435 C   0  0  0  0  0  0  0  0  0  0  0  0
    1.9552   -4.1428    2.6168 C   0  0  0  0  0  0  0  0  0  0  0  0
   -2.1183    1.4068   -0.2401 H   0  0  0  0  0  0  0  0  0  0  0  0
    0.6474    0.6173    0.4175 H   0  0  0  0  0  0  0  0  0  0  0  0
    0.4736   -1.0754   -1.5456 H   0  0  0  0  0  0  0  0  0  0  0  0
   -1.2515   -0.8137   -1.5557 H   0  0  0  0  0  0  0  0  0  0  0  0
   -2.7826   -2.0798    0.3468 H   0  0  0  0  0  0  0  0  0  0  0  0
   -2.2188   -3.7688    2.1006 H   0  0  0  0  0  0  0  0  0  0  0  0
    2.4011   -1.7794    0.2012 H   0  0  0  0  0  0  0  0  0  0  0  0
    0.0538   -4.8961    3.3302 H   0  0  0  0  0  0  0  0  0  0  0  0
    3.6924   -3.2325    1.7358 H   0  0  0  0  0  0  0  0  0  0  0  0
    2.5403   -4.7722    3.2824 H   0  0  0  0  0  0  0  0  0  0  0  0
   -0.2054    2.8867   -1.1302 N   0  0  0  0  0  0  0  0  0  0  0  0
   -0.0197    4.0075   -2.0236 C   0  0  2  0  0  0  0  0  0  0  0  0
    1.4287    3.9987   -2.4943 C   0  0  0  0  0  0  0  0  0  0  0  0
    2.3326    3.4437   -1.8730 O   0  0  0  0  0  0  0  0  0  0  0  0
   -0.3613    5.3224   -1.3403 C   0  0  0  0  0  0  0  0  0  0  0  0
   -0.6423    3.0557   -0.2289 H   0  0  0  0  0  0  0  0  0  0  0  0
   -0.6834    3.8430   -2.8795 H   0  0  0  0  0  0  0  0  0  0  0  0
    0.2934    5.5044   -0.4802 H   0  0  0  0  0  0  0  0  0  0  0  0
   -0.2475    6.1677   -2.0270 H   0  0  0  0  0  0  0  0  0  0  0  0
   -1.3943    5.3155   -0.9761 H   0  0  0  0  0  0  0  0  0  0  0  0
    1.6007    4.7203   -3.6673 N   0  0  0  0  0  0  0  0  0  0  0  0
    2.8861    4.8717   -4.3082 C   0  0  0  0  0  0  0  0  0  0  0  0
    0.7920    5.1316   -4.1240 H   0  0  0  0  0  0  0  0  0  0  0  0
    3.3683    5.7935   -3.9509 H   0  0  0  0  0  0  0  0  0  0  0  0
    3.5213    4.0074   -4.0642 H   0  0  0  0  0  0  0  0  0  0  0  0
    2.7478    4.9291   -5.3980 H   0  0  0  0  0  0  0  0  0  0  0  0
 29 30  2  0  0  0  0
 27 29  1  0  0  0  0
 28 30  1  0  0  0  0
 24 27  2  0  0  0  0
 26 28  2  0  0  0  0
 22 23  2  0  0  0  0
 23 25  1  0  0  0  0
 22 24  1  0  0  0  0
 24 26  1  0  0  0  0
 21 22  1  0  0  0  0
 25 26  1  0  0  0  0
  1  3  1  0  0  0  0
  1  7  1  0  0  0  0
  1  2  2  0  0  0  0
 42 43  1  0  0  0  0
 43 51  1  0  0  0  0
 43 44  2  0  0  0  0
  8  9  1  0  0  0  0
  9 17  1  0  0  0  0
  9 10  2  0  0  0  0
 18 19  1  0  0  0  0
 19 41  1  0  0  0  0
 19 20  2  0  0  0  0
 42 45  1  0  0  0  0
  8 11  1  0  0  0  0
 51 52  1  0  0  0  0
 18 21  1  0  0  0  0
 41 42  1  0  0  0  0
  7  8  1  0  0  0  0
 17 18  1  0  0  0  0
 29 39  1  0  0  0  0
 30 40  1  0  0  0  0
 27 37  1  0  0  0  0
 28 38  1  0  0  0  0
 23 35  1  0  0  0  0
  3  4  1  0  0  0  0
  3  5  1  0  0  0  0
  3  6  1  0  0  0  0
 45 48  1  0  0  0  0
 45 49  1  0  0  0  0
 45 50  1  0  0  0  0
 11 14  1  0  0  0  0
 11 15  1  0  0  0  0
 11 16  1  0  0  0  0
 52 54  1  0  0  0  0
 52 55  1  0  0  0  0
 52 56  1  0  0  0  0
 21 33  1  0  0  0  0
 21 34  1  0  0  0  0
 42 47  1  0  0  0  0
  8 13  1  0  0  0  0
 18 32  1  0  0  0  0
 25 36  1  0  0  0  0
 51 53  1  0  0  0  0
  7 12  1  0  0  0  0
 41 46  1  0  0  0  0
 17 31  1  0  0  0  0
M  END
$$$$

  -OEChem-05262214473D

 56 57  0     1  0  0  0  0  0999 V2000
   -2.2900    0.3401    4.1553 C   0  0  0  0  0  0  0  0  0  0  0  0
   -1.3426   -0.2746    3.6796 O   0  0  0  0  0  0  0  0  0  0  0  0
   -2.7219    0.0577    5.5560 C   0  0  0  0  0  0  0  0  0  0  0  0
   -3.4815   -0.7386    5.6094 H   0  0  0  0  0  0  0  0  0  0  0  0
   -1.8906   -0.2899    6.1903 H   0  0  0  0  0  0  0  0  0  0  0  0
   -3.1599    0.9126    6.0956 H   0  0  0  0  0  0  0  0  0  0  0  0
   -3.0397    1.3125    3.5142 N   0  0  0  0  0  0  0  0  0  0  0  0
   -2.7928    1.7385    2.1618 C   0  0  2  0  0  0  0  0  0  0  0  0
   -1.4579    1.1532    1.7206 C   0  0  0  0  0  0  0  0  0  0  0  0
   -0.5858    0.8004    2.5118 O   0  0  0  0  0  0  0  0  0  0  0  0
   -2.7841    3.2553    2.0523 C   0  0  0  0  0  0  0  0  0  0  0  0
   -3.8047    1.7484    4.0260 H   0  0  0  0  0  0  0  0  0  0  0  0
   -3.5969    1.3201    1.5466 H   0  0  0  0  0  0  0  0  0  0  0  0
   -1.9850    3.6926    2.6620 H   0  0  0  0  0  0  0  0  0  0  0  0
   -2.6246    3.5776    1.0180 H   0  0  0  0  0  0  0  0  0  0  0  0
   -3.7342    3.6765    2.3981 H   0  0  0  0  0  0  0  0  0  0  0  0
   -1.3352    1.1101    0.3372 N   0  0  0  0  0  0  0  0  0  0  0  0
   -0.1579    0.6093   -0.3265 C   0  0  2  0  0  0  0  0  0  0  0  0
    0.1832    1.5912   -1.4417 C   0  0  0  0  0  0  0  0  0  0  0  0
    0.4465    1.2360   -2.5886 O   0  0  0  0  0  0  0  0  0  0  0  0
   -0.3705   -0.7962   -0.9005 C   0  0  0  0  0  0  0  0  0  0  0  0
   -0.5579   -1.8421    0.1712 C   0  0  0  0  0  0  0  0  0  0  0  0
   -1.7656   -2.3204    0.6247 C   0  0  0  0  0  0  0  0  0  0  0  0
    0.4709   -2.5111    0.8917 C   0  0  0  0  0  0  0  0  0  0  0  0
   -1.5122   -3.2541    1.5934 N   0  0  0  0  0  0  0  0  0  0  0  0
   -0.1547   -3.3912    1.7773 C   0  0  0  0  0  0  0  0  0  0  0  0
    1.8786   -2.4521    0.8753 C   0  0  0  0  0  0  0  0  0  0  0  0
    0.5599   -4.2186    2.6509 C   0  0  0  0  0  0  0  0  0  0  0  0
    2.6065   -3.2739    1.7435 C   0  0  0  0  0  0  0  0  0  0  0  0
    1.9552   -4.1428    2.6168 C   0  0  0  0  0  0  0  0  0  0  0  0
   -2.1183    1.4068   -0.2401 H   0  0  0  0  0  0  0  0  0  0  0  0
    0.6474    0.6173    0.4175 H   0  0  0  0  0  0  0  0  0  0  0  0
    0.4736   -1.0754   -1.5456 H   0  0  0  0  0  0  0  0  0  0  0  0
   -1.2515   -0.8137   -1.5557 H   0  0  0  0  0  0  0  0  0  0  0  0
   -2.7826   -2.0798    0.3468 H   0  0  0  0  0  0  0  0  0  0  0  0
   -2.2188   -3.7688    2.1006 H   0  0  0  0  0  0  0  0  0  0  0  0
    2.4011   -1.7794    0.2012 H   0  0  0  0  0  0  0  0  0  0  0  0
    0.0538   -4.8961    3.3302 H   0  0  0  0  0  0  0  0  0  0  0  0
    3.6924   -3.2325    1.7358 H   0  0  0  0  0  0  0  0  0  0  0  0
    2.5403   -4.7722    3.2824 H   0  0  0  0  0  0  0  0  0  0  0  0
    0.1090    2.9095   -1.0139 N   0  0  0  0  0  0  0  0  0  0  0  0
    0.3624    4.0397   -1.8783 C   0  0  2  0  0  0  0  0  0  0  0  0
    1.6864    3.7989   -2.5914 C   0  0  0  0  0  0  0  0  0  0  0  0
    2.5534    3.0423   -2.1589 O   0  0  0  0  0  0  0  0  0  0  0  0
    0.3974    5.3409   -1.0919 C   0  0  0  0  0  0  0  0  0  0  0  0
   -0.1357    3.0890   -0.0446 H   0  0  0  0  0  0  0  0  0  0  0  0
   -0.4496    4.0642   -2.6132 H   0  0  0  0  0  0  0  0  0  0  0  0
    1.2049    5.3350   -0.3506 H   0  0  0  0  0  0  0  0  0  0  0  0
    0.5611    6.1992   -1.7519 H   0  0  0  0  0  0  0  0  0  0  0  0
   -0.5448    5.4977   -0.5558 H   0  0  0  0  0  0  0  0  0  0  0  0
    1.8040    4.5611   -3.7452 N   0  0  0  0  0  0  0  0  0  0  0  0
    2.9739    4.5198   -4.5911 C   0  0  0  0  0  0  0  0  0  0  0  0
    1.0278    5.1472   -4.0382 H   0  0  0  0  0  0  0  0  0  0  0  0
    3.6772    5.3079   -4.2839 H   0  0  0  0  0  0  0  0  0  0  0  0
    3.4601    3.5376   -4.4966 H   0  0  0  0  0  0  0  0  0  0  0  0
    2.6757    4.6822   -5.6374 H   0  0  0  0  0  0  0  0  0  0  0  0
 29 30  2  0  0  0  0
 27 29  1  0  0  0  0
 28 30  1  0  0  0  0
 24 27  2  0  0  0  0
 26 28  2  0  0  0  0
 22 23  2  0  0  0  0
 23 25  1  0  0  0  0
 22 24  1  0  0  0  0
 24 26  1  0  0  0  0
 21 22  1  0  0  0  0
 25 26  1  0  0  0  0
  1  3  1  0  0  0  0
  1  7  1  0  0  0  0
  1  2  2  0  0  0  0
 42 43  1  0  0  0  0
 43 51  1  0  0  0  0
 43 44  2  0  0  0  0
  8  9  1  0  0  0  0
  9 17  1  0  0  0  0
  9 10  2  0  0  0  0
 18 19  1  0  0  0  0
 19 41  1  0  0  0  0
 19 20  2  0  0  0  0
 42 45  1  0  0  0  0
  8 11  1  0  0  0  0
 51 52  1  0  0  0  0
 18 21  1  0  0  0  0
 41 42  1  0  0  0  0
  7  8  1  0  0  0  0
 17 18  1  0  0  0  0
 29 39  1  0  0  0  0
 30 40  1  0  0  0  0
 27 37  1  0  0  0  0
 28 38  1  0  0  0  0
 23 35  1  0  0  0  0
  3  4  1  0  0  0  0
  3  5  1  0  0  0  0
  3  6  1  0  0  0  0
 45 48  1  0  0  0  0
 45 49  1  0  0  0  0
 45 50  1  0  0  0  0
 11 14  1  0  0  0  0
 11 15  1  0  0  0  0
 11 16  1  0  0  0  0
 52 54  1  0  0  0  0
 52 55  1  0  0  0  0
 52 56  1  0  0  0  0
 21 33  1  0  0  0  0
 21 34  1  0  0  0  0
 42 47  1  0  0  0  0
  8 13  1  0  0  0  0
 18 32  1  0  0  0  0
 25 36  1  0  0  0  0
 51 53  1  0  0  0  0
  7 12  1  0  0  0  0
 41 46  1  0  0  0  0
 17 31  1  0  0  0  0
M  END
$$$$

  -OEChem-05262214473D

 56 57  0     1  0  0  0  0  0999 V2000
   -2.2900    0.3401    4.1553 C   0  0  0  0  0  0  0  0  0  0  0  0
   -1.3426   -0.2746    3.6796 O   0  0  0  0  0  0  0  0  0  0  0  0
   -2.7219    0.0577    5.5560 C   0  0  0  0  0  0  0  0  0  0  0  0
   -3.4815   -0.7386    5.6094 H   0  0  0  0  0  0  0  0  0  0  0  0
   -1.8906   -0.2899    6.1903 H   0  0  0  0  0  0  0  0  0  0  0  0
   -3.1599    0.9126    6.0956 H   0  0  0  0  0  0  0  0  0  0  0  0
   -3.0397    1.3125    3.5142 N   0  0  0  0  0  0  0  0  0  0  0  0
   -2.7928    1.7385    2.1618 C   0  0  2  0  0  0  0  0  0  0  0  0
   -1.4579    1.1532    1.7206 C   0  0  0  0  0  0  0  0  0  0  0  0
   -0.5858    0.8004    2.5118 O   0  0  0  0  0  0  0  0  0  0  0  0
   -2.7841    3.2553    2.0523 C   0  0  0  0  0  0  0  0  0  0  0  0
   -3.8047    1.7484    4.0260 H   0  0  0  0  0  0  0  0  0  0  0  0
   -3.5969    1.3201    1.5466 H   0  0  0  0  0  0  0  0  0  0  0  0
   -1.9850    3.6926    2.6620 H   0  0  0  0  0  0  0  0  0  0  0  0
   -2.6246    3.5776    1.0180 H   0  0  0  0  0  0  0  0  0  0  0  0
   -3.7342    3.6765    2.3981 H   0  0  0  0  0  0  0  0  0  0  0  0
   -1.3352    1.1101    0.3372 N   0  0  0  0  0  0  0  0  0  0  0  0
   -0.1579    0.6093   -0.3265 C   0  0  2  0  0  0  0  0  0  0  0  0
    0.1832    1.5912   -1.4417 C   0  0  0  0  0  0  0  0  0  0  0  0
    0.1842    1.2794   -2.6307 O   0  0  0  0  0  0  0  0  0  0  0  0
   -0.3705   -0.7962   -0.9005 C   0  0  0  0  0  0  0  0  0  0  0  0
   -0.5579   -1.8421    0.1712 C   0  0  0  0  0  0  0  0  0  0  0  0
   -1.7656   -2.3204    0.6247 C   0  0  0  0  0  0  0  0  0  0  0  0
    0.4709   -2.5111    0.8917 C   0  0  0  0  0  0  0  0  0  0  0  0
   -1.5122   -3.2541    1.5934 N   0  0  0  0  0  0  0  0  0  0  0  0
   -0.1547   -3.3912    1.7773 C   0  0  0  0  0  0  0  0  0  0  0  0
    1.8786   -2.4521    0.8753 C   0  0  0  0  0  0  0  0  0  0  0  0
    0.5599   -4.2186    2.6509 C   0  0  0  0  0  0  0  0  0  0  0  0
    2.6065   -3.2739    1.7435 C   0  0  0  0  0  0  0  0  0  0  0  0
    1.9552   -4.1428    2.6168 C   0  0  0  0  0  0  0  0  0  0  0  0
   -2.1183    1.4068   -0.2401 H   0  0  0  0  0  0  0  0  0  0  0  0
    0.6474    0.6173    0.4175 H   0  0  0  0  0  0  0  0  0  0  0  0
    0.4736   -1.0754   -1.5456 H   0  0  0  0  0  0  0  0  0  0  0  0
   -1.2515   -0.8137   -1.5557 H   0  0  0  0  0  0  0  0  0  0  0  0
   -2.7826   -2.0798    0.3468 H   0  0  0  0  0  0  0  0  0  0  0  0
   -2.2188   -3.7688    2.1006 H   0  0  0  0  0  0  0  0  0  0  0  0
    2.4011   -1.7794    0.2012 H   0  0  0  0  0  0  0  0  0  0  0  0
    0.0538   -4.8961    3.3302 H   0  0  0  0  0  0  0  0  0  0  0  0
    3.6924   -3.2325    1.7358 H   0  0  0  0  0  0  0  0  0  0  0  0
    2.5403   -4.7722    3.2824 H   0  0  0  0  0  0  0  0  0  0  0  0
    0.4364    2.8653   -0.9528 N   0  0  0  0  0  0  0  0  0  0  0  0
    0.7619    3.9902   -1.7998 C   0  0  2  0  0  0  0  0  0  0  0  0
    1.8814    3.5627   -2.7398 C   0  0  0  0  0  0  0  0  0  0  0  0
    2.6429    2.6293   -2.4951 O   0  0  0  0  0  0  0  0  0  0  0  0
    1.1752    5.2008   -0.9774 C   0  0  0  0  0  0  0  0  0  0  0  0
    0.3907    3.0146    0.0509 H   0  0  0  0  0  0  0  0  0  0  0  0
   -0.1375    4.2183   -2.3821 H   0  0  0  0  0  0  0  0  0  0  0  0
    2.0748    4.9912   -0.3872 H   0  0  0  0  0  0  0  0  0  0  0  0
    1.3939    6.0606   -1.6192 H   0  0  0  0  0  0  0  0  0  0  0  0
    0.3803    5.4886   -0.2809 H   0  0  0  0  0  0  0  0  0  0  0  0
    1.9573    4.3734   -3.8637 N   0  0  0  0  0  0  0  0  0  0  0  0
    2.9450    4.1797   -4.8994 C   0  0  0  0  0  0  0  0  0  0  0  0
    1.2728    5.1126   -3.9937 H   0  0  0  0  0  0  0  0  0  0  0  0
    3.8281    4.7997   -4.6853 H   0  0  0  0  0  0  0  0  0  0  0  0
    3.2399    3.1205   -4.9313 H   0  0  0  0  0  0  0  0  0  0  0  0
    2.5194    4.4712   -5.8709 H   0  0  0  0  0  0  0  0  0  0  0  0
 29 30  2  0  0  0  0
 27 29  1  0  0  0  0
 28 30  1  0  0  0  0
 24 27  2  0  0  0  0
 26 28  2  0  0  0  0
 22 23  2  0  0  0  0
 23 25  1  0  0  0  0
 22 24  1  0  0  0  0
 24 26  1  0  0  0  0
 21 22  1  0  0  0  0
 25 26  1  0  0  0  0
  1  3  1  0  0  0  0
  1  7  1  0  0  0  0
  1  2  2  0  0  0  0
 42 43  1  0  0  0  0
 43 51  1  0  0  0  0
 43 44  2  0  0  0  0
  8  9  1  0  0  0  0
  9 17  1  0  0  0  0
  9 10  2  0  0  0  0
 18 19  1  0  0  0  0
 19 41  1  0  0  0  0
 19 20  2  0  0  0  0
 42 45  1  0  0  0  0
  8 11  1  0  0  0  0
 51 52  1  0  0  0  0
 18 21  1  0  0  0  0
 41 42  1  0  0  0  0
  7  8  1  0  0  0  0
 17 18  1  0  0  0  0
 29 39  1  0  0  0  0
 30 40  1  0  0  0  0
 27 37  1  0  0  0  0
 28 38  1  0  0  0  0
 23 35  1  0  0  0  0
  3  4  1  0  0  0  0
  3  5  1  0  0  0  0
  3  6  1  0  0  0  0
 45 48  1  0  0  0  0
 45 49  1  0  0  0  0
 45 50  1  0  0  0  0
 11 14  1  0  0  0  0
 11 15  1  0  0  0  0
 11 16  1  0  0  0  0
 52 54  1  0  0  0  0
 52 55  1  0  0  0  0
 52 56  1  0  0  0  0
 21 33  1  0  0  0  0
 21 34  1  0  0  0  0
 42 47  1  0  0  0  0
  8 13  1  0  0  0  0
 18 32  1  0  0  0  0
 25 36  1  0  0  0  0
 51 53  1  0  0  0  0
  7 12  1  0  0  0  0
 41 46  1  0  0  0  0
 17 31  1  0  0  0  0
M  END
$$$$

  -OEChem-05262214473D

 56 57  0     1  0  0  0  0  0999 V2000
   -2.2900    0.3401    4.1553 C   0  0  0  0  0  0  0  0  0  0  0  0
   -1.3426   -0.2746    3.6796 O   0  0  0  0  0  0  0  0  0  0  0  0
   -2.7219    0.0577    5.5560 C   0  0  0  0  0  0  0  0  0  0  0  0
   -3.4815   -0.7386    5.6094 H   0  0  0  0  0  0  0  0  0  0  0  0
   -1.8906   -0.2899    6.1903 H   0  0  0  0  0  0  0  0  0  0  0  0
   -3.1599    0.9126    6.0956 H   0  0  0  0  0  0  0  0  0  0  0  0
   -3.0397    1.3125    3.5142 N   0  0  0  0  0  0  0  0  0  0  0  0
   -2.7928    1.7385    2.1618 C   0  0  2  0  0  0  0  0  0  0  0  0
   -1.4579    1.1532    1.7206 C   0  0  0  0  0  0  0  0  0  0  0  0
   -0.5858    0.8004    2.5118 O   0  0  0  0  0  0  0  0  0  0  0  0
   -2.7841    3.2553    2.0523 C   0  0  0  0  0  0  0  0  0  0  0  0
   -3.8047    1.7484    4.0260 H   0  0  0  0  0  0  0  0  0  0  0  0
   -3.5969    1.3201    1.5466 H   0  0  0  0  0  0  0  0  0  0  0  0
   -1.9850    3.6926    2.6620 H   0  0  0  0  0  0  0  0  0  0  0  0
   -2.6246    3.5776    1.0180 H   0  0  0  0  0  0  0  0  0  0  0  0
   -3.7342    3.6765    2.3981 H   0  0  0  0  0  0  0  0  0  0  0  0
   -1.3352    1.1101    0.3372 N   0  0  0  0  0  0  0  0  0  0  0  0
   -0.1579    0.6093   -0.3265 C   0  0  2  0  0  0  0  0  0  0  0  0
    0.1832    1.5912   -1.4417 C   0  0  0  0  0  0  0  0  0  0  0  0
   -0.0680    1.3734   -2.6251 O   0  0  0  0  0  0  0  0  0  0  0  0
   -0.3705   -0.7962   -0.9005 C   0  0  0  0  0  0  0  0  0  0  0  0
   -0.5579   -1.8421    0.1712 C   0  0  0  0  0  0  0  0  0  0  0  0
   -1.7656   -2.3204    0.6247 C   0  0  0  0  0  0  0  0  0  0  0  0
    0.4709   -2.5111    0.8917 C   0  0  0  0  0  0  0  0  0  0  0  0
   -1.5122   -3.2541    1.5934 N   0  0  0  0  0  0  0  0  0  0  0  0
   -0.1547   -3.3912    1.7773 C   0  0  0  0  0  0  0  0  0  0  0  0
    1.8786   -2.4521    0.8753 C   0  0  0  0  0  0  0  0  0  0  0  0
    0.5599   -4.2186    2.6509 C   0  0  0  0  0  0  0  0  0  0  0  0
    2.6065   -3.2739    1.7435 C   0  0  0  0  0  0  0  0  0  0  0  0
    1.9552   -4.1428    2.6168 C   0  0  0  0  0  0  0  0  0  0  0  0
   -2.1183    1.4068   -0.2401 H   0  0  0  0  0  0  0  0  0  0  0  0
    0.6474    0.6173    0.4175 H   0  0  0  0  0  0  0  0  0  0  0  0
    0.4736   -1.0754   -1.5456 H   0  0  0  0  0  0  0  0  0  0  0  0
   -1.2515   -0.8137   -1.5557 H   0  0  0  0  0  0  0  0  0  0  0  0
   -2.7826   -2.0798    0.3468 H   0  0  0  0  0  0  0  0  0  0  0  0
   -2.2188   -3.7688    2.1006 H   0  0  0  0  0  0  0  0  0  0  0  0
    2.4011   -1.7794    0.2012 H   0  0  0  0  0  0  0  0  0  0  0  0
    0.0538   -4.8961    3.3302 H   0  0  0  0  0  0  0  0  0  0  0  0
    3.6924   -3.2325    1.7358 H   0  0  0  0  0  0  0  0  0  0  0  0
    2.5403   -4.7722    3.2824 H   0  0  0  0  0  0  0  0  0  0  0  0
    0.7545    2.7570   -0.9508 N   0  0  0  0  0  0  0  0  0  0  0  0
    1.1514    3.8621   -1.7934 C   0  0  2  0  0  0  0  0  0  0  0  0
    2.0002    3.3062   -2.9292 C   0  0  0  0  0  0  0  0  0  0  0  0
    2.5952    2.2329   -2.8587 O   0  0  0  0  0  0  0  0  0  0  0  0
    1.9190    4.9115   -1.0046 C   0  0  0  0  0  0  0  0  0  0  0  0
    0.9009    2.8376    0.0511 H   0  0  0  0  0  0  0  0  0  0  0  0
    0.2316    4.2946   -2.2019 H   0  0  0  0  0  0  0  0  0  0  0  0
    2.8439    4.4966   -0.5874 H   0  0  0  0  0  0  0  0  0  0  0  0
    2.1942    5.7613   -1.6379 H   0  0  0  0  0  0  0  0  0  0  0  0
    1.3180    5.2887   -0.1701 H   0  0  0  0  0  0  0  0  0  0  0  0
    2.0500    4.1699   -4.0145 N   0  0  0  0  0  0  0  0  0  0  0  0
    2.8013    3.8746   -5.2121 C   0  0  0  0  0  0  0  0  0  0  0  0
    1.5103    5.0302   -3.9936 H   0  0  0  0  0  0  0  0  0  0  0  0
    3.8107    4.3035   -5.1275 H   0  0  0  0  0  0  0  0  0  0  0  0
    2.8757    2.7844   -5.3386 H   0  0  0  0  0  0  0  0  0  0  0  0
    2.2895    4.3106   -6.0827 H   0  0  0  0  0  0  0  0  0  0  0  0
 29 30  2  0  0  0  0
 27 29  1  0  0  0  0
 28 30  1  0  0  0  0
 24 27  2  0  0  0  0
 26 28  2  0  0  0  0
 22 23  2  0  0  0  0
 23 25  1  0  0  0  0
 22 24  1  0  0  0  0
 24 26  1  0  0  0  0
 21 22  1  0  0  0  0
 25 26  1  0  0  0  0
  1  3  1  0  0  0  0
  1  7  1  0  0  0  0
  1  2  2  0  0  0  0
 42 43  1  0  0  0  0
 43 51  1  0  0  0  0
 43 44  2  0  0  0  0
  8  9  1  0  0  0  0
  9 17  1  0  0  0  0
  9 10  2  0  0  0  0
 18 19  1  0  0  0  0
 19 41  1  0  0  0  0
 19 20  2  0  0  0  0
 42 45  1  0  0  0  0
  8 11  1  0  0  0  0
 51 52  1  0  0  0  0
 18 21  1  0  0  0  0
 41 42  1  0  0  0  0
  7  8  1  0  0  0  0
 17 18  1  0  0  0  0
 29 39  1  0  0  0  0
 30 40  1  0  0  0  0
 27 37  1  0  0  0  0
 28 38  1  0  0  0  0
 23 35  1  0  0  0  0
  3  4  1  0  0  0  0
  3  5  1  0  0  0  0
  3  6  1  0  0  0  0
 45 48  1  0  0  0  0
 45 49  1  0  0  0  0
 45 50  1  0  0  0  0
 11 14  1  0  0  0  0
 11 15  1  0  0  0  0
 11 16  1  0  0  0  0
 52 54  1  0  0  0  0
 52 55  1  0  0  0  0
 52 56  1  0  0  0  0
 21 33  1  0  0  0  0
 21 34  1  0  0  0  0
 42 47  1  0  0  0  0
  8 13  1  0  0  0  0
 18 32  1  0  0  0  0
 25 36  1  0  0  0  0
 51 53  1  0  0  0  0
  7 12  1  0  0  0  0
 41 46  1  0  0  0  0
 17 31  1  0  0  0  0
M  END
$$$$

  -OEChem-05262214473D

 56 57  0     1  0  0  0  0  0999 V2000
   -2.2900    0.3401    4.1553 C   0  0  0  0  0  0  0  0  0  0  0  0
   -1.3426   -0.2746    3.6796 O   0  0  0  0  0  0  0  0  0  0  0  0
   -2.7219    0.0577    5.5560 C   0  0  0  0  0  0  0  0  0  0  0  0
   -3.4815   -0.7386    5.6094 H   0  0  0  0  0  0  0  0  0  0  0  0
   -1.8906   -0.2899    6.1903 H   0  0  0  0  0  0  0  0  0  0  0  0
   -3.1599    0.9126    6.0956 H   0  0  0  0  0  0  0  0  0  0  0  0
   -3.0397    1.3125    3.5142 N   0  0  0  0  0  0  0  0  0  0  0  0
   -2.7928    1.7385    2.1618 C   0  0  2  0  0  0  0  0  0  0  0  0
   -1.4579    1.1532    1.7206 C   0  0  0  0  0  0  0  0  0  0  0  0
   -0.5858    0.8004    2.5118 O   0  0  0  0  0  0  0  0  0  0  0  0
   -2.7841    3.2553    2.0523 C   0  0  0  0  0  0  0  0  0  0  0  0
   -3.8047    1.7484    4.0260 H   0  0  0  0  0  0  0  0  0  0  0  0
   -3.5969    1.3201    1.5466 H   0  0  0  0  0  0  0  0  0  0  0  0
   -1.9850    3.6926    2.6620 H   0  0  0  0  0  0  0  0  0  0  0  0
   -2.6246    3.5776    1.0180 H   0  0  0  0  0  0  0  0  0  0  0  0
   -3.7342    3.6765    2.3981 H   0  0  0  0  0  0  0  0  0  0  0  0
   -1.3352    1.1101    0.3372 N   0  0  0  0  0  0  0  0  0  0  0  0
   -0.1579    0.6093   -0.3265 C   0  0  2  0  0  0  0  0  0  0  0  0
    0.1832    1.5912   -1.4417 C   0  0  0  0  0  0  0  0  0  0  0  0
   -0.2928    1.5116   -2.5721 O   0  0  0  0  0  0  0  0  0  0  0  0
   -0.3705   -0.7962   -0.9005 C   0  0  0  0  0  0  0  0  0  0  0  0
   -0.5579   -1.8421    0.1712 C   0  0  0  0  0  0  0  0  0  0  0  0
   -1.7656   -2.3204    0.6247 C   0  0  0  0  0  0  0  0  0  0  0  0
    0.4709   -2.5111    0.8917 C   0  0  0  0  0  0  0  0  0  0  0  0
   -1.5122   -3.2541    1.5934 N   0  0  0  0  0  0  0  0  0  0  0  0
   -0.1547   -3.3912    1.7773 C   0  0  0  0  0  0  0  0  0  0  0  0
    1.8786   -2.4521    0.8753 C   0  0  0  0  0  0  0  0  0  0  0  0
    0.5599   -4.2186    2.6509 C   0  0  0  0  0  0  0  0  0  0  0  0
    2.6065   -3.2739    1.7435 C   0  0  0  0  0  0  0  0  0  0  0  0
    1.9552   -4.1428    2.6168 C   0  0  0  0  0  0  0  0  0  0  0  0
   -2.1183    1.4068   -0.2401 H   0  0  0  0  0  0  0  0  0  0  0  0
    0.6474    0.6173    0.4175 H   0  0  0  0  0  0  0  0  0  0  0  0
    0.4736   -1.0754   -1.5456 H   0  0  0  0  0  0  0  0  0  0  0  0
   -1.2515   -0.8137   -1.5557 H   0  0  0  0  0  0  0  0  0  0  0  0
   -2.7826   -2.0798    0.3468 H   0  0  0  0  0  0  0  0  0  0  0  0
   -2.2188   -3.7688    2.1006 H   0  0  0  0  0  0  0  0  0  0  0  0
    2.4011   -1.7794    0.2012 H   0  0  0  0  0  0  0  0  0  0  0  0
    0.0538   -4.8961    3.3302 H   0  0  0  0  0  0  0  0  0  0  0  0
    3.6924   -3.2325    1.7358 H   0  0  0  0  0  0  0  0  0  0  0  0
    2.5403   -4.7722    3.2824 H   0  0  0  0  0  0  0  0  0  0  0  0
    1.0415    2.5921   -1.0082 N   0  0  0  0  0  0  0  0  0  0  0  0
    1.5045    3.6643   -1.8596 C   0  0  2  0  0  0  0  0  0  0  0  0
    2.0348    3.0470   -3.1469 C   0  0  0  0  0  0  0  0  0  0  0  0
    2.4135    1.8801   -3.2249 O   0  0  0  0  0  0  0  0  0  0  0  0
    2.5782    4.4929   -1.1715 C   0  0  0  0  0  0  0  0  0  0  0  0
    1.3603    2.5699   -0.0440 H   0  0  0  0  0  0  0  0  0  0  0  0
    0.6327    4.2880   -2.0851 H   0  0  0  0  0  0  0  0  0  0  0  0
    3.4597    3.8848   -0.9377 H   0  0  0  0  0  0  0  0  0  0  0  0
    2.9075    5.3218   -1.8067 H   0  0  0  0  0  0  0  0  0  0  0  0
    2.2043    4.9116   -0.2310 H   0  0  0  0  0  0  0  0  0  0  0  0
    2.0760    3.9645   -4.1874 N   0  0  0  0  0  0  0  0  0  0  0  0
    2.5526    3.6251   -5.5078 C   0  0  0  0  0  0  0  0  0  0  0  0
    1.7242    4.9056   -4.0379 H   0  0  0  0  0  0  0  0  0  0  0  0
    3.6263    3.8530   -5.5805 H   0  0  0  0  0  0  0  0  0  0  0  0
    2.3925    2.5523   -5.6907 H   0  0  0  0  0  0  0  0  0  0  0  0
    2.0018    4.2112   -6.2582 H   0  0  0  0  0  0  0  0  0  0  0  0
 29 30  2  0  0  0  0
 27 29  1  0  0  0  0
 28 30  1  0  0  0  0
 24 27  2  0  0  0  0
 26 28  2  0  0  0  0
 22 23  2  0  0  0  0
 23 25  1  0  0  0  0
 22 24  1  0  0  0  0
 24 26  1  0  0  0  0
 21 22  1  0  0  0  0
 25 26  1  0  0  0  0
  1  3  1  0  0  0  0
  1  7  1  0  0  0  0
  1  2  2  0  0  0  0
 42 43  1  0  0  0  0
 43 51  1  0  0  0  0
 43 44  2  0  0  0  0
  8  9  1  0  0  0  0
  9 17  1  0  0  0  0
  9 10  2  0  0  0  0
 18 19  1  0  0  0  0
 19 41  1  0  0  0  0
 19 20  2  0  0  0  0
 42 45  1  0  0  0  0
  8 11  1  0  0  0  0
 51 52  1  0  0  0  0
 18 21  1  0  0  0  0
 41 42  1  0  0  0  0
  7  8  1  0  0  0  0
 17 18  1  0  0  0  0
 29 39  1  0  0  0  0
 30 40  1  0  0  0  0
 27 37  1  0  0  0  0
 28 38  1  0  0  0  0
 23 35  1  0  0  0  0
  3  4  1  0  0  0  0
  3  5  1  0  0  0  0
  3  6  1  0  0  0  0
 45 48  1  0  0  0  0
 45 49  1  0  0  0  0
 45 50  1  0  0  0  0
 11 14  1  0  0  0  0
 11 15  1  0  0  0  0
 11 16  1  0  0  0  0
 52 54  1  0  0  0  0
 52 55  1  0  0  0  0
 52 56  1  0  0  0  0
 21 33  1  0  0  0  0
 21 34  1  0  0  0  0
 42 47  1  0  0  0  0
  8 13  1  0  0  0  0
 18 32  1  0  0  0  0
 25 36  1  0  0  0  0
 51 53  1  0  0  0  0
  7 12  1  0  0  0  0
 41 46  1  0  0  0  0
 17 31  1  0  0  0  0
M  END
$$$$

  -OEChem-05262214473D

 56 57  0     1  0  0  0  0  0999 V2000
   -2.2900    0.3401    4.1553 C   0  0  0  0  0  0  0  0  0  0  0  0
   -1.3426   -0.2746    3.6796 O   0  0  0  0  0  0  0  0  0  0  0  0
   -2.7219    0.0577    5.5560 C   0  0  0  0  0  0  0  0  0  0  0  0
   -3.4815   -0.7386    5.6094 H   0  0  0  0  0  0  0  0  0  0  0  0
   -1.8906   -0.2899    6.1903 H   0  0  0  0  0  0  0  0  0  0  0  0
   -3.1599    0.9126    6.0956 H   0  0  0  0  0  0  0  0  0  0  0  0
   -3.0397    1.3125    3.5142 N   0  0  0  0  0  0  0  0  0  0  0  0
   -2.7928    1.7385    2.1618 C   0  0  2  0  0  0  0  0  0  0  0  0
   -1.4579    1.1532    1.7206 C   0  0  0  0  0  0  0  0  0  0  0  0
   -0.5858    0.8004    2.5118 O   0  0  0  0  0  0  0  0  0  0  0  0
   -2.7841    3.2553    2.0523 C   0  0  0  0  0  0  0  0  0  0  0  0
   -3.8047    1.7484    4.0260 H   0  0  0  0  0  0  0  0  0  0  0  0
   -3.5969    1.3201    1.5466 H   0  0  0  0  0  0  0  0  0  0  0  0
   -1.9850    3.6926    2.6620 H   0  0  0  0  0  0  0  0  0  0  0  0
   -2.6246    3.5776    1.0180 H   0  0  0  0  0  0  0  0  0  0  0  0
   -3.7342    3.6765    2.3981 H   0  0  0  0  0  0  0  0  0  0  0  0
   -1.3352    1.1101    0.3372 N   0  0  0  0  0  0  0  0  0  0  0  0
   -0.1579    0.6093   -0.3265 C   0  0  2  0  0  0  0  0  0  0  0  0
    0.1832    1.5912   -1.4417 C   0  0  0  0  0  0  0  0  0  0  0  0
   -0.4750    1.6846   -2.4756 O   0  0  0  0  0  0  0  0  0  0  0  0
   -0.3705   -0.7962   -0.9005 C   0  0  0  0  0  0  0  0  0  0  0  0
   -0.5579   -1.8421    0.1712 C   0  0  0  0  0  0  0  0  0  0  0  0
   -1.7656   -2.3204    0.6247 C   0  0  0  0  0  0  0  0  0  0  0  0
    0.4709   -2.5111    0.8917 C   0  0  0  0  0  0  0  0  0  0  0  0
   -1.5122   -3.2541    1.5934 N   0  0  0  0  0  0  0  0  0  0  0  0
   -0.1547   -3.3912    1.7773 C   0  0  0  0  0  0  0  0  0  0  0  0
    1.8786   -2.4521    0.8753 C   0  0  0  0  0  0  0  0  0  0  0  0
    0.5599   -4.2186    2.6509 C   0  0  0  0  0  0  0  0  0  0  0  0
    2.6065   -3.2739    1.7435 C   0  0  0  0  0  0  0  0  0  0  0  0
    1.9552   -4.1428    2.6168 C   0  0  0  0  0  0  0  0  0  0  0  0
   -2.1183    1.4068   -0.2401 H   0  0  0  0  0  0  0  0  0  0  0  0
    0.6474    0.6173    0.4175 H   0  0  0  0  0  0  0  0  0  0  0  0
    0.4736   -1.0754   -1.5456 H   0  0  0  0  0  0  0  0  0  0  0  0
   -1.2515   -0.8137   -1.5557 H   0  0  0  0  0  0  0  0  0  0  0  0
   -2.7826   -2.0798    0.3468 H   0  0  0  0  0  0  0  0  0  0  0  0
   -2.2188   -3.7688    2.1006 H   0  0  0  0  0  0  0  0  0  0  0  0
    2.4011   -1.7794    0.2012 H   0  0  0  0  0  0  0  0  0  0  0  0
    0.0538   -4.8961    3.3302 H   0  0  0  0  0  0  0  0  0  0  0  0
    3.6924   -3.2325    1.7358 H   0  0  0  0  0  0  0  0  0  0  0  0
    2.5403   -4.7722    3.2824 H   0  0  0  0  0  0  0  0  0  0  0  0
    1.2780    2.3818   -1.1210 N   0  0  0  0  0  0  0  0  0  0  0  0
    1.7971    3.4102   -1.9938 C   0  0  2  0  0  0  0  0  0  0  0  0
    1.9829    2.8026   -3.3779 C   0  0  0  0  0  0  0  0  0  0  0  0
    2.1101    1.5949   -3.5688 O   0  0  0  0  0  0  0  0  0  0  0  0
    3.1078    3.9733   -1.4670 C   0  0  0  0  0  0  0  0  0  0  0  0
    1.7375    2.2300   -0.2280 H   0  0  0  0  0  0  0  0  0  0  0  0
    1.0383    4.1989   -2.0394 H   0  0  0  0  0  0  0  0  0  0  0  0
    3.8804    3.1976   -1.4142 H   0  0  0  0  0  0  0  0  0  0  0  0
    3.4852    4.7720   -2.1141 H   0  0  0  0  0  0  0  0  0  0  0  0
    2.9789    4.3831   -0.4594 H   0  0  0  0  0  0  0  0  0  0  0  0
    2.0333    3.7712   -4.3706 N   0  0  0  0  0  0  0  0  0  0  0  0
    2.2158    3.4483   -5.7664 C   0  0  0  0  0  0  0  0  0  0  0  0
    1.8998    4.7474   -4.1235 H   0  0  0  0  0  0  0  0  0  0  0  0
    3.2873    3.4791   -6.0134 H   0  0  0  0  0  0  0  0  0  0  0  0
    1.8230    2.4400   -5.9638 H   0  0  0  0  0  0  0  0  0  0  0  0
    1.6758    4.1798   -6.3855 H   0  0  0  0  0  0  0  0  0  0  0  0
 29 30  2  0  0  0  0
 27 29  1  0  0  0  0
 28 30  1  0  0  0  0
 24 27  2  0  0  0  0
 26 28  2  0  0  0  0
 22 23  2  0  0  0  0
 23 25  1  0  0  0  0
 22 24  1  0  0  0  0
 24 26  1  0  0  0  0
 21 22  1  0  0  0  0
 25 26  1  0  0  0  0
  1  3  1  0  0  0  0
  1  7  1  0  0  0  0
  1  2  2  0  0  0  0
 42 43  1  0  0  0  0
 43 51  1  0  0  0  0
 43 44  2  0  0  0  0
  8  9  1  0  0  0  0
  9 17  1  0  0  0  0
  9 10  2  0  0  0  0
 18 19  1  0  0  0  0
 19 41  1  0  0  0  0
 19 20  2  0  0  0  0
 42 45  1  0  0  0  0
  8 11  1  0  0  0  0
 51 52  1  0  0  0  0
 18 21  1  0  0  0  0
 41 42  1  0  0  0  0
  7  8  1  0  0  0  0
 17 18  1  0  0  0  0
 29 39  1  0  0  0  0
 30 40  1  0  0  0  0
 27 37  1  0  0  0  0
 28 38  1  0  0  0  0
 23 35  1  0  0  0  0
  3  4  1  0  0  0  0
  3  5  1  0  0  0  0
  3  6  1  0  0  0  0
 45 48  1  0  0  0  0
 45 49  1  0  0  0  0
 45 50  1  0  0  0  0
 11 14  1  0  0  0  0
 11 15  1  0  0  0  0
 11 16  1  0  0  0  0
 52 54  1  0  0  0  0
 52 55  1  0  0  0  0
 52 56  1  0  0  0  0
 21 33  1  0  0  0  0
 21 34  1  0  0  0  0
 42 47  1  0  0  0  0
  8 13  1  0  0  0  0
 18 32  1  0  0  0  0
 25 36  1  0  0  0  0
 51 53  1  0  0  0  0
  7 12  1  0  0  0  0
 41 46  1  0  0  0  0
 17 31  1  0  0  0  0
M  END
$$$$

  -OEChem-05262214473D

 56 57  0     1  0  0  0  0  0999 V2000
   -2.2900    0.3401    4.1553 C   0  0  0  0  0  0  0  0  0  0  0  0
   -1.3426   -0.2746    3.6796 O   0  0  0  0  0  0  0  0  0  0  0  0
   -2.7219    0.0577    5.5560 C   0  0  0  0  0  0  0  0  0  0  0  0
   -3.4815   -0.7386    5.6094 H   0  0  0  0  0  0  0  0  0  0  0  0
   -1.8906   -0.2899    6.1903 H   0  0  0  0  0  0  0  0  0  0  0  0
   -3.1599    0.9126    6.0956 H   0  0  0  0  0  0  0  0  0  0  0  0
   -3.0397    1.3125    3.5142 N   0  0  0  0  0  0  0  0  0  0  0  0
   -2.7928    1.7385    2.1618 C   0  0  2  0  0  0  0  0  0  0  0  0
   -1.4579    1.1532    1.7206 C   0  0  0  0  0  0  0  0  0  0  0  0
   -0.5858    0.8004    2.5118 O   0  0  0  0  0  0  0  0  0  0  0  0
   -2.7841    3.2553    2.0523 C   0  0  0  0  0  0  0  0  0  0  0  0
   -3.8047    1.7484    4.0260 H   0  0  0  0  0  0  0  0  0  0  0  0
   -3.5969    1.3201    1.5466 H   0  0  0  0  0  0  0  0  0  0  0  0
   -1.9850    3.6926    2.6620 H   0  0  0  0  0  0  0  0  0  0  0  0
   -2.6246    3.5776    1.0180 H   0  0  0  0  0  0  0  0  0  0  0  0
   -3.7342    3.6765    2.3981 H   0  0  0  0  0  0  0  0  0  0  0  0
   -1.3352    1.1101    0.3372 N   0  0  0  0  0  0  0  0  0  0  0  0
   -0.1579    0.6093   -0.3265 C   0  0  2  0  0  0  0  0  0  0  0  0
    0.1832    1.5912   -1.4417 C   0  0  0  0  0  0  0  0  0  0  0  0
   -0.6022    1.8806   -2.3419 O   0  0  0  0  0  0  0  0  0  0  0  0
   -0.3705   -0.7962   -0.9005 C   0  0  0  0  0  0  0  0  0  0  0  0
   -0.5579   -1.8421    0.1712 C   0  0  0  0  0  0  0  0  0  0  0  0
   -1.7656   -2.3204    0.6247 C   0  0  0  0  0  0  0  0  0  0  0  0
    0.4709   -2.5111    0.8917 C   0  0  0  0  0  0  0  0  0  0  0  0
   -1.5122   -3.2541    1.5934 N   0  0  0  0  0  0  0  0  0  0  0  0
   -0.1547   -3.3912    1.7773 C   0  0  0  0  0  0  0  0  0  0  0  0
    1.8786   -2.4521    0.8753 C   0  0  0  0  0  0  0  0  0  0  0  0
    0.5599   -4.2186    2.6509 C   0  0  0  0  0  0  0  0  0  0  0  0
    2.6065   -3.2739    1.7435 C   0  0  0  0  0  0  0  0  0  0  0  0
    1.9552   -4.1428    2.6168 C   0  0  0  0  0  0  0  0  0  0  0  0
   -2.1183    1.4068   -0.2401 H   0  0  0  0  0  0  0  0  0  0  0  0
    0.6474    0.6173    0.4175 H   0  0  0  0  0  0  0  0  0  0  0  0
    0.4736   -1.0754   -1.5456 H   0  0  0  0  0  0  0  0  0  0  0  0
   -1.2515   -0.8137   -1.5557 H   0  0  0  0  0  0  0  0  0  0  0  0
   -2.7826   -2.0798    0.3468 H   0  0  0  0  0  0  0  0  0  0  0  0
   -2.2188   -3.7688    2.1006 H   0  0  0  0  0  0  0  0  0  0  0  0
    2.4011   -1.7794    0.2012 H   0  0  0  0  0  0  0  0  0  0  0  0
    0.0538   -4.8961    3.3302 H   0  0  0  0  0  0  0  0  0  0  0  0
    3.6924   -3.2325    1.7358 H   0  0  0  0  0  0  0  0  0  0  0  0
    2.5403   -4.7722    3.2824 H   0  0  0  0  0  0  0  0  0  0  0  0
    1.4478    2.1404   -1.2816 N   0  0  0  0  0  0  0  0  0  0  0  0
    2.0092    3.1171   -2.1869 C   0  0  2  0  0  0  0  0  0  0  0  0
    1.8480    2.5898   -3.6066 C   0  0  0  0  0  0  0  0  0  0  0  0
    1.7057    1.3968   -3.8669 O   0  0  0  0  0  0  0  0  0  0  0  0
    3.4718    3.3884   -1.8707 C   0  0  0  0  0  0  0  0  0  0  0  0
    2.0069    1.8408   -0.4882 H   0  0  0  0  0  0  0  0  0  0  0  0
    1.4208    4.0335   -2.0681 H   0  0  0  0  0  0  0  0  0  0  0  0
    4.0772    2.4817   -1.9843 H   0  0  0  0  0  0  0  0  0  0  0  0
    3.8878    4.1494   -2.5391 H   0  0  0  0  0  0  0  0  0  0  0  0
    3.5890    3.7392   -0.8397 H   0  0  0  0  0  0  0  0  0  0  0  0
    1.9250    3.6032   -4.5517 N   0  0  0  0  0  0  0  0  0  0  0  0
    1.8140    3.3563   -5.9704 C   0  0  0  0  0  0  0  0  0  0  0  0
    2.0252    4.5662   -4.2446 H   0  0  0  0  0  0  0  0  0  0  0  0
    2.8169    3.2072   -6.3967 H   0  0  0  0  0  0  0  0  0  0  0  0
    1.2062    2.4551   -6.1391 H   0  0  0  0  0  0  0  0  0  0  0  0
    1.3338    4.2186   -6.4560 H   0  0  0  0  0  0  0  0  0  0  0  0
 29 30  2  0  0  0  0
 27 29  1  0  0  0  0
 28 30  1  0  0  0  0
 24 27  2  0  0  0  0
 26 28  2  0  0  0  0
 22 23  2  0  0  0  0
 23 25  1  0  0  0  0
 22 24  1  0  0  0  0
 24 26  1  0  0  0  0
 21 22  1  0  0  0  0
 25 26  1  0  0  0  0
  1  3  1  0  0  0  0
  1  7  1  0  0  0  0
  1  2  2  0  0  0  0
 42 43  1  0  0  0  0
 43 51  1  0  0  0  0
 43 44  2  0  0  0  0
  8  9  1  0  0  0  0
  9 17  1  0  0  0  0
  9 10  2  0  0  0  0
 18 19  1  0  0  0  0
 19 41  1  0  0  0  0
 19 20  2  0  0  0  0
 42 45  1  0  0  0  0
  8 11  1  0  0  0  0
 51 52  1  0  0  0  0
 18 21  1  0  0  0  0
 41 42  1  0  0  0  0
  7  8  1  0  0  0  0
 17 18  1  0  0  0  0
 29 39  1  0  0  0  0
 30 40  1  0  0  0  0
 27 37  1  0  0  0  0
 28 38  1  0  0  0  0
 23 35  1  0  0  0  0
  3  4  1  0  0  0  0
  3  5  1  0  0  0  0
  3  6  1  0  0  0  0
 45 48  1  0  0  0  0
 45 49  1  0  0  0  0
 45 50  1  0  0  0  0
 11 14  1  0  0  0  0
 11 15  1  0  0  0  0
 11 16  1  0  0  0  0
 52 54  1  0  0  0  0
 52 55  1  0  0  0  0
 52 56  1  0  0  0  0
 21 33  1  0  0  0  0
 21 34  1  0  0  0  0
 42 47  1  0  0  0  0
  8 13  1  0  0  0  0
 18 32  1  0  0  0  0
 25 36  1  0  0  0  0
 51 53  1  0  0  0  0
  7 12  1  0  0  0  0
 41 46  1  0  0  0  0
 17 31  1  0  0  0  0
M  END
$$$$

  -OEChem-05262214473D

 56 57  0     1  0  0  0  0  0999 V2000
   -2.2900    0.3401    4.1553 C   0  0  0  0  0  0  0  0  0  0  0  0
   -1.3426   -0.2746    3.6796 O   0  0  0  0  0  0  0  0  0  0  0  0
   -2.7219    0.0577    5.5560 C   0  0  0  0  0  0  0  0  0  0  0  0
   -3.4815   -0.7386    5.6094 H   0  0  0  0  0  0  0  0  0  0  0  0
   -1.8906   -0.2899    6.1903 H   0  0  0  0  0  0  0  0  0  0  0  0
   -3.1599    0.9126    6.0956 H   0  0  0  0  0  0  0  0  0  0  0  0
   -3.0397    1.3125    3.5142 N   0  0  0  0  0  0  0  0  0  0  0  0
   -2.7928    1.7385    2.1618 C   0  0  2  0  0  0  0  0  0  0  0  0
   -1.4579    1.1532    1.7206 C   0  0  0  0  0  0  0  0  0  0  0  0
   -0.5858    0.8004    2.5118 O   0  0  0  0  0  0  0  0  0  0  0  0
   -2.7841    3.2553    2.0523 C   0  0  0  0  0  0  0  0  0  0  0  0
   -3.8047    1.7484    4.0260 H   0  0  0  0  0  0  0  0  0  0  0  0
   -3.5969    1.3201    1.5466 H   0  0  0  0  0  0  0  0  0  0  0  0
   -1.9850    3.6926    2.6620 H   0  0  0  0  0  0  0  0  0  0  0  0
   -2.6246    3.5776    1.0180 H   0  0  0  0  0  0  0  0  0  0  0  0
   -3.7342    3.6765    2.3981 H   0  0  0  0  0  0  0  0  0  0  0  0
   -1.3352    1.1101    0.3372 N   0  0  0  0  0  0  0  0  0  0  0  0
   -0.1579    0.6093   -0.3265 C   0  0  2  0  0  0  0  0  0  0  0  0
    0.1832    1.5912   -1.4417 C   0  0  0  0  0  0  0  0  0  0  0  0
   -0.6656    2.0862   -2.1802 O   0  0  0  0  0  0  0  0  0  0  0  0
   -0.3705   -0.7962   -0.9005 C   0  0  0  0  0  0  0  0  0  0  0  0
   -0.5579   -1.8421    0.1712 C   0  0  0  0  0  0  0  0  0  0  0  0
   -1.7656   -2.3204    0.6247 C   0  0  0  0  0  0  0  0  0  0  0  0
    0.4709   -2.5111    0.8917 C   0  0  0  0  0  0  0  0  0  0  0  0
   -1.5122   -3.2541    1.5934 N   0  0  0  0  0  0  0  0  0  0  0  0
   -0.1547   -3.3912    1.7773 C   0  0  0  0  0  0  0  0  0  0  0  0
    1.8786   -2.4521    0.8753 C   0  0  0  0  0  0  0  0  0  0  0  0
    0.5599   -4.2186    2.6509 C   0  0  0  0  0  0  0  0  0  0  0  0
    2.6065   -3.2739    1.7435 C   0  0  0  0  0  0  0  0  0  0  0  0
    1.9552   -4.1428    2.6168 C   0  0  0  0  0  0  0  0  0  0  0  0
   -2.1183    1.4068   -0.2401 H   0  0  0  0  0  0  0  0  0  0  0  0
    0.6474    0.6173    0.4175 H   0  0  0  0  0  0  0  0  0  0  0  0
    0.4736   -1.0754   -1.5456 H   0  0  0  0  0  0  0  0  0  0  0  0
   -1.2515   -0.8137   -1.5557 H   0  0  0  0  0  0  0  0  0  0  0  0
   -2.7826   -2.0798    0.3468 H   0  0  0  0  0  0  0  0  0  0  0  0
   -2.2188   -3.7688    2.1006 H   0  0  0  0  0  0  0  0  0  0  0  0
    2.4011   -1.7794    0.2012 H   0  0  0  0  0  0  0  0  0  0  0  0
    0.0538   -4.8961    3.3302 H   0  0  0  0  0  0  0  0  0  0  0  0
    3.6924   -3.2325    1.7358 H   0  0  0  0  0  0  0  0  0  0  0  0
    2.5403   -4.7722    3.2824 H   0  0  0  0  0  0  0  0  0  0  0  0
    1.5394    1.8844   -1.4790 N   0  0  0  0  0  0  0  0  0  0  0  0
    2.1264    2.8051   -2.4258 C   0  0  2  0  0  0  0  0  0  0  0  0
    1.6393    2.4230   -3.8173 C   0  0  0  0  0  0  0  0  0  0  0  0
    1.2279    1.2993   -4.0989 O   0  0  0  0  0  0  0  0  0  0  0  0
    3.6453    2.7778   -2.3552 C   0  0  0  0  0  0  0  0  0  0  0  0
    2.1499    1.4290   -0.8070 H   0  0  0  0  0  0  0  0  0  0  0  0
    1.7542    3.8029   -2.1692 H   0  0  0  0  0  0  0  0  0  0  0  0
    4.0367    1.7859   -2.6092 H   0  0  0  0  0  0  0  0  0  0  0  0
    4.0879    3.4964   -3.0529 H   0  0  0  0  0  0  0  0  0  0  0  0
    3.9930    3.0238   -1.3460 H   0  0  0  0  0  0  0  0  0  0  0  0
    1.7583    3.4719   -4.7182 N   0  0  0  0  0  0  0  0  0  0  0  0
    1.3744    3.3554   -6.1057 C   0  0  0  0  0  0  0  0  0  0  0  0
    2.0918    4.3745   -4.3930 H   0  0  0  0  0  0  0  0  0  0  0  0
    2.2472    3.0557   -6.7043 H   0  0  0  0  0  0  0  0  0  0  0  0
    0.5840    2.5967   -6.2048 H   0  0  0  0  0  0  0  0  0  0  0  0
    0.9990    4.3250   -6.4648 H   0  0  0  0  0  0  0  0  0  0  0  0
 29 30  2  0  0  0  0
 27 29  1  0  0  0  0
 28 30  1  0  0  0  0
 24 27  2  0  0  0  0
 26 28  2  0  0  0  0
 22 23  2  0  0  0  0
 23 25  1  0  0  0  0
 22 24  1  0  0  0  0
 24 26  1  0  0  0  0
 21 22  1  0  0  0  0
 25 26  1  0  0  0  0
  1  3  1  0  0  0  0
  1  7  1  0  0  0  0
  1  2  2  0  0  0  0
 42 43  1  0  0  0  0
 43 51  1  0  0  0  0
 43 44  2  0  0  0  0
  8  9  1  0  0  0  0
  9 17  1  0  0  0  0
  9 10  2  0  0  0  0
 18 19  1  0  0  0  0
 19 41  1  0  0  0  0
 19 20  2  0  0  0  0
 42 45  1  0  0  0  0
  8 11  1  0  0  0  0
 51 52  1  0  0  0  0
 18 21  1  0  0  0  0
 41 42  1  0  0  0  0
  7  8  1  0  0  0  0
 17 18  1  0  0  0  0
 29 39  1  0  0  0  0
 30 40  1  0  0  0  0
 27 37  1  0  0  0  0
 28 38  1  0  0  0  0
 23 35  1  0  0  0  0
  3  4  1  0  0  0  0
  3  5  1  0  0  0  0
  3  6  1  0  0  0  0
 45 48  1  0  0  0  0
 45 49  1  0  0  0  0
 45 50  1  0  0  0  0
 11 14  1  0  0  0  0
 11 15  1  0  0  0  0
 11 16  1  0  0  0  0
 52 54  1  0  0  0  0
 52 55  1  0  0  0  0
 52 56  1  0  0  0  0
 21 33  1  0  0  0  0
 21 34  1  0  0  0  0
 42 47  1  0  0  0  0
  8 13  1  0  0  0  0
 18 32  1  0  0  0  0
 25 36  1  0  0  0  0
 51 53  1  0  0  0  0
  7 12  1  0  0  0  0
 41 46  1  0  0  0  0
 17 31  1  0  0  0  0
M  END
$$$$

  -OEChem-05262214473D

 56 57  0     1  0  0  0  0  0999 V2000
   -2.2900    0.3401    4.1553 C   0  0  0  0  0  0  0  0  0  0  0  0
   -1.3426   -0.2746    3.6796 O   0  0  0  0  0  0  0  0  0  0  0  0
   -2.7219    0.0577    5.5560 C   0  0  0  0  0  0  0  0  0  0  0  0
   -3.4815   -0.7386    5.6094 H   0  0  0  0  0  0  0  0  0  0  0  0
   -1.8906   -0.2899    6.1903 H   0  0  0  0  0  0  0  0  0  0  0  0
   -3.1599    0.9126    6.0956 H   0  0  0  0  0  0  0  0  0  0  0  0
   -3.0397    1.3125    3.5142 N   0  0  0  0  0  0  0  0  0  0  0  0
   -2.7928    1.7385    2.1618 C   0  0  2  0  0  0  0  0  0  0  0  0
   -1.4579    1.1532    1.7206 C   0  0  0  0  0  0  0  0  0  0  0  0
   -0.5858    0.8004    2.5118 O   0  0  0  0  0  0  0  0  0  0  0  0
   -2.7841    3.2553    2.0523 C   0  0  0  0  0  0  0  0  0  0  0  0
   -3.8047    1.7484    4.0260 H   0  0  0  0  0  0  0  0  0  0  0  0
   -3.5969    1.3201    1.5466 H   0  0  0  0  0  0  0  0  0  0  0  0
   -1.9850    3.6926    2.6620 H   0  0  0  0  0  0  0  0  0  0  0  0
   -2.6246    3.5776    1.0180 H   0  0  0  0  0  0  0  0  0  0  0  0
   -3.7342    3.6765    2.3981 H   0  0  0  0  0  0  0  0  0  0  0  0
   -1.3352    1.1101    0.3372 N   0  0  0  0  0  0  0  0  0  0  0  0
   -0.1579    0.6093   -0.3265 C   0  0  2  0  0  0  0  0  0  0  0  0
    0.1832    1.5912   -1.4417 C   0  0  0  0  0  0  0  0  0  0  0  0
   -0.6609    2.2875   -2.0015 O   0  0  0  0  0  0  0  0  0  0  0  0
   -0.3705   -0.7962   -0.9005 C   0  0  0  0  0  0  0  0  0  0  0  0
   -0.5579   -1.8421    0.1712 C   0  0  0  0  0  0  0  0  0  0  0  0
   -1.7656   -2.3204    0.6247 C   0  0  0  0  0  0  0  0  0  0  0  0
    0.4709   -2.5111    0.8917 C   0  0  0  0  0  0  0  0  0  0  0  0
   -1.5122   -3.2541    1.5934 N   0  0  0  0  0  0  0  0  0  0  0  0
   -0.1547   -3.3912    1.7773 C   0  0  0  0  0  0  0  0  0  0  0  0
    1.8786   -2.4521    0.8753 C   0  0  0  0  0  0  0  0  0  0  0  0
    0.5599   -4.2186    2.6509 C   0  0  0  0  0  0  0  0  0  0  0  0
    2.6065   -3.2739    1.7435 C   0  0  0  0  0  0  0  0  0  0  0  0
    1.9552   -4.1428    2.6168 C   0  0  0  0  0  0  0  0  0  0  0  0
   -2.1183    1.4068   -0.2401 H   0  0  0  0  0  0  0  0  0  0  0  0
    0.6474    0.6173    0.4175 H   0  0  0  0  0  0  0  0  0  0  0  0
    0.4736   -1.0754   -1.5456 H   0  0  0  0  0  0  0  0  0  0  0  0
   -1.2515   -0.8137   -1.5557 H   0  0  0  0  0  0  0  0  0  0  0  0
   -2.7826   -2.0798    0.3468 H   0  0  0  0  0  0  0  0  0  0  0  0
   -2.2188   -3.7688    2.1006 H   0  0  0  0  0  0  0  0  0  0  0  0
    2.4011   -1.7794    0.2012 H   0  0  0  0  0  0  0  0  0  0  0  0
    0.0538   -4.8961    3.3302 H   0  0  0  0  0  0  0  0  0  0  0  0
    3.6924   -3.2325    1.7358 H   0  0  0  0  0  0  0  0  0  0  0  0
    2.5403   -4.7722    3.2824 H   0  0  0  0  0  0  0  0  0  0  0  0
    1.5464    1.6312   -1.6998 N   0  0  0  0  0  0  0  0  0  0  0  0
    2.1408    2.4953   -2.6942 C   0  0  2  0  0  0  0  0  0  0  0  0
    1.3710    2.3136   -3.9957 C   0  0  0  0  0  0  0  0  0  0  0  0
    0.7093    1.3090   -4.2490 O   0  0  0  0  0  0  0  0  0  0  0  0
    3.6166    2.1832   -2.8875 C   0  0  0  0  0  0  0  0  0  0  0  0
    2.1570    1.0226   -1.1627 H   0  0  0  0  0  0  0  0  0  0  0  0
    2.0158    3.5229   -2.3357 H   0  0  0  0  0  0  0  0  0  0  0  0
    3.7616    1.1578   -3.2464 H   0  0  0  0  0  0  0  0  0  0  0  0
    4.0720    2.8574   -3.6203 H   0  0  0  0  0  0  0  0  0  0  0  0
    4.1634    2.2855   -1.9439 H   0  0  0  0  0  0  0  0  0  0  0  0
    1.5447    3.3863   -4.8590 N   0  0  0  0  0  0  0  0  0  0  0  0
    0.9270    3.4455   -6.1632 C   0  0  0  0  0  0  0  0  0  0  0  0
    2.0952    4.1854   -4.5585 H   0  0  0  0  0  0  0  0  0  0  0  0
    1.6170    3.0351   -6.9152 H   0  0  0  0  0  0  0  0  0  0  0  0
   -0.0011    2.8550   -6.1563 H   0  0  0  0  0  0  0  0  0  0  0  0
    0.6942    4.4915   -6.4113 H   0  0  0  0  0  0  0  0  0  0  0  0
 29 30  2  0  0  0  0
 27 29  1  0  0  0  0
 28 30  1  0  0  0  0
 24 27  2  0  0  0  0
 26 28  2  0  0  0  0
 22 23  2  0  0  0  0
 23 25  1  0  0  0  0
 22 24  1  0  0  0  0
 24 26  1  0  0  0  0
 21 22  1  0  0  0  0
 25 26  1  0  0  0  0
  1  3  1  0  0  0  0
  1  7  1  0  0  0  0
  1  2  2  0  0  0  0
 42 43  1  0  0  0  0
 43 51  1  0  0  0  0
 43 44  2  0  0  0  0
  8  9  1  0  0  0  0
  9 17  1  0  0  0  0
  9 10  2  0  0  0  0
 18 19  1  0  0  0  0
 19 41  1  0  0  0  0
 19 20  2  0  0  0  0
 42 45  1  0  0  0  0
  8 11  1  0  0  0  0
 51 52  1  0  0  0  0
 18 21  1  0  0  0  0
 41 42  1  0  0  0  0
  7  8  1  0  0  0  0
 17 18  1  0  0  0  0
 29 39  1  0  0  0  0
 30 40  1  0  0  0  0
 27 37  1  0  0  0  0
 28 38  1  0  0  0  0
 23 35  1  0  0  0  0
  3  4  1  0  0  0  0
  3  5  1  0  0  0  0
  3  6  1  0  0  0  0
 45 48  1  0  0  0  0
 45 49  1  0  0  0  0
 45 50  1  0  0  0  0
 11 14  1  0  0  0  0
 11 15  1  0  0  0  0
 11 16  1  0  0  0  0
 52 54  1  0  0  0  0
 52 55  1  0  0  0  0
 52 56  1  0  0  0  0
 21 33  1  0  0  0  0
 21 34  1  0  0  0  0
 42 47  1  0  0  0  0
  8 13  1  0  0  0  0
 18 32  1  0  0  0  0
 25 36  1  0  0  0  0
 51 53  1  0  0  0  0
  7 12  1  0  0  0  0
 41 46  1  0  0  0  0
 17 31  1  0  0  0  0
M  END
$$$$

  -OEChem-05262214473D

 56 57  0     1  0  0  0  0  0999 V2000
   -2.2900    0.3401    4.1553 C   0  0  0  0  0  0  0  0  0  0  0  0
   -1.3426   -0.2746    3.6796 O   0  0  0  0  0  0  0  0  0  0  0  0
   -2.7219    0.0577    5.5560 C   0  0  0  0  0  0  0  0  0  0  0  0
   -3.4815   -0.7386    5.6094 H   0  0  0  0  0  0  0  0  0  0  0  0
   -1.8906   -0.2899    6.1903 H   0  0  0  0  0  0  0  0  0  0  0  0
   -3.1599    0.9126    6.0956 H   0  0  0  0  0  0  0  0  0  0  0  0
   -3.0397    1.3125    3.5142 N   0  0  0  0  0  0  0  0  0  0  0  0
   -2.7928    1.7385    2.1618 C   0  0  2  0  0  0  0  0  0  0  0  0
   -1.4579    1.1532    1.7206 C   0  0  0  0  0  0  0  0  0  0  0  0
   -0.5858    0.8004    2.5118 O   0  0  0  0  0  0  0  0  0  0  0  0
   -2.7841    3.2553    2.0523 C   0  0  0  0  0  0  0  0  0  0  0  0
   -3.8047    1.7484    4.0260 H   0  0  0  0  0  0  0  0  0  0  0  0
   -3.5969    1.3201    1.5466 H   0  0  0  0  0  0  0  0  0  0  0  0
   -1.9850    3.6926    2.6620 H   0  0  0  0  0  0  0  0  0  0  0  0
   -2.6246    3.5776    1.0180 H   0  0  0  0  0  0  0  0  0  0  0  0
   -3.7342    3.6765    2.3981 H   0  0  0  0  0  0  0  0  0  0  0  0
   -1.3352    1.1101    0.3372 N   0  0  0  0  0  0  0  0  0  0  0  0
   -0.1579    0.6093   -0.3265 C   0  0  2  0  0  0  0  0  0  0  0  0
    0.1832    1.5912   -1.4417 C   0  0  0  0  0  0  0  0  0  0  0  0
   -0.5886    2.4707   -1.8181 O   0  0  0  0  0  0  0  0  0  0  0  0
   -0.3705   -0.7962   -0.9005 C   0  0  0  0  0  0  0  0  0  0  0  0
   -0.5579   -1.8421    0.1712 C   0  0  0  0  0  0  0  0  0  0  0  0
   -1.7656   -2.3204    0.6247 C   0  0  0  0  0  0  0  0  0  0  0  0
    0.4709   -2.5111    0.8917 C   0  0  0  0  0  0  0  0  0  0  0  0
   -1.5122   -3.2541    1.5934 N   0  0  0  0  0  0  0  0  0  0  0  0
   -0.1547   -3.3912    1.7773 C   0  0  0  0  0  0  0  0  0  0  0  0
    1.8786   -2.4521    0.8753 C   0  0  0  0  0  0  0  0  0  0  0  0
    0.5599   -4.2186    2.6509 C   0  0  0  0  0  0  0  0  0  0  0  0
    2.6065   -3.2739    1.7435 C   0  0  0  0  0  0  0  0  0  0  0  0
    1.9552   -4.1428    2.6168 C   0  0  0  0  0  0  0  0  0  0  0  0
   -2.1183    1.4068   -0.2401 H   0  0  0  0  0  0  0  0  0  0  0  0
    0.6474    0.6173    0.4175 H   0  0  0  0  0  0  0  0  0  0  0  0
    0.4736   -1.0754   -1.5456 H   0  0  0  0  0  0  0  0  0  0  0  0
   -1.2515   -0.8137   -1.5557 H   0  0  0  0  0  0  0  0  0  0  0  0
   -2.7826   -2.0798    0.3468 H   0  0  0  0  0  0  0  0  0  0  0  0
   -2.2188   -3.7688    2.1006 H   0  0  0  0  0  0  0  0  0  0  0  0
    2.4011   -1.7794    0.2012 H   0  0  0  0  0  0  0  0  0  0  0  0
    0.0538   -4.8961    3.3302 H   0  0  0  0  0  0  0  0  0  0  0  0
    3.6924   -3.2325    1.7358 H   0  0  0  0  0  0  0  0  0  0  0  0
    2.5403   -4.7722    3.2824 H   0  0  0  0  0  0  0  0  0  0  0  0
    1.4685    1.3981   -1.9289 N   0  0  0  0  0  0  0  0  0  0  0  0
    2.0512    2.2089   -2.9738 C   0  0  2  0  0  0  0  0  0  0  0  0
    1.0613    2.2690   -4.1296 C   0  0  0  0  0  0  0  0  0  0  0  0
    0.1851    1.4253   -4.3070 O   0  0  0  0  0  0  0  0  0  0  0  0
    3.3875    1.6452   -3.4313 C   0  0  0  0  0  0  0  0  0  0  0  0
    2.0277    0.6493   -1.5309 H   0  0  0  0  0  0  0  0  0  0  0  0
    2.1876    3.2125   -2.5564 H   0  0  0  0  0  0  0  0  0  0  0  0
    3.2708    0.6400   -3.8525 H   0  0  0  0  0  0  0  0  0  0  0  0
    3.8411    2.2762   -4.2027 H   0  0  0  0  0  0  0  0  0  0  0  0
    4.0885    1.5748   -2.5926 H   0  0  0  0  0  0  0  0  0  0  0  0
    1.2987    3.3522   -4.9642 N   0  0  0  0  0  0  0  0  0  0  0  0
    0.5024    3.6206   -6.1389 C   0  0  0  0  0  0  0  0  0  0  0  0
    2.0350    4.0116   -4.7300 H   0  0  0  0  0  0  0  0  0  0  0  0
    0.9691    3.1468   -7.0151 H   0  0  0  0  0  0  0  0  0  0  0  0
   -0.5092    3.2125   -5.9970 H   0  0  0  0  0  0  0  0  0  0  0  0
    0.4404    4.7071   -6.2993 H   0  0  0  0  0  0  0  0  0  0  0  0
 29 30  2  0  0  0  0
 27 29  1  0  0  0  0
 28 30  1  0  0  0  0
 24 27  2  0  0  0  0
 26 28  2  0  0  0  0
 22 23  2  0  0  0  0
 23 25  1  0  0  0  0
 22 24  1  0  0  0  0
 24 26  1  0  0  0  0
 21 22  1  0  0  0  0
 25 26  1  0  0  0  0
  1  3  1  0  0  0  0
  1  7  1  0  0  0  0
  1  2  2  0  0  0  0
 42 43  1  0  0  0  0
 43 51  1  0  0  0  0
 43 44  2  0  0  0  0
  8  9  1  0  0  0  0
  9 17  1  0  0  0  0
  9 10  2  0  0  0  0
 18 19  1  0  0  0  0
 19 41  1  0  0  0  0
 19 20  2  0  0  0  0
 42 45  1  0  0  0  0
  8 11  1  0  0  0  0
 51 52  1  0  0  0  0
 18 21  1  0  0  0  0
 41 42  1  0  0  0  0
  7  8  1  0  0  0  0
 17 18  1  0  0  0  0
 29 39  1  0  0  0  0
 30 40  1  0  0  0  0
 27 37  1  0  0  0  0
 28 38  1  0  0  0  0
 23 35  1  0  0  0  0
  3  4  1  0  0  0  0
  3  5  1  0  0  0  0
  3  6  1  0  0  0  0
 45 48  1  0  0  0  0
 45 49  1  0  0  0  0
 45 50  1  0  0  0  0
 11 14  1  0  0  0  0
 11 15  1  0  0  0  0
 11 16  1  0  0  0  0
 52 54  1  0  0  0  0
 52 55  1  0  0  0  0
 52 56  1  0  0  0  0
 21 33  1  0  0  0  0
 21 34  1  0  0  0  0
 42 47  1  0  0  0  0
  8 13  1  0  0  0  0
 18 32  1  0  0  0  0
 25 36  1  0  0  0  0
 51 53  1  0  0  0  0
  7 12  1  0  0  0  0
 41 46  1  0  0  0  0
 17 31  1  0  0  0  0
M  END
$$$$

  -OEChem-05262214473D

 56 57  0     1  0  0  0  0  0999 V2000
   -2.2900    0.3401    4.1553 C   0  0  0  0  0  0  0  0  0  0  0  0
   -1.3426   -0.2746    3.6796 O   0  0  0  0  0  0  0  0  0  0  0  0
   -2.7219    0.0577    5.5560 C   0  0  0  0  0  0  0  0  0  0  0  0
   -3.4815   -0.7386    5.6094 H   0  0  0  0  0  0  0  0  0  0  0  0
   -1.8906   -0.2899    6.1903 H   0  0  0  0  0  0  0  0  0  0  0  0
   -3.1599    0.9126    6.0956 H   0  0  0  0  0  0  0  0  0  0  0  0
   -3.0397    1.3125    3.5142 N   0  0  0  0  0  0  0  0  0  0  0  0
   -2.7928    1.7385    2.1618 C   0  0  2  0  0  0  0  0  0  0  0  0
   -1.4579    1.1532    1.7206 C   0  0  0  0  0  0  0  0  0  0  0  0
   -0.5858    0.8004    2.5118 O   0  0  0  0  0  0  0  0  0  0  0  0
   -2.7841    3.2553    2.0523 C   0  0  0  0  0  0  0  0  0  0  0  0
   -3.8047    1.7484    4.0260 H   0  0  0  0  0  0  0  0  0  0  0  0
   -3.5969    1.3201    1.5466 H   0  0  0  0  0  0  0  0  0  0  0  0
   -1.9850    3.6926    2.6620 H   0  0  0  0  0  0  0  0  0  0  0  0
   -2.6246    3.5776    1.0180 H   0  0  0  0  0  0  0  0  0  0  0  0
   -3.7342    3.6765    2.3981 H   0  0  0  0  0  0  0  0  0  0  0  0
   -1.3352    1.1101    0.3372 N   0  0  0  0  0  0  0  0  0  0  0  0
   -0.1579    0.6093   -0.3265 C   0  0  2  0  0  0  0  0  0  0  0  0
    0.4015    1.7475   -1.1725 C   0  0  0  0  0  0  0  0  0  0  0  0
   -0.0943    2.8721   -1.1930 O   0  0  0  0  0  0  0  0  0  0  0  0
   -0.4630   -0.6085   -1.2063 C   0  0  0  0  0  0  0  0  0  0  0  0
   -0.8729   -1.8197   -0.4046 C   0  0  0  0  0  0  0  0  0  0  0  0
   -2.1659   -2.2214   -0.1602 C   0  0  0  0  0  0  0  0  0  0  0  0
   -0.0031   -2.7495    0.2308 C   0  0  0  0  0  0  0  0  0  0  0  0
   -2.1171   -3.3592    0.5996 N   0  0  0  0  0  0  0  0  0  0  0  0
   -0.8090   -3.7051    0.8535 C   0  0  0  0  0  0  0  0  0  0  0  0
    1.3968   -2.8703    0.3362 C   0  0  0  0  0  0  0  0  0  0  0  0
   -0.2829   -4.7796    1.5793 C   0  0  0  0  0  0  0  0  0  0  0  0
    1.9372   -3.9401    1.0590 C   0  0  0  0  0  0  0  0  0  0  0  0
    1.1084   -4.8789    1.6701 C   0  0  0  0  0  0  0  0  0  0  0  0
   -2.1183    1.4068   -0.2401 H   0  0  0  0  0  0  0  0  0  0  0  0
    0.5627    0.3601    0.4613 H   0  0  0  0  0  0  0  0  0  0  0  0
    0.4072   -0.8552   -1.8295 H   0  0  0  0  0  0  0  0  0  0  0  0
   -1.2686   -0.3770   -1.9156 H   0  0  0  0  0  0  0  0  0  0  0  0
   -3.1164   -1.7997   -0.4568 H   0  0  0  0  0  0  0  0  0  0  0  0
   -2.9243   -3.8719    0.9270 H   0  0  0  0  0  0  0  0  0  0  0  0
    2.0563   -2.1462   -0.1337 H   0  0  0  0  0  0  0  0  0  0  0  0
   -0.9272   -5.5115    2.0544 H   0  0  0  0  0  0  0  0  0  0  0  0
    3.0161   -4.0382    1.1442 H   0  0  0  0  0  0  0  0  0  0  0  0
    1.5495   -5.7019    2.2265 H   0  0  0  0  0  0  0  0  0  0  0  0
    1.5464    1.3697   -1.8601 N   0  0  0  0  0  0  0  0  0  0  0  0
    2.2894    2.2655   -2.7171 C   0  0  2  0  0  0  0  0  0  0  0  0
    1.3047    2.9272   -3.6721 C   0  0  0  0  0  0  0  0  0  0  0  0
    0.2109    2.4407   -3.9511 O   0  0  0  0  0  0  0  0  0  0  0  0
    3.3751    1.5253   -3.4826 C   0  0  0  0  0  0  0  0  0  0  0  0
    1.8790    0.4156   -1.7557 H   0  0  0  0  0  0  0  0  0  0  0  0
    2.7366    3.0261   -2.0678 H   0  0  0  0  0  0  0  0  0  0  0  0
    2.9462    0.7591   -4.1386 H   0  0  0  0  0  0  0  0  0  0  0  0
    3.9555    2.2101   -4.1097 H   0  0  0  0  0  0  0  0  0  0  0  0
    4.0653    1.0253   -2.7945 H   0  0  0  0  0  0  0  0  0  0  0  0
    1.8091    4.1033   -4.2094 N   0  0  0  0  0  0  0  0  0  0  0  0
    1.0696    4.9097   -5.1523 C   0  0  0  0  0  0  0  0  0  0  0  0
    2.7179    4.4414   -3.9070 H   0  0  0  0  0  0  0  0  0  0  0  0
    1.3313    4.6087   -6.1774 H   0  0  0  0  0  0  0  0  0  0  0  0
   -0.0090    4.7648   -4.9917 H   0  0  0  0  0  0  0  0  0  0  0  0
    1.3229    5.9700   -5.0056 H   0  0  0  0  0  0  0  0  0  0  0  0
 29 30  2  0  0  0  0
 27 29  1  0  0  0  0
 28 30  1  0  0  0  0
 24 27  2  0  0  0  0
 26 28  2  0  0  0  0
 22 23  2  0  0  0  0
 23 25  1  0  0  0  0
 22 24  1  0  0  0  0
 24 26  1  0  0  0  0
 21 22  1  0  0  0  0
 25 26  1  0  0  0  0
  1  3  1  0  0  0  0
  1  7  1  0  0  0  0
  1  2  2  0  0  0  0
 42 43  1  0  0  0  0
 43 51  1  0  0  0  0
 43 44  2  0  0  0  0
  8  9  1  0  0  0  0
  9 17  1  0  0  0  0
  9 10  2  0  0  0  0
 18 19  1  0  0  0  0
 19 41  1  0  0  0  0
 19 20  2  0  0  0  0
 42 45  1  0  0  0  0
  8 11  1  0  0  0  0
 51 52  1  0  0  0  0
 18 21  1  0  0  0  0
 41 42  1  0  0  0  0
  7  8  1  0  0  0  0
 17 18  1  0  0  0  0
 29 39  1  0  0  0  0
 30 40  1  0  0  0  0
 27 37  1  0  0  0  0
 28 38  1  0  0  0  0
 23 35  1  0  0  0  0
  3  4  1  0  0  0  0
  3  5  1  0  0  0  0
  3  6  1  0  0  0  0
 45 48  1  0  0  0  0
 45 49  1  0  0  0  0
 45 50  1  0  0  0  0
 11 14  1  0  0  0  0
 11 15  1  0  0  0  0
 11 16  1  0  0  0  0
 52 54  1  0  0  0  0
 52 55  1  0  0  0  0
 52 56  1  0  0  0  0
 21 33  1  0  0  0  0
 21 34  1  0  0  0  0
 42 47  1  0  0  0  0
  8 13  1  0  0  0  0
 18 32  1  0  0  0  0
 25 36  1  0  0  0  0
 51 53  1  0  0  0  0
  7 12  1  0  0  0  0
 41 46  1  0  0  0  0
 17 31  1  0  0  0  0
M  END
$$$$

  -OEChem-05262214473D

 56 57  0     1  0  0  0  0  0999 V2000
   -2.2900    0.3401    4.1553 C   0  0  0  0  0  0  0  0  0  0  0  0
   -1.3426   -0.2746    3.6796 O   0  0  0  0  0  0  0  0  0  0  0  0
   -2.7219    0.0577    5.5560 C   0  0  0  0  0  0  0  0  0  0  0  0
   -3.4815   -0.7386    5.6094 H   0  0  0  0  0  0  0  0  0  0  0  0
   -1.8906   -0.2899    6.1903 H   0  0  0  0  0  0  0  0  0  0  0  0
   -3.1599    0.9126    6.0956 H   0  0  0  0  0  0  0  0  0  0  0  0
   -3.0397    1.3125    3.5142 N   0  0  0  0  0  0  0  0  0  0  0  0
   -2.7928    1.7385    2.1618 C   0  0  2  0  0  0  0  0  0  0  0  0
   -1.4579    1.1532    1.7206 C   0  0  0  0  0  0  0  0  0  0  0  0
   -0.5858    0.8004    2.5118 O   0  0  0  0  0  0  0  0  0  0  0  0
   -2.7841    3.2553    2.0523 C   0  0  0  0  0  0  0  0  0  0  0  0
   -3.8047    1.7484    4.0260 H   0  0  0  0  0  0  0  0  0  0  0  0
   -3.5969    1.3201    1.5466 H   0  0  0  0  0  0  0  0  0  0  0  0
   -1.9850    3.6926    2.6620 H   0  0  0  0  0  0  0  0  0  0  0  0
   -2.6246    3.5776    1.0180 H   0  0  0  0  0  0  0  0  0  0  0  0
   -3.7342    3.6765    2.3981 H   0  0  0  0  0  0  0  0  0  0  0  0
   -1.3352    1.1101    0.3372 N   0  0  0  0  0  0  0  0  0  0  0  0
   -0.1579    0.6093   -0.3265 C   0  0  2  0  0  0  0  0  0  0  0  0
    0.4015    1.7475   -1.1725 C   0  0  0  0  0  0  0  0  0  0  0  0
    0.0885    2.9240   -1.0024 O   0  0  0  0  0  0  0  0  0  0  0  0
   -0.4630   -0.6085   -1.2063 C   0  0  0  0  0  0  0  0  0  0  0  0
   -0.8729   -1.8197   -0.4046 C   0  0  0  0  0  0  0  0  0  0  0  0
   -2.1659   -2.2214   -0.1602 C   0  0  0  0  0  0  0  0  0  0  0  0
   -0.0031   -2.7495    0.2308 C   0  0  0  0  0  0  0  0  0  0  0  0
   -2.1171   -3.3592    0.5996 N   0  0  0  0  0  0  0  0  0  0  0  0
   -0.8090   -3.7051    0.8535 C   0  0  0  0  0  0  0  0  0  0  0  0
    1.3968   -2.8703    0.3362 C   0  0  0  0  0  0  0  0  0  0  0  0
   -0.2829   -4.7796    1.5793 C   0  0  0  0  0  0  0  0  0  0  0  0
    1.9372   -3.9401    1.0590 C   0  0  0  0  0  0  0  0  0  0  0  0
    1.1084   -4.8789    1.6701 C   0  0  0  0  0  0  0  0  0  0  0  0
   -2.1183    1.4068   -0.2401 H   0  0  0  0  0  0  0  0  0  0  0  0
    0.5627    0.3601    0.4613 H   0  0  0  0  0  0  0  0  0  0  0  0
    0.4072   -0.8552   -1.8295 H   0  0  0  0  0  0  0  0  0  0  0  0
   -1.2686   -0.3770   -1.9156 H   0  0  0  0  0  0  0  0  0  0  0  0
   -3.1164   -1.7997   -0.4568 H   0  0  0  0  0  0  0  0  0  0  0  0
   -2.9243   -3.8719    0.9270 H   0  0  0  0  0  0  0  0  0  0  0  0
    2.0563   -2.1462   -0.1337 H   0  0  0  0  0  0  0  0  0  0  0  0
   -0.9272   -5.5115    2.0544 H   0  0  0  0  0  0  0  0  0  0  0  0
    3.0161   -4.0382    1.1442 H   0  0  0  0  0  0  0  0  0  0  0  0
    1.5495   -5.7019    2.2265 H   0  0  0  0  0  0  0  0  0  0  0  0
    1.3268    1.2966   -2.1036 N   0  0  0  0  0  0  0  0  0  0  0  0
    2.0252    2.1726   -3.0167 C   0  0  2  0  0  0  0  0  0  0  0  0
    0.9929    3.0608   -3.6986 C   0  0  0  0  0  0  0  0  0  0  0  0
   -0.1951    2.7590   -3.7914 O   0  0  0  0  0  0  0  0  0  0  0  0
    2.8231    1.3813   -4.0413 C   0  0  0  0  0  0  0  0  0  0  0  0
    1.5230    0.3009   -2.1454 H   0  0  0  0  0  0  0  0  0  0  0  0
    2.6965    2.7908   -2.4107 H   0  0  0  0  0  0  0  0  0  0  0  0
    2.1674    0.7558   -4.6579 H   0  0  0  0  0  0  0  0  0  0  0  0
    3.3743    2.0462   -4.7145 H   0  0  0  0  0  0  0  0  0  0  0  0
    3.5446    0.7211   -3.5480 H   0  0  0  0  0  0  0  0  0  0  0  0
    1.5621    4.2100   -4.2291 N   0  0  0  0  0  0  0  0  0  0  0  0
    0.7921    5.2064   -4.9365 C   0  0  0  0  0  0  0  0  0  0  0  0
    2.5522    4.3880   -4.0884 H   0  0  0  0  0  0  0  0  0  0  0  0
    0.8091    4.9866   -6.0142 H   0  0  0  0  0  0  0  0  0  0  0  0
   -0.2468    5.1910   -4.5756 H   0  0  0  0  0  0  0  0  0  0  0  0
    1.2276    6.2007   -4.7583 H   0  0  0  0  0  0  0  0  0  0  0  0
 29 30  2  0  0  0  0
 27 29  1  0  0  0  0
 28 30  1  0  0  0  0
 24 27  2  0  0  0  0
 26 28  2  0  0  0  0
 22 23  2  0  0  0  0
 23 25  1  0  0  0  0
 22 24  1  0  0  0  0
 24 26  1  0  0  0  0
 21 22  1  0  0  0  0
 25 26  1  0  0  0  0
  1  3  1  0  0  0  0
  1  7  1  0  0  0  0
  1  2  2  0  0  0  0
 42 43  1  0  0  0  0
 43 51  1  0  0  0  0
 43 44  2  0  0  0  0
  8  9  1  0  0  0  0
  9 17  1  0  0  0  0
  9 10  2  0  0  0  0
 18 19  1  0  0  0  0
 19 41  1  0  0  0  0
 19 20  2  0  0  0  0
 42 45  1  0  0  0  0
  8 11  1  0  0  0  0
 51 52  1  0  0  0  0
 18 21  1  0  0  0  0
 41 42  1  0  0  0  0
  7  8  1  0  0  0  0
 17 18  1  0  0  0  0
 29 39  1  0  0  0  0
 30 40  1  0  0  0  0
 27 37  1  0  0  0  0
 28 38  1  0  0  0  0
 23 35  1  0  0  0  0
  3  4  1  0  0  0  0
  3  5  1  0  0  0  0
  3  6  1  0  0  0  0
 45 48  1  0  0  0  0
 45 49  1  0  0  0  0
 45 50  1  0  0  0  0
 11 14  1  0  0  0  0
 11 15  1  0  0  0  0
 11 16  1  0  0  0  0
 52 54  1  0  0  0  0
 52 55  1  0  0  0  0
 52 56  1  0  0  0  0
 21 33  1  0  0  0  0
 21 34  1  0  0  0  0
 42 47  1  0  0  0  0
  8 13  1  0  0  0  0
 18 32  1  0  0  0  0
 25 36  1  0  0  0  0
 51 53  1  0  0  0  0
  7 12  1  0  0  0  0
 41 46  1  0  0  0  0
 17 31  1  0  0  0  0
M  END
$$$$

  -OEChem-05262214473D

 56 57  0     1  0  0  0  0  0999 V2000
   -2.2900    0.3401    4.1553 C   0  0  0  0  0  0  0  0  0  0  0  0
   -1.3426   -0.2746    3.6796 O   0  0  0  0  0  0  0  0  0  0  0  0
   -2.7219    0.0577    5.5560 C   0  0  0  0  0  0  0  0  0  0  0  0
   -3.4815   -0.7386    5.6094 H   0  0  0  0  0  0  0  0  0  0  0  0
   -1.8906   -0.2899    6.1903 H   0  0  0  0  0  0  0  0  0  0  0  0
   -3.1599    0.9126    6.0956 H   0  0  0  0  0  0  0  0  0  0  0  0
   -3.0397    1.3125    3.5142 N   0  0  0  0  0  0  0  0  0  0  0  0
   -2.7928    1.7385    2.1618 C   0  0  2  0  0  0  0  0  0  0  0  0
   -1.4579    1.1532    1.7206 C   0  0  0  0  0  0  0  0  0  0  0  0
   -0.5858    0.8004    2.5118 O   0  0  0  0  0  0  0  0  0  0  0  0
   -2.7841    3.2553    2.0523 C   0  0  0  0  0  0  0  0  0  0  0  0
   -3.8047    1.7484    4.0260 H   0  0  0  0  0  0  0  0  0  0  0  0
   -3.5969    1.3201    1.5466 H   0  0  0  0  0  0  0  0  0  0  0  0
   -1.9850    3.6926    2.6620 H   0  0  0  0  0  0  0  0  0  0  0  0
   -2.6246    3.5776    1.0180 H   0  0  0  0  0  0  0  0  0  0  0  0
   -3.7342    3.6765    2.3981 H   0  0  0  0  0  0  0  0  0  0  0  0
   -1.3352    1.1101    0.3372 N   0  0  0  0  0  0  0  0  0  0  0  0
   -0.1579    0.6093   -0.3265 C   0  0  2  0  0  0  0  0  0  0  0  0
    0.4015    1.7475   -1.1725 C   0  0  0  0  0  0  0  0  0  0  0  0
    0.3094    2.9297   -0.8487 O   0  0  0  0  0  0  0  0  0  0  0  0
   -0.4630   -0.6085   -1.2063 C   0  0  0  0  0  0  0  0  0  0  0  0
   -0.8729   -1.8197   -0.4046 C   0  0  0  0  0  0  0  0  0  0  0  0
   -2.1659   -2.2214   -0.1602 C   0  0  0  0  0  0  0  0  0  0  0  0
   -0.0031   -2.7495    0.2308 C   0  0  0  0  0  0  0  0  0  0  0  0
   -2.1171   -3.3592    0.5996 N   0  0  0  0  0  0  0  0  0  0  0  0
   -0.8090   -3.7051    0.8535 C   0  0  0  0  0  0  0  0  0  0  0  0
    1.3968   -2.8703    0.3362 C   0  0  0  0  0  0  0  0  0  0  0  0
   -0.2829   -4.7796    1.5793 C   0  0  0  0  0  0  0  0  0  0  0  0
    1.9372   -3.9401    1.0590 C   0  0  0  0  0  0  0  0  0  0  0  0
    1.1084   -4.8789    1.6701 C   0  0  0  0  0  0  0  0  0  0  0  0
   -2.1183    1.4068   -0.2401 H   0  0  0  0  0  0  0  0  0  0  0  0
    0.5627    0.3601    0.4613 H   0  0  0  0  0  0  0  0  0  0  0  0
    0.4072   -0.8552   -1.8295 H   0  0  0  0  0  0  0  0  0  0  0  0
   -1.2686   -0.3770   -1.9156 H   0  0  0  0  0  0  0  0  0  0  0  0
   -3.1164   -1.7997   -0.4568 H   0  0  0  0  0  0  0  0  0  0  0  0
   -2.9243   -3.8719    0.9270 H   0  0  0  0  0  0  0  0  0  0  0  0
    2.0563   -2.1462   -0.1337 H   0  0  0  0  0  0  0  0  0  0  0  0
   -0.9272   -5.5115    2.0544 H   0  0  0  0  0  0  0  0  0  0  0  0
    3.0161   -4.0382    1.1442 H   0  0  0  0  0  0  0  0  0  0  0  0
    1.5495   -5.7019    2.2265 H   0  0  0  0  0  0  0  0  0  0  0  0
    1.0571    1.2807   -2.3033 N   0  0  0  0  0  0  0  0  0  0  0  0
    1.6988    2.1493   -3.2639 C   0  0  2  0  0  0  0  0  0  0  0  0
    0.7057    3.2371   -3.6512 C   0  0  0  0  0  0  0  0  0  0  0  0
   -0.5107    3.1095   -3.5285 O   0  0  0  0  0  0  0  0  0  0  0  0
    2.1612    1.3746   -4.4880 C   0  0  0  0  0  0  0  0  0  0  0  0
    1.0874    0.2782   -2.4639 H   0  0  0  0  0  0  0  0  0  0  0  0
    2.5577    2.6020   -2.7566 H   0  0  0  0  0  0  0  0  0  0  0  0
    1.3143    0.9138   -5.0094 H   0  0  0  0  0  0  0  0  0  0  0  0
    2.6725    2.0289   -5.2019 H   0  0  0  0  0  0  0  0  0  0  0  0
    2.8524    0.5736   -4.2042 H   0  0  0  0  0  0  0  0  0  0  0  0
    1.3351    4.3504   -4.1903 N   0  0  0  0  0  0  0  0  0  0  0  0
    0.6085    5.5123   -4.6463 C   0  0  0  0  0  0  0  0  0  0  0  0
    2.3494    4.3774   -4.2367 H   0  0  0  0  0  0  0  0  0  0  0  0
    0.3905    5.4112   -5.7198 H   0  0  0  0  0  0  0  0  0  0  0  0
   -0.3350    5.5973   -4.0872 H   0  0  0  0  0  0  0  0  0  0  0  0
    1.2163    6.4137   -4.4791 H   0  0  0  0  0  0  0  0  0  0  0  0
 29 30  2  0  0  0  0
 27 29  1  0  0  0  0
 28 30  1  0  0  0  0
 24 27  2  0  0  0  0
 26 28  2  0  0  0  0
 22 23  2  0  0  0  0
 23 25  1  0  0  0  0
 22 24  1  0  0  0  0
 24 26  1  0  0  0  0
 21 22  1  0  0  0  0
 25 26  1  0  0  0  0
  1  3  1  0  0  0  0
  1  7  1  0  0  0  0
  1  2  2  0  0  0  0
 42 43  1  0  0  0  0
 43 51  1  0  0  0  0
 43 44  2  0  0  0  0
  8  9  1  0  0  0  0
  9 17  1  0  0  0  0
  9 10  2  0  0  0  0
 18 19  1  0  0  0  0
 19 41  1  0  0  0  0
 19 20  2  0  0  0  0
 42 45  1  0  0  0  0
  8 11  1  0  0  0  0
 51 52  1  0  0  0  0
 18 21  1  0  0  0  0
 41 42  1  0  0  0  0
  7  8  1  0  0  0  0
 17 18  1  0  0  0  0
 29 39  1  0  0  0  0
 30 40  1  0  0  0  0
 27 37  1  0  0  0  0
 28 38  1  0  0  0  0
 23 35  1  0  0  0  0
  3  4  1  0  0  0  0
  3  5  1  0  0  0  0
  3  6  1  0  0  0  0
 45 48  1  0  0  0  0
 45 49  1  0  0  0  0
 45 50  1  0  0  0  0
 11 14  1  0  0  0  0
 11 15  1  0  0  0  0
 11 16  1  0  0  0  0
 52 54  1  0  0  0  0
 52 55  1  0  0  0  0
 52 56  1  0  0  0  0
 21 33  1  0  0  0  0
 21 34  1  0  0  0  0
 42 47  1  0  0  0  0
  8 13  1  0  0  0  0
 18 32  1  0  0  0  0
 25 36  1  0  0  0  0
 51 53  1  0  0  0  0
  7 12  1  0  0  0  0
 41 46  1  0  0  0  0
 17 31  1  0  0  0  0
M  END
$$$$

  -OEChem-05262214473D

 56 57  0     1  0  0  0  0  0999 V2000
   -2.2900    0.3401    4.1553 C   0  0  0  0  0  0  0  0  0  0  0  0
   -1.3426   -0.2746    3.6796 O   0  0  0  0  0  0  0  0  0  0  0  0
   -2.7219    0.0577    5.5560 C   0  0  0  0  0  0  0  0  0  0  0  0
   -3.4815   -0.7386    5.6094 H   0  0  0  0  0  0  0  0  0  0  0  0
   -1.8906   -0.2899    6.1903 H   0  0  0  0  0  0  0  0  0  0  0  0
   -3.1599    0.9126    6.0956 H   0  0  0  0  0  0  0  0  0  0  0  0
   -3.0397    1.3125    3.5142 N   0  0  0  0  0  0  0  0  0  0  0  0
   -2.7928    1.7385    2.1618 C   0  0  2  0  0  0  0  0  0  0  0  0
   -1.4579    1.1532    1.7206 C   0  0  0  0  0  0  0  0  0  0  0  0
   -0.5858    0.8004    2.5118 O   0  0  0  0  0  0  0  0  0  0  0  0
   -2.7841    3.2553    2.0523 C   0  0  0  0  0  0  0  0  0  0  0  0
   -3.8047    1.7484    4.0260 H   0  0  0  0  0  0  0  0  0  0  0  0
   -3.5969    1.3201    1.5466 H   0  0  0  0  0  0  0  0  0  0  0  0
   -1.9850    3.6926    2.6620 H   0  0  0  0  0  0  0  0  0  0  0  0
   -2.6246    3.5776    1.0180 H   0  0  0  0  0  0  0  0  0  0  0  0
   -3.7342    3.6765    2.3981 H   0  0  0  0  0  0  0  0  0  0  0  0
   -1.3352    1.1101    0.3372 N   0  0  0  0  0  0  0  0  0  0  0  0
   -0.1579    0.6093   -0.3265 C   0  0  2  0  0  0  0  0  0  0  0  0
    0.4015    1.7475   -1.1725 C   0  0  0  0  0  0  0  0  0  0  0  0
    0.5533    2.8889   -0.7423 O   0  0  0  0  0  0  0  0  0  0  0  0
   -0.4630   -0.6085   -1.2063 C   0  0  0  0  0  0  0  0  0  0  0  0
   -0.8729   -1.8197   -0.4046 C   0  0  0  0  0  0  0  0  0  0  0  0
   -2.1659   -2.2214   -0.1602 C   0  0  0  0  0  0  0  0  0  0  0  0
   -0.0031   -2.7495    0.2308 C   0  0  0  0  0  0  0  0  0  0  0  0
   -2.1171   -3.3592    0.5996 N   0  0  0  0  0  0  0  0  0  0  0  0
   -0.8090   -3.7051    0.8535 C   0  0  0  0  0  0  0  0  0  0  0  0
    1.3968   -2.8703    0.3362 C   0  0  0  0  0  0  0  0  0  0  0  0
   -0.2829   -4.7796    1.5793 C   0  0  0  0  0  0  0  0  0  0  0  0
    1.9372   -3.9401    1.0590 C   0  0  0  0  0  0  0  0  0  0  0  0
    1.1084   -4.8789    1.6701 C   0  0  0  0  0  0  0  0  0  0  0  0
   -2.1183    1.4068   -0.2401 H   0  0  0  0  0  0  0  0  0  0  0  0
    0.5627    0.3601    0.4613 H   0  0  0  0  0  0  0  0  0  0  0  0
    0.4072   -0.8552   -1.8295 H   0  0  0  0  0  0  0  0  0  0  0  0
   -1.2686   -0.3770   -1.9156 H   0  0  0  0  0  0  0  0  0  0  0  0
   -3.1164   -1.7997   -0.4568 H   0  0  0  0  0  0  0  0  0  0  0  0
   -2.9243   -3.8719    0.9270 H   0  0  0  0  0  0  0  0  0  0  0  0
    2.0563   -2.1462   -0.1337 H   0  0  0  0  0  0  0  0  0  0  0  0
   -0.9272   -5.5115    2.0544 H   0  0  0  0  0  0  0  0  0  0  0  0
    3.0161   -4.0382    1.1442 H   0  0  0  0  0  0  0  0  0  0  0  0
    1.5495   -5.7019    2.2265 H   0  0  0  0  0  0  0  0  0  0  0  0
    0.7557    1.3231   -2.4456 N   0  0  0  0  0  0  0  0  0  0  0  0
    1.3323    2.1972   -3.4417 C   0  0  2  0  0  0  0  0  0  0  0  0
    0.4628    3.4442   -3.5333 C   0  0  0  0  0  0  0  0  0  0  0  0
   -0.7144    3.4684   -3.1802 O   0  0  0  0  0  0  0  0  0  0  0  0
    1.4346    1.5055   -4.7923 C   0  0  0  0  0  0  0  0  0  0  0  0
    0.6019    0.3491   -2.6895 H   0  0  0  0  0  0  0  0  0  0  0  0
    2.3297    2.4723   -3.0818 H   0  0  0  0  0  0  0  0  0  0  0  0
    0.4450    1.2223   -5.1691 H   0  0  0  0  0  0  0  0  0  0  0  0
    1.8979    2.1592   -5.5387 H   0  0  0  0  0  0  0  0  0  0  0  0
    2.0357    0.5928   -4.7182 H   0  0  0  0  0  0  0  0  0  0  0  0
    1.1435    4.5149   -4.0956 N   0  0  0  0  0  0  0  0  0  0  0  0
    0.5311    5.8067   -4.3015 C   0  0  0  0  0  0  0  0  0  0  0  0
    2.1234    4.4104   -4.3417 H   0  0  0  0  0  0  0  0  0  0  0  0
    0.1041    5.8534   -5.3142 H   0  0  0  0  0  0  0  0  0  0  0  0
   -0.2674    5.9561   -3.5598 H   0  0  0  0  0  0  0  0  0  0  0  0
    1.2901    6.5946   -4.1870 H   0  0  0  0  0  0  0  0  0  0  0  0
 29 30  2  0  0  0  0
 27 29  1  0  0  0  0
 28 30  1  0  0  0  0
 24 27  2  0  0  0  0
 26 28  2  0  0  0  0
 22 23  2  0  0  0  0
 23 25  1  0  0  0  0
 22 24  1  0  0  0  0
 24 26  1  0  0  0  0
 21 22  1  0  0  0  0
 25 26  1  0  0  0  0
  1  3  1  0  0  0  0
  1  7  1  0  0  0  0
  1  2  2  0  0  0  0
 42 43  1  0  0  0  0
 43 51  1  0  0  0  0
 43 44  2  0  0  0  0
  8  9  1  0  0  0  0
  9 17  1  0  0  0  0
  9 10  2  0  0  0  0
 18 19  1  0  0  0  0
 19 41  1  0  0  0  0
 19 20  2  0  0  0  0
 42 45  1  0  0  0  0
  8 11  1  0  0  0  0
 51 52  1  0  0  0  0
 18 21  1  0  0  0  0
 41 42  1  0  0  0  0
  7  8  1  0  0  0  0
 17 18  1  0  0  0  0
 29 39  1  0  0  0  0
 30 40  1  0  0  0  0
 27 37  1  0  0  0  0
 28 38  1  0  0  0  0
 23 35  1  0  0  0  0
  3  4  1  0  0  0  0
  3  5  1  0  0  0  0
  3  6  1  0  0  0  0
 45 48  1  0  0  0  0
 45 49  1  0  0  0  0
 45 50  1  0  0  0  0
 11 14  1  0  0  0  0
 11 15  1  0  0  0  0
 11 16  1  0  0  0  0
 52 54  1  0  0  0  0
 52 55  1  0  0  0  0
 52 56  1  0  0  0  0
 21 33  1  0  0  0  0
 21 34  1  0  0  0  0
 42 47  1  0  0  0  0
  8 13  1  0  0  0  0
 18 32  1  0  0  0  0
 25 36  1  0  0  0  0
 51 53  1  0  0  0  0
  7 12  1  0  0  0  0
 41 46  1  0  0  0  0
 17 31  1  0  0  0  0
M  END
$$$$

  -OEChem-05262214473D

 56 57  0     1  0  0  0  0  0999 V2000
   -2.2900    0.3401    4.1553 C   0  0  0  0  0  0  0  0  0  0  0  0
   -1.3426   -0.2746    3.6796 O   0  0  0  0  0  0  0  0  0  0  0  0
   -2.7219    0.0577    5.5560 C   0  0  0  0  0  0  0  0  0  0  0  0
   -3.4815   -0.7386    5.6094 H   0  0  0  0  0  0  0  0  0  0  0  0
   -1.8906   -0.2899    6.1903 H   0  0  0  0  0  0  0  0  0  0  0  0
   -3.1599    0.9126    6.0956 H   0  0  0  0  0  0  0  0  0  0  0  0
   -3.0397    1.3125    3.5142 N   0  0  0  0  0  0  0  0  0  0  0  0
   -2.7928    1.7385    2.1618 C   0  0  2  0  0  0  0  0  0  0  0  0
   -1.4579    1.1532    1.7206 C   0  0  0  0  0  0  0  0  0  0  0  0
   -0.5858    0.8004    2.5118 O   0  0  0  0  0  0  0  0  0  0  0  0
   -2.7841    3.2553    2.0523 C   0  0  0  0  0  0  0  0  0  0  0  0
   -3.8047    1.7484    4.0260 H   0  0  0  0  0  0  0  0  0  0  0  0
   -3.5969    1.3201    1.5466 H   0  0  0  0  0  0  0  0  0  0  0  0
   -1.9850    3.6926    2.6620 H   0  0  0  0  0  0  0  0  0  0  0  0
   -2.6246    3.5776    1.0180 H   0  0  0  0  0  0  0  0  0  0  0  0
   -3.7342    3.6765    2.3981 H   0  0  0  0  0  0  0  0  0  0  0  0
   -1.3352    1.1101    0.3372 N   0  0  0  0  0  0  0  0  0  0  0  0
   -0.1579    0.6093   -0.3265 C   0  0  2  0  0  0  0  0  0  0  0  0
    0.4015    1.7475   -1.1725 C   0  0  0  0  0  0  0  0  0  0  0  0
    0.8035    2.8044   -0.6905 O   0  0  0  0  0  0  0  0  0  0  0  0
   -0.4630   -0.6085   -1.2063 C   0  0  0  0  0  0  0  0  0  0  0  0
   -0.8729   -1.8197   -0.4046 C   0  0  0  0  0  0  0  0  0  0  0  0
   -2.1659   -2.2214   -0.1602 C   0  0  0  0  0  0  0  0  0  0  0  0
   -0.0031   -2.7495    0.2308 C   0  0  0  0  0  0  0  0  0  0  0  0
   -2.1171   -3.3592    0.5996 N   0  0  0  0  0  0  0  0  0  0  0  0
   -0.8090   -3.7051    0.8535 C   0  0  0  0  0  0  0  0  0  0  0  0
    1.3968   -2.8703    0.3362 C   0  0  0  0  0  0  0  0  0  0  0  0
   -0.2829   -4.7796    1.5793 C   0  0  0  0  0  0  0  0  0  0  0  0
    1.9372   -3.9401    1.0590 C   0  0  0  0  0  0  0  0  0  0  0  0
    1.1084   -4.8789    1.6701 C   0  0  0  0  0  0  0  0  0  0  0  0
   -2.1183    1.4068   -0.2401 H   0  0  0  0  0  0  0  0  0  0  0  0
    0.5627    0.3601    0.4613 H   0  0  0  0  0  0  0  0  0  0  0  0
    0.4072   -0.8552   -1.8295 H   0  0  0  0  0  0  0  0  0  0  0  0
   -1.2686   -0.3770   -1.9156 H   0  0  0  0  0  0  0  0  0  0  0  0
   -3.1164   -1.7997   -0.4568 H   0  0  0  0  0  0  0  0  0  0  0  0
   -2.9243   -3.8719    0.9270 H   0  0  0  0  0  0  0  0  0  0  0  0
    2.0563   -2.1462   -0.1337 H   0  0  0  0  0  0  0  0  0  0  0  0
   -0.9272   -5.5115    2.0544 H   0  0  0  0  0  0  0  0  0  0  0  0
    3.0161   -4.0382    1.1442 H   0  0  0  0  0  0  0  0  0  0  0  0
    1.5495   -5.7019    2.2265 H   0  0  0  0  0  0  0  0  0  0  0  0
    0.4431    1.4208   -2.5208 N   0  0  0  0  0  0  0  0  0  0  0  0
    0.9509    2.3129   -3.5382 C   0  0  2  0  0  0  0  0  0  0  0  0
    0.2807    3.6678   -3.3527 C   0  0  0  0  0  0  0  0  0  0  0  0
   -0.7923    3.8113   -2.7704 O   0  0  0  0  0  0  0  0  0  0  0  0
    0.6928    1.7653   -4.9333 C   0  0  0  0  0  0  0  0  0  0  0  0
    0.0994    0.5088   -2.8069 H   0  0  0  0  0  0  0  0  0  0  0  0
    2.0280    2.4107   -3.3642 H   0  0  0  0  0  0  0  0  0  0  0  0
   -0.3811    1.6603   -5.1260 H   0  0  0  0  0  0  0  0  0  0  0  0
    1.1033    2.4283   -5.7020 H   0  0  0  0  0  0  0  0  0  0  0  0
    1.1504    0.7775   -5.0551 H   0  0  0  0  0  0  0  0  0  0  0  0
    1.0004    4.6924   -3.9515 N   0  0  0  0  0  0  0  0  0  0  0  0
    0.5652    6.0693   -3.9255 C   0  0  0  0  0  0  0  0  0  0  0  0
    1.8895    4.4847   -4.3964 H   0  0  0  0  0  0  0  0  0  0  0  0
   -0.0306    6.2832   -4.8250 H   0  0  0  0  0  0  0  0  0  0  0  0
   -0.0487    6.2429   -3.0294 H   0  0  0  0  0  0  0  0  0  0  0  0
    1.4437    6.7310   -3.9019 H   0  0  0  0  0  0  0  0  0  0  0  0
 29 30  2  0  0  0  0
 27 29  1  0  0  0  0
 28 30  1  0  0  0  0
 24 27  2  0  0  0  0
 26 28  2  0  0  0  0
 22 23  2  0  0  0  0
 23 25  1  0  0  0  0
 22 24  1  0  0  0  0
 24 26  1  0  0  0  0
 21 22  1  0  0  0  0
 25 26  1  0  0  0  0
  1  3  1  0  0  0  0
  1  7  1  0  0  0  0
  1  2  2  0  0  0  0
 42 43  1  0  0  0  0
 43 51  1  0  0  0  0
 43 44  2  0  0  0  0
  8  9  1  0  0  0  0
  9 17  1  0  0  0  0
  9 10  2  0  0  0  0
 18 19  1  0  0  0  0
 19 41  1  0  0  0  0
 19 20  2  0  0  0  0
 42 45  1  0  0  0  0
  8 11  1  0  0  0  0
 51 52  1  0  0  0  0
 18 21  1  0  0  0  0
 41 42  1  0  0  0  0
  7  8  1  0  0  0  0
 17 18  1  0  0  0  0
 29 39  1  0  0  0  0
 30 40  1  0  0  0  0
 27 37  1  0  0  0  0
 28 38  1  0  0  0  0
 23 35  1  0  0  0  0
  3  4  1  0  0  0  0
  3  5  1  0  0  0  0
  3  6  1  0  0  0  0
 45 48  1  0  0  0  0
 45 49  1  0  0  0  0
 45 50  1  0  0  0  0
 11 14  1  0  0  0  0
 11 15  1  0  0  0  0
 11 16  1  0  0  0  0
 52 54  1  0  0  0  0
 52 55  1  0  0  0  0
 52 56  1  0  0  0  0
 21 33  1  0  0  0  0
 21 34  1  0  0  0  0
 42 47  1  0  0  0  0
  8 13  1  0  0  0  0
 18 32  1  0  0  0  0
 25 36  1  0  0  0  0
 51 53  1  0  0  0  0
  7 12  1  0  0  0  0
 41 46  1  0  0  0  0
 17 31  1  0  0  0  0
M  END
$$$$

  -OEChem-05262214473D

 56 57  0     1  0  0  0  0  0999 V2000
   -2.2900    0.3401    4.1553 C   0  0  0  0  0  0  0  0  0  0  0  0
   -1.3426   -0.2746    3.6796 O   0  0  0  0  0  0  0  0  0  0  0  0
   -2.7219    0.0577    5.5560 C   0  0  0  0  0  0  0  0  0  0  0  0
   -3.4815   -0.7386    5.6094 H   0  0  0  0  0  0  0  0  0  0  0  0
   -1.8906   -0.2899    6.1903 H   0  0  0  0  0  0  0  0  0  0  0  0
   -3.1599    0.9126    6.0956 H   0  0  0  0  0  0  0  0  0  0  0  0
   -3.0397    1.3125    3.5142 N   0  0  0  0  0  0  0  0  0  0  0  0
   -2.7928    1.7385    2.1618 C   0  0  2  0  0  0  0  0  0  0  0  0
   -1.4579    1.1532    1.7206 C   0  0  0  0  0  0  0  0  0  0  0  0
   -0.5858    0.8004    2.5118 O   0  0  0  0  0  0  0  0  0  0  0  0
   -2.7841    3.2553    2.0523 C   0  0  0  0  0  0  0  0  0  0  0  0
   -3.8047    1.7484    4.0260 H   0  0  0  0  0  0  0  0  0  0  0  0
   -3.5969    1.3201    1.5466 H   0  0  0  0  0  0  0  0  0  0  0  0
   -1.9850    3.6926    2.6620 H   0  0  0  0  0  0  0  0  0  0  0  0
   -2.6246    3.5776    1.0180 H   0  0  0  0  0  0  0  0  0  0  0  0
   -3.7342    3.6765    2.3981 H   0  0  0  0  0  0  0  0  0  0  0  0
   -1.3352    1.1101    0.3372 N   0  0  0  0  0  0  0  0  0  0  0  0
   -0.1579    0.6093   -0.3265 C   0  0  2  0  0  0  0  0  0  0  0  0
    0.4015    1.7475   -1.1725 C   0  0  0  0  0  0  0  0  0  0  0  0
    1.0431    2.6819   -0.6970 O   0  0  0  0  0  0  0  0  0  0  0  0
   -0.4630   -0.6085   -1.2063 C   0  0  0  0  0  0  0  0  0  0  0  0
   -0.8729   -1.8197   -0.4046 C   0  0  0  0  0  0  0  0  0  0  0  0
   -2.1659   -2.2214   -0.1602 C   0  0  0  0  0  0  0  0  0  0  0  0
   -0.0031   -2.7495    0.2308 C   0  0  0  0  0  0  0  0  0  0  0  0
   -2.1171   -3.3592    0.5996 N   0  0  0  0  0  0  0  0  0  0  0  0
   -0.8090   -3.7051    0.8535 C   0  0  0  0  0  0  0  0  0  0  0  0
    1.3968   -2.8703    0.3362 C   0  0  0  0  0  0  0  0  0  0  0  0
   -0.2829   -4.7796    1.5793 C   0  0  0  0  0  0  0  0  0  0  0  0
    1.9372   -3.9401    1.0590 C   0  0  0  0  0  0  0  0  0  0  0  0
    1.1084   -4.8789    1.6701 C   0  0  0  0  0  0  0  0  0  0  0  0
   -2.1183    1.4068   -0.2401 H   0  0  0  0  0  0  0  0  0  0  0  0
    0.5627    0.3601    0.4613 H   0  0  0  0  0  0  0  0  0  0  0  0
    0.4072   -0.8552   -1.8295 H   0  0  0  0  0  0  0  0  0  0  0  0
   -1.2686   -0.3770   -1.9156 H   0  0  0  0  0  0  0  0  0  0  0  0
   -3.1164   -1.7997   -0.4568 H   0  0  0  0  0  0  0  0  0  0  0  0
   -2.9243   -3.8719    0.9270 H   0  0  0  0  0  0  0  0  0  0  0  0
    2.0563   -2.1462   -0.1337 H   0  0  0  0  0  0  0  0  0  0  0  0
   -0.9272   -5.5115    2.0544 H   0  0  0  0  0  0  0  0  0  0  0  0
    3.0161   -4.0382    1.1442 H   0  0  0  0  0  0  0  0  0  0  0  0
    1.5495   -5.7019    2.2265 H   0  0  0  0  0  0  0  0  0  0  0  0
    0.1407    1.5672   -2.5238 N   0  0  0  0  0  0  0  0  0  0  0  0
    0.5805    2.4886   -3.5467 C   0  0  2  0  0  0  0  0  0  0  0  0
    0.1719    3.8929   -3.1219 C   0  0  0  0  0  0  0  0  0  0  0  0
   -0.7391    4.1148   -2.3269 O   0  0  0  0  0  0  0  0  0  0  0  0
   -0.0137    2.1361   -4.9015 C   0  0  0  0  0  0  0  0  0  0  0  0
   -0.3856    0.7463   -2.8081 H   0  0  0  0  0  0  0  0  0  0  0  0
    1.6732    2.4213   -3.5845 H   0  0  0  0  0  0  0  0  0  0  0  0
   -1.1079    2.1980   -4.8832 H   0  0  0  0  0  0  0  0  0  0  0  0
    0.3429    2.8178   -5.6807 H   0  0  0  0  0  0  0  0  0  0  0  0
    0.2566    1.1151   -5.1918 H   0  0  0  0  0  0  0  0  0  0  0  0
    0.9154    4.8707   -3.7678 N   0  0  0  0  0  0  0  0  0  0  0  0
    0.7086    6.2825   -3.5439 C   0  0  0  0  0  0  0  0  0  0  0  0
    1.6637    4.5952   -4.3970 H   0  0  0  0  0  0  0  0  0  0  0  0
   -0.0046    6.6712   -4.2857 H   0  0  0  0  0  0  0  0  0  0  0  0
    0.3063    6.4381   -2.5321 H   0  0  0  0  0  0  0  0  0  0  0  0
    1.6668    6.8136   -3.6433 H   0  0  0  0  0  0  0  0  0  0  0  0
 29 30  2  0  0  0  0
 27 29  1  0  0  0  0
 28 30  1  0  0  0  0
 24 27  2  0  0  0  0
 26 28  2  0  0  0  0
 22 23  2  0  0  0  0
 23 25  1  0  0  0  0
 22 24  1  0  0  0  0
 24 26  1  0  0  0  0
 21 22  1  0  0  0  0
 25 26  1  0  0  0  0
  1  3  1  0  0  0  0
  1  7  1  0  0  0  0
  1  2  2  0  0  0  0
 42 43  1  0  0  0  0
 43 51  1  0  0  0  0
 43 44  2  0  0  0  0
  8  9  1  0  0  0  0
  9 17  1  0  0  0  0
  9 10  2  0  0  0  0
 18 19  1  0  0  0  0
 19 41  1  0  0  0  0
 19 20  2  0  0  0  0
 42 45  1  0  0  0  0
  8 11  1  0  0  0  0
 51 52  1  0  0  0  0
 18 21  1  0  0  0  0
 41 42  1  0  0  0  0
  7  8  1  0  0  0  0
 17 18  1  0  0  0  0
 29 39  1  0  0  0  0
 30 40  1  0  0  0  0
 27 37  1  0  0  0  0
 28 38  1  0  0  0  0
 23 35  1  0  0  0  0
  3  4  1  0  0  0  0
  3  5  1  0  0  0  0
  3  6  1  0  0  0  0
 45 48  1  0  0  0  0
 45 49  1  0  0  0  0
 45 50  1  0  0  0  0
 11 14  1  0  0  0  0
 11 15  1  0  0  0  0
 11 16  1  0  0  0  0
 52 54  1  0  0  0  0
 52 55  1  0  0  0  0
 52 56  1  0  0  0  0
 21 33  1  0  0  0  0
 21 34  1  0  0  0  0
 42 47  1  0  0  0  0
  8 13  1  0  0  0  0
 18 32  1  0  0  0  0
 25 36  1  0  0  0  0
 51 53  1  0  0  0  0
  7 12  1  0  0  0  0
 41 46  1  0  0  0  0
 17 31  1  0  0  0  0
M  END
$$$$

  -OEChem-05262214473D

 56 57  0     1  0  0  0  0  0999 V2000
   -2.2900    0.3401    4.1553 C   0  0  0  0  0  0  0  0  0  0  0  0
   -1.3426   -0.2746    3.6796 O   0  0  0  0  0  0  0  0  0  0  0  0
   -2.7219    0.0577    5.5560 C   0  0  0  0  0  0  0  0  0  0  0  0
   -3.4815   -0.7386    5.6094 H   0  0  0  0  0  0  0  0  0  0  0  0
   -1.8906   -0.2899    6.1903 H   0  0  0  0  0  0  0  0  0  0  0  0
   -3.1599    0.9126    6.0956 H   0  0  0  0  0  0  0  0  0  0  0  0
   -3.0397    1.3125    3.5142 N   0  0  0  0  0  0  0  0  0  0  0  0
   -2.7928    1.7385    2.1618 C   0  0  2  0  0  0  0  0  0  0  0  0
   -1.4579    1.1532    1.7206 C   0  0  0  0  0  0  0  0  0  0  0  0
   -0.5858    0.8004    2.5118 O   0  0  0  0  0  0  0  0  0  0  0  0
   -2.7841    3.2553    2.0523 C   0  0  0  0  0  0  0  0  0  0  0  0
   -3.8047    1.7484    4.0260 H   0  0  0  0  0  0  0  0  0  0  0  0
   -3.5969    1.3201    1.5466 H   0  0  0  0  0  0  0  0  0  0  0  0
   -1.9850    3.6926    2.6620 H   0  0  0  0  0  0  0  0  0  0  0  0
   -2.6246    3.5776    1.0180 H   0  0  0  0  0  0  0  0  0  0  0  0
   -3.7342    3.6765    2.3981 H   0  0  0  0  0  0  0  0  0  0  0  0
   -1.3352    1.1101    0.3372 N   0  0  0  0  0  0  0  0  0  0  0  0
   -0.1579    0.6093   -0.3265 C   0  0  2  0  0  0  0  0  0  0  0  0
    0.4015    1.7475   -1.1725 C   0  0  0  0  0  0  0  0  0  0  0  0
    1.2557    2.5297   -0.7611 O   0  0  0  0  0  0  0  0  0  0  0  0
   -0.4630   -0.6085   -1.2063 C   0  0  0  0  0  0  0  0  0  0  0  0
   -0.8729   -1.8197   -0.4046 C   0  0  0  0  0  0  0  0  0  0  0  0
   -2.1659   -2.2214   -0.1602 C   0  0  0  0  0  0  0  0  0  0  0  0
   -0.0031   -2.7495    0.2308 C   0  0  0  0  0  0  0  0  0  0  0  0
   -2.1171   -3.3592    0.5996 N   0  0  0  0  0  0  0  0  0  0  0  0
   -0.8090   -3.7051    0.8535 C   0  0  0  0  0  0  0  0  0  0  0  0
    1.3968   -2.8703    0.3362 C   0  0  0  0  0  0  0  0  0  0  0  0
   -0.2829   -4.7796    1.5793 C   0  0  0  0  0  0  0  0  0  0  0  0
    1.9372   -3.9401    1.0590 C   0  0  0  0  0  0  0  0  0  0  0  0
    1.1084   -4.8789    1.6701 C   0  0  0  0  0  0  0  0  0  0  0  0
   -2.1183    1.4068   -0.2401 H   0  0  0  0  0  0  0  0  0  0  0  0
    0.5627    0.3601    0.4613 H   0  0  0  0  0  0  0  0  0  0  0  0
    0.4072   -0.8552   -1.8295 H   0  0  0  0  0  0  0  0  0  0  0  0
   -1.2686   -0.3770   -1.9156 H   0  0  0  0  0  0  0  0  0  0  0  0
   -3.1164   -1.7997   -0.4568 H   0  0  0  0  0  0  0  0  0  0  0  0
   -2.9243   -3.8719    0.9270 H   0  0  0  0  0  0  0  0  0  0  0  0
    2.0563   -2.1462   -0.1337 H   0  0  0  0  0  0  0  0  0  0  0  0
   -0.9272   -5.5115    2.0544 H   0  0  0  0  0  0  0  0  0  0  0  0
    3.0161   -4.0382    1.1442 H   0  0  0  0  0  0  0  0  0  0  0  0
    1.5495   -5.7019    2.2265 H   0  0  0  0  0  0  0  0  0  0  0  0
   -0.1309    1.7523   -2.4543 N   0  0  0  0  0  0  0  0  0  0  0  0
    0.2462    2.7124   -3.4666 C   0  0  2  0  0  0  0  0  0  0  0  0
    0.1436    4.1040   -2.8565 C   0  0  0  0  0  0  0  0  0  0  0  0
   -0.5584    4.3582   -1.8799 O   0  0  0  0  0  0  0  0  0  0  0  0
   -0.6367    2.5928   -4.6990 C   0  0  0  0  0  0  0  0  0  0  0  0
   -0.8203    1.0455   -2.6929 H   0  0  0  0  0  0  0  0  0  0  0  0
    1.2894    2.5035   -3.7277 H   0  0  0  0  0  0  0  0  0  0  0  0
   -1.6858    2.7987   -4.4571 H   0  0  0  0  0  0  0  0  0  0  0  0
   -0.3315    3.3013   -5.4761 H   0  0  0  0  0  0  0  0  0  0  0  0
   -0.5847    1.5825   -5.1192 H   0  0  0  0  0  0  0  0  0  0  0  0
    0.8945    5.0377   -3.5570 N   0  0  0  0  0  0  0  0  0  0  0  0
    0.9514    6.4315   -3.1829 C   0  0  0  0  0  0  0  0  0  0  0  0
    1.4614    4.7345   -4.3434 H   0  0  0  0  0  0  0  0  0  0  0  0
    0.1805    6.9911   -3.7330 H   0  0  0  0  0  0  0  0  0  0  0  0
    0.7733    6.5284   -2.1017 H   0  0  0  0  0  0  0  0  0  0  0  0
    1.9441    6.8368   -3.4287 H   0  0  0  0  0  0  0  0  0  0  0  0
 29 30  2  0  0  0  0
 27 29  1  0  0  0  0
 28 30  1  0  0  0  0
 24 27  2  0  0  0  0
 26 28  2  0  0  0  0
 22 23  2  0  0  0  0
 23 25  1  0  0  0  0
 22 24  1  0  0  0  0
 24 26  1  0  0  0  0
 21 22  1  0  0  0  0
 25 26  1  0  0  0  0
  1  3  1  0  0  0  0
  1  7  1  0  0  0  0
  1  2  2  0  0  0  0
 42 43  1  0  0  0  0
 43 51  1  0  0  0  0
 43 44  2  0  0  0  0
  8  9  1  0  0  0  0
  9 17  1  0  0  0  0
  9 10  2  0  0  0  0
 18 19  1  0  0  0  0
 19 41  1  0  0  0  0
 19 20  2  0  0  0  0
 42 45  1  0  0  0  0
  8 11  1  0  0  0  0
 51 52  1  0  0  0  0
 18 21  1  0  0  0  0
 41 42  1  0  0  0  0
  7  8  1  0  0  0  0
 17 18  1  0  0  0  0
 29 39  1  0  0  0  0
 30 40  1  0  0  0  0
 27 37  1  0  0  0  0
 28 38  1  0  0  0  0
 23 35  1  0  0  0  0
  3  4  1  0  0  0  0
  3  5  1  0  0  0  0
  3  6  1  0  0  0  0
 45 48  1  0  0  0  0
 45 49  1  0  0  0  0
 45 50  1  0  0  0  0
 11 14  1  0  0  0  0
 11 15  1  0  0  0  0
 11 16  1  0  0  0  0
 52 54  1  0  0  0  0
 52 55  1  0  0  0  0
 52 56  1  0  0  0  0
 21 33  1  0  0  0  0
 21 34  1  0  0  0  0
 42 47  1  0  0  0  0
  8 13  1  0  0  0  0
 18 32  1  0  0  0  0
 25 36  1  0  0  0  0
 51 53  1  0  0  0  0
  7 12  1  0  0  0  0
 41 46  1  0  0  0  0
 17 31  1  0  0  0  0
M  END
$$$$

  -OEChem-05262214473D

 56 57  0     1  0  0  0  0  0999 V2000
   -2.2900    0.3401    4.1553 C   0  0  0  0  0  0  0  0  0  0  0  0
   -1.3426   -0.2746    3.6796 O   0  0  0  0  0  0  0  0  0  0  0  0
   -2.7219    0.0577    5.5560 C   0  0  0  0  0  0  0  0  0  0  0  0
   -3.4815   -0.7386    5.6094 H   0  0  0  0  0  0  0  0  0  0  0  0
   -1.8906   -0.2899    6.1903 H   0  0  0  0  0  0  0  0  0  0  0  0
   -3.1599    0.9126    6.0956 H   0  0  0  0  0  0  0  0  0  0  0  0
   -3.0397    1.3125    3.5142 N   0  0  0  0  0  0  0  0  0  0  0  0
   -2.7928    1.7385    2.1618 C   0  0  2  0  0  0  0  0  0  0  0  0
   -1.4579    1.1532    1.7206 C   0  0  0  0  0  0  0  0  0  0  0  0
   -0.5858    0.8004    2.5118 O   0  0  0  0  0  0  0  0  0  0  0  0
   -2.7841    3.2553    2.0523 C   0  0  0  0  0  0  0  0  0  0  0  0
   -3.8047    1.7484    4.0260 H   0  0  0  0  0  0  0  0  0  0  0  0
   -3.5969    1.3201    1.5466 H   0  0  0  0  0  0  0  0  0  0  0  0
   -1.9850    3.6926    2.6620 H   0  0  0  0  0  0  0  0  0  0  0  0
   -2.6246    3.5776    1.0180 H   0  0  0  0  0  0  0  0  0  0  0  0
   -3.7342    3.6765    2.3981 H   0  0  0  0  0  0  0  0  0  0  0  0
   -1.3352    1.1101    0.3372 N   0  0  0  0  0  0  0  0  0  0  0  0
   -0.1579    0.6093   -0.3265 C   0  0  2  0  0  0  0  0  0  0  0  0
    0.4015    1.7475   -1.1725 C   0  0  0  0  0  0  0  0  0  0  0  0
    1.4268    2.3583   -0.8785 O   0  0  0  0  0  0  0  0  0  0  0  0
   -0.4630   -0.6085   -1.2063 C   0  0  0  0  0  0  0  0  0  0  0  0
   -0.8729   -1.8197   -0.4046 C   0  0  0  0  0  0  0  0  0  0  0  0
   -2.1659   -2.2214   -0.1602 C   0  0  0  0  0  0  0  0  0  0  0  0
   -0.0031   -2.7495    0.2308 C   0  0  0  0  0  0  0  0  0  0  0  0
   -2.1171   -3.3592    0.5996 N   0  0  0  0  0  0  0  0  0  0  0  0
   -0.8090   -3.7051    0.8535 C   0  0  0  0  0  0  0  0  0  0  0  0
    1.3968   -2.8703    0.3362 C   0  0  0  0  0  0  0  0  0  0  0  0
   -0.2829   -4.7796    1.5793 C   0  0  0  0  0  0  0  0  0  0  0  0
    1.9372   -3.9401    1.0590 C   0  0  0  0  0  0  0  0  0  0  0  0
    1.1084   -4.8789    1.6701 C   0  0  0  0  0  0  0  0  0  0  0  0
   -2.1183    1.4068   -0.2401 H   0  0  0  0  0  0  0  0  0  0  0  0
    0.5627    0.3601    0.4613 H   0  0  0  0  0  0  0  0  0  0  0  0
    0.4072   -0.8552   -1.8295 H   0  0  0  0  0  0  0  0  0  0  0  0
   -1.2686   -0.3770   -1.9156 H   0  0  0  0  0  0  0  0  0  0  0  0
   -3.1164   -1.7997   -0.4568 H   0  0  0  0  0  0  0  0  0  0  0  0
   -2.9243   -3.8719    0.9270 H   0  0  0  0  0  0  0  0  0  0  0  0
    2.0563   -2.1462   -0.1337 H   0  0  0  0  0  0  0  0  0  0  0  0
   -0.9272   -5.5115    2.0544 H   0  0  0  0  0  0  0  0  0  0  0  0
    3.0161   -4.0382    1.1442 H   0  0  0  0  0  0  0  0  0  0  0  0
    1.5495   -5.7019    2.2265 H   0  0  0  0  0  0  0  0  0  0  0  0
   -0.3533    1.9636   -2.3171 N   0  0  0  0  0  0  0  0  0  0  0  0
   -0.0290    2.9689   -3.3035 C   0  0  2  0  0  0  0  0  0  0  0  0
    0.1980    4.2868   -2.5747 C   0  0  0  0  0  0  0  0  0  0  0  0
   -0.2625    4.5249   -1.4601 O   0  0  0  0  0  0  0  0  0  0  0  0
   -1.1338    3.1041   -4.3397 C   0  0  0  0  0  0  0  0  0  0  0  0
   -1.1749    1.3860   -2.4692 H   0  0  0  0  0  0  0  0  0  0  0  0
    0.9029    2.6515   -3.7841 H   0  0  0  0  0  0  0  0  0  0  0  0
   -2.0754    3.4214   -3.8768 H   0  0  0  0  0  0  0  0  0  0  0  0
   -0.8740    3.8458   -5.1023 H   0  0  0  0  0  0  0  0  0  0  0  0
   -1.3161    2.1480   -4.8420 H   0  0  0  0  0  0  0  0  0  0  0  0
    0.9390    5.1819   -3.3334 N   0  0  0  0  0  0  0  0  0  0  0  0
    1.2772    6.5063   -2.8669 C   0  0  0  0  0  0  0  0  0  0  0  0
    1.2963    4.8930   -4.2393 H   0  0  0  0  0  0  0  0  0  0  0  0
    0.5121    7.2210   -3.2045 H   0  0  0  0  0  0  0  0  0  0  0  0
    1.3205    6.5078   -1.7677 H   0  0  0  0  0  0  0  0  0  0  0  0
    2.2567    6.7990   -3.2729 H   0  0  0  0  0  0  0  0  0  0  0  0
 29 30  2  0  0  0  0
 27 29  1  0  0  0  0
 28 30  1  0  0  0  0
 24 27  2  0  0  0  0
 26 28  2  0  0  0  0
 22 23  2  0  0  0  0
 23 25  1  0  0  0  0
 22 24  1  0  0  0  0
 24 26  1  0  0  0  0
 21 22  1  0  0  0  0
 25 26  1  0  0  0  0
  1  3  1  0  0  0  0
  1  7  1  0  0  0  0
  1  2  2  0  0  0  0
 42 43  1  0  0  0  0
 43 51  1  0  0  0  0
 43 44  2  0  0  0  0
  8  9  1  0  0  0  0
  9 17  1  0  0  0  0
  9 10  2  0  0  0  0
 18 19  1  0  0  0  0
 19 41  1  0  0  0  0
 19 20  2  0  0  0  0
 42 45  1  0  0  0  0
  8 11  1  0  0  0  0
 51 52  1  0  0  0  0
 18 21  1  0  0  0  0
 41 42  1  0  0  0  0
  7  8  1  0  0  0  0
 17 18  1  0  0  0  0
 29 39  1  0  0  0  0
 30 40  1  0  0  0  0
 27 37  1  0  0  0  0
 28 38  1  0  0  0  0
 23 35  1  0  0  0  0
  3  4  1  0  0  0  0
  3  5  1  0  0  0  0
  3  6  1  0  0  0  0
 45 48  1  0  0  0  0
 45 49  1  0  0  0  0
 45 50  1  0  0  0  0
 11 14  1  0  0  0  0
 11 15  1  0  0  0  0
 11 16  1  0  0  0  0
 52 54  1  0  0  0  0
 52 55  1  0  0  0  0
 52 56  1  0  0  0  0
 21 33  1  0  0  0  0
 21 34  1  0  0  0  0
 42 47  1  0  0  0  0
  8 13  1  0  0  0  0
 18 32  1  0  0  0  0
 25 36  1  0  0  0  0
 51 53  1  0  0  0  0
  7 12  1  0  0  0  0
 41 46  1  0  0  0  0
 17 31  1  0  0  0  0
M  END
$$$$

  -OEChem-05262214473D

 56 57  0     1  0  0  0  0  0999 V2000
   -2.2900    0.3401    4.1553 C   0  0  0  0  0  0  0  0  0  0  0  0
   -1.3426   -0.2746    3.6796 O   0  0  0  0  0  0  0  0  0  0  0  0
   -2.7219    0.0577    5.5560 C   0  0  0  0  0  0  0  0  0  0  0  0
   -3.4815   -0.7386    5.6094 H   0  0  0  0  0  0  0  0  0  0  0  0
   -1.8906   -0.2899    6.1903 H   0  0  0  0  0  0  0  0  0  0  0  0
   -3.1599    0.9126    6.0956 H   0  0  0  0  0  0  0  0  0  0  0  0
   -3.0397    1.3125    3.5142 N   0  0  0  0  0  0  0  0  0  0  0  0
   -2.7928    1.7385    2.1618 C   0  0  2  0  0  0  0  0  0  0  0  0
   -1.4579    1.1532    1.7206 C   0  0  0  0  0  0  0  0  0  0  0  0
   -0.5858    0.8004    2.5118 O   0  0  0  0  0  0  0  0  0  0  0  0
   -2.7841    3.2553    2.0523 C   0  0  0  0  0  0  0  0  0  0  0  0
   -3.8047    1.7484    4.0260 H   0  0  0  0  0  0  0  0  0  0  0  0
   -3.5969    1.3201    1.5466 H   0  0  0  0  0  0  0  0  0  0  0  0
   -1.9850    3.6926    2.6620 H   0  0  0  0  0  0  0  0  0  0  0  0
   -2.6246    3.5776    1.0180 H   0  0  0  0  0  0  0  0  0  0  0  0
   -3.7342    3.6765    2.3981 H   0  0  0  0  0  0  0  0  0  0  0  0
   -1.3352    1.1101    0.3372 N   0  0  0  0  0  0  0  0  0  0  0  0
   -0.1579    0.6093   -0.3265 C   0  0  2  0  0  0  0  0  0  0  0  0
    0.4015    1.7475   -1.1725 C   0  0  0  0  0  0  0  0  0  0  0  0
    1.5448    2.1794   -1.0413 O   0  0  0  0  0  0  0  0  0  0  0  0
   -0.4630   -0.6085   -1.2063 C   0  0  0  0  0  0  0  0  0  0  0  0
   -0.8729   -1.8197   -0.4046 C   0  0  0  0  0  0  0  0  0  0  0  0
   -2.1659   -2.2214   -0.1602 C   0  0  0  0  0  0  0  0  0  0  0  0
   -0.0031   -2.7495    0.2308 C   0  0  0  0  0  0  0  0  0  0  0  0
   -2.1171   -3.3592    0.5996 N   0  0  0  0  0  0  0  0  0  0  0  0
   -0.8090   -3.7051    0.8535 C   0  0  0  0  0  0  0  0  0  0  0  0
    1.3968   -2.8703    0.3362 C   0  0  0  0  0  0  0  0  0  0  0  0
   -0.2829   -4.7796    1.5793 C   0  0  0  0  0  0  0  0  0  0  0  0
    1.9372   -3.9401    1.0590 C   0  0  0  0  0  0  0  0  0  0  0  0
    1.1084   -4.8789    1.6701 C   0  0  0  0  0  0  0  0  0  0  0  0
   -2.1183    1.4068   -0.2401 H   0  0  0  0  0  0  0  0  0  0  0  0
    0.5627    0.3601    0.4613 H   0  0  0  0  0  0  0  0  0  0  0  0
    0.4072   -0.8552   -1.8295 H   0  0  0  0  0  0  0  0  0  0  0  0
   -1.2686   -0.3770   -1.9156 H   0  0  0  0  0  0  0  0  0  0  0  0
   -3.1164   -1.7997   -0.4568 H   0  0  0  0  0  0  0  0  0  0  0  0
   -2.9243   -3.8719    0.9270 H   0  0  0  0  0  0  0  0  0  0  0  0
    2.0563   -2.1462   -0.1337 H   0  0  0  0  0  0  0  0  0  0  0  0
   -0.9272   -5.5115    2.0544 H   0  0  0  0  0  0  0  0  0  0  0  0
    3.0161   -4.0382    1.1442 H   0  0  0  0  0  0  0  0  0  0  0  0
    1.5495   -5.7019    2.2265 H   0  0  0  0  0  0  0  0  0  0  0  0
   -0.5112    2.1865   -2.1216 N   0  0  0  0  0  0  0  0  0  0  0  0
   -0.2265    3.2408   -3.0683 C   0  0  2  0  0  0  0  0  0  0  0  0
    0.3312    4.4288   -2.2956 C   0  0  0  0  0  0  0  0  0  0  0  0
    0.1283    4.6036   -1.0958 O   0  0  0  0  0  0  0  0  0  0  0  0
   -1.4711    3.6353   -3.8480 C   0  0  0  0  0  0  0  0  0  0  0  0
   -1.4253    1.7446   -2.1523 H   0  0  0  0  0  0  0  0  0  0  0  0
    0.5398    2.8554   -3.7498 H   0  0  0  0  0  0  0  0  0  0  0  0
   -2.2501    4.0238   -3.1819 H   0  0  0  0  0  0  0  0  0  0  0  0
   -1.2475    4.4141   -4.5846 H   0  0  0  0  0  0  0  0  0  0  0  0
   -1.8878    2.7728   -4.3793 H   0  0  0  0  0  0  0  0  0  0  0  0
    1.0459    5.2937   -3.1124 N   0  0  0  0  0  0  0  0  0  0  0  0
    1.6636    6.5018   -2.6175 C   0  0  0  0  0  0  0  0  0  0  0  0
    1.1797    5.0599   -4.0918 H   0  0  0  0  0  0  0  0  0  0  0  0
    0.9675    7.3452   -2.7362 H   0  0  0  0  0  0  0  0  0  0  0  0
    1.9107    6.3775   -1.5528 H   0  0  0  0  0  0  0  0  0  0  0  0
    2.5834    6.7027   -3.1863 H   0  0  0  0  0  0  0  0  0  0  0  0
 29 30  2  0  0  0  0
 27 29  1  0  0  0  0
 28 30  1  0  0  0  0
 24 27  2  0  0  0  0
 26 28  2  0  0  0  0
 22 23  2  0  0  0  0
 23 25  1  0  0  0  0
 22 24  1  0  0  0  0
 24 26  1  0  0  0  0
 21 22  1  0  0  0  0
 25 26  1  0  0  0  0
  1  3  1  0  0  0  0
  1  7  1  0  0  0  0
  1  2  2  0  0  0  0
 42 43  1  0  0  0  0
 43 51  1  0  0  0  0
 43 44  2  0  0  0  0
  8  9  1  0  0  0  0
  9 17  1  0  0  0  0
  9 10  2  0  0  0  0
 18 19  1  0  0  0  0
 19 41  1  0  0  0  0
 19 20  2  0  0  0  0
 42 45  1  0  0  0  0
  8 11  1  0  0  0  0
 51 52  1  0  0  0  0
 18 21  1  0  0  0  0
 41 42  1  0  0  0  0
  7  8  1  0  0  0  0
 17 18  1  0  0  0  0
 29 39  1  0  0  0  0
 30 40  1  0  0  0  0
 27 37  1  0  0  0  0
 28 38  1  0  0  0  0
 23 35  1  0  0  0  0
  3  4  1  0  0  0  0
  3  5  1  0  0  0  0
  3  6  1  0  0  0  0
 45 48  1  0  0  0  0
 45 49  1  0  0  0  0
 45 50  1  0  0  0  0
 11 14  1  0  0  0  0
 11 15  1  0  0  0  0
 11 16  1  0  0  0  0
 52 54  1  0  0  0  0
 52 55  1  0  0  0  0
 52 56  1  0  0  0  0
 21 33  1  0  0  0  0
 21 34  1  0  0  0  0
 42 47  1  0  0  0  0
  8 13  1  0  0  0  0
 18 32  1  0  0  0  0
 25 36  1  0  0  0  0
 51 53  1  0  0  0  0
  7 12  1  0  0  0  0
 41 46  1  0  0  0  0
 17 31  1  0  0  0  0
M  END
$$$$

  -OEChem-05262214473D

 56 57  0     1  0  0  0  0  0999 V2000
   -2.2900    0.3401    4.1553 C   0  0  0  0  0  0  0  0  0  0  0  0
   -1.3426   -0.2746    3.6796 O   0  0  0  0  0  0  0  0  0  0  0  0
   -2.7219    0.0577    5.5560 C   0  0  0  0  0  0  0  0  0  0  0  0
   -3.4815   -0.7386    5.6094 H   0  0  0  0  0  0  0  0  0  0  0  0
   -1.8906   -0.2899    6.1903 H   0  0  0  0  0  0  0  0  0  0  0  0
   -3.1599    0.9126    6.0956 H   0  0  0  0  0  0  0  0  0  0  0  0
   -3.0397    1.3125    3.5142 N   0  0  0  0  0  0  0  0  0  0  0  0
   -2.7928    1.7385    2.1618 C   0  0  2  0  0  0  0  0  0  0  0  0
   -1.4579    1.1532    1.7206 C   0  0  0  0  0  0  0  0  0  0  0  0
   -0.5858    0.8004    2.5118 O   0  0  0  0  0  0  0  0  0  0  0  0
   -2.7841    3.2553    2.0523 C   0  0  0  0  0  0  0  0  0  0  0  0
   -3.8047    1.7484    4.0260 H   0  0  0  0  0  0  0  0  0  0  0  0
   -3.5969    1.3201    1.5466 H   0  0  0  0  0  0  0  0  0  0  0  0
   -1.9850    3.6926    2.6620 H   0  0  0  0  0  0  0  0  0  0  0  0
   -2.6246    3.5776    1.0180 H   0  0  0  0  0  0  0  0  0  0  0  0
   -3.7342    3.6765    2.3981 H   0  0  0  0  0  0  0  0  0  0  0  0
   -1.3352    1.1101    0.3372 N   0  0  0  0  0  0  0  0  0  0  0  0
   -0.1579    0.6093   -0.3265 C   0  0  2  0  0  0  0  0  0  0  0  0
    0.4015    1.7475   -1.1725 C   0  0  0  0  0  0  0  0  0  0  0  0
    1.6016    2.0050   -1.2384 O   0  0  0  0  0  0  0  0  0  0  0  0
   -0.4630   -0.6085   -1.2063 C   0  0  0  0  0  0  0  0  0  0  0  0
   -0.8729   -1.8197   -0.4046 C   0  0  0  0  0  0  0  0  0  0  0  0
   -2.1659   -2.2214   -0.1602 C   0  0  0  0  0  0  0  0  0  0  0  0
   -0.0031   -2.7495    0.2308 C   0  0  0  0  0  0  0  0  0  0  0  0
   -2.1171   -3.3592    0.5996 N   0  0  0  0  0  0  0  0  0  0  0  0
   -0.8090   -3.7051    0.8535 C   0  0  0  0  0  0  0  0  0  0  0  0
    1.3968   -2.8703    0.3362 C   0  0  0  0  0  0  0  0  0  0  0  0
   -0.2829   -4.7796    1.5793 C   0  0  0  0  0  0  0  0  0  0  0  0
    1.9372   -3.9401    1.0590 C   0  0  0  0  0  0  0  0  0  0  0  0
    1.1084   -4.8789    1.6701 C   0  0  0  0  0  0  0  0  0  0  0  0
   -2.1183    1.4068   -0.2401 H   0  0  0  0  0  0  0  0  0  0  0  0
    0.5627    0.3601    0.4613 H   0  0  0  0  0  0  0  0  0  0  0  0
    0.4072   -0.8552   -1.8295 H   0  0  0  0  0  0  0  0  0  0  0  0
   -1.2686   -0.3770   -1.9156 H   0  0  0  0  0  0  0  0  0  0  0  0
   -3.1164   -1.7997   -0.4568 H   0  0  0  0  0  0  0  0  0  0  0  0
   -2.9243   -3.8719    0.9270 H   0  0  0  0  0  0  0  0  0  0  0  0
    2.0563   -2.1462   -0.1337 H   0  0  0  0  0  0  0  0  0  0  0  0
   -0.9272   -5.5115    2.0544 H   0  0  0  0  0  0  0  0  0  0  0  0
    3.0161   -4.0382    1.1442 H   0  0  0  0  0  0  0  0  0  0  0  0
    1.5495   -5.7019    2.2265 H   0  0  0  0  0  0  0  0  0  0  0  0
   -0.5940    2.4060   -1.8810 N   0  0  0  0  0  0  0  0  0  0  0  0
   -0.3327    3.5094   -2.7772 C   0  0  2  0  0  0  0  0  0  0  0  0
    0.5342    4.5203   -2.0382 C   0  0  0  0  0  0  0  0  0  0  0  0
    0.5875    4.5888   -0.8121 O   0  0  0  0  0  0  0  0  0  0  0  0
   -1.6255    4.1502   -3.2575 C   0  0  0  0  0  0  0  0  0  0  0  0
   -1.5544    2.0969   -1.7638 H   0  0  0  0  0  0  0  0  0  0  0  0
    0.2251    3.1013   -3.6271 H   0  0  0  0  0  0  0  0  0  0  0  0
   -2.1981    4.5647   -2.4198 H   0  0  0  0  0  0  0  0  0  0  0  0
   -1.4267    4.9675   -3.9585 H   0  0  0  0  0  0  0  0  0  0  0  0
   -2.2609    3.4146   -3.7626 H   0  0  0  0  0  0  0  0  0  0  0  0
    1.2080    5.3652   -2.9090 N   0  0  0  0  0  0  0  0  0  0  0  0
    2.0844    6.4182   -2.4517 C   0  0  0  0  0  0  0  0  0  0  0  0
    1.1196    5.2239   -3.9110 H   0  0  0  0  0  0  0  0  0  0  0  0
    1.5158    7.3554   -2.3601 H   0  0  0  0  0  0  0  0  0  0  0  0
    2.5035    6.1465   -1.4717 H   0  0  0  0  0  0  0  0  0  0  0  0
    2.9019    6.5547   -3.1750 H   0  0  0  0  0  0  0  0  0  0  0  0
 29 30  2  0  0  0  0
 27 29  1  0  0  0  0
 28 30  1  0  0  0  0
 24 27  2  0  0  0  0
 26 28  2  0  0  0  0
 22 23  2  0  0  0  0
 23 25  1  0  0  0  0
 22 24  1  0  0  0  0
 24 26  1  0  0  0  0
 21 22  1  0  0  0  0
 25 26  1  0  0  0  0
  1  3  1  0  0  0  0
  1  7  1  0  0  0  0
  1  2  2  0  0  0  0
 42 43  1  0  0  0  0
 43 51  1  0  0  0  0
 43 44  2  0  0  0  0
  8  9  1  0  0  0  0
  9 17  1  0  0  0  0
  9 10  2  0  0  0  0
 18 19  1  0  0  0  0
 19 41  1  0  0  0  0
 19 20  2  0  0  0  0
 42 45  1  0  0  0  0
  8 11  1  0  0  0  0
 51 52  1  0  0  0  0
 18 21  1  0  0  0  0
 41 42  1  0  0  0  0
  7  8  1  0  0  0  0
 17 18  1  0  0  0  0
 29 39  1  0  0  0  0
 30 40  1  0  0  0  0
 27 37  1  0  0  0  0
 28 38  1  0  0  0  0
 23 35  1  0  0  0  0
  3  4  1  0  0  0  0
  3  5  1  0  0  0  0
  3  6  1  0  0  0  0
 45 48  1  0  0  0  0
 45 49  1  0  0  0  0
 45 50  1  0  0  0  0
 11 14  1  0  0  0  0
 11 15  1  0  0  0  0
 11 16  1  0  0  0  0
 52 54  1  0  0  0  0
 52 55  1  0  0  0  0
 52 56  1  0  0  0  0
 21 33  1  0  0  0  0
 21 34  1  0  0  0  0
 42 47  1  0  0  0  0
  8 13  1  0  0  0  0
 18 32  1  0  0  0  0
 25 36  1  0  0  0  0
 51 53  1  0  0  0  0
  7 12  1  0  0  0  0
 41 46  1  0  0  0  0
 17 31  1  0  0  0  0
M  END
$$$$

  -OEChem-05262214473D

 56 57  0     1  0  0  0  0  0999 V2000
   -2.2900    0.3401    4.1553 C   0  0  0  0  0  0  0  0  0  0  0  0
   -1.3426   -0.2746    3.6796 O   0  0  0  0  0  0  0  0  0  0  0  0
   -2.7219    0.0577    5.5560 C   0  0  0  0  0  0  0  0  0  0  0  0
   -3.4815   -0.7386    5.6094 H   0  0  0  0  0  0  0  0  0  0  0  0
   -1.8906   -0.2899    6.1903 H   0  0  0  0  0  0  0  0  0  0  0  0
   -3.1599    0.9126    6.0956 H   0  0  0  0  0  0  0  0  0  0  0  0
   -3.0397    1.3125    3.5142 N   0  0  0  0  0  0  0  0  0  0  0  0
   -2.7928    1.7385    2.1618 C   0  0  2  0  0  0  0  0  0  0  0  0
   -1.4579    1.1532    1.7206 C   0  0  0  0  0  0  0  0  0  0  0  0
   -0.5858    0.8004    2.5118 O   0  0  0  0  0  0  0  0  0  0  0  0
   -2.7841    3.2553    2.0523 C   0  0  0  0  0  0  0  0  0  0  0  0
   -3.8047    1.7484    4.0260 H   0  0  0  0  0  0  0  0  0  0  0  0
   -3.5969    1.3201    1.5466 H   0  0  0  0  0  0  0  0  0  0  0  0
   -1.9850    3.6926    2.6620 H   0  0  0  0  0  0  0  0  0  0  0  0
   -2.6246    3.5776    1.0180 H   0  0  0  0  0  0  0  0  0  0  0  0
   -3.7342    3.6765    2.3981 H   0  0  0  0  0  0  0  0  0  0  0  0
   -1.3352    1.1101    0.3372 N   0  0  0  0  0  0  0  0  0  0  0  0
   -0.1579    0.6093   -0.3265 C   0  0  2  0  0  0  0  0  0  0  0  0
    0.4015    1.7475   -1.1725 C   0  0  0  0  0  0  0  0  0  0  0  0
    1.5933    1.8471   -1.4562 O   0  0  0  0  0  0  0  0  0  0  0  0
   -0.4630   -0.6085   -1.2063 C   0  0  0  0  0  0  0  0  0  0  0  0
   -0.8729   -1.8197   -0.4046 C   0  0  0  0  0  0  0  0  0  0  0  0
   -2.1659   -2.2214   -0.1602 C   0  0  0  0  0  0  0  0  0  0  0  0
   -0.0031   -2.7495    0.2308 C   0  0  0  0  0  0  0  0  0  0  0  0
   -2.1171   -3.3592    0.5996 N   0  0  0  0  0  0  0  0  0  0  0  0
   -0.8090   -3.7051    0.8535 C   0  0  0  0  0  0  0  0  0  0  0  0
    1.3968   -2.8703    0.3362 C   0  0  0  0  0  0  0  0  0  0  0  0
   -0.2829   -4.7796    1.5793 C   0  0  0  0  0  0  0  0  0  0  0  0
    1.9372   -3.9401    1.0590 C   0  0  0  0  0  0  0  0  0  0  0  0
    1.1084   -4.8789    1.6701 C   0  0  0  0  0  0  0  0  0  0  0  0
   -2.1183    1.4068   -0.2401 H   0  0  0  0  0  0  0  0  0  0  0  0
    0.5627    0.3601    0.4613 H   0  0  0  0  0  0  0  0  0  0  0  0
    0.4072   -0.8552   -1.8295 H   0  0  0  0  0  0  0  0  0  0  0  0
   -1.2686   -0.3770   -1.9156 H   0  0  0  0  0  0  0  0  0  0  0  0
   -3.1164   -1.7997   -0.4568 H   0  0  0  0  0  0  0  0  0  0  0  0
   -2.9243   -3.8719    0.9270 H   0  0  0  0  0  0  0  0  0  0  0  0
    2.0563   -2.1462   -0.1337 H   0  0  0  0  0  0  0  0  0  0  0  0
   -0.9272   -5.5115    2.0544 H   0  0  0  0  0  0  0  0  0  0  0  0
    3.0161   -4.0382    1.1442 H   0  0  0  0  0  0  0  0  0  0  0  0
    1.5495   -5.7019    2.2265 H   0  0  0  0  0  0  0  0  0  0  0  0
   -0.5959    2.6070   -1.6118 N   0  0  0  0  0  0  0  0  0  0  0  0
   -0.3405    3.7564   -2.4499 C   0  0  2  0  0  0  0  0  0  0  0  0
    0.7931    4.5551   -1.8202 C   0  0  0  0  0  0  0  0  0  0  0  0
    1.0838    4.4817   -0.6281 O   0  0  0  0  0  0  0  0  0  0  0  0
   -1.5867    4.6136   -2.6083 C   0  0  0  0  0  0  0  0  0  0  0  0
   -1.5534    2.4187   -1.3301 H   0  0  0  0  0  0  0  0  0  0  0  0
   -0.0199    3.3723   -3.4245 H   0  0  0  0  0  0  0  0  0  0  0  0
   -1.9229    5.0074   -1.6422 H   0  0  0  0  0  0  0  0  0  0  0  0
   -1.3993    5.4684   -3.2666 H   0  0  0  0  0  0  0  0  0  0  0  0
   -2.4099    4.0295   -3.0338 H   0  0  0  0  0  0  0  0  0  0  0  0
    1.4140    5.3918   -2.7370 N   0  0  0  0  0  0  0  0  0  0  0  0
    2.5109    6.2613   -2.3808 C   0  0  0  0  0  0  0  0  0  0  0  0
    1.1200    5.3737   -3.7091 H   0  0  0  0  0  0  0  0  0  0  0  0
    2.1195    7.2507   -2.1018 H   0  0  0  0  0  0  0  0  0  0  0  0
    3.0587    5.8305   -1.5297 H   0  0  0  0  0  0  0  0  0  0  0  0
    3.1904    6.3648   -3.2397 H   0  0  0  0  0  0  0  0  0  0  0  0
 29 30  2  0  0  0  0
 27 29  1  0  0  0  0
 28 30  1  0  0  0  0
 24 27  2  0  0  0  0
 26 28  2  0  0  0  0
 22 23  2  0  0  0  0
 23 25  1  0  0  0  0
 22 24  1  0  0  0  0
 24 26  1  0  0  0  0
 21 22  1  0  0  0  0
 25 26  1  0  0  0  0
  1  3  1  0  0  0  0
  1  7  1  0  0  0  0
  1  2  2  0  0  0  0
 42 43  1  0  0  0  0
 43 51  1  0  0  0  0
 43 44  2  0  0  0  0
  8  9  1  0  0  0  0
  9 17  1  0  0  0  0
  9 10  2  0  0  0  0
 18 19  1  0  0  0  0
 19 41  1  0  0  0  0
 19 20  2  0  0  0  0
 42 45  1  0  0  0  0
  8 11  1  0  0  0  0
 51 52  1  0  0  0  0
 18 21  1  0  0  0  0
 41 42  1  0  0  0  0
  7  8  1  0  0  0  0
 17 18  1  0  0  0  0
 29 39  1  0  0  0  0
 30 40  1  0  0  0  0
 27 37  1  0  0  0  0
 28 38  1  0  0  0  0
 23 35  1  0  0  0  0
  3  4  1  0  0  0  0
  3  5  1  0  0  0  0
  3  6  1  0  0  0  0
 45 48  1  0  0  0  0
 45 49  1  0  0  0  0
 45 50  1  0  0  0  0
 11 14  1  0  0  0  0
 11 15  1  0  0  0  0
 11 16  1  0  0  0  0
 52 54  1  0  0  0  0
 52 55  1  0  0  0  0
 52 56  1  0  0  0  0
 21 33  1  0  0  0  0
 21 34  1  0  0  0  0
 42 47  1  0  0  0  0
  8 13  1  0  0  0  0
 18 32  1  0  0  0  0
 25 36  1  0  0  0  0
 51 53  1  0  0  0  0
  7 12  1  0  0  0  0
 41 46  1  0  0  0  0
 17 31  1  0  0  0  0
M  END
$$$$

  -OEChem-05262214473D

 56 57  0     1  0  0  0  0  0999 V2000
   -2.2900    0.3401    4.1553 C   0  0  0  0  0  0  0  0  0  0  0  0
   -1.3426   -0.2746    3.6796 O   0  0  0  0  0  0  0  0  0  0  0  0
   -2.7219    0.0577    5.5560 C   0  0  0  0  0  0  0  0  0  0  0  0
   -3.4815   -0.7386    5.6094 H   0  0  0  0  0  0  0  0  0  0  0  0
   -1.8906   -0.2899    6.1903 H   0  0  0  0  0  0  0  0  0  0  0  0
   -3.1599    0.9126    6.0956 H   0  0  0  0  0  0  0  0  0  0  0  0
   -3.0397    1.3125    3.5142 N   0  0  0  0  0  0  0  0  0  0  0  0
   -2.7928    1.7385    2.1618 C   0  0  2  0  0  0  0  0  0  0  0  0
   -1.4579    1.1532    1.7206 C   0  0  0  0  0  0  0  0  0  0  0  0
   -0.5858    0.8004    2.5118 O   0  0  0  0  0  0  0  0  0  0  0  0
   -2.7841    3.2553    2.0523 C   0  0  0  0  0  0  0  0  0  0  0  0
   -3.8047    1.7484    4.0260 H   0  0  0  0  0  0  0  0  0  0  0  0
   -3.5969    1.3201    1.5466 H   0  0  0  0  0  0  0  0  0  0  0  0
   -1.9850    3.6926    2.6620 H   0  0  0  0  0  0  0  0  0  0  0  0
   -2.6246    3.5776    1.0180 H   0  0  0  0  0  0  0  0  0  0  0  0
   -3.7342    3.6765    2.3981 H   0  0  0  0  0  0  0  0  0  0  0  0
   -1.3352    1.1101    0.3372 N   0  0  0  0  0  0  0  0  0  0  0  0
   -0.1579    0.6093   -0.3265 C   0  0  2  0  0  0  0  0  0  0  0  0
    0.4015    1.7475   -1.1725 C   0  0  0  0  0  0  0  0  0  0  0  0
    1.5205    1.7165   -1.6801 O   0  0  0  0  0  0  0  0  0  0  0  0
   -0.4630   -0.6085   -1.2063 C   0  0  0  0  0  0  0  0  0  0  0  0
   -0.8729   -1.8197   -0.4046 C   0  0  0  0  0  0  0  0  0  0  0  0
   -2.1659   -2.2214   -0.1602 C   0  0  0  0  0  0  0  0  0  0  0  0
   -0.0031   -2.7495    0.2308 C   0  0  0  0  0  0  0  0  0  0  0  0
   -2.1171   -3.3592    0.5996 N   0  0  0  0  0  0  0  0  0  0  0  0
   -0.8090   -3.7051    0.8535 C   0  0  0  0  0  0  0  0  0  0  0  0
    1.3968   -2.8703    0.3362 C   0  0  0  0  0  0  0  0  0  0  0  0
   -0.2829   -4.7796    1.5793 C   0  0  0  0  0  0  0  0  0  0  0  0
    1.9372   -3.9401    1.0590 C   0  0  0  0  0  0  0  0  0  0  0  0
    1.1084   -4.8789    1.6701 C   0  0  0  0  0  0  0  0  0  0  0  0
   -2.1183    1.4068   -0.2401 H   0  0  0  0  0  0  0  0  0  0  0  0
    0.5627    0.3601    0.4613 H   0  0  0  0  0  0  0  0  0  0  0  0
    0.4072   -0.8552   -1.8295 H   0  0  0  0  0  0  0  0  0  0  0  0
   -1.2686   -0.3770   -1.9156 H   0  0  0  0  0  0  0  0  0  0  0  0
   -3.1164   -1.7997   -0.4568 H   0  0  0  0  0  0  0  0  0  0  0  0
   -2.9243   -3.8719    0.9270 H   0  0  0  0  0  0  0  0  0  0  0  0
    2.0563   -2.1462   -0.1337 H   0  0  0  0  0  0  0  0  0  0  0  0
   -0.9272   -5.5115    2.0544 H   0  0  0  0  0  0  0  0  0  0  0  0
    3.0161   -4.0382    1.1442 H   0  0  0  0  0  0  0  0  0  0  0  0
    1.5495   -5.7019    2.2265 H   0  0  0  0  0  0  0  0  0  0  0  0
   -0.5168    2.7759   -1.3323 N   0  0  0  0  0  0  0  0  0  0  0  0
   -0.2493    3.9651   -2.1089 C   0  0  2  0  0  0  0  0  0  0  0  0
    1.0903    4.5308   -1.6564 C   0  0  0  0  0  0  0  0  0  0  0  0
    1.5833    4.2894   -0.5565 O   0  0  0  0  0  0  0  0  0  0  0  0
   -1.3572    4.9940   -1.9448 C   0  0  0  0  0  0  0  0  0  0  0  0
   -1.4225    2.6883   -0.8808 H   0  0  0  0  0  0  0  0  0  0  0  0
   -0.1785    3.6500   -3.1557 H   0  0  0  0  0  0  0  0  0  0  0  0
   -1.4432    5.3216   -0.9023 H   0  0  0  0  0  0  0  0  0  0  0  0
   -1.1672    5.8825   -2.5559 H   0  0  0  0  0  0  0  0  0  0  0  0
   -2.3247    4.5757   -2.2426 H   0  0  0  0  0  0  0  0  0  0  0  0
    1.6502    5.3715   -2.6082 N   0  0  0  0  0  0  0  0  0  0  0  0
    2.9140    6.0417   -2.4097 C   0  0  0  0  0  0  0  0  0  0  0  0
    1.1809    5.4992   -3.5000 H   0  0  0  0  0  0  0  0  0  0  0  0
    2.7375    7.0383   -1.9789 H   0  0  0  0  0  0  0  0  0  0  0  0
    3.5383    5.4510   -1.7231 H   0  0  0  0  0  0  0  0  0  0  0  0
    3.4293    6.1461   -3.3759 H   0  0  0  0  0  0  0  0  0  0  0  0
 29 30  2  0  0  0  0
 27 29  1  0  0  0  0
 28 30  1  0  0  0  0
 24 27  2  0  0  0  0
 26 28  2  0  0  0  0
 22 23  2  0  0  0  0
 23 25  1  0  0  0  0
 22 24  1  0  0  0  0
 24 26  1  0  0  0  0
 21 22  1  0  0  0  0
 25 26  1  0  0  0  0
  1  3  1  0  0  0  0
  1  7  1  0  0  0  0
  1  2  2  0  0  0  0
 42 43  1  0  0  0  0
 43 51  1  0  0  0  0
 43 44  2  0  0  0  0
  8  9  1  0  0  0  0
  9 17  1  0  0  0  0
  9 10  2  0  0  0  0
 18 19  1  0  0  0  0
 19 41  1  0  0  0  0
 19 20  2  0  0  0  0
 42 45  1  0  0  0  0
  8 11  1  0  0  0  0
 51 52  1  0  0  0  0
 18 21  1  0  0  0  0
 41 42  1  0  0  0  0
  7  8  1  0  0  0  0
 17 18  1  0  0  0  0
 29 39  1  0  0  0  0
 30 40  1  0  0  0  0
 27 37  1  0  0  0  0
 28 38  1  0  0  0  0
 23 35  1  0  0  0  0
  3  4  1  0  0  0  0
  3  5  1  0  0  0  0
  3  6  1  0  0  0  0
 45 48  1  0  0  0  0
 45 49  1  0  0  0  0
 45 50  1  0  0  0  0
 11 14  1  0  0  0  0
 11 15  1  0  0  0  0
 11 16  1  0  0  0  0
 52 54  1  0  0  0  0
 52 55  1  0  0  0  0
 52 56  1  0  0  0  0
 21 33  1  0  0  0  0
 21 34  1  0  0  0  0
 42 47  1  0  0  0  0
  8 13  1  0  0  0  0
 18 32  1  0  0  0  0
 25 36  1  0  0  0  0
 51 53  1  0  0  0  0
  7 12  1  0  0  0  0
 41 46  1  0  0  0  0
 17 31  1  0  0  0  0
M  END
$$$$

  -OEChem-05262214473D

 56 57  0     1  0  0  0  0  0999 V2000
   -2.2900    0.3401    4.1553 C   0  0  0  0  0  0  0  0  0  0  0  0
   -1.3426   -0.2746    3.6796 O   0  0  0  0  0  0  0  0  0  0  0  0
   -2.7219    0.0577    5.5560 C   0  0  0  0  0  0  0  0  0  0  0  0
   -3.4815   -0.7386    5.6094 H   0  0  0  0  0  0  0  0  0  0  0  0
   -1.8906   -0.2899    6.1903 H   0  0  0  0  0  0  0  0  0  0  0  0
   -3.1599    0.9126    6.0956 H   0  0  0  0  0  0  0  0  0  0  0  0
   -3.0397    1.3125    3.5142 N   0  0  0  0  0  0  0  0  0  0  0  0
   -2.7928    1.7385    2.1618 C   0  0  2  0  0  0  0  0  0  0  0  0
   -1.4579    1.1532    1.7206 C   0  0  0  0  0  0  0  0  0  0  0  0
   -0.5858    0.8004    2.5118 O   0  0  0  0  0  0  0  0  0  0  0  0
   -2.7841    3.2553    2.0523 C   0  0  0  0  0  0  0  0  0  0  0  0
   -3.8047    1.7484    4.0260 H   0  0  0  0  0  0  0  0  0  0  0  0
   -3.5969    1.3201    1.5466 H   0  0  0  0  0  0  0  0  0  0  0  0
   -1.9850    3.6926    2.6620 H   0  0  0  0  0  0  0  0  0  0  0  0
   -2.6246    3.5776    1.0180 H   0  0  0  0  0  0  0  0  0  0  0  0
   -3.7342    3.6765    2.3981 H   0  0  0  0  0  0  0  0  0  0  0  0
   -1.3352    1.1101    0.3372 N   0  0  0  0  0  0  0  0  0  0  0  0
   -0.1579    0.6093   -0.3265 C   0  0  2  0  0  0  0  0  0  0  0  0
    0.4015    1.7475   -1.1725 C   0  0  0  0  0  0  0  0  0  0  0  0
    1.3882    1.6221   -1.8946 O   0  0  0  0  0  0  0  0  0  0  0  0
   -0.4630   -0.6085   -1.2063 C   0  0  0  0  0  0  0  0  0  0  0  0
   -0.8729   -1.8197   -0.4046 C   0  0  0  0  0  0  0  0  0  0  0  0
   -2.1659   -2.2214   -0.1602 C   0  0  0  0  0  0  0  0  0  0  0  0
   -0.0031   -2.7495    0.2308 C   0  0  0  0  0  0  0  0  0  0  0  0
   -2.1171   -3.3592    0.5996 N   0  0  0  0  0  0  0  0  0  0  0  0
   -0.8090   -3.7051    0.8535 C   0  0  0  0  0  0  0  0  0  0  0  0
    1.3968   -2.8703    0.3362 C   0  0  0  0  0  0  0  0  0  0  0  0
   -0.2829   -4.7796    1.5793 C   0  0  0  0  0  0  0  0  0  0  0  0
    1.9372   -3.9401    1.0590 C   0  0  0  0  0  0  0  0  0  0  0  0
    1.1084   -4.8789    1.6701 C   0  0  0  0  0  0  0  0  0  0  0  0
   -2.1183    1.4068   -0.2401 H   0  0  0  0  0  0  0  0  0  0  0  0
    0.5627    0.3601    0.4613 H   0  0  0  0  0  0  0  0  0  0  0  0
    0.4072   -0.8552   -1.8295 H   0  0  0  0  0  0  0  0  0  0  0  0
   -1.2686   -0.3770   -1.9156 H   0  0  0  0  0  0  0  0  0  0  0  0
   -3.1164   -1.7997   -0.4568 H   0  0  0  0  0  0  0  0  0  0  0  0
   -2.9243   -3.8719    0.9270 H   0  0  0  0  0  0  0  0  0  0  0  0
    2.0563   -2.1462   -0.1337 H   0  0  0  0  0  0  0  0  0  0  0  0
   -0.9272   -5.5115    2.0544 H   0  0  0  0  0  0  0  0  0  0  0  0
    3.0161   -4.0382    1.1442 H   0  0  0  0  0  0  0  0  0  0  0  0
    1.5495   -5.7019    2.2265 H   0  0  0  0  0  0  0  0  0  0  0  0
   -0.3622    2.9012   -1.0616 N   0  0  0  0  0  0  0  0  0  0  0  0
   -0.0654    4.1212   -1.7773 C   0  0  2  0  0  0  0  0  0  0  0  0
    1.4056    4.4491   -1.5578 C   0  0  0  0  0  0  0  0  0  0  0  0
    2.0520    4.0252   -0.6021 O   0  0  0  0  0  0  0  0  0  0  0  0
   -0.9526    5.2654   -1.3121 C   0  0  0  0  0  0  0  0  0  0  0  0
   -1.1705    2.8873   -0.4465 H   0  0  0  0  0  0  0  0  0  0  0  0
   -0.2399    3.9155   -2.8390 H   0  0  0  0  0  0  0  0  0  0  0  0
   -0.7918    5.4860   -0.2505 H   0  0  0  0  0  0  0  0  0  0  0  0
   -0.7461    6.1817   -1.8750 H   0  0  0  0  0  0  0  0  0  0  0  0
   -2.0111    5.0159   -1.4430 H   0  0  0  0  0  0  0  0  0  0  0  0
    1.9002    5.3058   -2.5313 N   0  0  0  0  0  0  0  0  0  0  0  0
    3.2663    5.7745   -2.5363 C   0  0  0  0  0  0  0  0  0  0  0  0
    1.2982    5.5919   -3.2978 H   0  0  0  0  0  0  0  0  0  0  0  0
    3.3277    6.7328   -1.9997 H   0  0  0  0  0  0  0  0  0  0  0  0
    3.9097    5.0340   -2.0387 H   0  0  0  0  0  0  0  0  0  0  0  0
    3.6024    5.9135   -3.5744 H   0  0  0  0  0  0  0  0  0  0  0  0
 29 30  2  0  0  0  0
 27 29  1  0  0  0  0
 28 30  1  0  0  0  0
 24 27  2  0  0  0  0
 26 28  2  0  0  0  0
 22 23  2  0  0  0  0
 23 25  1  0  0  0  0
 22 24  1  0  0  0  0
 24 26  1  0  0  0  0
 21 22  1  0  0  0  0
 25 26  1  0  0  0  0
  1  3  1  0  0  0  0
  1  7  1  0  0  0  0
  1  2  2  0  0  0  0
 42 43  1  0  0  0  0
 43 51  1  0  0  0  0
 43 44  2  0  0  0  0
  8  9  1  0  0  0  0
  9 17  1  0  0  0  0
  9 10  2  0  0  0  0
 18 19  1  0  0  0  0
 19 41  1  0  0  0  0
 19 20  2  0  0  0  0
 42 45  1  0  0  0  0
  8 11  1  0  0  0  0
 51 52  1  0  0  0  0
 18 21  1  0  0  0  0
 41 42  1  0  0  0  0
  7  8  1  0  0  0  0
 17 18  1  0  0  0  0
 29 39  1  0  0  0  0
 30 40  1  0  0  0  0
 27 37  1  0  0  0  0
 28 38  1  0  0  0  0
 23 35  1  0  0  0  0
  3  4  1  0  0  0  0
  3  5  1  0  0  0  0
  3  6  1  0  0  0  0
 45 48  1  0  0  0  0
 45 49  1  0  0  0  0
 45 50  1  0  0  0  0
 11 14  1  0  0  0  0
 11 15  1  0  0  0  0
 11 16  1  0  0  0  0
 52 54  1  0  0  0  0
 52 55  1  0  0  0  0
 52 56  1  0  0  0  0
 21 33  1  0  0  0  0
 21 34  1  0  0  0  0
 42 47  1  0  0  0  0
  8 13  1  0  0  0  0
 18 32  1  0  0  0  0
 25 36  1  0  0  0  0
 51 53  1  0  0  0  0
  7 12  1  0  0  0  0
 41 46  1  0  0  0  0
 17 31  1  0  0  0  0
M  END
$$$$

  -OEChem-05262214473D

 56 57  0     1  0  0  0  0  0999 V2000
   -2.2900    0.3401    4.1553 C   0  0  0  0  0  0  0  0  0  0  0  0
   -1.3426   -0.2746    3.6796 O   0  0  0  0  0  0  0  0  0  0  0  0
   -2.7219    0.0577    5.5560 C   0  0  0  0  0  0  0  0  0  0  0  0
   -3.4815   -0.7386    5.6094 H   0  0  0  0  0  0  0  0  0  0  0  0
   -1.8906   -0.2899    6.1903 H   0  0  0  0  0  0  0  0  0  0  0  0
   -3.1599    0.9126    6.0956 H   0  0  0  0  0  0  0  0  0  0  0  0
   -3.0397    1.3125    3.5142 N   0  0  0  0  0  0  0  0  0  0  0  0
   -2.7928    1.7385    2.1618 C   0  0  2  0  0  0  0  0  0  0  0  0
   -1.4579    1.1532    1.7206 C   0  0  0  0  0  0  0  0  0  0  0  0
   -0.5858    0.8004    2.5118 O   0  0  0  0  0  0  0  0  0  0  0  0
   -2.7841    3.2553    2.0523 C   0  0  0  0  0  0  0  0  0  0  0  0
   -3.8047    1.7484    4.0260 H   0  0  0  0  0  0  0  0  0  0  0  0
   -3.5969    1.3201    1.5466 H   0  0  0  0  0  0  0  0  0  0  0  0
   -1.9850    3.6926    2.6620 H   0  0  0  0  0  0  0  0  0  0  0  0
   -2.6246    3.5776    1.0180 H   0  0  0  0  0  0  0  0  0  0  0  0
   -3.7342    3.6765    2.3981 H   0  0  0  0  0  0  0  0  0  0  0  0
   -1.3352    1.1101    0.3372 N   0  0  0  0  0  0  0  0  0  0  0  0
   -0.1579    0.6093   -0.3265 C   0  0  2  0  0  0  0  0  0  0  0  0
    0.4015    1.7475   -1.1725 C   0  0  0  0  0  0  0  0  0  0  0  0
    1.2054    1.5702   -2.0853 O   0  0  0  0  0  0  0  0  0  0  0  0
   -0.4630   -0.6085   -1.2063 C   0  0  0  0  0  0  0  0  0  0  0  0
   -0.8729   -1.8197   -0.4046 C   0  0  0  0  0  0  0  0  0  0  0  0
   -2.1659   -2.2214   -0.1602 C   0  0  0  0  0  0  0  0  0  0  0  0
   -0.0031   -2.7495    0.2308 C   0  0  0  0  0  0  0  0  0  0  0  0
   -2.1171   -3.3592    0.5996 N   0  0  0  0  0  0  0  0  0  0  0  0
   -0.8090   -3.7051    0.8535 C   0  0  0  0  0  0  0  0  0  0  0  0
    1.3968   -2.8703    0.3362 C   0  0  0  0  0  0  0  0  0  0  0  0
   -0.2829   -4.7796    1.5793 C   0  0  0  0  0  0  0  0  0  0  0  0
    1.9372   -3.9401    1.0590 C   0  0  0  0  0  0  0  0  0  0  0  0
    1.1084   -4.8789    1.6701 C   0  0  0  0  0  0  0  0  0  0  0  0
   -2.1183    1.4068   -0.2401 H   0  0  0  0  0  0  0  0  0  0  0  0
    0.5627    0.3601    0.4613 H   0  0  0  0  0  0  0  0  0  0  0  0
    0.4072   -0.8552   -1.8295 H   0  0  0  0  0  0  0  0  0  0  0  0
   -1.2686   -0.3770   -1.9156 H   0  0  0  0  0  0  0  0  0  0  0  0
   -3.1164   -1.7997   -0.4568 H   0  0  0  0  0  0  0  0  0  0  0  0
   -2.9243   -3.8719    0.9270 H   0  0  0  0  0  0  0  0  0  0  0  0
    2.0563   -2.1462   -0.1337 H   0  0  0  0  0  0  0  0  0  0  0  0
   -0.9272   -5.5115    2.0544 H   0  0  0  0  0  0  0  0  0  0  0  0
    3.0161   -4.0382    1.1442 H   0  0  0  0  0  0  0  0  0  0  0  0
    1.5495   -5.7019    2.2265 H   0  0  0  0  0  0  0  0  0  0  0  0
   -0.1426    2.9742   -0.8181 N   0  0  0  0  0  0  0  0  0  0  0  0
    0.1988    4.2141   -1.4776 C   0  0  2  0  0  0  0  0  0  0  0  0
    1.7175    4.3156   -1.5313 C   0  0  0  0  0  0  0  0  0  0  0  0
    2.4580    3.7069   -0.7618 O   0  0  0  0  0  0  0  0  0  0  0  0
   -0.4006    5.4094   -0.7533 C   0  0  0  0  0  0  0  0  0  0  0  0
   -0.8145    3.0020   -0.0568 H   0  0  0  0  0  0  0  0  0  0  0  0
   -0.1998    4.1508   -2.4960 H   0  0  0  0  0  0  0  0  0  0  0  0
   -0.0130    5.4893    0.2688 H   0  0  0  0  0  0  0  0  0  0  0  0
   -0.1649    6.3456   -1.2702 H   0  0  0  0  0  0  0  0  0  0  0  0
   -1.4904    5.3201   -0.6895 H   0  0  0  0  0  0  0  0  0  0  0  0
    2.1471    5.1991   -2.5116 N   0  0  0  0  0  0  0  0  0  0  0  0
    3.5438    5.4778   -2.7520 C   0  0  0  0  0  0  0  0  0  0  0  0
    1.4639    5.6453   -3.1164 H   0  0  0  0  0  0  0  0  0  0  0  0
    3.8498    6.3549   -2.1629 H   0  0  0  0  0  0  0  0  0  0  0  0
    4.1476    4.6077   -2.4548 H   0  0  0  0  0  0  0  0  0  0  0  0
    3.6977    5.6828   -3.8217 H   0  0  0  0  0  0  0  0  0  0  0  0
 29 30  2  0  0  0  0
 27 29  1  0  0  0  0
 28 30  1  0  0  0  0
 24 27  2  0  0  0  0
 26 28  2  0  0  0  0
 22 23  2  0  0  0  0
 23 25  1  0  0  0  0
 22 24  1  0  0  0  0
 24 26  1  0  0  0  0
 21 22  1  0  0  0  0
 25 26  1  0  0  0  0
  1  3  1  0  0  0  0
  1  7  1  0  0  0  0
  1  2  2  0  0  0  0
 42 43  1  0  0  0  0
 43 51  1  0  0  0  0
 43 44  2  0  0  0  0
  8  9  1  0  0  0  0
  9 17  1  0  0  0  0
  9 10  2  0  0  0  0
 18 19  1  0  0  0  0
 19 41  1  0  0  0  0
 19 20  2  0  0  0  0
 42 45  1  0  0  0  0
  8 11  1  0  0  0  0
 51 52  1  0  0  0  0
 18 21  1  0  0  0  0
 41 42  1  0  0  0  0
  7  8  1  0  0  0  0
 17 18  1  0  0  0  0
 29 39  1  0  0  0  0
 30 40  1  0  0  0  0
 27 37  1  0  0  0  0
 28 38  1  0  0  0  0
 23 35  1  0  0  0  0
  3  4  1  0  0  0  0
  3  5  1  0  0  0  0
  3  6  1  0  0  0  0
 45 48  1  0  0  0  0
 45 49  1  0  0  0  0
 45 50  1  0  0  0  0
 11 14  1  0  0  0  0
 11 15  1  0  0  0  0
 11 16  1  0  0  0  0
 52 54  1  0  0  0  0
 52 55  1  0  0  0  0
 52 56  1  0  0  0  0
 21 33  1  0  0  0  0
 21 34  1  0  0  0  0
 42 47  1  0  0  0  0
  8 13  1  0  0  0  0
 18 32  1  0  0  0  0
 25 36  1  0  0  0  0
 51 53  1  0  0  0  0
  7 12  1  0  0  0  0
 41 46  1  0  0  0  0
 17 31  1  0  0  0  0
M  END
$$$$

  -OEChem-05262214473D

 56 57  0     1  0  0  0  0  0999 V2000
   -2.2900    0.3401    4.1553 C   0  0  0  0  0  0  0  0  0  0  0  0
   -1.3426   -0.2746    3.6796 O   0  0  0  0  0  0  0  0  0  0  0  0
   -2.7219    0.0577    5.5560 C   0  0  0  0  0  0  0  0  0  0  0  0
   -3.4815   -0.7386    5.6094 H   0  0  0  0  0  0  0  0  0  0  0  0
   -1.8906   -0.2899    6.1903 H   0  0  0  0  0  0  0  0  0  0  0  0
   -3.1599    0.9126    6.0956 H   0  0  0  0  0  0  0  0  0  0  0  0
   -3.0397    1.3125    3.5142 N   0  0  0  0  0  0  0  0  0  0  0  0
   -2.7928    1.7385    2.1618 C   0  0  2  0  0  0  0  0  0  0  0  0
   -1.4579    1.1532    1.7206 C   0  0  0  0  0  0  0  0  0  0  0  0
   -0.5858    0.8004    2.5118 O   0  0  0  0  0  0  0  0  0  0  0  0
   -2.7841    3.2553    2.0523 C   0  0  0  0  0  0  0  0  0  0  0  0
   -3.8047    1.7484    4.0260 H   0  0  0  0  0  0  0  0  0  0  0  0
   -3.5969    1.3201    1.5466 H   0  0  0  0  0  0  0  0  0  0  0  0
   -1.9850    3.6926    2.6620 H   0  0  0  0  0  0  0  0  0  0  0  0
   -2.6246    3.5776    1.0180 H   0  0  0  0  0  0  0  0  0  0  0  0
   -3.7342    3.6765    2.3981 H   0  0  0  0  0  0  0  0  0  0  0  0
   -1.3352    1.1101    0.3372 N   0  0  0  0  0  0  0  0  0  0  0  0
   -0.1579    0.6093   -0.3265 C   0  0  2  0  0  0  0  0  0  0  0  0
    0.4015    1.7475   -1.1725 C   0  0  0  0  0  0  0  0  0  0  0  0
    0.9845    1.5645   -2.2390 O   0  0  0  0  0  0  0  0  0  0  0  0
   -0.4630   -0.6085   -1.2063 C   0  0  0  0  0  0  0  0  0  0  0  0
   -0.8729   -1.8197   -0.4046 C   0  0  0  0  0  0  0  0  0  0  0  0
   -2.1659   -2.2214   -0.1602 C   0  0  0  0  0  0  0  0  0  0  0  0
   -0.0031   -2.7495    0.2308 C   0  0  0  0  0  0  0  0  0  0  0  0
   -2.1171   -3.3592    0.5996 N   0  0  0  0  0  0  0  0  0  0  0  0
   -0.8090   -3.7051    0.8535 C   0  0  0  0  0  0  0  0  0  0  0  0
    1.3968   -2.8703    0.3362 C   0  0  0  0  0  0  0  0  0  0  0  0
   -0.2829   -4.7796    1.5793 C   0  0  0  0  0  0  0  0  0  0  0  0
    1.9372   -3.9401    1.0590 C   0  0  0  0  0  0  0  0  0  0  0  0
    1.1084   -4.8789    1.6701 C   0  0  0  0  0  0  0  0  0  0  0  0
   -2.1183    1.4068   -0.2401 H   0  0  0  0  0  0  0  0  0  0  0  0
    0.5627    0.3601    0.4613 H   0  0  0  0  0  0  0  0  0  0  0  0
    0.4072   -0.8552   -1.8295 H   0  0  0  0  0  0  0  0  0  0  0  0
   -1.2686   -0.3770   -1.9156 H   0  0  0  0  0  0  0  0  0  0  0  0
   -3.1164   -1.7997   -0.4568 H   0  0  0  0  0  0  0  0  0  0  0  0
   -2.9243   -3.8719    0.9270 H   0  0  0  0  0  0  0  0  0  0  0  0
    2.0563   -2.1462   -0.1337 H   0  0  0  0  0  0  0  0  0  0  0  0
   -0.9272   -5.5115    2.0544 H   0  0  0  0  0  0  0  0  0  0  0  0
    3.0161   -4.0382    1.1442 H   0  0  0  0  0  0  0  0  0  0  0  0
    1.5495   -5.7019    2.2265 H   0  0  0  0  0  0  0  0  0  0  0  0
    0.1271    2.9901   -0.6184 N   0  0  0  0  0  0  0  0  0  0  0  0
    0.5252    4.2374   -1.2305 C   0  0  2  0  0  0  0  0  0  0  0  0
    2.0046    4.1392   -1.5787 C   0  0  0  0  0  0  0  0  0  0  0  0
    2.7736    3.3564   -1.0247 O   0  0  0  0  0  0  0  0  0  0  0  0
    0.2613    5.4162   -0.3066 C   0  0  0  0  0  0  0  0  0  0  0  0
   -0.3789    3.0247    0.2617 H   0  0  0  0  0  0  0  0  0  0  0  0
   -0.0610    4.3396   -2.1502 H   0  0  0  0  0  0  0  0  0  0  0  0
    0.8401    5.3313    0.6203 H   0  0  0  0  0  0  0  0  0  0  0  0
    0.5369    6.3629   -0.7828 H   0  0  0  0  0  0  0  0  0  0  0  0
   -0.7981    5.4676   -0.0334 H   0  0  0  0  0  0  0  0  0  0  0  0
    2.3742    5.0586   -2.5504 N   0  0  0  0  0  0  0  0  0  0  0  0
    3.7274    5.1719   -3.0422 C   0  0  0  0  0  0  0  0  0  0  0  0
    1.6666    5.6559   -2.9681 H   0  0  0  0  0  0  0  0  0  0  0  0
    4.2684    5.9303   -2.4574 H   0  0  0  0  0  0  0  0  0  0  0  0
    4.2358    4.2014   -2.9432 H   0  0  0  0  0  0  0  0  0  0  0  0
    3.7090    5.4698   -4.1009 H   0  0  0  0  0  0  0  0  0  0  0  0
 29 30  2  0  0  0  0
 27 29  1  0  0  0  0
 28 30  1  0  0  0  0
 24 27  2  0  0  0  0
 26 28  2  0  0  0  0
 22 23  2  0  0  0  0
 23 25  1  0  0  0  0
 22 24  1  0  0  0  0
 24 26  1  0  0  0  0
 21 22  1  0  0  0  0
 25 26  1  0  0  0  0
  1  3  1  0  0  0  0
  1  7  1  0  0  0  0
  1  2  2  0  0  0  0
 42 43  1  0  0  0  0
 43 51  1  0  0  0  0
 43 44  2  0  0  0  0
  8  9  1  0  0  0  0
  9 17  1  0  0  0  0
  9 10  2  0  0  0  0
 18 19  1  0  0  0  0
 19 41  1  0  0  0  0
 19 20  2  0  0  0  0
 42 45  1  0  0  0  0
  8 11  1  0  0  0  0
 51 52  1  0  0  0  0
 18 21  1  0  0  0  0
 41 42  1  0  0  0  0
  7  8  1  0  0  0  0
 17 18  1  0  0  0  0
 29 39  1  0  0  0  0
 30 40  1  0  0  0  0
 27 37  1  0  0  0  0
 28 38  1  0  0  0  0
 23 35  1  0  0  0  0
  3  4  1  0  0  0  0
  3  5  1  0  0  0  0
  3  6  1  0  0  0  0
 45 48  1  0  0  0  0
 45 49  1  0  0  0  0
 45 50  1  0  0  0  0
 11 14  1  0  0  0  0
 11 15  1  0  0  0  0
 11 16  1  0  0  0  0
 52 54  1  0  0  0  0
 52 55  1  0  0  0  0
 52 56  1  0  0  0  0
 21 33  1  0  0  0  0
 21 34  1  0  0  0  0
 42 47  1  0  0  0  0
  8 13  1  0  0  0  0
 18 32  1  0  0  0  0
 25 36  1  0  0  0  0
 51 53  1  0  0  0  0
  7 12  1  0  0  0  0
 41 46  1  0  0  0  0
 17 31  1  0  0  0  0
M  END
$$$$

  -OEChem-05262214473D

 56 57  0     1  0  0  0  0  0999 V2000
   -2.2900    0.3401    4.1553 C   0  0  0  0  0  0  0  0  0  0  0  0
   -1.3426   -0.2746    3.6796 O   0  0  0  0  0  0  0  0  0  0  0  0
   -2.7219    0.0577    5.5560 C   0  0  0  0  0  0  0  0  0  0  0  0
   -3.4815   -0.7386    5.6094 H   0  0  0  0  0  0  0  0  0  0  0  0
   -1.8906   -0.2899    6.1903 H   0  0  0  0  0  0  0  0  0  0  0  0
   -3.1599    0.9126    6.0956 H   0  0  0  0  0  0  0  0  0  0  0  0
   -3.0397    1.3125    3.5142 N   0  0  0  0  0  0  0  0  0  0  0  0
   -2.7928    1.7385    2.1618 C   0  0  2  0  0  0  0  0  0  0  0  0
   -1.4579    1.1532    1.7206 C   0  0  0  0  0  0  0  0  0  0  0  0
   -0.5858    0.8004    2.5118 O   0  0  0  0  0  0  0  0  0  0  0  0
   -2.7841    3.2553    2.0523 C   0  0  0  0  0  0  0  0  0  0  0  0
   -3.8047    1.7484    4.0260 H   0  0  0  0  0  0  0  0  0  0  0  0
   -3.5969    1.3201    1.5466 H   0  0  0  0  0  0  0  0  0  0  0  0
   -1.9850    3.6926    2.6620 H   0  0  0  0  0  0  0  0  0  0  0  0
   -2.6246    3.5776    1.0180 H   0  0  0  0  0  0  0  0  0  0  0  0
   -3.7342    3.6765    2.3981 H   0  0  0  0  0  0  0  0  0  0  0  0
   -1.3352    1.1101    0.3372 N   0  0  0  0  0  0  0  0  0  0  0  0
   -0.1579    0.6093   -0.3265 C   0  0  2  0  0  0  0  0  0  0  0  0
    0.4015    1.7475   -1.1725 C   0  0  0  0  0  0  0  0  0  0  0  0
    0.7407    1.6053   -2.3454 O   0  0  0  0  0  0  0  0  0  0  0  0
   -0.4630   -0.6085   -1.2063 C   0  0  0  0  0  0  0  0  0  0  0  0
   -0.8729   -1.8197   -0.4046 C   0  0  0  0  0  0  0  0  0  0  0  0
   -2.1659   -2.2214   -0.1602 C   0  0  0  0  0  0  0  0  0  0  0  0
   -0.0031   -2.7495    0.2308 C   0  0  0  0  0  0  0  0  0  0  0  0
   -2.1171   -3.3592    0.5996 N   0  0  0  0  0  0  0  0  0  0  0  0
   -0.8090   -3.7051    0.8535 C   0  0  0  0  0  0  0  0  0  0  0  0
    1.3968   -2.8703    0.3362 C   0  0  0  0  0  0  0  0  0  0  0  0
   -0.2829   -4.7796    1.5793 C   0  0  0  0  0  0  0  0  0  0  0  0
    1.9372   -3.9401    1.0590 C   0  0  0  0  0  0  0  0  0  0  0  0
    1.1084   -4.8789    1.6701 C   0  0  0  0  0  0  0  0  0  0  0  0
   -2.1183    1.4068   -0.2401 H   0  0  0  0  0  0  0  0  0  0  0  0
    0.5627    0.3601    0.4613 H   0  0  0  0  0  0  0  0  0  0  0  0
    0.4072   -0.8552   -1.8295 H   0  0  0  0  0  0  0  0  0  0  0  0
   -1.2686   -0.3770   -1.9156 H   0  0  0  0  0  0  0  0  0  0  0  0
   -3.1164   -1.7997   -0.4568 H   0  0  0  0  0  0  0  0  0  0  0  0
   -2.9243   -3.8719    0.9270 H   0  0  0  0  0  0  0  0  0  0  0  0
    2.0563   -2.1462   -0.1337 H   0  0  0  0  0  0  0  0  0  0  0  0
   -0.9272   -5.5115    2.0544 H   0  0  0  0  0  0  0  0  0  0  0  0
    3.0161   -4.0382    1.1442 H   0  0  0  0  0  0  0  0  0  0  0  0
    1.5495   -5.7019    2.2265 H   0  0  0  0  0  0  0  0  0  0  0  0
    0.4285    2.9478   -0.4761 N   0  0  0  0  0  0  0  0  0  0  0  0
    0.8916    4.1895   -1.0526 C   0  0  2  0  0  0  0  0  0  0  0  0
    2.2475    3.9322   -1.6967 C   0  0  0  0  0  0  0  0  0  0  0  0
    2.9773    2.9975   -1.3730 O   0  0  0  0  0  0  0  0  0  0  0  0
    0.9879    5.2852   -0.0024 C   0  0  0  0  0  0  0  0  0  0  0  0
    0.1066    2.9538    0.4873 H   0  0  0  0  0  0  0  0  0  0  0  0
    0.1670    4.4693   -1.8250 H   0  0  0  0  0  0  0  0  0  0  0  0
    1.7094    5.0228    0.7800 H   0  0  0  0  0  0  0  0  0  0  0  0
    1.3115    6.2326   -0.4460 H   0  0  0  0  0  0  0  0  0  0  0  0
    0.0185    5.4484    0.4807 H   0  0  0  0  0  0  0  0  0  0  0  0
    2.5658    4.8941   -2.6451 N   0  0  0  0  0  0  0  0  0  0  0  0
    3.8048    4.8775   -3.3871 C   0  0  0  0  0  0  0  0  0  0  0  0
    1.8926    5.6229   -2.8630 H   0  0  0  0  0  0  0  0  0  0  0  0
    4.5548    5.4881   -2.8630 H   0  0  0  0  0  0  0  0  0  0  0  0
    4.1682    3.8426   -3.4706 H   0  0  0  0  0  0  0  0  0  0  0  0
    3.6352    5.2889   -4.3930 H   0  0  0  0  0  0  0  0  0  0  0  0
 29 30  2  0  0  0  0
 27 29  1  0  0  0  0
 28 30  1  0  0  0  0
 24 27  2  0  0  0  0
 26 28  2  0  0  0  0
 22 23  2  0  0  0  0
 23 25  1  0  0  0  0
 22 24  1  0  0  0  0
 24 26  1  0  0  0  0
 21 22  1  0  0  0  0
 25 26  1  0  0  0  0
  1  3  1  0  0  0  0
  1  7  1  0  0  0  0
  1  2  2  0  0  0  0
 42 43  1  0  0  0  0
 43 51  1  0  0  0  0
 43 44  2  0  0  0  0
  8  9  1  0  0  0  0
  9 17  1  0  0  0  0
  9 10  2  0  0  0  0
 18 19  1  0  0  0  0
 19 41  1  0  0  0  0
 19 20  2  0  0  0  0
 42 45  1  0  0  0  0
  8 11  1  0  0  0  0
 51 52  1  0  0  0  0
 18 21  1  0  0  0  0
 41 42  1  0  0  0  0
  7  8  1  0  0  0  0
 17 18  1  0  0  0  0
 29 39  1  0  0  0  0
 30 40  1  0  0  0  0
 27 37  1  0  0  0  0
 28 38  1  0  0  0  0
 23 35  1  0  0  0  0
  3  4  1  0  0  0  0
  3  5  1  0  0  0  0
  3  6  1  0  0  0  0
 45 48  1  0  0  0  0
 45 49  1  0  0  0  0
 45 50  1  0  0  0  0
 11 14  1  0  0  0  0
 11 15  1  0  0  0  0
 11 16  1  0  0  0  0
 52 54  1  0  0  0  0
 52 55  1  0  0  0  0
 52 56  1  0  0  0  0
 21 33  1  0  0  0  0
 21 34  1  0  0  0  0
 42 47  1  0  0  0  0
  8 13  1  0  0  0  0
 18 32  1  0  0  0  0
 25 36  1  0  0  0  0
 51 53  1  0  0  0  0
  7 12  1  0  0  0  0
 41 46  1  0  0  0  0
 17 31  1  0  0  0  0
M  END
$$$$

  -OEChem-05262214473D

 56 57  0     1  0  0  0  0  0999 V2000
   -2.2900    0.3401    4.1553 C   0  0  0  0  0  0  0  0  0  0  0  0
   -1.3426   -0.2746    3.6796 O   0  0  0  0  0  0  0  0  0  0  0  0
   -2.7219    0.0577    5.5560 C   0  0  0  0  0  0  0  0  0  0  0  0
   -3.4815   -0.7386    5.6094 H   0  0  0  0  0  0  0  0  0  0  0  0
   -1.8906   -0.2899    6.1903 H   0  0  0  0  0  0  0  0  0  0  0  0
   -3.1599    0.9126    6.0956 H   0  0  0  0  0  0  0  0  0  0  0  0
   -3.0397    1.3125    3.5142 N   0  0  0  0  0  0  0  0  0  0  0  0
   -2.7928    1.7385    2.1618 C   0  0  2  0  0  0  0  0  0  0  0  0
   -1.4579    1.1532    1.7206 C   0  0  0  0  0  0  0  0  0  0  0  0
   -0.5858    0.8004    2.5118 O   0  0  0  0  0  0  0  0  0  0  0  0
   -2.7841    3.2553    2.0523 C   0  0  0  0  0  0  0  0  0  0  0  0
   -3.8047    1.7484    4.0260 H   0  0  0  0  0  0  0  0  0  0  0  0
   -3.5969    1.3201    1.5466 H   0  0  0  0  0  0  0  0  0  0  0  0
   -1.9850    3.6926    2.6620 H   0  0  0  0  0  0  0  0  0  0  0  0
   -2.6246    3.5776    1.0180 H   0  0  0  0  0  0  0  0  0  0  0  0
   -3.7342    3.6765    2.3981 H   0  0  0  0  0  0  0  0  0  0  0  0
   -1.3352    1.1101    0.3372 N   0  0  0  0  0  0  0  0  0  0  0  0
   -0.1579    0.6093   -0.3265 C   0  0  2  0  0  0  0  0  0  0  0  0
    0.4015    1.7475   -1.1725 C   0  0  0  0  0  0  0  0  0  0  0  0
    0.4904    1.6898   -2.3971 O   0  0  0  0  0  0  0  0  0  0  0  0
   -0.4630   -0.6085   -1.2063 C   0  0  0  0  0  0  0  0  0  0  0  0
   -0.8729   -1.8197   -0.4046 C   0  0  0  0  0  0  0  0  0  0  0  0
   -2.1659   -2.2214   -0.1602 C   0  0  0  0  0  0  0  0  0  0  0  0
   -0.0031   -2.7495    0.2308 C   0  0  0  0  0  0  0  0  0  0  0  0
   -2.1171   -3.3592    0.5996 N   0  0  0  0  0  0  0  0  0  0  0  0
   -0.8090   -3.7051    0.8535 C   0  0  0  0  0  0  0  0  0  0  0  0
    1.3968   -2.8703    0.3362 C   0  0  0  0  0  0  0  0  0  0  0  0
   -0.2829   -4.7796    1.5793 C   0  0  0  0  0  0  0  0  0  0  0  0
    1.9372   -3.9401    1.0590 C   0  0  0  0  0  0  0  0  0  0  0  0
    1.1084   -4.8789    1.6701 C   0  0  0  0  0  0  0  0  0  0  0  0
   -2.1183    1.4068   -0.2401 H   0  0  0  0  0  0  0  0  0  0  0  0
    0.5627    0.3601    0.4613 H   0  0  0  0  0  0  0  0  0  0  0  0
    0.4072   -0.8552   -1.8295 H   0  0  0  0  0  0  0  0  0  0  0  0
   -1.2686   -0.3770   -1.9156 H   0  0  0  0  0  0  0  0  0  0  0  0
   -3.1164   -1.7997   -0.4568 H   0  0  0  0  0  0  0  0  0  0  0  0
   -2.9243   -3.8719    0.9270 H   0  0  0  0  0  0  0  0  0  0  0  0
    2.0563   -2.1462   -0.1337 H   0  0  0  0  0  0  0  0  0  0  0  0
   -0.9272   -5.5115    2.0544 H   0  0  0  0  0  0  0  0  0  0  0  0
    3.0161   -4.0382    1.1442 H   0  0  0  0  0  0  0  0  0  0  0  0
    1.5495   -5.7019    2.2265 H   0  0  0  0  0  0  0  0  0  0  0  0
    0.7411    2.8501   -0.4009 N   0  0  0  0  0  0  0  0  0  0  0  0
    1.2731    4.0738   -0.9561 C   0  0  2  0  0  0  0  0  0  0  0  0
    2.4296    3.7085   -1.8772 C   0  0  0  0  0  0  0  0  0  0  0  0
    3.0552    2.6546   -1.7828 O   0  0  0  0  0  0  0  0  0  0  0  0
    1.7298    5.0255    0.1386 C   0  0  0  0  0  0  0  0  0  0  0  0
    0.6091    2.7941    0.6047 H   0  0  0  0  0  0  0  0  0  0  0  0
    0.4687    4.5309   -1.5426 H   0  0  0  0  0  0  0  0  0  0  0  0
    2.5355    4.5848    0.7369 H   0  0  0  0  0  0  0  0  0  0  0  0
    2.1061    5.9635   -0.2827 H   0  0  0  0  0  0  0  0  0  0  0  0
    0.9038    5.2637    0.8175 H   0  0  0  0  0  0  0  0  0  0  0  0
    2.7089    4.7166   -2.7893 N   0  0  0  0  0  0  0  0  0  0  0  0
    3.7707    4.6148   -3.7631 C   0  0  0  0  0  0  0  0  0  0  0  0
    2.1265    5.5486   -2.8083 H   0  0  0  0  0  0  0  0  0  0  0  0
    4.6896    5.0583   -3.3521 H   0  0  0  0  0  0  0  0  0  0  0  0
    3.9494    3.5558   -4.0010 H   0  0  0  0  0  0  0  0  0  0  0  0
    3.4816    5.1525   -4.6781 H   0  0  0  0  0  0  0  0  0  0  0  0
 29 30  2  0  0  0  0
 27 29  1  0  0  0  0
 28 30  1  0  0  0  0
 24 27  2  0  0  0  0
 26 28  2  0  0  0  0
 22 23  2  0  0  0  0
 23 25  1  0  0  0  0
 22 24  1  0  0  0  0
 24 26  1  0  0  0  0
 21 22  1  0  0  0  0
 25 26  1  0  0  0  0
  1  3  1  0  0  0  0
  1  7  1  0  0  0  0
  1  2  2  0  0  0  0
 42 43  1  0  0  0  0
 43 51  1  0  0  0  0
 43 44  2  0  0  0  0
  8  9  1  0  0  0  0
  9 17  1  0  0  0  0
  9 10  2  0  0  0  0
 18 19  1  0  0  0  0
 19 41  1  0  0  0  0
 19 20  2  0  0  0  0
 42 45  1  0  0  0  0
  8 11  1  0  0  0  0
 51 52  1  0  0  0  0
 18 21  1  0  0  0  0
 41 42  1  0  0  0  0
  7  8  1  0  0  0  0
 17 18  1  0  0  0  0
 29 39  1  0  0  0  0
 30 40  1  0  0  0  0
 27 37  1  0  0  0  0
 28 38  1  0  0  0  0
 23 35  1  0  0  0  0
  3  4  1  0  0  0  0
  3  5  1  0  0  0  0
  3  6  1  0  0  0  0
 45 48  1  0  0  0  0
 45 49  1  0  0  0  0
 45 50  1  0  0  0  0
 11 14  1  0  0  0  0
 11 15  1  0  0  0  0
 11 16  1  0  0  0  0
 52 54  1  0  0  0  0
 52 55  1  0  0  0  0
 52 56  1  0  0  0  0
 21 33  1  0  0  0  0
 21 34  1  0  0  0  0
 42 47  1  0  0  0  0
  8 13  1  0  0  0  0
 18 32  1  0  0  0  0
 25 36  1  0  0  0  0
 51 53  1  0  0  0  0
  7 12  1  0  0  0  0
 41 46  1  0  0  0  0
 17 31  1  0  0  0  0
M  END
$$$$

  -OEChem-05262214473D

 56 57  0     1  0  0  0  0  0999 V2000
   -2.2900    0.3401    4.1553 C   0  0  0  0  0  0  0  0  0  0  0  0
   -1.3426   -0.2746    3.6796 O   0  0  0  0  0  0  0  0  0  0  0  0
   -2.7219    0.0577    5.5560 C   0  0  0  0  0  0  0  0  0  0  0  0
   -3.4815   -0.7386    5.6094 H   0  0  0  0  0  0  0  0  0  0  0  0
   -1.8906   -0.2899    6.1903 H   0  0  0  0  0  0  0  0  0  0  0  0
   -3.1599    0.9126    6.0956 H   0  0  0  0  0  0  0  0  0  0  0  0
   -3.0397    1.3125    3.5142 N   0  0  0  0  0  0  0  0  0  0  0  0
   -2.7928    1.7385    2.1618 C   0  0  2  0  0  0  0  0  0  0  0  0
   -1.4579    1.1532    1.7206 C   0  0  0  0  0  0  0  0  0  0  0  0
   -0.5858    0.8004    2.5118 O   0  0  0  0  0  0  0  0  0  0  0  0
   -2.7841    3.2553    2.0523 C   0  0  0  0  0  0  0  0  0  0  0  0
   -3.8047    1.7484    4.0260 H   0  0  0  0  0  0  0  0  0  0  0  0
   -3.5969    1.3201    1.5466 H   0  0  0  0  0  0  0  0  0  0  0  0
   -1.9850    3.6926    2.6620 H   0  0  0  0  0  0  0  0  0  0  0  0
   -2.6246    3.5776    1.0180 H   0  0  0  0  0  0  0  0  0  0  0  0
   -3.7342    3.6765    2.3981 H   0  0  0  0  0  0  0  0  0  0  0  0
   -1.3352    1.1101    0.3372 N   0  0  0  0  0  0  0  0  0  0  0  0
   -0.1579    0.6093   -0.3265 C   0  0  2  0  0  0  0  0  0  0  0  0
    0.4015    1.7475   -1.1725 C   0  0  0  0  0  0  0  0  0  0  0  0
    0.2508    1.8123   -2.3907 O   0  0  0  0  0  0  0  0  0  0  0  0
   -0.4630   -0.6085   -1.2063 C   0  0  0  0  0  0  0  0  0  0  0  0
   -0.8729   -1.8197   -0.4046 C   0  0  0  0  0  0  0  0  0  0  0  0
   -2.1659   -2.2214   -0.1602 C   0  0  0  0  0  0  0  0  0  0  0  0
   -0.0031   -2.7495    0.2308 C   0  0  0  0  0  0  0  0  0  0  0  0
   -2.1171   -3.3592    0.5996 N   0  0  0  0  0  0  0  0  0  0  0  0
   -0.8090   -3.7051    0.8535 C   0  0  0  0  0  0  0  0  0  0  0  0
    1.3968   -2.8703    0.3362 C   0  0  0  0  0  0  0  0  0  0  0  0
   -0.2829   -4.7796    1.5793 C   0  0  0  0  0  0  0  0  0  0  0  0
    1.9372   -3.9401    1.0590 C   0  0  0  0  0  0  0  0  0  0  0  0
    1.1084   -4.8789    1.6701 C   0  0  0  0  0  0  0  0  0  0  0  0
   -2.1183    1.4068   -0.2401 H   0  0  0  0  0  0  0  0  0  0  0  0
    0.5627    0.3601    0.4613 H   0  0  0  0  0  0  0  0  0  0  0  0
    0.4072   -0.8552   -1.8295 H   0  0  0  0  0  0  0  0  0  0  0  0
   -1.2686   -0.3770   -1.9156 H   0  0  0  0  0  0  0  0  0  0  0  0
   -3.1164   -1.7997   -0.4568 H   0  0  0  0  0  0  0  0  0  0  0  0
   -2.9243   -3.8719    0.9270 H   0  0  0  0  0  0  0  0  0  0  0  0
    2.0563   -2.1462   -0.1337 H   0  0  0  0  0  0  0  0  0  0  0  0
   -0.9272   -5.5115    2.0544 H   0  0  0  0  0  0  0  0  0  0  0  0
    3.0161   -4.0382    1.1442 H   0  0  0  0  0  0  0  0  0  0  0  0
    1.5495   -5.7019    2.2265 H   0  0  0  0  0  0  0  0  0  0  0  0
    1.0435    2.7037   -0.3979 N   0  0  0  0  0  0  0  0  0  0  0  0
    1.6435    3.8981   -0.9476 C   0  0  2  0  0  0  0  0  0  0  0  0
    2.5385    3.4834   -2.1080 C   0  0  0  0  0  0  0  0  0  0  0  0
    3.0020    2.3511   -2.2263 O   0  0  0  0  0  0  0  0  0  0  0  0
    2.4363    4.6547    0.1068 C   0  0  0  0  0  0  0  0  0  0  0  0
    1.0941    2.5566    0.6059 H   0  0  0  0  0  0  0  0  0  0  0  0
    0.8235    4.5203   -1.3223 H   0  0  0  0  0  0  0  0  0  0  0  0
    3.2623    4.0471    0.4941 H   0  0  0  0  0  0  0  0  0  0  0  0
    2.8665    5.5740   -0.3040 H   0  0  0  0  0  0  0  0  0  0  0  0
    1.7976    4.9261    0.9543 H   0  0  0  0  0  0  0  0  0  0  0  0
    2.7938    4.5383   -2.9730 N   0  0  0  0  0  0  0  0  0  0  0  0
    3.6273    4.4017   -4.1446 C   0  0  0  0  0  0  0  0  0  0  0  0
    2.3523    5.4381   -2.8078 H   0  0  0  0  0  0  0  0  0  0  0  0
    4.6635    4.6703   -3.8914 H   0  0  0  0  0  0  0  0  0  0  0  0
    3.5945    3.3606   -4.4984 H   0  0  0  0  0  0  0  0  0  0  0  0
    3.2585    5.0699   -4.9367 H   0  0  0  0  0  0  0  0  0  0  0  0
 29 30  2  0  0  0  0
 27 29  1  0  0  0  0
 28 30  1  0  0  0  0
 24 27  2  0  0  0  0
 26 28  2  0  0  0  0
 22 23  2  0  0  0  0
 23 25  1  0  0  0  0
 22 24  1  0  0  0  0
 24 26  1  0  0  0  0
 21 22  1  0  0  0  0
 25 26  1  0  0  0  0
  1  3  1  0  0  0  0
  1  7  1  0  0  0  0
  1  2  2  0  0  0  0
 42 43  1  0  0  0  0
 43 51  1  0  0  0  0
 43 44  2  0  0  0  0
  8  9  1  0  0  0  0
  9 17  1  0  0  0  0
  9 10  2  0  0  0  0
 18 19  1  0  0  0  0
 19 41  1  0  0  0  0
 19 20  2  0  0  0  0
 42 45  1  0  0  0  0
  8 11  1  0  0  0  0
 51 52  1  0  0  0  0
 18 21  1  0  0  0  0
 41 42  1  0  0  0  0
  7  8  1  0  0  0  0
 17 18  1  0  0  0  0
 29 39  1  0  0  0  0
 30 40  1  0  0  0  0
 27 37  1  0  0  0  0
 28 38  1  0  0  0  0
 23 35  1  0  0  0  0
  3  4  1  0  0  0  0
  3  5  1  0  0  0  0
  3  6  1  0  0  0  0
 45 48  1  0  0  0  0
 45 49  1  0  0  0  0
 45 50  1  0  0  0  0
 11 14  1  0  0  0  0
 11 15  1  0  0  0  0
 11 16  1  0  0  0  0
 52 54  1  0  0  0  0
 52 55  1  0  0  0  0
 52 56  1  0  0  0  0
 21 33  1  0  0  0  0
 21 34  1  0  0  0  0
 42 47  1  0  0  0  0
  8 13  1  0  0  0  0
 18 32  1  0  0  0  0
 25 36  1  0  0  0  0
 51 53  1  0  0  0  0
  7 12  1  0  0  0  0
 41 46  1  0  0  0  0
 17 31  1  0  0  0  0
M  END
$$$$

  -OEChem-05262214473D

 56 57  0     1  0  0  0  0  0999 V2000
   -2.2900    0.3401    4.1553 C   0  0  0  0  0  0  0  0  0  0  0  0
   -1.3426   -0.2746    3.6796 O   0  0  0  0  0  0  0  0  0  0  0  0
   -2.7219    0.0577    5.5560 C   0  0  0  0  0  0  0  0  0  0  0  0
   -3.4815   -0.7386    5.6094 H   0  0  0  0  0  0  0  0  0  0  0  0
   -1.8906   -0.2899    6.1903 H   0  0  0  0  0  0  0  0  0  0  0  0
   -3.1599    0.9126    6.0956 H   0  0  0  0  0  0  0  0  0  0  0  0
   -3.0397    1.3125    3.5142 N   0  0  0  0  0  0  0  0  0  0  0  0
   -2.7928    1.7385    2.1618 C   0  0  2  0  0  0  0  0  0  0  0  0
   -1.4579    1.1532    1.7206 C   0  0  0  0  0  0  0  0  0  0  0  0
   -0.5858    0.8004    2.5118 O   0  0  0  0  0  0  0  0  0  0  0  0
   -2.7841    3.2553    2.0523 C   0  0  0  0  0  0  0  0  0  0  0  0
   -3.8047    1.7484    4.0260 H   0  0  0  0  0  0  0  0  0  0  0  0
   -3.5969    1.3201    1.5466 H   0  0  0  0  0  0  0  0  0  0  0  0
   -1.9850    3.6926    2.6620 H   0  0  0  0  0  0  0  0  0  0  0  0
   -2.6246    3.5776    1.0180 H   0  0  0  0  0  0  0  0  0  0  0  0
   -3.7342    3.6765    2.3981 H   0  0  0  0  0  0  0  0  0  0  0  0
   -1.3352    1.1101    0.3372 N   0  0  0  0  0  0  0  0  0  0  0  0
   -0.1579    0.6093   -0.3265 C   0  0  2  0  0  0  0  0  0  0  0  0
    0.4015    1.7475   -1.1725 C   0  0  0  0  0  0  0  0  0  0  0  0
    0.0382    1.9644   -2.3266 O   0  0  0  0  0  0  0  0  0  0  0  0
   -0.4630   -0.6085   -1.2063 C   0  0  0  0  0  0  0  0  0  0  0  0
   -0.8729   -1.8197   -0.4046 C   0  0  0  0  0  0  0  0  0  0  0  0
   -2.1659   -2.2214   -0.1602 C   0  0  0  0  0  0  0  0  0  0  0  0
   -0.0031   -2.7495    0.2308 C   0  0  0  0  0  0  0  0  0  0  0  0
   -2.1171   -3.3592    0.5996 N   0  0  0  0  0  0  0  0  0  0  0  0
   -0.8090   -3.7051    0.8535 C   0  0  0  0  0  0  0  0  0  0  0  0
    1.3968   -2.8703    0.3362 C   0  0  0  0  0  0  0  0  0  0  0  0
   -0.2829   -4.7796    1.5793 C   0  0  0  0  0  0  0  0  0  0  0  0
    1.9372   -3.9401    1.0590 C   0  0  0  0  0  0  0  0  0  0  0  0
    1.1084   -4.8789    1.6701 C   0  0  0  0  0  0  0  0  0  0  0  0
   -2.1183    1.4068   -0.2401 H   0  0  0  0  0  0  0  0  0  0  0  0
    0.5627    0.3601    0.4613 H   0  0  0  0  0  0  0  0  0  0  0  0
    0.4072   -0.8552   -1.8295 H   0  0  0  0  0  0  0  0  0  0  0  0
   -1.2686   -0.3770   -1.9156 H   0  0  0  0  0  0  0  0  0  0  0  0
   -3.1164   -1.7997   -0.4568 H   0  0  0  0  0  0  0  0  0  0  0  0
   -2.9243   -3.8719    0.9270 H   0  0  0  0  0  0  0  0  0  0  0  0
    2.0563   -2.1462   -0.1337 H   0  0  0  0  0  0  0  0  0  0  0  0
   -0.9272   -5.5115    2.0544 H   0  0  0  0  0  0  0  0  0  0  0  0
    3.0161   -4.0382    1.1442 H   0  0  0  0  0  0  0  0  0  0  0  0
    1.5495   -5.7019    2.2265 H   0  0  0  0  0  0  0  0  0  0  0  0
    1.3151    2.5186   -0.4674 N   0  0  0  0  0  0  0  0  0  0  0  0
    1.9777    3.6743   -1.0277 C   0  0  2  0  0  0  0  0  0  0  0  0
    2.5667    3.2723   -2.3734 C   0  0  0  0  0  0  0  0  0  0  0  0
    2.8213    2.1077   -2.6732 O   0  0  0  0  0  0  0  0  0  0  0  0
    3.0593    4.1980   -0.0956 C   0  0  0  0  0  0  0  0  0  0  0  0
    1.5288    2.2574    0.4907 H   0  0  0  0  0  0  0  0  0  0  0  0
    1.2073    4.4381   -1.1791 H   0  0  0  0  0  0  0  0  0  0  0  0
    3.8402    3.4464    0.0680 H   0  0  0  0  0  0  0  0  0  0  0  0
    3.5409    5.0905   -0.5086 H   0  0  0  0  0  0  0  0  0  0  0  0
    2.6389    4.4587    0.8817 H   0  0  0  0  0  0  0  0  0  0  0  0
    2.8147    4.3714   -3.1838 N   0  0  0  0  0  0  0  0  0  0  0  0
    3.3845    4.2526   -4.5057 C   0  0  0  0  0  0  0  0  0  0  0  0
    2.5546    5.2988   -2.8614 H   0  0  0  0  0  0  0  0  0  0  0  0
    4.4784    4.3504   -4.4442 H   0  0  0  0  0  0  0  0  0  0  0  0
    3.1275    3.2703   -4.9287 H   0  0  0  0  0  0  0  0  0  0  0  0
    2.9812    5.0467   -5.1513 H   0  0  0  0  0  0  0  0  0  0  0  0
 29 30  2  0  0  0  0
 27 29  1  0  0  0  0
 28 30  1  0  0  0  0
 24 27  2  0  0  0  0
 26 28  2  0  0  0  0
 22 23  2  0  0  0  0
 23 25  1  0  0  0  0
 22 24  1  0  0  0  0
 24 26  1  0  0  0  0
 21 22  1  0  0  0  0
 25 26  1  0  0  0  0
  1  3  1  0  0  0  0
  1  7  1  0  0  0  0
  1  2  2  0  0  0  0
 42 43  1  0  0  0  0
 43 51  1  0  0  0  0
 43 44  2  0  0  0  0
  8  9  1  0  0  0  0
  9 17  1  0  0  0  0
  9 10  2  0  0  0  0
 18 19  1  0  0  0  0
 19 41  1  0  0  0  0
 19 20  2  0  0  0  0
 42 45  1  0  0  0  0
  8 11  1  0  0  0  0
 51 52  1  0  0  0  0
 18 21  1  0  0  0  0
 41 42  1  0  0  0  0
  7  8  1  0  0  0  0
 17 18  1  0  0  0  0
 29 39  1  0  0  0  0
 30 40  1  0  0  0  0
 27 37  1  0  0  0  0
 28 38  1  0  0  0  0
 23 35  1  0  0  0  0
  3  4  1  0  0  0  0
  3  5  1  0  0  0  0
  3  6  1  0  0  0  0
 45 48  1  0  0  0  0
 45 49  1  0  0  0  0
 45 50  1  0  0  0  0
 11 14  1  0  0  0  0
 11 15  1  0  0  0  0
 11 16  1  0  0  0  0
 52 54  1  0  0  0  0
 52 55  1  0  0  0  0
 52 56  1  0  0  0  0
 21 33  1  0  0  0  0
 21 34  1  0  0  0  0
 42 47  1  0  0  0  0
  8 13  1  0  0  0  0
 18 32  1  0  0  0  0
 25 36  1  0  0  0  0
 51 53  1  0  0  0  0
  7 12  1  0  0  0  0
 41 46  1  0  0  0  0
 17 31  1  0  0  0  0
M  END
$$$$

  -OEChem-05262214473D

 56 57  0     1  0  0  0  0  0999 V2000
   -2.2900    0.3401    4.1553 C   0  0  0  0  0  0  0  0  0  0  0  0
   -1.3426   -0.2746    3.6796 O   0  0  0  0  0  0  0  0  0  0  0  0
   -2.7219    0.0577    5.5560 C   0  0  0  0  0  0  0  0  0  0  0  0
   -3.4815   -0.7386    5.6094 H   0  0  0  0  0  0  0  0  0  0  0  0
   -1.8906   -0.2899    6.1903 H   0  0  0  0  0  0  0  0  0  0  0  0
   -3.1599    0.9126    6.0956 H   0  0  0  0  0  0  0  0  0  0  0  0
   -3.0397    1.3125    3.5142 N   0  0  0  0  0  0  0  0  0  0  0  0
   -2.7928    1.7385    2.1618 C   0  0  2  0  0  0  0  0  0  0  0  0
   -1.4579    1.1532    1.7206 C   0  0  0  0  0  0  0  0  0  0  0  0
   -0.5858    0.8004    2.5118 O   0  0  0  0  0  0  0  0  0  0  0  0
   -2.7841    3.2553    2.0523 C   0  0  0  0  0  0  0  0  0  0  0  0
   -3.8047    1.7484    4.0260 H   0  0  0  0  0  0  0  0  0  0  0  0
   -3.5969    1.3201    1.5466 H   0  0  0  0  0  0  0  0  0  0  0  0
   -1.9850    3.6926    2.6620 H   0  0  0  0  0  0  0  0  0  0  0  0
   -2.6246    3.5776    1.0180 H   0  0  0  0  0  0  0  0  0  0  0  0
   -3.7342    3.6765    2.3981 H   0  0  0  0  0  0  0  0  0  0  0  0
   -1.3352    1.1101    0.3372 N   0  0  0  0  0  0  0  0  0  0  0  0
   -0.1579    0.6093   -0.3265 C   0  0  2  0  0  0  0  0  0  0  0  0
    0.4015    1.7475   -1.1725 C   0  0  0  0  0  0  0  0  0  0  0  0
   -0.1329    2.1358   -2.2091 O   0  0  0  0  0  0  0  0  0  0  0  0
   -0.4630   -0.6085   -1.2063 C   0  0  0  0  0  0  0  0  0  0  0  0
   -0.8729   -1.8197   -0.4046 C   0  0  0  0  0  0  0  0  0  0  0  0
   -2.1659   -2.2214   -0.1602 C   0  0  0  0  0  0  0  0  0  0  0  0
   -0.0031   -2.7495    0.2308 C   0  0  0  0  0  0  0  0  0  0  0  0
   -2.1171   -3.3592    0.5996 N   0  0  0  0  0  0  0  0  0  0  0  0
   -0.8090   -3.7051    0.8535 C   0  0  0  0  0  0  0  0  0  0  0  0
    1.3968   -2.8703    0.3362 C   0  0  0  0  0  0  0  0  0  0  0  0
   -0.2829   -4.7796    1.5793 C   0  0  0  0  0  0  0  0  0  0  0  0
    1.9372   -3.9401    1.0590 C   0  0  0  0  0  0  0  0  0  0  0  0
    1.1084   -4.8789    1.6701 C   0  0  0  0  0  0  0  0  0  0  0  0
   -2.1183    1.4068   -0.2401 H   0  0  0  0  0  0  0  0  0  0  0  0
    0.5627    0.3601    0.4613 H   0  0  0  0  0  0  0  0  0  0  0  0
    0.4072   -0.8552   -1.8295 H   0  0  0  0  0  0  0  0  0  0  0  0
   -1.2686   -0.3770   -1.9156 H   0  0  0  0  0  0  0  0  0  0  0  0
   -3.1164   -1.7997   -0.4568 H   0  0  0  0  0  0  0  0  0  0  0  0
   -2.9243   -3.8719    0.9270 H   0  0  0  0  0  0  0  0  0  0  0  0
    2.0563   -2.1462   -0.1337 H   0  0  0  0  0  0  0  0  0  0  0  0
   -0.9272   -5.5115    2.0544 H   0  0  0  0  0  0  0  0  0  0  0  0
    3.0161   -4.0382    1.1442 H   0  0  0  0  0  0  0  0  0  0  0  0
    1.5495   -5.7019    2.2265 H   0  0  0  0  0  0  0  0  0  0  0  0
    1.5375    2.3073   -0.6046 N   0  0  0  0  0  0  0  0  0  0  0  0
    2.2530    3.4178   -1.1909 C   0  0  2  0  0  0  0  0  0  0  0  0
    2.5124    3.0895   -2.6553 C   0  0  0  0  0  0  0  0  0  0  0  0
    2.5255    1.9410   -3.0931 O   0  0  0  0  0  0  0  0  0  0  0  0
    3.5564    3.6867   -0.4550 C   0  0  0  0  0  0  0  0  0  0  0  0
    1.8834    1.9169    0.2670 H   0  0  0  0  0  0  0  0  0  0  0  0
    1.5938    4.2901   -1.1227 H   0  0  0  0  0  0  0  0  0  0  0  0
    4.2298    2.8237   -0.5122 H   0  0  0  0  0  0  0  0  0  0  0  0
    4.0834    4.5461   -0.8824 H   0  0  0  0  0  0  0  0  0  0  0  0
    3.3703    3.8932    0.6045 H   0  0  0  0  0  0  0  0  0  0  0  0
    2.7702    4.2271   -3.4073 N   0  0  0  0  0  0  0  0  0  0  0  0
    3.0587    4.1778   -4.8217 C   0  0  0  0  0  0  0  0  0  0  0  0
    2.7197    5.1403   -2.9654 H   0  0  0  0  0  0  0  0  0  0  0  0
    4.1468    4.1205   -4.9727 H   0  0  0  0  0  0  0  0  0  0  0  0
    2.5802    3.2910   -5.2627 H   0  0  0  0  0  0  0  0  0  0  0  0
    2.6686    5.0845   -5.3071 H   0  0  0  0  0  0  0  0  0  0  0  0
 29 30  2  0  0  0  0
 27 29  1  0  0  0  0
 28 30  1  0  0  0  0
 24 27  2  0  0  0  0
 26 28  2  0  0  0  0
 22 23  2  0  0  0  0
 23 25  1  0  0  0  0
 22 24  1  0  0  0  0
 24 26  1  0  0  0  0
 21 22  1  0  0  0  0
 25 26  1  0  0  0  0
  1  3  1  0  0  0  0
  1  7  1  0  0  0  0
  1  2  2  0  0  0  0
 42 43  1  0  0  0  0
 43 51  1  0  0  0  0
 43 44  2  0  0  0  0
  8  9  1  0  0  0  0
  9 17  1  0  0  0  0
  9 10  2  0  0  0  0
 18 19  1  0  0  0  0
 19 41  1  0  0  0  0
 19 20  2  0  0  0  0
 42 45  1  0  0  0  0
  8 11  1  0  0  0  0
 51 52  1  0  0  0  0
 18 21  1  0  0  0  0
 41 42  1  0  0  0  0
  7  8  1  0  0  0  0
 17 18  1  0  0  0  0
 29 39  1  0  0  0  0
 30 40  1  0  0  0  0
 27 37  1  0  0  0  0
 28 38  1  0  0  0  0
 23 35  1  0  0  0  0
  3  4  1  0  0  0  0
  3  5  1  0  0  0  0
  3  6  1  0  0  0  0
 45 48  1  0  0  0  0
 45 49  1  0  0  0  0
 45 50  1  0  0  0  0
 11 14  1  0  0  0  0
 11 15  1  0  0  0  0
 11 16  1  0  0  0  0
 52 54  1  0  0  0  0
 52 55  1  0  0  0  0
 52 56  1  0  0  0  0
 21 33  1  0  0  0  0
 21 34  1  0  0  0  0
 42 47  1  0  0  0  0
  8 13  1  0  0  0  0
 18 32  1  0  0  0  0
 25 36  1  0  0  0  0
 51 53  1  0  0  0  0
  7 12  1  0  0  0  0
 41 46  1  0  0  0  0
 17 31  1  0  0  0  0
M  END
$$$$

  -OEChem-05262214473D

 56 57  0     1  0  0  0  0  0999 V2000
   -2.2900    0.3401    4.1553 C   0  0  0  0  0  0  0  0  0  0  0  0
   -1.3426   -0.2746    3.6796 O   0  0  0  0  0  0  0  0  0  0  0  0
   -2.7219    0.0577    5.5560 C   0  0  0  0  0  0  0  0  0  0  0  0
   -3.4815   -0.7386    5.6094 H   0  0  0  0  0  0  0  0  0  0  0  0
   -1.8906   -0.2899    6.1903 H   0  0  0  0  0  0  0  0  0  0  0  0
   -3.1599    0.9126    6.0956 H   0  0  0  0  0  0  0  0  0  0  0  0
   -3.0397    1.3125    3.5142 N   0  0  0  0  0  0  0  0  0  0  0  0
   -2.7928    1.7385    2.1618 C   0  0  2  0  0  0  0  0  0  0  0  0
   -1.4579    1.1532    1.7206 C   0  0  0  0  0  0  0  0  0  0  0  0
   -0.5858    0.8004    2.5118 O   0  0  0  0  0  0  0  0  0  0  0  0
   -2.7841    3.2553    2.0523 C   0  0  0  0  0  0  0  0  0  0  0  0
   -3.8047    1.7484    4.0260 H   0  0  0  0  0  0  0  0  0  0  0  0
   -3.5969    1.3201    1.5466 H   0  0  0  0  0  0  0  0  0  0  0  0
   -1.9850    3.6926    2.6620 H   0  0  0  0  0  0  0  0  0  0  0  0
   -2.6246    3.5776    1.0180 H   0  0  0  0  0  0  0  0  0  0  0  0
   -3.7342    3.6765    2.3981 H   0  0  0  0  0  0  0  0  0  0  0  0
   -1.3352    1.1101    0.3372 N   0  0  0  0  0  0  0  0  0  0  0  0
   -0.1579    0.6093   -0.3265 C   0  0  2  0  0  0  0  0  0  0  0  0
    0.4015    1.7475   -1.1725 C   0  0  0  0  0  0  0  0  0  0  0  0
   -0.2509    2.3148   -2.0463 O   0  0  0  0  0  0  0  0  0  0  0  0
   -0.4630   -0.6085   -1.2063 C   0  0  0  0  0  0  0  0  0  0  0  0
   -0.8729   -1.8197   -0.4046 C   0  0  0  0  0  0  0  0  0  0  0  0
   -2.1659   -2.2214   -0.1602 C   0  0  0  0  0  0  0  0  0  0  0  0
   -0.0031   -2.7495    0.2308 C   0  0  0  0  0  0  0  0  0  0  0  0
   -2.1171   -3.3592    0.5996 N   0  0  0  0  0  0  0  0  0  0  0  0
   -0.8090   -3.7051    0.8535 C   0  0  0  0  0  0  0  0  0  0  0  0
    1.3968   -2.8703    0.3362 C   0  0  0  0  0  0  0  0  0  0  0  0
   -0.2829   -4.7796    1.5793 C   0  0  0  0  0  0  0  0  0  0  0  0
    1.9372   -3.9401    1.0590 C   0  0  0  0  0  0  0  0  0  0  0  0
    1.1084   -4.8789    1.6701 C   0  0  0  0  0  0  0  0  0  0  0  0
   -2.1183    1.4068   -0.2401 H   0  0  0  0  0  0  0  0  0  0  0  0
    0.5627    0.3601    0.4613 H   0  0  0  0  0  0  0  0  0  0  0  0
    0.4072   -0.8552   -1.8295 H   0  0  0  0  0  0  0  0  0  0  0  0
   -1.2686   -0.3770   -1.9156 H   0  0  0  0  0  0  0  0  0  0  0  0
   -3.1164   -1.7997   -0.4568 H   0  0  0  0  0  0  0  0  0  0  0  0
   -2.9243   -3.8719    0.9270 H   0  0  0  0  0  0  0  0  0  0  0  0
    2.0563   -2.1462   -0.1337 H   0  0  0  0  0  0  0  0  0  0  0  0
   -0.9272   -5.5115    2.0544 H   0  0  0  0  0  0  0  0  0  0  0  0
    3.0161   -4.0382    1.1442 H   0  0  0  0  0  0  0  0  0  0  0  0
    1.5495   -5.7019    2.2265 H   0  0  0  0  0  0  0  0  0  0  0  0
    1.6954    2.0844   -0.8001 N   0  0  0  0  0  0  0  0  0  0  0  0
    2.4504    3.1459   -1.4260 C   0  0  2  0  0  0  0  0  0  0  0  0
    2.3792    2.9476   -2.9343 C   0  0  0  0  0  0  0  0  0  0  0  0
    2.1346    1.8623   -3.4574 O   0  0  0  0  0  0  0  0  0  0  0  0
    3.8936    3.1555   -0.9466 C   0  0  0  0  0  0  0  0  0  0  0  0
    2.1338    1.5583   -0.0499 H   0  0  0  0  0  0  0  0  0  0  0  0
    1.9569    4.0862   -1.1570 H   0  0  0  0  0  0  0  0  0  0  0  0
    4.4045    2.2213   -1.2071 H   0  0  0  0  0  0  0  0  0  0  0  0
    4.4569    3.9778   -1.4000 H   0  0  0  0  0  0  0  0  0  0  0  0
    3.9420    3.2684    0.1418 H   0  0  0  0  0  0  0  0  0  0  0  0
    2.6633    4.1154   -3.6283 N   0  0  0  0  0  0  0  0  0  0  0  0
    2.6723    4.1824   -5.0710 C   0  0  0  0  0  0  0  0  0  0  0  0
    2.8363    4.9734   -3.1129 H   0  0  0  0  0  0  0  0  0  0  0  0
    3.6914    3.9963   -5.4409 H   0  0  0  0  0  0  0  0  0  0  0  0
    1.9901    3.4213   -5.4776 H   0  0  0  0  0  0  0  0  0  0  0  0
    2.3419    5.1808   -5.3937 H   0  0  0  0  0  0  0  0  0  0  0  0
 29 30  2  0  0  0  0
 27 29  1  0  0  0  0
 28 30  1  0  0  0  0
 24 27  2  0  0  0  0
 26 28  2  0  0  0  0
 22 23  2  0  0  0  0
 23 25  1  0  0  0  0
 22 24  1  0  0  0  0
 24 26  1  0  0  0  0
 21 22  1  0  0  0  0
 25 26  1  0  0  0  0
  1  3  1  0  0  0  0
  1  7  1  0  0  0  0
  1  2  2  0  0  0  0
 42 43  1  0  0  0  0
 43 51  1  0  0  0  0
 43 44  2  0  0  0  0
  8  9  1  0  0  0  0
  9 17  1  0  0  0  0
  9 10  2  0  0  0  0
 18 19  1  0  0  0  0
 19 41  1  0  0  0  0
 19 20  2  0  0  0  0
 42 45  1  0  0  0  0
  8 11  1  0  0  0  0
 51 52  1  0  0  0  0
 18 21  1  0  0  0  0
 41 42  1  0  0  0  0
  7  8  1  0  0  0  0
 17 18  1  0  0  0  0
 29 39  1  0  0  0  0
 30 40  1  0  0  0  0
 27 37  1  0  0  0  0
 28 38  1  0  0  0  0
 23 35  1  0  0  0  0
  3  4  1  0  0  0  0
  3  5  1  0  0  0  0
  3  6  1  0  0  0  0
 45 48  1  0  0  0  0
 45 49  1  0  0  0  0
 45 50  1  0  0  0  0
 11 14  1  0  0  0  0
 11 15  1  0  0  0  0
 11 16  1  0  0  0  0
 52 54  1  0  0  0  0
 52 55  1  0  0  0  0
 52 56  1  0  0  0  0
 21 33  1  0  0  0  0
 21 34  1  0  0  0  0
 42 47  1  0  0  0  0
  8 13  1  0  0  0  0
 18 32  1  0  0  0  0
 25 36  1  0  0  0  0
 51 53  1  0  0  0  0
  7 12  1  0  0  0  0
 41 46  1  0  0  0  0
 17 31  1  0  0  0  0
M  END
$$$$

  -OEChem-05262214473D

 56 57  0     1  0  0  0  0  0999 V2000
   -2.2900    0.3401    4.1553 C   0  0  0  0  0  0  0  0  0  0  0  0
   -1.3426   -0.2746    3.6796 O   0  0  0  0  0  0  0  0  0  0  0  0
   -2.7219    0.0577    5.5560 C   0  0  0  0  0  0  0  0  0  0  0  0
   -3.4815   -0.7386    5.6094 H   0  0  0  0  0  0  0  0  0  0  0  0
   -1.8906   -0.2899    6.1903 H   0  0  0  0  0  0  0  0  0  0  0  0
   -3.1599    0.9126    6.0956 H   0  0  0  0  0  0  0  0  0  0  0  0
   -3.0397    1.3125    3.5142 N   0  0  0  0  0  0  0  0  0  0  0  0
   -2.7928    1.7385    2.1618 C   0  0  2  0  0  0  0  0  0  0  0  0
   -1.4579    1.1532    1.7206 C   0  0  0  0  0  0  0  0  0  0  0  0
   -0.5858    0.8004    2.5118 O   0  0  0  0  0  0  0  0  0  0  0  0
   -2.7841    3.2553    2.0523 C   0  0  0  0  0  0  0  0  0  0  0  0
   -3.8047    1.7484    4.0260 H   0  0  0  0  0  0  0  0  0  0  0  0
   -3.5969    1.3201    1.5466 H   0  0  0  0  0  0  0  0  0  0  0  0
   -1.9850    3.6926    2.6620 H   0  0  0  0  0  0  0  0  0  0  0  0
   -2.6246    3.5776    1.0180 H   0  0  0  0  0  0  0  0  0  0  0  0
   -3.7342    3.6765    2.3981 H   0  0  0  0  0  0  0  0  0  0  0  0
   -1.3352    1.1101    0.3372 N   0  0  0  0  0  0  0  0  0  0  0  0
   -0.1579    0.6093   -0.3265 C   0  0  2  0  0  0  0  0  0  0  0  0
    0.4015    1.7475   -1.1725 C   0  0  0  0  0  0  0  0  0  0  0  0
   -0.3076    2.4892   -1.8493 O   0  0  0  0  0  0  0  0  0  0  0  0
   -0.4630   -0.6085   -1.2063 C   0  0  0  0  0  0  0  0  0  0  0  0
   -0.8729   -1.8197   -0.4046 C   0  0  0  0  0  0  0  0  0  0  0  0
   -2.1659   -2.2214   -0.1602 C   0  0  0  0  0  0  0  0  0  0  0  0
   -0.0031   -2.7495    0.2308 C   0  0  0  0  0  0  0  0  0  0  0  0
   -2.1171   -3.3592    0.5996 N   0  0  0  0  0  0  0  0  0  0  0  0
   -0.8090   -3.7051    0.8535 C   0  0  0  0  0  0  0  0  0  0  0  0
    1.3968   -2.8703    0.3362 C   0  0  0  0  0  0  0  0  0  0  0  0
   -0.2829   -4.7796    1.5793 C   0  0  0  0  0  0  0  0  0  0  0  0
    1.9372   -3.9401    1.0590 C   0  0  0  0  0  0  0  0  0  0  0  0
    1.1084   -4.8789    1.6701 C   0  0  0  0  0  0  0  0  0  0  0  0
   -2.1183    1.4068   -0.2401 H   0  0  0  0  0  0  0  0  0  0  0  0
    0.5627    0.3601    0.4613 H   0  0  0  0  0  0  0  0  0  0  0  0
    0.4072   -0.8552   -1.8295 H   0  0  0  0  0  0  0  0  0  0  0  0
   -1.2686   -0.3770   -1.9156 H   0  0  0  0  0  0  0  0  0  0  0  0
   -3.1164   -1.7997   -0.4568 H   0  0  0  0  0  0  0  0  0  0  0  0
   -2.9243   -3.8719    0.9270 H   0  0  0  0  0  0  0  0  0  0  0  0
    2.0563   -2.1462   -0.1337 H   0  0  0  0  0  0  0  0  0  0  0  0
   -0.9272   -5.5115    2.0544 H   0  0  0  0  0  0  0  0  0  0  0  0
    3.0161   -4.0382    1.1442 H   0  0  0  0  0  0  0  0  0  0  0  0
    1.5495   -5.7019    2.2265 H   0  0  0  0  0  0  0  0  0  0  0  0
    1.7782    1.8649   -1.0407 N   0  0  0  0  0  0  0  0  0  0  0  0
    2.5567    2.8773   -1.7171 C   0  0  2  0  0  0  0  0  0  0  0  0
    2.1762    2.8560   -3.1917 C   0  0  0  0  0  0  0  0  0  0  0  0
    1.6754    1.8771   -3.7411 O   0  0  0  0  0  0  0  0  0  0  0  0
    4.0481    2.6406   -1.5372 C   0  0  0  0  0  0  0  0  0  0  0  0
    2.2629    1.2061   -0.4384 H   0  0  0  0  0  0  0  0  0  0  0  0
    2.2716    3.8403   -1.2797 H   0  0  0  0  0  0  0  0  0  0  0  0
    4.3525    1.6804   -1.9693 H   0  0  0  0  0  0  0  0  0  0  0  0
    4.6361    3.4243   -2.0262 H   0  0  0  0  0  0  0  0  0  0  0  0
    4.3151    2.6266   -0.4750 H   0  0  0  0  0  0  0  0  0  0  0  0
    2.5013    4.0438   -3.8318 N   0  0  0  0  0  0  0  0  0  0  0  0
    2.2515    4.2660   -5.2368 C   0  0  0  0  0  0  0  0  0  0  0  0
    2.8965    4.8094   -3.2938 H   0  0  0  0  0  0  0  0  0  0  0  0
    3.1432    3.9861   -5.8170 H   0  0  0  0  0  0  0  0  0  0  0  0
    1.3972    3.6523   -5.5588 H   0  0  0  0  0  0  0  0  0  0  0  0
    2.0234    5.3288   -5.4050 H   0  0  0  0  0  0  0  0  0  0  0  0
 29 30  2  0  0  0  0
 27 29  1  0  0  0  0
 28 30  1  0  0  0  0
 24 27  2  0  0  0  0
 26 28  2  0  0  0  0
 22 23  2  0  0  0  0
 23 25  1  0  0  0  0
 22 24  1  0  0  0  0
 24 26  1  0  0  0  0
 21 22  1  0  0  0  0
 25 26  1  0  0  0  0
  1  3  1  0  0  0  0
  1  7  1  0  0  0  0
  1  2  2  0  0  0  0
 42 43  1  0  0  0  0
 43 51  1  0  0  0  0
 43 44  2  0  0  0  0
  8  9  1  0  0  0  0
  9 17  1  0  0  0  0
  9 10  2  0  0  0  0
 18 19  1  0  0  0  0
 19 41  1  0  0  0  0
 19 20  2  0  0  0  0
 42 45  1  0  0  0  0
  8 11  1  0  0  0  0
 51 52  1  0  0  0  0
 18 21  1  0  0  0  0
 41 42  1  0  0  0  0
  7  8  1  0  0  0  0
 17 18  1  0  0  0  0
 29 39  1  0  0  0  0
 30 40  1  0  0  0  0
 27 37  1  0  0  0  0
 28 38  1  0  0  0  0
 23 35  1  0  0  0  0
  3  4  1  0  0  0  0
  3  5  1  0  0  0  0
  3  6  1  0  0  0  0
 45 48  1  0  0  0  0
 45 49  1  0  0  0  0
 45 50  1  0  0  0  0
 11 14  1  0  0  0  0
 11 15  1  0  0  0  0
 11 16  1  0  0  0  0
 52 54  1  0  0  0  0
 52 55  1  0  0  0  0
 52 56  1  0  0  0  0
 21 33  1  0  0  0  0
 21 34  1  0  0  0  0
 42 47  1  0  0  0  0
  8 13  1  0  0  0  0
 18 32  1  0  0  0  0
 25 36  1  0  0  0  0
 51 53  1  0  0  0  0
  7 12  1  0  0  0  0
 41 46  1  0  0  0  0
 17 31  1  0  0  0  0
M  END
$$$$

  -OEChem-05262214473D

 56 57  0     1  0  0  0  0  0999 V2000
   -2.2900    0.3401    4.1553 C   0  0  0  0  0  0  0  0  0  0  0  0
   -1.3426   -0.2746    3.6796 O   0  0  0  0  0  0  0  0  0  0  0  0
   -2.7219    0.0577    5.5560 C   0  0  0  0  0  0  0  0  0  0  0  0
   -3.4815   -0.7386    5.6094 H   0  0  0  0  0  0  0  0  0  0  0  0
   -1.8906   -0.2899    6.1903 H   0  0  0  0  0  0  0  0  0  0  0  0
   -3.1599    0.9126    6.0956 H   0  0  0  0  0  0  0  0  0  0  0  0
   -3.0397    1.3125    3.5142 N   0  0  0  0  0  0  0  0  0  0  0  0
   -2.7928    1.7385    2.1618 C   0  0  2  0  0  0  0  0  0  0  0  0
   -1.4579    1.1532    1.7206 C   0  0  0  0  0  0  0  0  0  0  0  0
   -0.5858    0.8004    2.5118 O   0  0  0  0  0  0  0  0  0  0  0  0
   -2.7841    3.2553    2.0523 C   0  0  0  0  0  0  0  0  0  0  0  0
   -3.8047    1.7484    4.0260 H   0  0  0  0  0  0  0  0  0  0  0  0
   -3.5969    1.3201    1.5466 H   0  0  0  0  0  0  0  0  0  0  0  0
   -1.9850    3.6926    2.6620 H   0  0  0  0  0  0  0  0  0  0  0  0
   -2.6246    3.5776    1.0180 H   0  0  0  0  0  0  0  0  0  0  0  0
   -3.7342    3.6765    2.3981 H   0  0  0  0  0  0  0  0  0  0  0  0
   -1.3352    1.1101    0.3372 N   0  0  0  0  0  0  0  0  0  0  0  0
   -0.1579    0.6093   -0.3265 C   0  0  2  0  0  0  0  0  0  0  0  0
    0.4015    1.7475   -1.1725 C   0  0  0  0  0  0  0  0  0  0  0  0
   -0.2994    2.6471   -1.6314 O   0  0  0  0  0  0  0  0  0  0  0  0
   -0.4630   -0.6085   -1.2063 C   0  0  0  0  0  0  0  0  0  0  0  0
   -0.8729   -1.8197   -0.4046 C   0  0  0  0  0  0  0  0  0  0  0  0
   -2.1659   -2.2214   -0.1602 C   0  0  0  0  0  0  0  0  0  0  0  0
   -0.0031   -2.7495    0.2308 C   0  0  0  0  0  0  0  0  0  0  0  0
   -2.1171   -3.3592    0.5996 N   0  0  0  0  0  0  0  0  0  0  0  0
   -0.8090   -3.7051    0.8535 C   0  0  0  0  0  0  0  0  0  0  0  0
    1.3968   -2.8703    0.3362 C   0  0  0  0  0  0  0  0  0  0  0  0
   -0.2829   -4.7796    1.5793 C   0  0  0  0  0  0  0  0  0  0  0  0
    1.9372   -3.9401    1.0590 C   0  0  0  0  0  0  0  0  0  0  0  0
    1.1084   -4.8789    1.6701 C   0  0  0  0  0  0  0  0  0  0  0  0
   -2.1183    1.4068   -0.2401 H   0  0  0  0  0  0  0  0  0  0  0  0
    0.5627    0.3601    0.4613 H   0  0  0  0  0  0  0  0  0  0  0  0
    0.4072   -0.8552   -1.8295 H   0  0  0  0  0  0  0  0  0  0  0  0
   -1.2686   -0.3770   -1.9156 H   0  0  0  0  0  0  0  0  0  0  0  0
   -3.1164   -1.7997   -0.4568 H   0  0  0  0  0  0  0  0  0  0  0  0
   -2.9243   -3.8719    0.9270 H   0  0  0  0  0  0  0  0  0  0  0  0
    2.0563   -2.1462   -0.1337 H   0  0  0  0  0  0  0  0  0  0  0  0
   -0.9272   -5.5115    2.0544 H   0  0  0  0  0  0  0  0  0  0  0  0
    3.0161   -4.0382    1.1442 H   0  0  0  0  0  0  0  0  0  0  0  0
    1.5495   -5.7019    2.2265 H   0  0  0  0  0  0  0  0  0  0  0  0
    1.7801    1.6639   -1.3099 N   0  0  0  0  0  0  0  0  0  0  0  0
    2.5645    2.6303   -2.0444 C   0  0  2  0  0  0  0  0  0  0  0  0
    1.9173    2.8212   -3.4097 C   0  0  0  0  0  0  0  0  0  0  0  0
    1.1791    1.9842   -3.9251 O   0  0  0  0  0  0  0  0  0  0  0  0
    4.0092    2.1772   -2.1863 C   0  0  0  0  0  0  0  0  0  0  0  0
    2.2620    0.8842   -0.8721 H   0  0  0  0  0  0  0  0  0  0  0  0
    2.5166    3.5693   -1.4823 H   0  0  0  0  0  0  0  0  0  0  0  0
    4.0773    1.2377   -2.7469 H   0  0  0  0  0  0  0  0  0  0  0  0
    4.6087    2.9235   -2.7181 H   0  0  0  0  0  0  0  0  0  0  0  0
    4.4641    2.0117   -1.2037 H   0  0  0  0  0  0  0  0  0  0  0  0
    2.2952    4.0172   -4.0037 N   0  0  0  0  0  0  0  0  0  0  0  0
    1.8250    4.4229   -5.3077 C   0  0  0  0  0  0  0  0  0  0  0  0
    2.8961    4.6596   -3.4956 H   0  0  0  0  0  0  0  0  0  0  0  0
    2.5395    4.0908   -6.0754 H   0  0  0  0  0  0  0  0  0  0  0  0
    0.8421    3.9683   -5.5007 H   0  0  0  0  0  0  0  0  0  0  0  0
    1.7349    5.5187   -5.3403 H   0  0  0  0  0  0  0  0  0  0  0  0
 29 30  2  0  0  0  0
 27 29  1  0  0  0  0
 28 30  1  0  0  0  0
 24 27  2  0  0  0  0
 26 28  2  0  0  0  0
 22 23  2  0  0  0  0
 23 25  1  0  0  0  0
 22 24  1  0  0  0  0
 24 26  1  0  0  0  0
 21 22  1  0  0  0  0
 25 26  1  0  0  0  0
  1  3  1  0  0  0  0
  1  7  1  0  0  0  0
  1  2  2  0  0  0  0
 42 43  1  0  0  0  0
 43 51  1  0  0  0  0
 43 44  2  0  0  0  0
  8  9  1  0  0  0  0
  9 17  1  0  0  0  0
  9 10  2  0  0  0  0
 18 19  1  0  0  0  0
 19 41  1  0  0  0  0
 19 20  2  0  0  0  0
 42 45  1  0  0  0  0
  8 11  1  0  0  0  0
 51 52  1  0  0  0  0
 18 21  1  0  0  0  0
 41 42  1  0  0  0  0
  7  8  1  0  0  0  0
 17 18  1  0  0  0  0
 29 39  1  0  0  0  0
 30 40  1  0  0  0  0
 27 37  1  0  0  0  0
 28 38  1  0  0  0  0
 23 35  1  0  0  0  0
  3  4  1  0  0  0  0
  3  5  1  0  0  0  0
  3  6  1  0  0  0  0
 45 48  1  0  0  0  0
 45 49  1  0  0  0  0
 45 50  1  0  0  0  0
 11 14  1  0  0  0  0
 11 15  1  0  0  0  0
 11 16  1  0  0  0  0
 52 54  1  0  0  0  0
 52 55  1  0  0  0  0
 52 56  1  0  0  0  0
 21 33  1  0  0  0  0
 21 34  1  0  0  0  0
 42 47  1  0  0  0  0
  8 13  1  0  0  0  0
 18 32  1  0  0  0  0
 25 36  1  0  0  0  0
 51 53  1  0  0  0  0
  7 12  1  0  0  0  0
 41 46  1  0  0  0  0
 17 31  1  0  0  0  0
M  END
$$$$

  -OEChem-05262214473D

 56 57  0     1  0  0  0  0  0999 V2000
   -2.2900    0.3401    4.1553 C   0  0  0  0  0  0  0  0  0  0  0  0
   -1.3426   -0.2746    3.6796 O   0  0  0  0  0  0  0  0  0  0  0  0
   -2.7219    0.0577    5.5560 C   0  0  0  0  0  0  0  0  0  0  0  0
   -3.4815   -0.7386    5.6094 H   0  0  0  0  0  0  0  0  0  0  0  0
   -1.8906   -0.2899    6.1903 H   0  0  0  0  0  0  0  0  0  0  0  0
   -3.1599    0.9126    6.0956 H   0  0  0  0  0  0  0  0  0  0  0  0
   -3.0397    1.3125    3.5142 N   0  0  0  0  0  0  0  0  0  0  0  0
   -2.7928    1.7385    2.1618 C   0  0  2  0  0  0  0  0  0  0  0  0
   -1.4579    1.1532    1.7206 C   0  0  0  0  0  0  0  0  0  0  0  0
   -0.5858    0.8004    2.5118 O   0  0  0  0  0  0  0  0  0  0  0  0
   -2.7841    3.2553    2.0523 C   0  0  0  0  0  0  0  0  0  0  0  0
   -3.8047    1.7484    4.0260 H   0  0  0  0  0  0  0  0  0  0  0  0
   -3.5969    1.3201    1.5466 H   0  0  0  0  0  0  0  0  0  0  0  0
   -1.9850    3.6926    2.6620 H   0  0  0  0  0  0  0  0  0  0  0  0
   -2.6246    3.5776    1.0180 H   0  0  0  0  0  0  0  0  0  0  0  0
   -3.7342    3.6765    2.3981 H   0  0  0  0  0  0  0  0  0  0  0  0
   -1.3352    1.1101    0.3372 N   0  0  0  0  0  0  0  0  0  0  0  0
   -0.1579    0.6093   -0.3265 C   0  0  2  0  0  0  0  0  0  0  0  0
    0.4015    1.7475   -1.1725 C   0  0  0  0  0  0  0  0  0  0  0  0
   -0.2266    2.7777   -1.4076 O   0  0  0  0  0  0  0  0  0  0  0  0
   -0.4630   -0.6085   -1.2063 C   0  0  0  0  0  0  0  0  0  0  0  0
   -0.8729   -1.8197   -0.4046 C   0  0  0  0  0  0  0  0  0  0  0  0
   -2.1659   -2.2214   -0.1602 C   0  0  0  0  0  0  0  0  0  0  0  0
   -0.0031   -2.7495    0.2308 C   0  0  0  0  0  0  0  0  0  0  0  0
   -2.1171   -3.3592    0.5996 N   0  0  0  0  0  0  0  0  0  0  0  0
   -0.8090   -3.7051    0.8535 C   0  0  0  0  0  0  0  0  0  0  0  0
    1.3968   -2.8703    0.3362 C   0  0  0  0  0  0  0  0  0  0  0  0
   -0.2829   -4.7796    1.5793 C   0  0  0  0  0  0  0  0  0  0  0  0
    1.9372   -3.9401    1.0590 C   0  0  0  0  0  0  0  0  0  0  0  0
    1.1084   -4.8789    1.6701 C   0  0  0  0  0  0  0  0  0  0  0  0
   -2.1183    1.4068   -0.2401 H   0  0  0  0  0  0  0  0  0  0  0  0
    0.5627    0.3601    0.4613 H   0  0  0  0  0  0  0  0  0  0  0  0
    0.4072   -0.8552   -1.8295 H   0  0  0  0  0  0  0  0  0  0  0  0
   -1.2686   -0.3770   -1.9156 H   0  0  0  0  0  0  0  0  0  0  0  0
   -3.1164   -1.7997   -0.4568 H   0  0  0  0  0  0  0  0  0  0  0  0
   -2.9243   -3.8719    0.9270 H   0  0  0  0  0  0  0  0  0  0  0  0
    2.0563   -2.1462   -0.1337 H   0  0  0  0  0  0  0  0  0  0  0  0
   -0.9272   -5.5115    2.0544 H   0  0  0  0  0  0  0  0  0  0  0  0
    3.0161   -4.0382    1.1442 H   0  0  0  0  0  0  0  0  0  0  0  0
    1.5495   -5.7019    2.2265 H   0  0  0  0  0  0  0  0  0  0  0  0
    1.7011    1.4950   -1.5893 N   0  0  0  0  0  0  0  0  0  0  0  0
    2.4733    2.4216   -2.3854 C   0  0  2  0  0  0  0  0  0  0  0  0
    1.6200    2.8455   -3.5736 C   0  0  0  0  0  0  0  0  0  0  0  0
    0.6796    2.1765   -3.9967 O   0  0  0  0  0  0  0  0  0  0  0  0
    3.7797    1.7968   -2.8499 C   0  0  0  0  0  0  0  0  0  0  0  0
    2.1310    0.6146   -1.3214 H   0  0  0  0  0  0  0  0  0  0  0  0
    2.6752    3.2916   -1.7511 H   0  0  0  0  0  0  0  0  0  0  0  0
    3.5976    0.9235   -3.4868 H   0  0  0  0  0  0  0  0  0  0  0  0
    4.3765    2.5093   -3.4288 H   0  0  0  0  0  0  0  0  0  0  0  0
    4.3789    1.4655   -1.9949 H   0  0  0  0  0  0  0  0  0  0  0  0
    2.0591    4.0375   -4.1326 N   0  0  0  0  0  0  0  0  0  0  0  0
    1.4219    4.6424   -5.2789 C   0  0  0  0  0  0  0  0  0  0  0  0
    2.8351    4.5340   -3.7048 H   0  0  0  0  0  0  0  0  0  0  0  0
    1.9215    4.3032   -6.1983 H   0  0  0  0  0  0  0  0  0  0  0  0
    0.3625    4.3477   -5.3073 H   0  0  0  0  0  0  0  0  0  0  0  0
    1.4960    5.7374   -5.2041 H   0  0  0  0  0  0  0  0  0  0  0  0
 29 30  2  0  0  0  0
 27 29  1  0  0  0  0
 28 30  1  0  0  0  0
 24 27  2  0  0  0  0
 26 28  2  0  0  0  0
 22 23  2  0  0  0  0
 23 25  1  0  0  0  0
 22 24  1  0  0  0  0
 24 26  1  0  0  0  0
 21 22  1  0  0  0  0
 25 26  1  0  0  0  0
  1  3  1  0  0  0  0
  1  7  1  0  0  0  0
  1  2  2  0  0  0  0
 42 43  1  0  0  0  0
 43 51  1  0  0  0  0
 43 44  2  0  0  0  0
  8  9  1  0  0  0  0
  9 17  1  0  0  0  0
  9 10  2  0  0  0  0
 18 19  1  0  0  0  0
 19 41  1  0  0  0  0
 19 20  2  0  0  0  0
 42 45  1  0  0  0  0
  8 11  1  0  0  0  0
 51 52  1  0  0  0  0
 18 21  1  0  0  0  0
 41 42  1  0  0  0  0
  7  8  1  0  0  0  0
 17 18  1  0  0  0  0
 29 39  1  0  0  0  0
 30 40  1  0  0  0  0
 27 37  1  0  0  0  0
 28 38  1  0  0  0  0
 23 35  1  0  0  0  0
  3  4  1  0  0  0  0
  3  5  1  0  0  0  0
  3  6  1  0  0  0  0
 45 48  1  0  0  0  0
 45 49  1  0  0  0  0
 45 50  1  0  0  0  0
 11 14  1  0  0  0  0
 11 15  1  0  0  0  0
 11 16  1  0  0  0  0
 52 54  1  0  0  0  0
 52 55  1  0  0  0  0
 52 56  1  0  0  0  0
 21 33  1  0  0  0  0
 21 34  1  0  0  0  0
 42 47  1  0  0  0  0
  8 13  1  0  0  0  0
 18 32  1  0  0  0  0
 25 36  1  0  0  0  0
 51 53  1  0  0  0  0
  7 12  1  0  0  0  0
 41 46  1  0  0  0  0
 17 31  1  0  0  0  0
M  END
$$$$

  -OEChem-05262214473D

 56 57  0     1  0  0  0  0  0999 V2000
   -2.2900    0.3401    4.1553 C   0  0  0  0  0  0  0  0  0  0  0  0
   -1.3426   -0.2746    3.6796 O   0  0  0  0  0  0  0  0  0  0  0  0
   -2.7219    0.0577    5.5560 C   0  0  0  0  0  0  0  0  0  0  0  0
   -3.4815   -0.7386    5.6094 H   0  0  0  0  0  0  0  0  0  0  0  0
   -1.8906   -0.2899    6.1903 H   0  0  0  0  0  0  0  0  0  0  0  0
   -3.1599    0.9126    6.0956 H   0  0  0  0  0  0  0  0  0  0  0  0
   -3.0397    1.3125    3.5142 N   0  0  0  0  0  0  0  0  0  0  0  0
   -2.7928    1.7385    2.1618 C   0  0  2  0  0  0  0  0  0  0  0  0
   -1.4579    1.1532    1.7206 C   0  0  0  0  0  0  0  0  0  0  0  0
   -0.5858    0.8004    2.5118 O   0  0  0  0  0  0  0  0  0  0  0  0
   -2.7841    3.2553    2.0523 C   0  0  0  0  0  0  0  0  0  0  0  0
   -3.8047    1.7484    4.0260 H   0  0  0  0  0  0  0  0  0  0  0  0
   -3.5969    1.3201    1.5466 H   0  0  0  0  0  0  0  0  0  0  0  0
   -1.9850    3.6926    2.6620 H   0  0  0  0  0  0  0  0  0  0  0  0
   -2.6246    3.5776    1.0180 H   0  0  0  0  0  0  0  0  0  0  0  0
   -3.7342    3.6765    2.3981 H   0  0  0  0  0  0  0  0  0  0  0  0
   -1.3352    1.1101    0.3372 N   0  0  0  0  0  0  0  0  0  0  0  0
   -0.1579    0.6093   -0.3265 C   0  0  2  0  0  0  0  0  0  0  0  0
    0.6067    1.8156   -0.8598 C   0  0  0  0  0  0  0  0  0  0  0  0
    0.2418    2.9746   -0.6741 O   0  0  0  0  0  0  0  0  0  0  0  0
   -0.5025   -0.3514   -1.4703 C   0  0  0  0  0  0  0  0  0  0  0  0
   -1.1228   -1.6387   -0.9844 C   0  0  0  0  0  0  0  0  0  0  0  0
   -2.4702   -1.9121   -0.9334 C   0  0  0  0  0  0  0  0  0  0  0  0
   -0.4299   -2.7836   -0.5007 C   0  0  0  0  0  0  0  0  0  0  0  0
   -2.6247   -3.1786   -0.4370 N   0  0  0  0  0  0  0  0  0  0  0  0
   -1.3953   -3.7349   -0.1641 C   0  0  0  0  0  0  0  0  0  0  0  0
    0.9300   -3.1029   -0.3163 C   0  0  0  0  0  0  0  0  0  0  0  0
   -1.0674   -4.9946    0.3498 C   0  0  0  0  0  0  0  0  0  0  0  0
    1.2729   -4.3591    0.1967 C   0  0  0  0  0  0  0  0  0  0  0  0
    0.2879   -5.2889    0.5239 C   0  0  0  0  0  0  0  0  0  0  0  0
   -2.1183    1.4068   -0.2401 H   0  0  0  0  0  0  0  0  0  0  0  0
    0.4463    0.1125    0.4417 H   0  0  0  0  0  0  0  0  0  0  0  0
    0.3949   -0.5745   -2.0632 H   0  0  0  0  0  0  0  0  0  0  0  0
   -1.2008    0.1230   -2.1725 H   0  0  0  0  0  0  0  0  0  0  0  0
   -3.3333   -1.3195   -1.2039 H   0  0  0  0  0  0  0  0  0  0  0  0
   -3.5124   -3.6394   -0.2918 H   0  0  0  0  0  0  0  0  0  0  0  0
    1.7097   -2.3887   -0.5657 H   0  0  0  0  0  0  0  0  0  0  0  0
   -1.8334   -5.7194    0.6037 H   0  0  0  0  0  0  0  0  0  0  0  0
    2.3201   -4.6108    0.3415 H   0  0  0  0  0  0  0  0  0  0  0  0
    0.5767   -6.2587    0.9209 H   0  0  0  0  0  0  0  0  0  0  0  0
    1.7680    1.4432   -1.5226 N   0  0  0  0  0  0  0  0  0  0  0  0
    2.6886    2.3929   -2.1050 C   0  0  2  0  0  0  0  0  0  0  0  0
    1.8857    3.3584   -2.9668 C   0  0  0  0  0  0  0  0  0  0  0  0
    0.7797    3.0849   -3.4282 O   0  0  0  0  0  0  0  0  0  0  0  0
    3.7597    1.6927   -2.9267 C   0  0  0  0  0  0  0  0  0  0  0  0
    1.9815    0.4533   -1.6022 H   0  0  0  0  0  0  0  0  0  0  0  0
    3.1473    2.9393   -1.2737 H   0  0  0  0  0  0  0  0  0  0  0  0
    3.3191    1.1398   -3.7644 H   0  0  0  0  0  0  0  0  0  0  0  0
    4.4729    2.4114   -3.3438 H   0  0  0  0  0  0  0  0  0  0  0  0
    4.3165    0.9770   -2.3123 H   0  0  0  0  0  0  0  0  0  0  0  0
    2.5683    4.5449   -3.1958 N   0  0  0  0  0  0  0  0  0  0  0  0
    2.0224    5.6166   -3.9954 C   0  0  0  0  0  0  0  0  0  0  0  0
    3.4728    4.6935   -2.7580 H   0  0  0  0  0  0  0  0  0  0  0  0
    2.3535    5.5021   -5.0381 H   0  0  0  0  0  0  0  0  0  0  0  0
    0.9237    5.5819   -3.9538 H   0  0  0  0  0  0  0  0  0  0  0  0
    2.3739    6.5823   -3.6032 H   0  0  0  0  0  0  0  0  0  0  0  0
 29 30  2  0  0  0  0
 27 29  1  0  0  0  0
 28 30  1  0  0  0  0
 24 27  2  0  0  0  0
 26 28  2  0  0  0  0
 22 23  2  0  0  0  0
 23 25  1  0  0  0  0
 22 24  1  0  0  0  0
 24 26  1  0  0  0  0
 21 22  1  0  0  0  0
 25 26  1  0  0  0  0
  1  3  1  0  0  0  0
  1  7  1  0  0  0  0
  1  2  2  0  0  0  0
 42 43  1  0  0  0  0
 43 51  1  0  0  0  0
 43 44  2  0  0  0  0
  8  9  1  0  0  0  0
  9 17  1  0  0  0  0
  9 10  2  0  0  0  0
 18 19  1  0  0  0  0
 19 41  1  0  0  0  0
 19 20  2  0  0  0  0
 42 45  1  0  0  0  0
  8 11  1  0  0  0  0
 51 52  1  0  0  0  0
 18 21  1  0  0  0  0
 41 42  1  0  0  0  0
  7  8  1  0  0  0  0
 17 18  1  0  0  0  0
 29 39  1  0  0  0  0
 30 40  1  0  0  0  0
 27 37  1  0  0  0  0
 28 38  1  0  0  0  0
 23 35  1  0  0  0  0
  3  4  1  0  0  0  0
  3  5  1  0  0  0  0
  3  6  1  0  0  0  0
 45 48  1  0  0  0  0
 45 49  1  0  0  0  0
 45 50  1  0  0  0  0
 11 14  1  0  0  0  0
 11 15  1  0  0  0  0
 11 16  1  0  0  0  0
 52 54  1  0  0  0  0
 52 55  1  0  0  0  0
 52 56  1  0  0  0  0
 21 33  1  0  0  0  0
 21 34  1  0  0  0  0
 42 47  1  0  0  0  0
  8 13  1  0  0  0  0
 18 32  1  0  0  0  0
 25 36  1  0  0  0  0
 51 53  1  0  0  0  0
  7 12  1  0  0  0  0
 41 46  1  0  0  0  0
 17 31  1  0  0  0  0
M  END
$$$$

  -OEChem-05262214473D

 56 57  0     1  0  0  0  0  0999 V2000
   -2.2900    0.3401    4.1553 C   0  0  0  0  0  0  0  0  0  0  0  0
   -1.3426   -0.2746    3.6796 O   0  0  0  0  0  0  0  0  0  0  0  0
   -2.7219    0.0577    5.5560 C   0  0  0  0  0  0  0  0  0  0  0  0
   -3.4815   -0.7386    5.6094 H   0  0  0  0  0  0  0  0  0  0  0  0
   -1.8906   -0.2899    6.1903 H   0  0  0  0  0  0  0  0  0  0  0  0
   -3.1599    0.9126    6.0956 H   0  0  0  0  0  0  0  0  0  0  0  0
   -3.0397    1.3125    3.5142 N   0  0  0  0  0  0  0  0  0  0  0  0
   -2.7928    1.7385    2.1618 C   0  0  2  0  0  0  0  0  0  0  0  0
   -1.4579    1.1532    1.7206 C   0  0  0  0  0  0  0  0  0  0  0  0
   -0.5858    0.8004    2.5118 O   0  0  0  0  0  0  0  0  0  0  0  0
   -2.7841    3.2553    2.0523 C   0  0  0  0  0  0  0  0  0  0  0  0
   -3.8047    1.7484    4.0260 H   0  0  0  0  0  0  0  0  0  0  0  0
   -3.5969    1.3201    1.5466 H   0  0  0  0  0  0  0  0  0  0  0  0
   -1.9850    3.6926    2.6620 H   0  0  0  0  0  0  0  0  0  0  0  0
   -2.6246    3.5776    1.0180 H   0  0  0  0  0  0  0  0  0  0  0  0
   -3.7342    3.6765    2.3981 H   0  0  0  0  0  0  0  0  0  0  0  0
   -1.3352    1.1101    0.3372 N   0  0  0  0  0  0  0  0  0  0  0  0
   -0.1579    0.6093   -0.3265 C   0  0  2  0  0  0  0  0  0  0  0  0
    0.6067    1.8156   -0.8598 C   0  0  0  0  0  0  0  0  0  0  0  0
    0.4087    2.9621   -0.4633 O   0  0  0  0  0  0  0  0  0  0  0  0
   -0.5025   -0.3514   -1.4703 C   0  0  0  0  0  0  0  0  0  0  0  0
   -1.1228   -1.6387   -0.9844 C   0  0  0  0  0  0  0  0  0  0  0  0
   -2.4702   -1.9121   -0.9334 C   0  0  0  0  0  0  0  0  0  0  0  0
   -0.4299   -2.7836   -0.5007 C   0  0  0  0  0  0  0  0  0  0  0  0
   -2.6247   -3.1786   -0.4370 N   0  0  0  0  0  0  0  0  0  0  0  0
   -1.3953   -3.7349   -0.1641 C   0  0  0  0  0  0  0  0  0  0  0  0
    0.9300   -3.1029   -0.3163 C   0  0  0  0  0  0  0  0  0  0  0  0
   -1.0674   -4.9946    0.3498 C   0  0  0  0  0  0  0  0  0  0  0  0
    1.2729   -4.3591    0.1967 C   0  0  0  0  0  0  0  0  0  0  0  0
    0.2879   -5.2889    0.5239 C   0  0  0  0  0  0  0  0  0  0  0  0
   -2.1183    1.4068   -0.2401 H   0  0  0  0  0  0  0  0  0  0  0  0
    0.4463    0.1125    0.4417 H   0  0  0  0  0  0  0  0  0  0  0  0
    0.3949   -0.5745   -2.0632 H   0  0  0  0  0  0  0  0  0  0  0  0
   -1.2008    0.1230   -2.1725 H   0  0  0  0  0  0  0  0  0  0  0  0
   -3.3333   -1.3195   -1.2039 H   0  0  0  0  0  0  0  0  0  0  0  0
   -3.5124   -3.6394   -0.2918 H   0  0  0  0  0  0  0  0  0  0  0  0
    1.7097   -2.3887   -0.5657 H   0  0  0  0  0  0  0  0  0  0  0  0
   -1.8334   -5.7194    0.6037 H   0  0  0  0  0  0  0  0  0  0  0  0
    2.3201   -4.6108    0.3415 H   0  0  0  0  0  0  0  0  0  0  0  0
    0.5767   -6.2587    0.9209 H   0  0  0  0  0  0  0  0  0  0  0  0
    1.5678    1.4508   -1.7923 N   0  0  0  0  0  0  0  0  0  0  0  0
    2.4480    2.3986   -2.4371 C   0  0  2  0  0  0  0  0  0  0  0  0
    1.5948    3.5336   -2.9877 C   0  0  0  0  0  0  0  0  0  0  0  0
    0.3967    3.4130   -3.2351 O   0  0  0  0  0  0  0  0  0  0  0  0
    3.2555    1.7392   -3.5443 C   0  0  0  0  0  0  0  0  0  0  0  0
    1.6571    0.4682   -2.0338 H   0  0  0  0  0  0  0  0  0  0  0  0
    3.1172    2.7870   -1.6616 H   0  0  0  0  0  0  0  0  0  0  0  0
    2.6021    1.3439   -4.3306 H   0  0  0  0  0  0  0  0  0  0  0  0
    3.9424    2.4518   -4.0127 H   0  0  0  0  0  0  0  0  0  0  0  0
    3.8459    0.9042   -3.1518 H   0  0  0  0  0  0  0  0  0  0  0  0
    2.3379    4.6843   -3.2109 N   0  0  0  0  0  0  0  0  0  0  0  0
    1.7585    5.8957   -3.7425 C   0  0  0  0  0  0  0  0  0  0  0  0
    3.3218    4.7004   -2.9589 H   0  0  0  0  0  0  0  0  0  0  0  0
    1.8619    5.9023   -4.8376 H   0  0  0  0  0  0  0  0  0  0  0  0
    0.6925    5.9403   -3.4748 H   0  0  0  0  0  0  0  0  0  0  0  0
    2.2795    6.7674   -3.3199 H   0  0  0  0  0  0  0  0  0  0  0  0
 29 30  2  0  0  0  0
 27 29  1  0  0  0  0
 28 30  1  0  0  0  0
 24 27  2  0  0  0  0
 26 28  2  0  0  0  0
 22 23  2  0  0  0  0
 23 25  1  0  0  0  0
 22 24  1  0  0  0  0
 24 26  1  0  0  0  0
 21 22  1  0  0  0  0
 25 26  1  0  0  0  0
  1  3  1  0  0  0  0
  1  7  1  0  0  0  0
  1  2  2  0  0  0  0
 42 43  1  0  0  0  0
 43 51  1  0  0  0  0
 43 44  2  0  0  0  0
  8  9  1  0  0  0  0
  9 17  1  0  0  0  0
  9 10  2  0  0  0  0
 18 19  1  0  0  0  0
 19 41  1  0  0  0  0
 19 20  2  0  0  0  0
 42 45  1  0  0  0  0
  8 11  1  0  0  0  0
 51 52  1  0  0  0  0
 18 21  1  0  0  0  0
 41 42  1  0  0  0  0
  7  8  1  0  0  0  0
 17 18  1  0  0  0  0
 29 39  1  0  0  0  0
 30 40  1  0  0  0  0
 27 37  1  0  0  0  0
 28 38  1  0  0  0  0
 23 35  1  0  0  0  0
  3  4  1  0  0  0  0
  3  5  1  0  0  0  0
  3  6  1  0  0  0  0
 45 48  1  0  0  0  0
 45 49  1  0  0  0  0
 45 50  1  0  0  0  0
 11 14  1  0  0  0  0
 11 15  1  0  0  0  0
 11 16  1  0  0  0  0
 52 54  1  0  0  0  0
 52 55  1  0  0  0  0
 52 56  1  0  0  0  0
 21 33  1  0  0  0  0
 21 34  1  0  0  0  0
 42 47  1  0  0  0  0
  8 13  1  0  0  0  0
 18 32  1  0  0  0  0
 25 36  1  0  0  0  0
 51 53  1  0  0  0  0
  7 12  1  0  0  0  0
 41 46  1  0  0  0  0
 17 31  1  0  0  0  0
M  END
$$$$

  -OEChem-05262214473D

 56 57  0     1  0  0  0  0  0999 V2000
   -2.2900    0.3401    4.1553 C   0  0  0  0  0  0  0  0  0  0  0  0
   -1.3426   -0.2746    3.6796 O   0  0  0  0  0  0  0  0  0  0  0  0
   -2.7219    0.0577    5.5560 C   0  0  0  0  0  0  0  0  0  0  0  0
   -3.4815   -0.7386    5.6094 H   0  0  0  0  0  0  0  0  0  0  0  0
   -1.8906   -0.2899    6.1903 H   0  0  0  0  0  0  0  0  0  0  0  0
   -3.1599    0.9126    6.0956 H   0  0  0  0  0  0  0  0  0  0  0  0
   -3.0397    1.3125    3.5142 N   0  0  0  0  0  0  0  0  0  0  0  0
   -2.7928    1.7385    2.1618 C   0  0  2  0  0  0  0  0  0  0  0  0
   -1.4579    1.1532    1.7206 C   0  0  0  0  0  0  0  0  0  0  0  0
   -0.5858    0.8004    2.5118 O   0  0  0  0  0  0  0  0  0  0  0  0
   -2.7841    3.2553    2.0523 C   0  0  0  0  0  0  0  0  0  0  0  0
   -3.8047    1.7484    4.0260 H   0  0  0  0  0  0  0  0  0  0  0  0
   -3.5969    1.3201    1.5466 H   0  0  0  0  0  0  0  0  0  0  0  0
   -1.9850    3.6926    2.6620 H   0  0  0  0  0  0  0  0  0  0  0  0
   -2.6246    3.5776    1.0180 H   0  0  0  0  0  0  0  0  0  0  0  0
   -3.7342    3.6765    2.3981 H   0  0  0  0  0  0  0  0  0  0  0  0
   -1.3352    1.1101    0.3372 N   0  0  0  0  0  0  0  0  0  0  0  0
   -0.1579    0.6093   -0.3265 C   0  0  2  0  0  0  0  0  0  0  0  0
    0.6067    1.8156   -0.8598 C   0  0  0  0  0  0  0  0  0  0  0  0
    0.6119    2.9075   -0.2954 O   0  0  0  0  0  0  0  0  0  0  0  0
   -0.5025   -0.3514   -1.4703 C   0  0  0  0  0  0  0  0  0  0  0  0
   -1.1228   -1.6387   -0.9844 C   0  0  0  0  0  0  0  0  0  0  0  0
   -2.4702   -1.9121   -0.9334 C   0  0  0  0  0  0  0  0  0  0  0  0
   -0.4299   -2.7836   -0.5007 C   0  0  0  0  0  0  0  0  0  0  0  0
   -2.6247   -3.1786   -0.4370 N   0  0  0  0  0  0  0  0  0  0  0  0
   -1.3953   -3.7349   -0.1641 C   0  0  0  0  0  0  0  0  0  0  0  0
    0.9300   -3.1029   -0.3163 C   0  0  0  0  0  0  0  0  0  0  0  0
   -1.0674   -4.9946    0.3498 C   0  0  0  0  0  0  0  0  0  0  0  0
    1.2729   -4.3591    0.1967 C   0  0  0  0  0  0  0  0  0  0  0  0
    0.2879   -5.2889    0.5239 C   0  0  0  0  0  0  0  0  0  0  0  0
   -2.1183    1.4068   -0.2401 H   0  0  0  0  0  0  0  0  0  0  0  0
    0.4463    0.1125    0.4417 H   0  0  0  0  0  0  0  0  0  0  0  0
    0.3949   -0.5745   -2.0632 H   0  0  0  0  0  0  0  0  0  0  0  0
   -1.2008    0.1230   -2.1725 H   0  0  0  0  0  0  0  0  0  0  0  0
   -3.3333   -1.3195   -1.2039 H   0  0  0  0  0  0  0  0  0  0  0  0
   -3.5124   -3.6394   -0.2918 H   0  0  0  0  0  0  0  0  0  0  0  0
    1.7097   -2.3887   -0.5657 H   0  0  0  0  0  0  0  0  0  0  0  0
   -1.8334   -5.7194    0.6037 H   0  0  0  0  0  0  0  0  0  0  0  0
    2.3201   -4.6108    0.3415 H   0  0  0  0  0  0  0  0  0  0  0  0
    0.5767   -6.2587    0.9209 H   0  0  0  0  0  0  0  0  0  0  0  0
    1.3199    1.5112   -2.0109 N   0  0  0  0  0  0  0  0  0  0  0  0
    2.1482    2.4689   -2.7078 C   0  0  2  0  0  0  0  0  0  0  0  0
    1.3253    3.7319   -2.9255 C   0  0  0  0  0  0  0  0  0  0  0  0
    0.0961    3.7395   -2.9275 O   0  0  0  0  0  0  0  0  0  0  0  0
    2.6463    1.9099   -4.0315 C   0  0  0  0  0  0  0  0  0  0  0  0
    1.2567    0.5679   -2.3823 H   0  0  0  0  0  0  0  0  0  0  0  0
    2.9948    2.6929   -2.0498 H   0  0  0  0  0  0  0  0  0  0  0  0
    1.8121    1.6795   -4.7041 H   0  0  0  0  0  0  0  0  0  0  0  0
    3.2967    2.6258   -4.5449 H   0  0  0  0  0  0  0  0  0  0  0  0
    3.2127    0.9854   -3.8757 H   0  0  0  0  0  0  0  0  0  0  0  0
    2.1249    4.8417   -3.1601 N   0  0  0  0  0  0  0  0  0  0  0  0
    1.5806    6.1564   -3.4079 C   0  0  0  0  0  0  0  0  0  0  0  0
    3.1354    4.7468   -3.1212 H   0  0  0  0  0  0  0  0  0  0  0  0
    1.4643    6.3074   -4.4913 H   0  0  0  0  0  0  0  0  0  0  0  0
    0.5996    6.2453   -2.9181 H   0  0  0  0  0  0  0  0  0  0  0  0
    2.2630    6.9180   -3.0028 H   0  0  0  0  0  0  0  0  0  0  0  0
 29 30  2  0  0  0  0
 27 29  1  0  0  0  0
 28 30  1  0  0  0  0
 24 27  2  0  0  0  0
 26 28  2  0  0  0  0
 22 23  2  0  0  0  0
 23 25  1  0  0  0  0
 22 24  1  0  0  0  0
 24 26  1  0  0  0  0
 21 22  1  0  0  0  0
 25 26  1  0  0  0  0
  1  3  1  0  0  0  0
  1  7  1  0  0  0  0
  1  2  2  0  0  0  0
 42 43  1  0  0  0  0
 43 51  1  0  0  0  0
 43 44  2  0  0  0  0
  8  9  1  0  0  0  0
  9 17  1  0  0  0  0
  9 10  2  0  0  0  0
 18 19  1  0  0  0  0
 19 41  1  0  0  0  0
 19 20  2  0  0  0  0
 42 45  1  0  0  0  0
  8 11  1  0  0  0  0
 51 52  1  0  0  0  0
 18 21  1  0  0  0  0
 41 42  1  0  0  0  0
  7  8  1  0  0  0  0
 17 18  1  0  0  0  0
 29 39  1  0  0  0  0
 30 40  1  0  0  0  0
 27 37  1  0  0  0  0
 28 38  1  0  0  0  0
 23 35  1  0  0  0  0
  3  4  1  0  0  0  0
  3  5  1  0  0  0  0
  3  6  1  0  0  0  0
 45 48  1  0  0  0  0
 45 49  1  0  0  0  0
 45 50  1  0  0  0  0
 11 14  1  0  0  0  0
 11 15  1  0  0  0  0
 11 16  1  0  0  0  0
 52 54  1  0  0  0  0
 52 55  1  0  0  0  0
 52 56  1  0  0  0  0
 21 33  1  0  0  0  0
 21 34  1  0  0  0  0
 42 47  1  0  0  0  0
  8 13  1  0  0  0  0
 18 32  1  0  0  0  0
 25 36  1  0  0  0  0
 51 53  1  0  0  0  0
  7 12  1  0  0  0  0
 41 46  1  0  0  0  0
 17 31  1  0  0  0  0
M  END
$$$$

  -OEChem-05262214473D

 56 57  0     1  0  0  0  0  0999 V2000
   -2.2900    0.3401    4.1553 C   0  0  0  0  0  0  0  0  0  0  0  0
   -1.3426   -0.2746    3.6796 O   0  0  0  0  0  0  0  0  0  0  0  0
   -2.7219    0.0577    5.5560 C   0  0  0  0  0  0  0  0  0  0  0  0
   -3.4815   -0.7386    5.6094 H   0  0  0  0  0  0  0  0  0  0  0  0
   -1.8906   -0.2899    6.1903 H   0  0  0  0  0  0  0  0  0  0  0  0
   -3.1599    0.9126    6.0956 H   0  0  0  0  0  0  0  0  0  0  0  0
   -3.0397    1.3125    3.5142 N   0  0  0  0  0  0  0  0  0  0  0  0
   -2.7928    1.7385    2.1618 C   0  0  2  0  0  0  0  0  0  0  0  0
   -1.4579    1.1532    1.7206 C   0  0  0  0  0  0  0  0  0  0  0  0
   -0.5858    0.8004    2.5118 O   0  0  0  0  0  0  0  0  0  0  0  0
   -2.7841    3.2553    2.0523 C   0  0  0  0  0  0  0  0  0  0  0  0
   -3.8047    1.7484    4.0260 H   0  0  0  0  0  0  0  0  0  0  0  0
   -3.5969    1.3201    1.5466 H   0  0  0  0  0  0  0  0  0  0  0  0
   -1.9850    3.6926    2.6620 H   0  0  0  0  0  0  0  0  0  0  0  0
   -2.6246    3.5776    1.0180 H   0  0  0  0  0  0  0  0  0  0  0  0
   -3.7342    3.6765    2.3981 H   0  0  0  0  0  0  0  0  0  0  0  0
   -1.3352    1.1101    0.3372 N   0  0  0  0  0  0  0  0  0  0  0  0
   -0.1579    0.6093   -0.3265 C   0  0  2  0  0  0  0  0  0  0  0  0
    0.6067    1.8156   -0.8598 C   0  0  0  0  0  0  0  0  0  0  0  0
    0.8376    2.8146   -0.1819 O   0  0  0  0  0  0  0  0  0  0  0  0
   -0.5025   -0.3514   -1.4703 C   0  0  0  0  0  0  0  0  0  0  0  0
   -1.1228   -1.6387   -0.9844 C   0  0  0  0  0  0  0  0  0  0  0  0
   -2.4702   -1.9121   -0.9334 C   0  0  0  0  0  0  0  0  0  0  0  0
   -0.4299   -2.7836   -0.5007 C   0  0  0  0  0  0  0  0  0  0  0  0
   -2.6247   -3.1786   -0.4370 N   0  0  0  0  0  0  0  0  0  0  0  0
   -1.3953   -3.7349   -0.1641 C   0  0  0  0  0  0  0  0  0  0  0  0
    0.9300   -3.1029   -0.3163 C   0  0  0  0  0  0  0  0  0  0  0  0
   -1.0674   -4.9946    0.3498 C   0  0  0  0  0  0  0  0  0  0  0  0
    1.2729   -4.3591    0.1967 C   0  0  0  0  0  0  0  0  0  0  0  0
    0.2879   -5.2889    0.5239 C   0  0  0  0  0  0  0  0  0  0  0  0
   -2.1183    1.4068   -0.2401 H   0  0  0  0  0  0  0  0  0  0  0  0
    0.4463    0.1125    0.4417 H   0  0  0  0  0  0  0  0  0  0  0  0
    0.3949   -0.5745   -2.0632 H   0  0  0  0  0  0  0  0  0  0  0  0
   -1.2008    0.1230   -2.1725 H   0  0  0  0  0  0  0  0  0  0  0  0
   -3.3333   -1.3195   -1.2039 H   0  0  0  0  0  0  0  0  0  0  0  0
   -3.5124   -3.6394   -0.2918 H   0  0  0  0  0  0  0  0  0  0  0  0
    1.7097   -2.3887   -0.5657 H   0  0  0  0  0  0  0  0  0  0  0  0
   -1.8334   -5.7194    0.6037 H   0  0  0  0  0  0  0  0  0  0  0  0
    2.3201   -4.6108    0.3415 H   0  0  0  0  0  0  0  0  0  0  0  0
    0.5767   -6.2587    0.9209 H   0  0  0  0  0  0  0  0  0  0  0  0
    1.0412    1.6205   -2.1635 N   0  0  0  0  0  0  0  0  0  0  0  0
    1.8094    2.5992   -2.8988 C   0  0  2  0  0  0  0  0  0  0  0  0
    1.0957    3.9397   -2.7845 C   0  0  0  0  0  0  0  0  0  0  0  0
   -0.1018    4.0422   -2.5264 O   0  0  0  0  0  0  0  0  0  0  0  0
    1.9736    2.1933   -4.3552 C   0  0  0  0  0  0  0  0  0  0  0  0
    0.8076    0.7457   -2.6239 H   0  0  0  0  0  0  0  0  0  0  0  0
    2.7886    2.6634   -2.4120 H   0  0  0  0  0  0  0  0  0  0  0  0
    1.0029    2.1237   -4.8596 H   0  0  0  0  0  0  0  0  0  0  0  0
    2.5798    2.9214   -4.9041 H   0  0  0  0  0  0  0  0  0  0  0  0
    2.4603    1.2152   -4.4347 H   0  0  0  0  0  0  0  0  0  0  0  0
    1.9437    5.0065   -3.0471 N   0  0  0  0  0  0  0  0  0  0  0  0
    1.5008    6.3809   -3.0145 C   0  0  0  0  0  0  0  0  0  0  0  0
    2.9264    4.8295   -3.2337 H   0  0  0  0  0  0  0  0  0  0  0  0
    1.1879    6.6898   -4.0228 H   0  0  0  0  0  0  0  0  0  0  0  0
    0.6516    6.4760   -2.3219 H   0  0  0  0  0  0  0  0  0  0  0  0
    2.3257    7.0238   -2.6736 H   0  0  0  0  0  0  0  0  0  0  0  0
 29 30  2  0  0  0  0
 27 29  1  0  0  0  0
 28 30  1  0  0  0  0
 24 27  2  0  0  0  0
 26 28  2  0  0  0  0
 22 23  2  0  0  0  0
 23 25  1  0  0  0  0
 22 24  1  0  0  0  0
 24 26  1  0  0  0  0
 21 22  1  0  0  0  0
 25 26  1  0  0  0  0
  1  3  1  0  0  0  0
  1  7  1  0  0  0  0
  1  2  2  0  0  0  0
 42 43  1  0  0  0  0
 43 51  1  0  0  0  0
 43 44  2  0  0  0  0
  8  9  1  0  0  0  0
  9 17  1  0  0  0  0
  9 10  2  0  0  0  0
 18 19  1  0  0  0  0
 19 41  1  0  0  0  0
 19 20  2  0  0  0  0
 42 45  1  0  0  0  0
  8 11  1  0  0  0  0
 51 52  1  0  0  0  0
 18 21  1  0  0  0  0
 41 42  1  0  0  0  0
  7  8  1  0  0  0  0
 17 18  1  0  0  0  0
 29 39  1  0  0  0  0
 30 40  1  0  0  0  0
 27 37  1  0  0  0  0
 28 38  1  0  0  0  0
 23 35  1  0  0  0  0
  3  4  1  0  0  0  0
  3  5  1  0  0  0  0
  3  6  1  0  0  0  0
 45 48  1  0  0  0  0
 45 49  1  0  0  0  0
 45 50  1  0  0  0  0
 11 14  1  0  0  0  0
 11 15  1  0  0  0  0
 11 16  1  0  0  0  0
 52 54  1  0  0  0  0
 52 55  1  0  0  0  0
 52 56  1  0  0  0  0
 21 33  1  0  0  0  0
 21 34  1  0  0  0  0
 42 47  1  0  0  0  0
  8 13  1  0  0  0  0
 18 32  1  0  0  0  0
 25 36  1  0  0  0  0
 51 53  1  0  0  0  0
  7 12  1  0  0  0  0
 41 46  1  0  0  0  0
 17 31  1  0  0  0  0
M  END
$$$$

  -OEChem-05262214473D

 56 57  0     1  0  0  0  0  0999 V2000
   -2.2900    0.3401    4.1553 C   0  0  0  0  0  0  0  0  0  0  0  0
   -1.3426   -0.2746    3.6796 O   0  0  0  0  0  0  0  0  0  0  0  0
   -2.7219    0.0577    5.5560 C   0  0  0  0  0  0  0  0  0  0  0  0
   -3.4815   -0.7386    5.6094 H   0  0  0  0  0  0  0  0  0  0  0  0
   -1.8906   -0.2899    6.1903 H   0  0  0  0  0  0  0  0  0  0  0  0
   -3.1599    0.9126    6.0956 H   0  0  0  0  0  0  0  0  0  0  0  0
   -3.0397    1.3125    3.5142 N   0  0  0  0  0  0  0  0  0  0  0  0
   -2.7928    1.7385    2.1618 C   0  0  2  0  0  0  0  0  0  0  0  0
   -1.4579    1.1532    1.7206 C   0  0  0  0  0  0  0  0  0  0  0  0
   -0.5858    0.8004    2.5118 O   0  0  0  0  0  0  0  0  0  0  0  0
   -2.7841    3.2553    2.0523 C   0  0  0  0  0  0  0  0  0  0  0  0
   -3.8047    1.7484    4.0260 H   0  0  0  0  0  0  0  0  0  0  0  0
   -3.5969    1.3201    1.5466 H   0  0  0  0  0  0  0  0  0  0  0  0
   -1.9850    3.6926    2.6620 H   0  0  0  0  0  0  0  0  0  0  0  0
   -2.6246    3.5776    1.0180 H   0  0  0  0  0  0  0  0  0  0  0  0
   -3.7342    3.6765    2.3981 H   0  0  0  0  0  0  0  0  0  0  0  0
   -1.3352    1.1101    0.3372 N   0  0  0  0  0  0  0  0  0  0  0  0
   -0.1579    0.6093   -0.3265 C   0  0  2  0  0  0  0  0  0  0  0  0
    0.6067    1.8156   -0.8598 C   0  0  0  0  0  0  0  0  0  0  0  0
    1.0704    2.6897   -0.1306 O   0  0  0  0  0  0  0  0  0  0  0  0
   -0.5025   -0.3514   -1.4703 C   0  0  0  0  0  0  0  0  0  0  0  0
   -1.1228   -1.6387   -0.9844 C   0  0  0  0  0  0  0  0  0  0  0  0
   -2.4702   -1.9121   -0.9334 C   0  0  0  0  0  0  0  0  0  0  0  0
   -0.4299   -2.7836   -0.5007 C   0  0  0  0  0  0  0  0  0  0  0  0
   -2.6247   -3.1786   -0.4370 N   0  0  0  0  0  0  0  0  0  0  0  0
   -1.3953   -3.7349   -0.1641 C   0  0  0  0  0  0  0  0  0  0  0  0
    0.9300   -3.1029   -0.3163 C   0  0  0  0  0  0  0  0  0  0  0  0
   -1.0674   -4.9946    0.3498 C   0  0  0  0  0  0  0  0  0  0  0  0
    1.2729   -4.3591    0.1967 C   0  0  0  0  0  0  0  0  0  0  0  0
    0.2879   -5.2889    0.5239 C   0  0  0  0  0  0  0  0  0  0  0  0
   -2.1183    1.4068   -0.2401 H   0  0  0  0  0  0  0  0  0  0  0  0
    0.4463    0.1125    0.4417 H   0  0  0  0  0  0  0  0  0  0  0  0
    0.3949   -0.5745   -2.0632 H   0  0  0  0  0  0  0  0  0  0  0  0
   -1.2008    0.1230   -2.1725 H   0  0  0  0  0  0  0  0  0  0  0  0
   -3.3333   -1.3195   -1.2039 H   0  0  0  0  0  0  0  0  0  0  0  0
   -3.5124   -3.6394   -0.2918 H   0  0  0  0  0  0  0  0  0  0  0  0
    1.7097   -2.3887   -0.5657 H   0  0  0  0  0  0  0  0  0  0  0  0
   -1.8334   -5.7194    0.6037 H   0  0  0  0  0  0  0  0  0  0  0  0
    2.3201   -4.6108    0.3415 H   0  0  0  0  0  0  0  0  0  0  0  0
    0.5767   -6.2587    0.9209 H   0  0  0  0  0  0  0  0  0  0  0  0
    0.7506    1.7710   -2.2396 N   0  0  0  0  0  0  0  0  0  0  0  0
    1.4549    2.7805   -2.9970 C   0  0  2  0  0  0  0  0  0  0  0  0
    0.9216    4.1430   -2.5743 C   0  0  0  0  0  0  0  0  0  0  0  0
   -0.1834    4.3005   -2.0592 O   0  0  0  0  0  0  0  0  0  0  0  0
    1.2831    2.5699   -4.4933 C   0  0  0  0  0  0  0  0  0  0  0  0
    0.3404    0.9895   -2.7423 H   0  0  0  0  0  0  0  0  0  0  0  0
    2.5126    2.7007   -2.7234 H   0  0  0  0  0  0  0  0  0  0  0  0
    0.2296    2.6461   -4.7864 H   0  0  0  0  0  0  0  0  0  0  0  0
    1.8405    3.3184   -5.0660 H   0  0  0  0  0  0  0  0  0  0  0  0
    1.6398    1.5778   -4.7907 H   0  0  0  0  0  0  0  0  0  0  0  0
    1.8068    5.1674   -2.8794 N   0  0  0  0  0  0  0  0  0  0  0  0
    1.5247    6.5538   -2.5890 C   0  0  0  0  0  0  0  0  0  0  0  0
    2.7089    4.9430   -3.2888 H   0  0  0  0  0  0  0  0  0  0  0  0
    1.0515    7.0233   -3.4640 H   0  0  0  0  0  0  0  0  0  0  0  0
    0.8447    6.6167   -1.7266 H   0  0  0  0  0  0  0  0  0  0  0  0
    2.4633    7.0776   -2.3548 H   0  0  0  0  0  0  0  0  0  0  0  0
 29 30  2  0  0  0  0
 27 29  1  0  0  0  0
 28 30  1  0  0  0  0
 24 27  2  0  0  0  0
 26 28  2  0  0  0  0
 22 23  2  0  0  0  0
 23 25  1  0  0  0  0
 22 24  1  0  0  0  0
 24 26  1  0  0  0  0
 21 22  1  0  0  0  0
 25 26  1  0  0  0  0
  1  3  1  0  0  0  0
  1  7  1  0  0  0  0
  1  2  2  0  0  0  0
 42 43  1  0  0  0  0
 43 51  1  0  0  0  0
 43 44  2  0  0  0  0
  8  9  1  0  0  0  0
  9 17  1  0  0  0  0
  9 10  2  0  0  0  0
 18 19  1  0  0  0  0
 19 41  1  0  0  0  0
 19 20  2  0  0  0  0
 42 45  1  0  0  0  0
  8 11  1  0  0  0  0
 51 52  1  0  0  0  0
 18 21  1  0  0  0  0
 41 42  1  0  0  0  0
  7  8  1  0  0  0  0
 17 18  1  0  0  0  0
 29 39  1  0  0  0  0
 30 40  1  0  0  0  0
 27 37  1  0  0  0  0
 28 38  1  0  0  0  0
 23 35  1  0  0  0  0
  3  4  1  0  0  0  0
  3  5  1  0  0  0  0
  3  6  1  0  0  0  0
 45 48  1  0  0  0  0
 45 49  1  0  0  0  0
 45 50  1  0  0  0  0
 11 14  1  0  0  0  0
 11 15  1  0  0  0  0
 11 16  1  0  0  0  0
 52 54  1  0  0  0  0
 52 55  1  0  0  0  0
 52 56  1  0  0  0  0
 21 33  1  0  0  0  0
 21 34  1  0  0  0  0
 42 47  1  0  0  0  0
  8 13  1  0  0  0  0
 18 32  1  0  0  0  0
 25 36  1  0  0  0  0
 51 53  1  0  0  0  0
  7 12  1  0  0  0  0
 41 46  1  0  0  0  0
 17 31  1  0  0  0  0
M  END
$$$$

  -OEChem-05262214473D

 56 57  0     1  0  0  0  0  0999 V2000
   -2.2900    0.3401    4.1553 C   0  0  0  0  0  0  0  0  0  0  0  0
   -1.3426   -0.2746    3.6796 O   0  0  0  0  0  0  0  0  0  0  0  0
   -2.7219    0.0577    5.5560 C   0  0  0  0  0  0  0  0  0  0  0  0
   -3.4815   -0.7386    5.6094 H   0  0  0  0  0  0  0  0  0  0  0  0
   -1.8906   -0.2899    6.1903 H   0  0  0  0  0  0  0  0  0  0  0  0
   -3.1599    0.9126    6.0956 H   0  0  0  0  0  0  0  0  0  0  0  0
   -3.0397    1.3125    3.5142 N   0  0  0  0  0  0  0  0  0  0  0  0
   -2.7928    1.7385    2.1618 C   0  0  2  0  0  0  0  0  0  0  0  0
   -1.4579    1.1532    1.7206 C   0  0  0  0  0  0  0  0  0  0  0  0
   -0.5858    0.8004    2.5118 O   0  0  0  0  0  0  0  0  0  0  0  0
   -2.7841    3.2553    2.0523 C   0  0  0  0  0  0  0  0  0  0  0  0
   -3.8047    1.7484    4.0260 H   0  0  0  0  0  0  0  0  0  0  0  0
   -3.5969    1.3201    1.5466 H   0  0  0  0  0  0  0  0  0  0  0  0
   -1.9850    3.6926    2.6620 H   0  0  0  0  0  0  0  0  0  0  0  0
   -2.6246    3.5776    1.0180 H   0  0  0  0  0  0  0  0  0  0  0  0
   -3.7342    3.6765    2.3981 H   0  0  0  0  0  0  0  0  0  0  0  0
   -1.3352    1.1101    0.3372 N   0  0  0  0  0  0  0  0  0  0  0  0
   -0.1579    0.6093   -0.3265 C   0  0  2  0  0  0  0  0  0  0  0  0
    0.6067    1.8156   -0.8598 C   0  0  0  0  0  0  0  0  0  0  0  0
    1.2945    2.5413   -0.1449 O   0  0  0  0  0  0  0  0  0  0  0  0
   -0.5025   -0.3514   -1.4703 C   0  0  0  0  0  0  0  0  0  0  0  0
   -1.1228   -1.6387   -0.9844 C   0  0  0  0  0  0  0  0  0  0  0  0
   -2.4702   -1.9121   -0.9334 C   0  0  0  0  0  0  0  0  0  0  0  0
   -0.4299   -2.7836   -0.5007 C   0  0  0  0  0  0  0  0  0  0  0  0
   -2.6247   -3.1786   -0.4370 N   0  0  0  0  0  0  0  0  0  0  0  0
   -1.3953   -3.7349   -0.1641 C   0  0  0  0  0  0  0  0  0  0  0  0
    0.9300   -3.1029   -0.3163 C   0  0  0  0  0  0  0  0  0  0  0  0
   -1.0674   -4.9946    0.3498 C   0  0  0  0  0  0  0  0  0  0  0  0
    1.2729   -4.3591    0.1967 C   0  0  0  0  0  0  0  0  0  0  0  0
    0.2879   -5.2889    0.5239 C   0  0  0  0  0  0  0  0  0  0  0  0
   -2.1183    1.4068   -0.2401 H   0  0  0  0  0  0  0  0  0  0  0  0
    0.4463    0.1125    0.4417 H   0  0  0  0  0  0  0  0  0  0  0  0
    0.3949   -0.5745   -2.0632 H   0  0  0  0  0  0  0  0  0  0  0  0
   -1.2008    0.1230   -2.1725 H   0  0  0  0  0  0  0  0  0  0  0  0
   -3.3333   -1.3195   -1.2039 H   0  0  0  0  0  0  0  0  0  0  0  0
   -3.5124   -3.6394   -0.2918 H   0  0  0  0  0  0  0  0  0  0  0  0
    1.7097   -2.3887   -0.5657 H   0  0  0  0  0  0  0  0  0  0  0  0
   -1.8334   -5.7194    0.6037 H   0  0  0  0  0  0  0  0  0  0  0  0
    2.3201   -4.6108    0.3415 H   0  0  0  0  0  0  0  0  0  0  0  0
    0.5767   -6.2587    0.9209 H   0  0  0  0  0  0  0  0  0  0  0  0
    0.4680    1.9526   -2.2340 N   0  0  0  0  0  0  0  0  0  0  0  0
    1.1088    3.0004   -2.9957 C   0  0  2  0  0  0  0  0  0  0  0  0
    0.8149    4.3278   -2.3093 C   0  0  0  0  0  0  0  0  0  0  0  0
   -0.1431    4.4967   -1.5577 O   0  0  0  0  0  0  0  0  0  0  0  0
    0.6219    3.0141   -4.4364 C   0  0  0  0  0  0  0  0  0  0  0  0
   -0.1131    1.2827   -2.7293 H   0  0  0  0  0  0  0  0  0  0  0  0
    2.1856    2.8021   -2.9628 H   0  0  0  0  0  0  0  0  0  0  0  0
   -0.4550    3.2113   -4.4895 H   0  0  0  0  0  0  0  0  0  0  0  0
    1.1292    3.7899   -5.0193 H   0  0  0  0  0  0  0  0  0  0  0  0
    0.8072    2.0486   -4.9195 H   0  0  0  0  0  0  0  0  0  0  0  0
    1.7235    5.3135   -2.6684 N   0  0  0  0  0  0  0  0  0  0  0  0
    1.6506    6.6635   -2.1604 C   0  0  0  0  0  0  0  0  0  0  0  0
    2.4978    5.0795   -3.2828 H   0  0  0  0  0  0  0  0  0  0  0  0
    1.0643    7.2853   -2.8530 H   0  0  0  0  0  0  0  0  0  0  0  0
    1.1659    6.6579   -1.1730 H   0  0  0  0  0  0  0  0  0  0  0  0
    2.6663    7.0757   -2.0680 H   0  0  0  0  0  0  0  0  0  0  0  0
 29 30  2  0  0  0  0
 27 29  1  0  0  0  0
 28 30  1  0  0  0  0
 24 27  2  0  0  0  0
 26 28  2  0  0  0  0
 22 23  2  0  0  0  0
 23 25  1  0  0  0  0
 22 24  1  0  0  0  0
 24 26  1  0  0  0  0
 21 22  1  0  0  0  0
 25 26  1  0  0  0  0
  1  3  1  0  0  0  0
  1  7  1  0  0  0  0
  1  2  2  0  0  0  0
 42 43  1  0  0  0  0
 43 51  1  0  0  0  0
 43 44  2  0  0  0  0
  8  9  1  0  0  0  0
  9 17  1  0  0  0  0
  9 10  2  0  0  0  0
 18 19  1  0  0  0  0
 19 41  1  0  0  0  0
 19 20  2  0  0  0  0
 42 45  1  0  0  0  0
  8 11  1  0  0  0  0
 51 52  1  0  0  0  0
 18 21  1  0  0  0  0
 41 42  1  0  0  0  0
  7  8  1  0  0  0  0
 17 18  1  0  0  0  0
 29 39  1  0  0  0  0
 30 40  1  0  0  0  0
 27 37  1  0  0  0  0
 28 38  1  0  0  0  0
 23 35  1  0  0  0  0
  3  4  1  0  0  0  0
  3  5  1  0  0  0  0
  3  6  1  0  0  0  0
 45 48  1  0  0  0  0
 45 49  1  0  0  0  0
 45 50  1  0  0  0  0
 11 14  1  0  0  0  0
 11 15  1  0  0  0  0
 11 16  1  0  0  0  0
 52 54  1  0  0  0  0
 52 55  1  0  0  0  0
 52 56  1  0  0  0  0
 21 33  1  0  0  0  0
 21 34  1  0  0  0  0
 42 47  1  0  0  0  0
  8 13  1  0  0  0  0
 18 32  1  0  0  0  0
 25 36  1  0  0  0  0
 51 53  1  0  0  0  0
  7 12  1  0  0  0  0
 41 46  1  0  0  0  0
 17 31  1  0  0  0  0
M  END
$$$$

  -OEChem-05262214473D

 56 57  0     1  0  0  0  0  0999 V2000
   -2.2900    0.3401    4.1553 C   0  0  0  0  0  0  0  0  0  0  0  0
   -1.3426   -0.2746    3.6796 O   0  0  0  0  0  0  0  0  0  0  0  0
   -2.7219    0.0577    5.5560 C   0  0  0  0  0  0  0  0  0  0  0  0
   -3.4815   -0.7386    5.6094 H   0  0  0  0  0  0  0  0  0  0  0  0
   -1.8906   -0.2899    6.1903 H   0  0  0  0  0  0  0  0  0  0  0  0
   -3.1599    0.9126    6.0956 H   0  0  0  0  0  0  0  0  0  0  0  0
   -3.0397    1.3125    3.5142 N   0  0  0  0  0  0  0  0  0  0  0  0
   -2.7928    1.7385    2.1618 C   0  0  2  0  0  0  0  0  0  0  0  0
   -1.4579    1.1532    1.7206 C   0  0  0  0  0  0  0  0  0  0  0  0
   -0.5858    0.8004    2.5118 O   0  0  0  0  0  0  0  0  0  0  0  0
   -2.7841    3.2553    2.0523 C   0  0  0  0  0  0  0  0  0  0  0  0
   -3.8047    1.7484    4.0260 H   0  0  0  0  0  0  0  0  0  0  0  0
   -3.5969    1.3201    1.5466 H   0  0  0  0  0  0  0  0  0  0  0  0
   -1.9850    3.6926    2.6620 H   0  0  0  0  0  0  0  0  0  0  0  0
   -2.6246    3.5776    1.0180 H   0  0  0  0  0  0  0  0  0  0  0  0
   -3.7342    3.6765    2.3981 H   0  0  0  0  0  0  0  0  0  0  0  0
   -1.3352    1.1101    0.3372 N   0  0  0  0  0  0  0  0  0  0  0  0
   -0.1579    0.6093   -0.3265 C   0  0  2  0  0  0  0  0  0  0  0  0
    0.6067    1.8156   -0.8598 C   0  0  0  0  0  0  0  0  0  0  0  0
    1.4947    2.3796   -0.2239 O   0  0  0  0  0  0  0  0  0  0  0  0
   -0.5025   -0.3514   -1.4703 C   0  0  0  0  0  0  0  0  0  0  0  0
   -1.1228   -1.6387   -0.9844 C   0  0  0  0  0  0  0  0  0  0  0  0
   -2.4702   -1.9121   -0.9334 C   0  0  0  0  0  0  0  0  0  0  0  0
   -0.4299   -2.7836   -0.5007 C   0  0  0  0  0  0  0  0  0  0  0  0
   -2.6247   -3.1786   -0.4370 N   0  0  0  0  0  0  0  0  0  0  0  0
   -1.3953   -3.7349   -0.1641 C   0  0  0  0  0  0  0  0  0  0  0  0
    0.9300   -3.1029   -0.3163 C   0  0  0  0  0  0  0  0  0  0  0  0
   -1.0674   -4.9946    0.3498 C   0  0  0  0  0  0  0  0  0  0  0  0
    1.2729   -4.3591    0.1967 C   0  0  0  0  0  0  0  0  0  0  0  0
    0.2879   -5.2889    0.5239 C   0  0  0  0  0  0  0  0  0  0  0  0
   -2.1183    1.4068   -0.2401 H   0  0  0  0  0  0  0  0  0  0  0  0
    0.4463    0.1125    0.4417 H   0  0  0  0  0  0  0  0  0  0  0  0
    0.3949   -0.5745   -2.0632 H   0  0  0  0  0  0  0  0  0  0  0  0
   -1.2008    0.1230   -2.1725 H   0  0  0  0  0  0  0  0  0  0  0  0
   -3.3333   -1.3195   -1.2039 H   0  0  0  0  0  0  0  0  0  0  0  0
   -3.5124   -3.6394   -0.2918 H   0  0  0  0  0  0  0  0  0  0  0  0
    1.7097   -2.3887   -0.5657 H   0  0  0  0  0  0  0  0  0  0  0  0
   -1.8334   -5.7194    0.6037 H   0  0  0  0  0  0  0  0  0  0  0  0
    2.3201   -4.6108    0.3415 H   0  0  0  0  0  0  0  0  0  0  0  0
    0.5767   -6.2587    0.9209 H   0  0  0  0  0  0  0  0  0  0  0  0
    0.2126    2.1529   -2.1472 N   0  0  0  0  0  0  0  0  0  0  0  0
    0.7946    3.2441   -2.8951 C   0  0  2  0  0  0  0  0  0  0  0  0
    0.7829    4.4816   -2.0074 C   0  0  0  0  0  0  0  0  0  0  0  0
    0.0163    4.6175   -1.0561 O   0  0  0  0  0  0  0  0  0  0  0  0
    0.0352    3.4956   -4.1884 C   0  0  0  0  0  0  0  0  0  0  0  0
   -0.5219    1.6052   -2.5858 H   0  0  0  0  0  0  0  0  0  0  0  0
    1.8299    2.9607   -3.1140 H   0  0  0  0  0  0  0  0  0  0  0  0
   -1.0043    3.7807   -3.9892 H   0  0  0  0  0  0  0  0  0  0  0  0
    0.4943    4.3037   -4.7674 H   0  0  0  0  0  0  0  0  0  0  0  0
    0.0192    2.5955   -4.8123 H   0  0  0  0  0  0  0  0  0  0  0  0
    1.6995    5.4347   -2.4287 N   0  0  0  0  0  0  0  0  0  0  0  0
    1.8699    6.7025   -1.7580 C   0  0  0  0  0  0  0  0  0  0  0  0
    2.3075    5.2296   -3.2161 H   0  0  0  0  0  0  0  0  0  0  0  0
    1.2256    7.4579   -2.2314 H   0  0  0  0  0  0  0  0  0  0  0  0
    1.5933    6.5967   -0.6986 H   0  0  0  0  0  0  0  0  0  0  0  0
    2.9209    7.0183   -1.8328 H   0  0  0  0  0  0  0  0  0  0  0  0
 29 30  2  0  0  0  0
 27 29  1  0  0  0  0
 28 30  1  0  0  0  0
 24 27  2  0  0  0  0
 26 28  2  0  0  0  0
 22 23  2  0  0  0  0
 23 25  1  0  0  0  0
 22 24  1  0  0  0  0
 24 26  1  0  0  0  0
 21 22  1  0  0  0  0
 25 26  1  0  0  0  0
  1  3  1  0  0  0  0
  1  7  1  0  0  0  0
  1  2  2  0  0  0  0
 42 43  1  0  0  0  0
 43 51  1  0  0  0  0
 43 44  2  0  0  0  0
  8  9  1  0  0  0  0
  9 17  1  0  0  0  0
  9 10  2  0  0  0  0
 18 19  1  0  0  0  0
 19 41  1  0  0  0  0
 19 20  2  0  0  0  0
 42 45  1  0  0  0  0
  8 11  1  0  0  0  0
 51 52  1  0  0  0  0
 18 21  1  0  0  0  0
 41 42  1  0  0  0  0
  7  8  1  0  0  0  0
 17 18  1  0  0  0  0
 29 39  1  0  0  0  0
 30 40  1  0  0  0  0
 27 37  1  0  0  0  0
 28 38  1  0  0  0  0
 23 35  1  0  0  0  0
  3  4  1  0  0  0  0
  3  5  1  0  0  0  0
  3  6  1  0  0  0  0
 45 48  1  0  0  0  0
 45 49  1  0  0  0  0
 45 50  1  0  0  0  0
 11 14  1  0  0  0  0
 11 15  1  0  0  0  0
 11 16  1  0  0  0  0
 52 54  1  0  0  0  0
 52 55  1  0  0  0  0
 52 56  1  0  0  0  0
 21 33  1  0  0  0  0
 21 34  1  0  0  0  0
 42 47  1  0  0  0  0
  8 13  1  0  0  0  0
 18 32  1  0  0  0  0
 25 36  1  0  0  0  0
 51 53  1  0  0  0  0
  7 12  1  0  0  0  0
 41 46  1  0  0  0  0
 17 31  1  0  0  0  0
M  END
$$$$

  -OEChem-05262214473D

 56 57  0     1  0  0  0  0  0999 V2000
   -2.2900    0.3401    4.1553 C   0  0  0  0  0  0  0  0  0  0  0  0
   -1.3426   -0.2746    3.6796 O   0  0  0  0  0  0  0  0  0  0  0  0
   -2.7219    0.0577    5.5560 C   0  0  0  0  0  0  0  0  0  0  0  0
   -3.4815   -0.7386    5.6094 H   0  0  0  0  0  0  0  0  0  0  0  0
   -1.8906   -0.2899    6.1903 H   0  0  0  0  0  0  0  0  0  0  0  0
   -3.1599    0.9126    6.0956 H   0  0  0  0  0  0  0  0  0  0  0  0
   -3.0397    1.3125    3.5142 N   0  0  0  0  0  0  0  0  0  0  0  0
   -2.7928    1.7385    2.1618 C   0  0  2  0  0  0  0  0  0  0  0  0
   -1.4579    1.1532    1.7206 C   0  0  0  0  0  0  0  0  0  0  0  0
   -0.5858    0.8004    2.5118 O   0  0  0  0  0  0  0  0  0  0  0  0
   -2.7841    3.2553    2.0523 C   0  0  0  0  0  0  0  0  0  0  0  0
   -3.8047    1.7484    4.0260 H   0  0  0  0  0  0  0  0  0  0  0  0
   -3.5969    1.3201    1.5466 H   0  0  0  0  0  0  0  0  0  0  0  0
   -1.9850    3.6926    2.6620 H   0  0  0  0  0  0  0  0  0  0  0  0
   -2.6246    3.5776    1.0180 H   0  0  0  0  0  0  0  0  0  0  0  0
   -3.7342    3.6765    2.3981 H   0  0  0  0  0  0  0  0  0  0  0  0
   -1.3352    1.1101    0.3372 N   0  0  0  0  0  0  0  0  0  0  0  0
   -0.1579    0.6093   -0.3265 C   0  0  2  0  0  0  0  0  0  0  0  0
    0.6067    1.8156   -0.8598 C   0  0  0  0  0  0  0  0  0  0  0  0
    1.6571    2.2154   -0.3622 O   0  0  0  0  0  0  0  0  0  0  0  0
   -0.5025   -0.3514   -1.4703 C   0  0  0  0  0  0  0  0  0  0  0  0
   -1.1228   -1.6387   -0.9844 C   0  0  0  0  0  0  0  0  0  0  0  0
   -2.4702   -1.9121   -0.9334 C   0  0  0  0  0  0  0  0  0  0  0  0
   -0.4299   -2.7836   -0.5007 C   0  0  0  0  0  0  0  0  0  0  0  0
   -2.6247   -3.1786   -0.4370 N   0  0  0  0  0  0  0  0  0  0  0  0
   -1.3953   -3.7349   -0.1641 C   0  0  0  0  0  0  0  0  0  0  0  0
    0.9300   -3.1029   -0.3163 C   0  0  0  0  0  0  0  0  0  0  0  0
   -1.0674   -4.9946    0.3498 C   0  0  0  0  0  0  0  0  0  0  0  0
    1.2729   -4.3591    0.1967 C   0  0  0  0  0  0  0  0  0  0  0  0
    0.2879   -5.2889    0.5239 C   0  0  0  0  0  0  0  0  0  0  0  0
   -2.1183    1.4068   -0.2401 H   0  0  0  0  0  0  0  0  0  0  0  0
    0.4463    0.1125    0.4417 H   0  0  0  0  0  0  0  0  0  0  0  0
    0.3949   -0.5745   -2.0632 H   0  0  0  0  0  0  0  0  0  0  0  0
   -1.2008    0.1230   -2.1725 H   0  0  0  0  0  0  0  0  0  0  0  0
   -3.3333   -1.3195   -1.2039 H   0  0  0  0  0  0  0  0  0  0  0  0
   -3.5124   -3.6394   -0.2918 H   0  0  0  0  0  0  0  0  0  0  0  0
    1.7097   -2.3887   -0.5657 H   0  0  0  0  0  0  0  0  0  0  0  0
   -1.8334   -5.7194    0.6037 H   0  0  0  0  0  0  0  0  0  0  0  0
    2.3201   -4.6108    0.3415 H   0  0  0  0  0  0  0  0  0  0  0  0
    0.5767   -6.2587    0.9209 H   0  0  0  0  0  0  0  0  0  0  0  0
    0.0018    2.3582   -1.9851 N   0  0  0  0  0  0  0  0  0  0  0  0
    0.5338    3.4948   -2.7019 C   0  0  2  0  0  0  0  0  0  0  0  0
    0.8276    4.5938   -1.6893 C   0  0  0  0  0  0  0  0  0  0  0  0
    0.2839    4.6546   -0.5885 O   0  0  0  0  0  0  0  0  0  0  0  0
   -0.4372    3.9817   -3.7662 C   0  0  0  0  0  0  0  0  0  0  0  0
   -0.8581    1.9351   -2.3217 H   0  0  0  0  0  0  0  0  0  0  0  0
    1.4697    3.1658   -3.1665 H   0  0  0  0  0  0  0  0  0  0  0  0
   -1.3809    4.3155   -3.3195 H   0  0  0  0  0  0  0  0  0  0  0  0
   -0.0208    4.8247   -4.3274 H   0  0  0  0  0  0  0  0  0  0  0  0
   -0.6705    3.1811   -4.4764 H   0  0  0  0  0  0  0  0  0  0  0  0
    1.7363    5.5229   -2.1765 N   0  0  0  0  0  0  0  0  0  0  0  0
    2.1677    6.6680   -1.4091 C   0  0  0  0  0  0  0  0  0  0  0  0
    2.1509    5.3832   -3.0931 H   0  0  0  0  0  0  0  0  0  0  0  0
    1.5243    7.5293   -1.6417 H   0  0  0  0  0  0  0  0  0  0  0  0
    2.0978    6.4374   -0.3359 H   0  0  0  0  0  0  0  0  0  0  0  0
    3.2099    6.9092   -1.6652 H   0  0  0  0  0  0  0  0  0  0  0  0
 29 30  2  0  0  0  0
 27 29  1  0  0  0  0
 28 30  1  0  0  0  0
 24 27  2  0  0  0  0
 26 28  2  0  0  0  0
 22 23  2  0  0  0  0
 23 25  1  0  0  0  0
 22 24  1  0  0  0  0
 24 26  1  0  0  0  0
 21 22  1  0  0  0  0
 25 26  1  0  0  0  0
  1  3  1  0  0  0  0
  1  7  1  0  0  0  0
  1  2  2  0  0  0  0
 42 43  1  0  0  0  0
 43 51  1  0  0  0  0
 43 44  2  0  0  0  0
  8  9  1  0  0  0  0
  9 17  1  0  0  0  0
  9 10  2  0  0  0  0
 18 19  1  0  0  0  0
 19 41  1  0  0  0  0
 19 20  2  0  0  0  0
 42 45  1  0  0  0  0
  8 11  1  0  0  0  0
 51 52  1  0  0  0  0
 18 21  1  0  0  0  0
 41 42  1  0  0  0  0
  7  8  1  0  0  0  0
 17 18  1  0  0  0  0
 29 39  1  0  0  0  0
 30 40  1  0  0  0  0
 27 37  1  0  0  0  0
 28 38  1  0  0  0  0
 23 35  1  0  0  0  0
  3  4  1  0  0  0  0
  3  5  1  0  0  0  0
  3  6  1  0  0  0  0
 45 48  1  0  0  0  0
 45 49  1  0  0  0  0
 45 50  1  0  0  0  0
 11 14  1  0  0  0  0
 11 15  1  0  0  0  0
 11 16  1  0  0  0  0
 52 54  1  0  0  0  0
 52 55  1  0  0  0  0
 52 56  1  0  0  0  0
 21 33  1  0  0  0  0
 21 34  1  0  0  0  0
 42 47  1  0  0  0  0
  8 13  1  0  0  0  0
 18 32  1  0  0  0  0
 25 36  1  0  0  0  0
 51 53  1  0  0  0  0
  7 12  1  0  0  0  0
 41 46  1  0  0  0  0
 17 31  1  0  0  0  0
M  END
$$$$

  -OEChem-05262214473D

 56 57  0     1  0  0  0  0  0999 V2000
   -2.2900    0.3401    4.1553 C   0  0  0  0  0  0  0  0  0  0  0  0
   -1.3426   -0.2746    3.6796 O   0  0  0  0  0  0  0  0  0  0  0  0
   -2.7219    0.0577    5.5560 C   0  0  0  0  0  0  0  0  0  0  0  0
   -3.4815   -0.7386    5.6094 H   0  0  0  0  0  0  0  0  0  0  0  0
   -1.8906   -0.2899    6.1903 H   0  0  0  0  0  0  0  0  0  0  0  0
   -3.1599    0.9126    6.0956 H   0  0  0  0  0  0  0  0  0  0  0  0
   -3.0397    1.3125    3.5142 N   0  0  0  0  0  0  0  0  0  0  0  0
   -2.7928    1.7385    2.1618 C   0  0  2  0  0  0  0  0  0  0  0  0
   -1.4579    1.1532    1.7206 C   0  0  0  0  0  0  0  0  0  0  0  0
   -0.5858    0.8004    2.5118 O   0  0  0  0  0  0  0  0  0  0  0  0
   -2.7841    3.2553    2.0523 C   0  0  0  0  0  0  0  0  0  0  0  0
   -3.8047    1.7484    4.0260 H   0  0  0  0  0  0  0  0  0  0  0  0
   -3.5969    1.3201    1.5466 H   0  0  0  0  0  0  0  0  0  0  0  0
   -1.9850    3.6926    2.6620 H   0  0  0  0  0  0  0  0  0  0  0  0
   -2.6246    3.5776    1.0180 H   0  0  0  0  0  0  0  0  0  0  0  0
   -3.7342    3.6765    2.3981 H   0  0  0  0  0  0  0  0  0  0  0  0
   -1.3352    1.1101    0.3372 N   0  0  0  0  0  0  0  0  0  0  0  0
   -0.1579    0.6093   -0.3265 C   0  0  2  0  0  0  0  0  0  0  0  0
    0.6067    1.8156   -0.8598 C   0  0  0  0  0  0  0  0  0  0  0  0
    1.7709    2.0602   -0.5503 O   0  0  0  0  0  0  0  0  0  0  0  0
   -0.5025   -0.3514   -1.4703 C   0  0  0  0  0  0  0  0  0  0  0  0
   -1.1228   -1.6387   -0.9844 C   0  0  0  0  0  0  0  0  0  0  0  0
   -2.4702   -1.9121   -0.9334 C   0  0  0  0  0  0  0  0  0  0  0  0
   -0.4299   -2.7836   -0.5007 C   0  0  0  0  0  0  0  0  0  0  0  0
   -2.6247   -3.1786   -0.4370 N   0  0  0  0  0  0  0  0  0  0  0  0
   -1.3953   -3.7349   -0.1641 C   0  0  0  0  0  0  0  0  0  0  0  0
    0.9300   -3.1029   -0.3163 C   0  0  0  0  0  0  0  0  0  0  0  0
   -1.0674   -4.9946    0.3498 C   0  0  0  0  0  0  0  0  0  0  0  0
    1.2729   -4.3591    0.1967 C   0  0  0  0  0  0  0  0  0  0  0  0
    0.2879   -5.2889    0.5239 C   0  0  0  0  0  0  0  0  0  0  0  0
   -2.1183    1.4068   -0.2401 H   0  0  0  0  0  0  0  0  0  0  0  0
    0.4463    0.1125    0.4417 H   0  0  0  0  0  0  0  0  0  0  0  0
    0.3949   -0.5745   -2.0632 H   0  0  0  0  0  0  0  0  0  0  0  0
   -1.2008    0.1230   -2.1725 H   0  0  0  0  0  0  0  0  0  0  0  0
   -3.3333   -1.3195   -1.2039 H   0  0  0  0  0  0  0  0  0  0  0  0
   -3.5124   -3.6394   -0.2918 H   0  0  0  0  0  0  0  0  0  0  0  0
    1.7097   -2.3887   -0.5657 H   0  0  0  0  0  0  0  0  0  0  0  0
   -1.8334   -5.7194    0.6037 H   0  0  0  0  0  0  0  0  0  0  0  0
    2.3201   -4.6108    0.3415 H   0  0  0  0  0  0  0  0  0  0  0  0
    0.5767   -6.2587    0.9209 H   0  0  0  0  0  0  0  0  0  0  0  0
   -0.1500    2.5545   -1.7586 N   0  0  0  0  0  0  0  0  0  0  0  0
    0.3442    3.7355   -2.4293 C   0  0  2  0  0  0  0  0  0  0  0  0
    0.9462    4.6569   -1.3767 C   0  0  0  0  0  0  0  0  0  0  0  0
    0.6415    4.6055   -0.1869 O   0  0  0  0  0  0  0  0  0  0  0  0
   -0.7630    4.4392   -3.1985 C   0  0  0  0  0  0  0  0  0  0  0  0
   -1.0990    2.2500   -1.9548 H   0  0  0  0  0  0  0  0  0  0  0  0
    1.1296    3.4033   -3.1169 H   0  0  0  0  0  0  0  0  0  0  0  0
   -1.5591    4.7792   -2.5261 H   0  0  0  0  0  0  0  0  0  0  0  0
   -0.3810    5.3175   -3.7292 H   0  0  0  0  0  0  0  0  0  0  0  0
   -1.2149    3.7657   -3.9347 H   0  0  0  0  0  0  0  0  0  0  0  0
    1.8315    5.5720   -1.9289 N   0  0  0  0  0  0  0  0  0  0  0  0
    2.5236    6.5624   -1.1376 C   0  0  0  0  0  0  0  0  0  0  0  0
    2.0388    5.5297   -2.9224 H   0  0  0  0  0  0  0  0  0  0  0  0
    1.9400    7.4947   -1.1239 H   0  0  0  0  0  0  0  0  0  0  0  0
    2.6449    6.1907   -0.1095 H   0  0  0  0  0  0  0  0  0  0  0  0
    3.5134    6.7560   -1.5767 H   0  0  0  0  0  0  0  0  0  0  0  0
 29 30  2  0  0  0  0
 27 29  1  0  0  0  0
 28 30  1  0  0  0  0
 24 27  2  0  0  0  0
 26 28  2  0  0  0  0
 22 23  2  0  0  0  0
 23 25  1  0  0  0  0
 22 24  1  0  0  0  0
 24 26  1  0  0  0  0
 21 22  1  0  0  0  0
 25 26  1  0  0  0  0
  1  3  1  0  0  0  0
  1  7  1  0  0  0  0
  1  2  2  0  0  0  0
 42 43  1  0  0  0  0
 43 51  1  0  0  0  0
 43 44  2  0  0  0  0
  8  9  1  0  0  0  0
  9 17  1  0  0  0  0
  9 10  2  0  0  0  0
 18 19  1  0  0  0  0
 19 41  1  0  0  0  0
 19 20  2  0  0  0  0
 42 45  1  0  0  0  0
  8 11  1  0  0  0  0
 51 52  1  0  0  0  0
 18 21  1  0  0  0  0
 41 42  1  0  0  0  0
  7  8  1  0  0  0  0
 17 18  1  0  0  0  0
 29 39  1  0  0  0  0
 30 40  1  0  0  0  0
 27 37  1  0  0  0  0
 28 38  1  0  0  0  0
 23 35  1  0  0  0  0
  3  4  1  0  0  0  0
  3  5  1  0  0  0  0
  3  6  1  0  0  0  0
 45 48  1  0  0  0  0
 45 49  1  0  0  0  0
 45 50  1  0  0  0  0
 11 14  1  0  0  0  0
 11 15  1  0  0  0  0
 11 16  1  0  0  0  0
 52 54  1  0  0  0  0
 52 55  1  0  0  0  0
 52 56  1  0  0  0  0
 21 33  1  0  0  0  0
 21 34  1  0  0  0  0
 42 47  1  0  0  0  0
  8 13  1  0  0  0  0
 18 32  1  0  0  0  0
 25 36  1  0  0  0  0
 51 53  1  0  0  0  0
  7 12  1  0  0  0  0
 41 46  1  0  0  0  0
 17 31  1  0  0  0  0
M  END
$$$$

  -OEChem-05262214473D

 56 57  0     1  0  0  0  0  0999 V2000
   -2.2900    0.3401    4.1553 C   0  0  0  0  0  0  0  0  0  0  0  0
   -1.3426   -0.2746    3.6796 O   0  0  0  0  0  0  0  0  0  0  0  0
   -2.7219    0.0577    5.5560 C   0  0  0  0  0  0  0  0  0  0  0  0
   -3.4815   -0.7386    5.6094 H   0  0  0  0  0  0  0  0  0  0  0  0
   -1.8906   -0.2899    6.1903 H   0  0  0  0  0  0  0  0  0  0  0  0
   -3.1599    0.9126    6.0956 H   0  0  0  0  0  0  0  0  0  0  0  0
   -3.0397    1.3125    3.5142 N   0  0  0  0  0  0  0  0  0  0  0  0
   -2.7928    1.7385    2.1618 C   0  0  2  0  0  0  0  0  0  0  0  0
   -1.4579    1.1532    1.7206 C   0  0  0  0  0  0  0  0  0  0  0  0
   -0.5858    0.8004    2.5118 O   0  0  0  0  0  0  0  0  0  0  0  0
   -2.7841    3.2553    2.0523 C   0  0  0  0  0  0  0  0  0  0  0  0
   -3.8047    1.7484    4.0260 H   0  0  0  0  0  0  0  0  0  0  0  0
   -3.5969    1.3201    1.5466 H   0  0  0  0  0  0  0  0  0  0  0  0
   -1.9850    3.6926    2.6620 H   0  0  0  0  0  0  0  0  0  0  0  0
   -2.6246    3.5776    1.0180 H   0  0  0  0  0  0  0  0  0  0  0  0
   -3.7342    3.6765    2.3981 H   0  0  0  0  0  0  0  0  0  0  0  0
   -1.3352    1.1101    0.3372 N   0  0  0  0  0  0  0  0  0  0  0  0
   -0.1579    0.6093   -0.3265 C   0  0  2  0  0  0  0  0  0  0  0  0
    0.6067    1.8156   -0.8598 C   0  0  0  0  0  0  0  0  0  0  0  0
    1.8282    1.9243   -0.7755 O   0  0  0  0  0  0  0  0  0  0  0  0
   -0.5025   -0.3514   -1.4703 C   0  0  0  0  0  0  0  0  0  0  0  0
   -1.1228   -1.6387   -0.9844 C   0  0  0  0  0  0  0  0  0  0  0  0
   -2.4702   -1.9121   -0.9334 C   0  0  0  0  0  0  0  0  0  0  0  0
   -0.4299   -2.7836   -0.5007 C   0  0  0  0  0  0  0  0  0  0  0  0
   -2.6247   -3.1786   -0.4370 N   0  0  0  0  0  0  0  0  0  0  0  0
   -1.3953   -3.7349   -0.1641 C   0  0  0  0  0  0  0  0  0  0  0  0
    0.9300   -3.1029   -0.3163 C   0  0  0  0  0  0  0  0  0  0  0  0
   -1.0674   -4.9946    0.3498 C   0  0  0  0  0  0  0  0  0  0  0  0
    1.2729   -4.3591    0.1967 C   0  0  0  0  0  0  0  0  0  0  0  0
    0.2879   -5.2889    0.5239 C   0  0  0  0  0  0  0  0  0  0  0  0
   -2.1183    1.4068   -0.2401 H   0  0  0  0  0  0  0  0  0  0  0  0
    0.4463    0.1125    0.4417 H   0  0  0  0  0  0  0  0  0  0  0  0
    0.3949   -0.5745   -2.0632 H   0  0  0  0  0  0  0  0  0  0  0  0
   -1.2008    0.1230   -2.1725 H   0  0  0  0  0  0  0  0  0  0  0  0
   -3.3333   -1.3195   -1.2039 H   0  0  0  0  0  0  0  0  0  0  0  0
   -3.5124   -3.6394   -0.2918 H   0  0  0  0  0  0  0  0  0  0  0  0
    1.7097   -2.3887   -0.5657 H   0  0  0  0  0  0  0  0  0  0  0  0
   -1.8334   -5.7194    0.6037 H   0  0  0  0  0  0  0  0  0  0  0  0
    2.3201   -4.6108    0.3415 H   0  0  0  0  0  0  0  0  0  0  0  0
    0.5767   -6.2587    0.9209 H   0  0  0  0  0  0  0  0  0  0  0  0
   -0.2325    2.7285   -1.4833 N   0  0  0  0  0  0  0  0  0  0  0  0
    0.2387    3.9498   -2.0959 C   0  0  2  0  0  0  0  0  0  0  0  0
    1.1305    4.6665   -1.0907 C   0  0  0  0  0  0  0  0  0  0  0  0
    1.0647    4.4736    0.1215 O   0  0  0  0  0  0  0  0  0  0  0  0
   -0.9200    4.8369   -2.5241 C   0  0  0  0  0  0  0  0  0  0  0  0
   -1.2280    2.5283   -1.5103 H   0  0  0  0  0  0  0  0  0  0  0  0
    0.8327    3.6571   -2.9685 H   0  0  0  0  0  0  0  0  0  0  0  0
   -1.5267    5.1403   -1.6631 H   0  0  0  0  0  0  0  0  0  0  0  0
   -0.5619    5.7485   -3.0137 H   0  0  0  0  0  0  0  0  0  0  0  0
   -1.5768    4.3093   -3.2241 H   0  0  0  0  0  0  0  0  0  0  0  0
    1.9786    5.5787   -1.7029 N   0  0  0  0  0  0  0  0  0  0  0  0
    2.9135    6.3930   -0.9620 C   0  0  0  0  0  0  0  0  0  0  0  0
    1.9787    5.6593   -2.7155 H   0  0  0  0  0  0  0  0  0  0  0  0
    2.4445    7.3564   -0.7134 H   0  0  0  0  0  0  0  0  0  0  0  0
    3.1974    5.8735   -0.0349 H   0  0  0  0  0  0  0  0  0  0  0  0
    3.8109    6.5690   -1.5732 H   0  0  0  0  0  0  0  0  0  0  0  0
 29 30  2  0  0  0  0
 27 29  1  0  0  0  0
 28 30  1  0  0  0  0
 24 27  2  0  0  0  0
 26 28  2  0  0  0  0
 22 23  2  0  0  0  0
 23 25  1  0  0  0  0
 22 24  1  0  0  0  0
 24 26  1  0  0  0  0
 21 22  1  0  0  0  0
 25 26  1  0  0  0  0
  1  3  1  0  0  0  0
  1  7  1  0  0  0  0
  1  2  2  0  0  0  0
 42 43  1  0  0  0  0
 43 51  1  0  0  0  0
 43 44  2  0  0  0  0
  8  9  1  0  0  0  0
  9 17  1  0  0  0  0
  9 10  2  0  0  0  0
 18 19  1  0  0  0  0
 19 41  1  0  0  0  0
 19 20  2  0  0  0  0
 42 45  1  0  0  0  0
  8 11  1  0  0  0  0
 51 52  1  0  0  0  0
 18 21  1  0  0  0  0
 41 42  1  0  0  0  0
  7  8  1  0  0  0  0
 17 18  1  0  0  0  0
 29 39  1  0  0  0  0
 30 40  1  0  0  0  0
 27 37  1  0  0  0  0
 28 38  1  0  0  0  0
 23 35  1  0  0  0  0
  3  4  1  0  0  0  0
  3  5  1  0  0  0  0
  3  6  1  0  0  0  0
 45 48  1  0  0  0  0
 45 49  1  0  0  0  0
 45 50  1  0  0  0  0
 11 14  1  0  0  0  0
 11 15  1  0  0  0  0
 11 16  1  0  0  0  0
 52 54  1  0  0  0  0
 52 55  1  0  0  0  0
 52 56  1  0  0  0  0
 21 33  1  0  0  0  0
 21 34  1  0  0  0  0
 42 47  1  0  0  0  0
  8 13  1  0  0  0  0
 18 32  1  0  0  0  0
 25 36  1  0  0  0  0
 51 53  1  0  0  0  0
  7 12  1  0  0  0  0
 41 46  1  0  0  0  0
 17 31  1  0  0  0  0
M  END
$$$$

  -OEChem-05262214473D

 56 57  0     1  0  0  0  0  0999 V2000
   -2.2900    0.3401    4.1553 C   0  0  0  0  0  0  0  0  0  0  0  0
   -1.3426   -0.2746    3.6796 O   0  0  0  0  0  0  0  0  0  0  0  0
   -2.7219    0.0577    5.5560 C   0  0  0  0  0  0  0  0  0  0  0  0
   -3.4815   -0.7386    5.6094 H   0  0  0  0  0  0  0  0  0  0  0  0
   -1.8906   -0.2899    6.1903 H   0  0  0  0  0  0  0  0  0  0  0  0
   -3.1599    0.9126    6.0956 H   0  0  0  0  0  0  0  0  0  0  0  0
   -3.0397    1.3125    3.5142 N   0  0  0  0  0  0  0  0  0  0  0  0
   -2.7928    1.7385    2.1618 C   0  0  2  0  0  0  0  0  0  0  0  0
   -1.4579    1.1532    1.7206 C   0  0  0  0  0  0  0  0  0  0  0  0
   -0.5858    0.8004    2.5118 O   0  0  0  0  0  0  0  0  0  0  0  0
   -2.7841    3.2553    2.0523 C   0  0  0  0  0  0  0  0  0  0  0  0
   -3.8047    1.7484    4.0260 H   0  0  0  0  0  0  0  0  0  0  0  0
   -3.5969    1.3201    1.5466 H   0  0  0  0  0  0  0  0  0  0  0  0
   -1.9850    3.6926    2.6620 H   0  0  0  0  0  0  0  0  0  0  0  0
   -2.6246    3.5776    1.0180 H   0  0  0  0  0  0  0  0  0  0  0  0
   -3.7342    3.6765    2.3981 H   0  0  0  0  0  0  0  0  0  0  0  0
   -1.3352    1.1101    0.3372 N   0  0  0  0  0  0  0  0  0  0  0  0
   -0.1579    0.6093   -0.3265 C   0  0  2  0  0  0  0  0  0  0  0  0
    0.6067    1.8156   -0.8598 C   0  0  0  0  0  0  0  0  0  0  0  0
    1.8251    1.8171   -1.0224 O   0  0  0  0  0  0  0  0  0  0  0  0
   -0.5025   -0.3514   -1.4703 C   0  0  0  0  0  0  0  0  0  0  0  0
   -1.1228   -1.6387   -0.9844 C   0  0  0  0  0  0  0  0  0  0  0  0
   -2.4702   -1.9121   -0.9334 C   0  0  0  0  0  0  0  0  0  0  0  0
   -0.4299   -2.7836   -0.5007 C   0  0  0  0  0  0  0  0  0  0  0  0
   -2.6247   -3.1786   -0.4370 N   0  0  0  0  0  0  0  0  0  0  0  0
   -1.3953   -3.7349   -0.1641 C   0  0  0  0  0  0  0  0  0  0  0  0
    0.9300   -3.1029   -0.3163 C   0  0  0  0  0  0  0  0  0  0  0  0
   -1.0674   -4.9946    0.3498 C   0  0  0  0  0  0  0  0  0  0  0  0
    1.2729   -4.3591    0.1967 C   0  0  0  0  0  0  0  0  0  0  0  0
    0.2879   -5.2889    0.5239 C   0  0  0  0  0  0  0  0  0  0  0  0
   -2.1183    1.4068   -0.2401 H   0  0  0  0  0  0  0  0  0  0  0  0
    0.4463    0.1125    0.4417 H   0  0  0  0  0  0  0  0  0  0  0  0
    0.3949   -0.5745   -2.0632 H   0  0  0  0  0  0  0  0  0  0  0  0
   -1.2008    0.1230   -2.1725 H   0  0  0  0  0  0  0  0  0  0  0  0
   -3.3333   -1.3195   -1.2039 H   0  0  0  0  0  0  0  0  0  0  0  0
   -3.5124   -3.6394   -0.2918 H   0  0  0  0  0  0  0  0  0  0  0  0
    1.7097   -2.3887   -0.5657 H   0  0  0  0  0  0  0  0  0  0  0  0
   -1.8334   -5.7194    0.6037 H   0  0  0  0  0  0  0  0  0  0  0  0
    2.3201   -4.6108    0.3415 H   0  0  0  0  0  0  0  0  0  0  0  0
    0.5767   -6.2587    0.9209 H   0  0  0  0  0  0  0  0  0  0  0  0
   -0.2401    2.8683   -1.1779 N   0  0  0  0  0  0  0  0  0  0  0  0
    0.2244    4.1230   -1.7245 C   0  0  2  0  0  0  0  0  0  0  0  0
    1.3679    4.6220   -0.8511 C   0  0  0  0  0  0  0  0  0  0  0  0
    1.5248    4.2678    0.3155 O   0  0  0  0  0  0  0  0  0  0  0  0
   -0.8975    5.1477   -1.7888 C   0  0  0  0  0  0  0  0  0  0  0  0
   -1.2364    2.7511   -1.0184 H   0  0  0  0  0  0  0  0  0  0  0  0
    0.5994    3.9098   -2.7315 H   0  0  0  0  0  0  0  0  0  0  0  0
   -1.2860    5.3741   -0.7892 H   0  0  0  0  0  0  0  0  0  0  0  0
   -0.5510    6.0883   -2.2296 H   0  0  0  0  0  0  0  0  0  0  0  0
   -1.7317    4.7749   -2.3930 H   0  0  0  0  0  0  0  0  0  0  0  0
    2.1676    5.5424   -1.5139 N   0  0  0  0  0  0  0  0  0  0  0  0
    3.3107    6.1712   -0.8941 C   0  0  0  0  0  0  0  0  0  0  0  0
    1.9748    5.7630   -2.4865 H   0  0  0  0  0  0  0  0  0  0  0  0
    3.0033    7.1239   -0.4382 H   0  0  0  0  0  0  0  0  0  0  0  0
    3.7176    5.5074   -0.1171 H   0  0  0  0  0  0  0  0  0  0  0  0
    4.0820    6.3610   -1.6551 H   0  0  0  0  0  0  0  0  0  0  0  0
 29 30  2  0  0  0  0
 27 29  1  0  0  0  0
 28 30  1  0  0  0  0
 24 27  2  0  0  0  0
 26 28  2  0  0  0  0
 22 23  2  0  0  0  0
 23 25  1  0  0  0  0
 22 24  1  0  0  0  0
 24 26  1  0  0  0  0
 21 22  1  0  0  0  0
 25 26  1  0  0  0  0
  1  3  1  0  0  0  0
  1  7  1  0  0  0  0
  1  2  2  0  0  0  0
 42 43  1  0  0  0  0
 43 51  1  0  0  0  0
 43 44  2  0  0  0  0
  8  9  1  0  0  0  0
  9 17  1  0  0  0  0
  9 10  2  0  0  0  0
 18 19  1  0  0  0  0
 19 41  1  0  0  0  0
 19 20  2  0  0  0  0
 42 45  1  0  0  0  0
  8 11  1  0  0  0  0
 51 52  1  0  0  0  0
 18 21  1  0  0  0  0
 41 42  1  0  0  0  0
  7  8  1  0  0  0  0
 17 18  1  0  0  0  0
 29 39  1  0  0  0  0
 30 40  1  0  0  0  0
 27 37  1  0  0  0  0
 28 38  1  0  0  0  0
 23 35  1  0  0  0  0
  3  4  1  0  0  0  0
  3  5  1  0  0  0  0
  3  6  1  0  0  0  0
 45 48  1  0  0  0  0
 45 49  1  0  0  0  0
 45 50  1  0  0  0  0
 11 14  1  0  0  0  0
 11 15  1  0  0  0  0
 11 16  1  0  0  0  0
 52 54  1  0  0  0  0
 52 55  1  0  0  0  0
 52 56  1  0  0  0  0
 21 33  1  0  0  0  0
 21 34  1  0  0  0  0
 42 47  1  0  0  0  0
  8 13  1  0  0  0  0
 18 32  1  0  0  0  0
 25 36  1  0  0  0  0
 51 53  1  0  0  0  0
  7 12  1  0  0  0  0
 41 46  1  0  0  0  0
 17 31  1  0  0  0  0
M  END
$$$$

  -OEChem-05262214473D

 56 57  0     1  0  0  0  0  0999 V2000
   -2.2900    0.3401    4.1553 C   0  0  0  0  0  0  0  0  0  0  0  0
   -1.3426   -0.2746    3.6796 O   0  0  0  0  0  0  0  0  0  0  0  0
   -2.7219    0.0577    5.5560 C   0  0  0  0  0  0  0  0  0  0  0  0
   -3.4815   -0.7386    5.6094 H   0  0  0  0  0  0  0  0  0  0  0  0
   -1.8906   -0.2899    6.1903 H   0  0  0  0  0  0  0  0  0  0  0  0
   -3.1599    0.9126    6.0956 H   0  0  0  0  0  0  0  0  0  0  0  0
   -3.0397    1.3125    3.5142 N   0  0  0  0  0  0  0  0  0  0  0  0
   -2.7928    1.7385    2.1618 C   0  0  2  0  0  0  0  0  0  0  0  0
   -1.4579    1.1532    1.7206 C   0  0  0  0  0  0  0  0  0  0  0  0
   -0.5858    0.8004    2.5118 O   0  0  0  0  0  0  0  0  0  0  0  0
   -2.7841    3.2553    2.0523 C   0  0  0  0  0  0  0  0  0  0  0  0
   -3.8047    1.7484    4.0260 H   0  0  0  0  0  0  0  0  0  0  0  0
   -3.5969    1.3201    1.5466 H   0  0  0  0  0  0  0  0  0  0  0  0
   -1.9850    3.6926    2.6620 H   0  0  0  0  0  0  0  0  0  0  0  0
   -2.6246    3.5776    1.0180 H   0  0  0  0  0  0  0  0  0  0  0  0
   -3.7342    3.6765    2.3981 H   0  0  0  0  0  0  0  0  0  0  0  0
   -1.3352    1.1101    0.3372 N   0  0  0  0  0  0  0  0  0  0  0  0
   -0.1579    0.6093   -0.3265 C   0  0  2  0  0  0  0  0  0  0  0  0
    0.6067    1.8156   -0.8598 C   0  0  0  0  0  0  0  0  0  0  0  0
    1.7618    1.7459   -1.2742 O   0  0  0  0  0  0  0  0  0  0  0  0
   -0.5025   -0.3514   -1.4703 C   0  0  0  0  0  0  0  0  0  0  0  0
   -1.1228   -1.6387   -0.9844 C   0  0  0  0  0  0  0  0  0  0  0  0
   -2.4702   -1.9121   -0.9334 C   0  0  0  0  0  0  0  0  0  0  0  0
   -0.4299   -2.7836   -0.5007 C   0  0  0  0  0  0  0  0  0  0  0  0
   -2.6247   -3.1786   -0.4370 N   0  0  0  0  0  0  0  0  0  0  0  0
   -1.3953   -3.7349   -0.1641 C   0  0  0  0  0  0  0  0  0  0  0  0
    0.9300   -3.1029   -0.3163 C   0  0  0  0  0  0  0  0  0  0  0  0
   -1.0674   -4.9946    0.3498 C   0  0  0  0  0  0  0  0  0  0  0  0
    1.2729   -4.3591    0.1967 C   0  0  0  0  0  0  0  0  0  0  0  0
    0.2879   -5.2889    0.5239 C   0  0  0  0  0  0  0  0  0  0  0  0
   -2.1183    1.4068   -0.2401 H   0  0  0  0  0  0  0  0  0  0  0  0
    0.4463    0.1125    0.4417 H   0  0  0  0  0  0  0  0  0  0  0  0
    0.3949   -0.5745   -2.0632 H   0  0  0  0  0  0  0  0  0  0  0  0
   -1.2008    0.1230   -2.1725 H   0  0  0  0  0  0  0  0  0  0  0  0
   -3.3333   -1.3195   -1.2039 H   0  0  0  0  0  0  0  0  0  0  0  0
   -3.5124   -3.6394   -0.2918 H   0  0  0  0  0  0  0  0  0  0  0  0
    1.7097   -2.3887   -0.5657 H   0  0  0  0  0  0  0  0  0  0  0  0
   -1.8334   -5.7194    0.6037 H   0  0  0  0  0  0  0  0  0  0  0  0
    2.3201   -4.6108    0.3415 H   0  0  0  0  0  0  0  0  0  0  0  0
    0.5767   -6.2587    0.9209 H   0  0  0  0  0  0  0  0  0  0  0  0
   -0.1722    2.9644   -0.8631 N   0  0  0  0  0  0  0  0  0  0  0  0
    0.3023    4.2435   -1.3403 C   0  0  2  0  0  0  0  0  0  0  0  0
    1.6423    4.5264   -0.6739 C   0  0  0  0  0  0  0  0  0  0  0  0
    1.9902    4.0022    0.3821 O   0  0  0  0  0  0  0  0  0  0  0  0
   -0.6971    5.3504   -1.0429 C   0  0  0  0  0  0  0  0  0  0  0  0
   -1.1235    2.9032   -0.5126 H   0  0  0  0  0  0  0  0  0  0  0  0
    0.4454    4.1443   -2.4219 H   0  0  0  0  0  0  0  0  0  0  0  0
   -0.8534    5.4647    0.0360 H   0  0  0  0  0  0  0  0  0  0  0  0
   -0.3492    6.3137   -1.4303 H   0  0  0  0  0  0  0  0  0  0  0  0
   -1.6689    5.1307   -1.4981 H   0  0  0  0  0  0  0  0  0  0  0  0
    2.3856    5.4658   -1.3747 N   0  0  0  0  0  0  0  0  0  0  0  0
    3.6881    5.9122   -0.9387 C   0  0  0  0  0  0  0  0  0  0  0  0
    2.0273    5.8339   -2.2511 H   0  0  0  0  0  0  0  0  0  0  0  0
    3.5785    6.8130   -0.3170 H   0  0  0  0  0  0  0  0  0  0  0  0
    4.1701    5.1173   -0.3506 H   0  0  0  0  0  0  0  0  0  0  0  0
    4.3083    6.1461   -1.8166 H   0  0  0  0  0  0  0  0  0  0  0  0
 29 30  2  0  0  0  0
 27 29  1  0  0  0  0
 28 30  1  0  0  0  0
 24 27  2  0  0  0  0
 26 28  2  0  0  0  0
 22 23  2  0  0  0  0
 23 25  1  0  0  0  0
 22 24  1  0  0  0  0
 24 26  1  0  0  0  0
 21 22  1  0  0  0  0
 25 26  1  0  0  0  0
  1  3  1  0  0  0  0
  1  7  1  0  0  0  0
  1  2  2  0  0  0  0
 42 43  1  0  0  0  0
 43 51  1  0  0  0  0
 43 44  2  0  0  0  0
  8  9  1  0  0  0  0
  9 17  1  0  0  0  0
  9 10  2  0  0  0  0
 18 19  1  0  0  0  0
 19 41  1  0  0  0  0
 19 20  2  0  0  0  0
 42 45  1  0  0  0  0
  8 11  1  0  0  0  0
 51 52  1  0  0  0  0
 18 21  1  0  0  0  0
 41 42  1  0  0  0  0
  7  8  1  0  0  0  0
 17 18  1  0  0  0  0
 29 39  1  0  0  0  0
 30 40  1  0  0  0  0
 27 37  1  0  0  0  0
 28 38  1  0  0  0  0
 23 35  1  0  0  0  0
  3  4  1  0  0  0  0
  3  5  1  0  0  0  0
  3  6  1  0  0  0  0
 45 48  1  0  0  0  0
 45 49  1  0  0  0  0
 45 50  1  0  0  0  0
 11 14  1  0  0  0  0
 11 15  1  0  0  0  0
 11 16  1  0  0  0  0
 52 54  1  0  0  0  0
 52 55  1  0  0  0  0
 52 56  1  0  0  0  0
 21 33  1  0  0  0  0
 21 34  1  0  0  0  0
 42 47  1  0  0  0  0
  8 13  1  0  0  0  0
 18 32  1  0  0  0  0
 25 36  1  0  0  0  0
 51 53  1  0  0  0  0
  7 12  1  0  0  0  0
 41 46  1  0  0  0  0
 17 31  1  0  0  0  0
M  END
$$$$

  -OEChem-05262214473D

 56 57  0     1  0  0  0  0  0999 V2000
   -2.2900    0.3401    4.1553 C   0  0  0  0  0  0  0  0  0  0  0  0
   -1.3426   -0.2746    3.6796 O   0  0  0  0  0  0  0  0  0  0  0  0
   -2.7219    0.0577    5.5560 C   0  0  0  0  0  0  0  0  0  0  0  0
   -3.4815   -0.7386    5.6094 H   0  0  0  0  0  0  0  0  0  0  0  0
   -1.8906   -0.2899    6.1903 H   0  0  0  0  0  0  0  0  0  0  0  0
   -3.1599    0.9126    6.0956 H   0  0  0  0  0  0  0  0  0  0  0  0
   -3.0397    1.3125    3.5142 N   0  0  0  0  0  0  0  0  0  0  0  0
   -2.7928    1.7385    2.1618 C   0  0  2  0  0  0  0  0  0  0  0  0
   -1.4579    1.1532    1.7206 C   0  0  0  0  0  0  0  0  0  0  0  0
   -0.5858    0.8004    2.5118 O   0  0  0  0  0  0  0  0  0  0  0  0
   -2.7841    3.2553    2.0523 C   0  0  0  0  0  0  0  0  0  0  0  0
   -3.8047    1.7484    4.0260 H   0  0  0  0  0  0  0  0  0  0  0  0
   -3.5969    1.3201    1.5466 H   0  0  0  0  0  0  0  0  0  0  0  0
   -1.9850    3.6926    2.6620 H   0  0  0  0  0  0  0  0  0  0  0  0
   -2.6246    3.5776    1.0180 H   0  0  0  0  0  0  0  0  0  0  0  0
   -3.7342    3.6765    2.3981 H   0  0  0  0  0  0  0  0  0  0  0  0
   -1.3352    1.1101    0.3372 N   0  0  0  0  0  0  0  0  0  0  0  0
   -0.1579    0.6093   -0.3265 C   0  0  2  0  0  0  0  0  0  0  0  0
    0.6067    1.8156   -0.8598 C   0  0  0  0  0  0  0  0  0  0  0  0
    1.6427    1.7155   -1.5137 O   0  0  0  0  0  0  0  0  0  0  0  0
   -0.5025   -0.3514   -1.4703 C   0  0  0  0  0  0  0  0  0  0  0  0
   -1.1228   -1.6387   -0.9844 C   0  0  0  0  0  0  0  0  0  0  0  0
   -2.4702   -1.9121   -0.9334 C   0  0  0  0  0  0  0  0  0  0  0  0
   -0.4299   -2.7836   -0.5007 C   0  0  0  0  0  0  0  0  0  0  0  0
   -2.6247   -3.1786   -0.4370 N   0  0  0  0  0  0  0  0  0  0  0  0
   -1.3953   -3.7349   -0.1641 C   0  0  0  0  0  0  0  0  0  0  0  0
    0.9300   -3.1029   -0.3163 C   0  0  0  0  0  0  0  0  0  0  0  0
   -1.0674   -4.9946    0.3498 C   0  0  0  0  0  0  0  0  0  0  0  0
    1.2729   -4.3591    0.1967 C   0  0  0  0  0  0  0  0  0  0  0  0
    0.2879   -5.2889    0.5239 C   0  0  0  0  0  0  0  0  0  0  0  0
   -2.1183    1.4068   -0.2401 H   0  0  0  0  0  0  0  0  0  0  0  0
    0.4463    0.1125    0.4417 H   0  0  0  0  0  0  0  0  0  0  0  0
    0.3949   -0.5745   -2.0632 H   0  0  0  0  0  0  0  0  0  0  0  0
   -1.2008    0.1230   -2.1725 H   0  0  0  0  0  0  0  0  0  0  0  0
   -3.3333   -1.3195   -1.2039 H   0  0  0  0  0  0  0  0  0  0  0  0
   -3.5124   -3.6394   -0.2918 H   0  0  0  0  0  0  0  0  0  0  0  0
    1.7097   -2.3887   -0.5657 H   0  0  0  0  0  0  0  0  0  0  0  0
   -1.8334   -5.7194    0.6037 H   0  0  0  0  0  0  0  0  0  0  0  0
    2.3201   -4.6108    0.3415 H   0  0  0  0  0  0  0  0  0  0  0  0
    0.5767   -6.2587    0.9209 H   0  0  0  0  0  0  0  0  0  0  0  0
   -0.0334    3.0103   -0.5606 N   0  0  0  0  0  0  0  0  0  0  0  0
    0.4672    4.3029   -0.9695 C   0  0  2  0  0  0  0  0  0  0  0  0
    1.9349    4.3862   -0.5715 C   0  0  0  0  0  0  0  0  0  0  0  0
    2.4294    3.6948    0.3165 O   0  0  0  0  0  0  0  0  0  0  0  0
   -0.3324    5.4313   -0.3371 C   0  0  0  0  0  0  0  0  0  0  0  0
   -0.8972    2.9742   -0.0274 H   0  0  0  0  0  0  0  0  0  0  0  0
    0.3813    4.3445   -2.0608 H   0  0  0  0  0  0  0  0  0  0  0  0
   -0.2583    5.4059    0.7562 H   0  0  0  0  0  0  0  0  0  0  0  0
    0.0299    6.4095   -0.6703 H   0  0  0  0  0  0  0  0  0  0  0  0
   -1.3928    5.3526   -0.6003 H   0  0  0  0  0  0  0  0  0  0  0  0
    2.6177    5.3540   -1.2949 N   0  0  0  0  0  0  0  0  0  0  0  0
    4.0202    5.6337   -1.0927 C   0  0  0  0  0  0  0  0  0  0  0  0
    2.1326    5.8670   -2.0252 H   0  0  0  0  0  0  0  0  0  0  0  0
    4.1306    6.4448   -0.3580 H   0  0  0  0  0  0  0  0  0  0  0  0
    4.5241    4.7299   -0.7195 H   0  0  0  0  0  0  0  0  0  0  0  0
    4.4743    5.9391   -2.0469 H   0  0  0  0  0  0  0  0  0  0  0  0
 29 30  2  0  0  0  0
 27 29  1  0  0  0  0
 28 30  1  0  0  0  0
 24 27  2  0  0  0  0
 26 28  2  0  0  0  0
 22 23  2  0  0  0  0
 23 25  1  0  0  0  0
 22 24  1  0  0  0  0
 24 26  1  0  0  0  0
 21 22  1  0  0  0  0
 25 26  1  0  0  0  0
  1  3  1  0  0  0  0
  1  7  1  0  0  0  0
  1  2  2  0  0  0  0
 42 43  1  0  0  0  0
 43 51  1  0  0  0  0
 43 44  2  0  0  0  0
  8  9  1  0  0  0  0
  9 17  1  0  0  0  0
  9 10  2  0  0  0  0
 18 19  1  0  0  0  0
 19 41  1  0  0  0  0
 19 20  2  0  0  0  0
 42 45  1  0  0  0  0
  8 11  1  0  0  0  0
 51 52  1  0  0  0  0
 18 21  1  0  0  0  0
 41 42  1  0  0  0  0
  7  8  1  0  0  0  0
 17 18  1  0  0  0  0
 29 39  1  0  0  0  0
 30 40  1  0  0  0  0
 27 37  1  0  0  0  0
 28 38  1  0  0  0  0
 23 35  1  0  0  0  0
  3  4  1  0  0  0  0
  3  5  1  0  0  0  0
  3  6  1  0  0  0  0
 45 48  1  0  0  0  0
 45 49  1  0  0  0  0
 45 50  1  0  0  0  0
 11 14  1  0  0  0  0
 11 15  1  0  0  0  0
 11 16  1  0  0  0  0
 52 54  1  0  0  0  0
 52 55  1  0  0  0  0
 52 56  1  0  0  0  0
 21 33  1  0  0  0  0
 21 34  1  0  0  0  0
 42 47  1  0  0  0  0
  8 13  1  0  0  0  0
 18 32  1  0  0  0  0
 25 36  1  0  0  0  0
 51 53  1  0  0  0  0
  7 12  1  0  0  0  0
 41 46  1  0  0  0  0
 17 31  1  0  0  0  0
M  END
$$$$

  -OEChem-05262214473D

 56 57  0     1  0  0  0  0  0999 V2000
   -2.2900    0.3401    4.1553 C   0  0  0  0  0  0  0  0  0  0  0  0
   -1.3426   -0.2746    3.6796 O   0  0  0  0  0  0  0  0  0  0  0  0
   -2.7219    0.0577    5.5560 C   0  0  0  0  0  0  0  0  0  0  0  0
   -3.4815   -0.7386    5.6094 H   0  0  0  0  0  0  0  0  0  0  0  0
   -1.8906   -0.2899    6.1903 H   0  0  0  0  0  0  0  0  0  0  0  0
   -3.1599    0.9126    6.0956 H   0  0  0  0  0  0  0  0  0  0  0  0
   -3.0397    1.3125    3.5142 N   0  0  0  0  0  0  0  0  0  0  0  0
   -2.7928    1.7385    2.1618 C   0  0  2  0  0  0  0  0  0  0  0  0
   -1.4579    1.1532    1.7206 C   0  0  0  0  0  0  0  0  0  0  0  0
   -0.5858    0.8004    2.5118 O   0  0  0  0  0  0  0  0  0  0  0  0
   -2.7841    3.2553    2.0523 C   0  0  0  0  0  0  0  0  0  0  0  0
   -3.8047    1.7484    4.0260 H   0  0  0  0  0  0  0  0  0  0  0  0
   -3.5969    1.3201    1.5466 H   0  0  0  0  0  0  0  0  0  0  0  0
   -1.9850    3.6926    2.6620 H   0  0  0  0  0  0  0  0  0  0  0  0
   -2.6246    3.5776    1.0180 H   0  0  0  0  0  0  0  0  0  0  0  0
   -3.7342    3.6765    2.3981 H   0  0  0  0  0  0  0  0  0  0  0  0
   -1.3352    1.1101    0.3372 N   0  0  0  0  0  0  0  0  0  0  0  0
   -0.1579    0.6093   -0.3265 C   0  0  2  0  0  0  0  0  0  0  0  0
    0.6067    1.8156   -0.8598 C   0  0  0  0  0  0  0  0  0  0  0  0
    1.4759    1.7280   -1.7245 O   0  0  0  0  0  0  0  0  0  0  0  0
   -0.5025   -0.3514   -1.4703 C   0  0  0  0  0  0  0  0  0  0  0  0
   -1.1228   -1.6387   -0.9844 C   0  0  0  0  0  0  0  0  0  0  0  0
   -2.4702   -1.9121   -0.9334 C   0  0  0  0  0  0  0  0  0  0  0  0
   -0.4299   -2.7836   -0.5007 C   0  0  0  0  0  0  0  0  0  0  0  0
   -2.6247   -3.1786   -0.4370 N   0  0  0  0  0  0  0  0  0  0  0  0
   -1.3953   -3.7349   -0.1641 C   0  0  0  0  0  0  0  0  0  0  0  0
    0.9300   -3.1029   -0.3163 C   0  0  0  0  0  0  0  0  0  0  0  0
   -1.0674   -4.9946    0.3498 C   0  0  0  0  0  0  0  0  0  0  0  0
    1.2729   -4.3591    0.1967 C   0  0  0  0  0  0  0  0  0  0  0  0
    0.2879   -5.2889    0.5239 C   0  0  0  0  0  0  0  0  0  0  0  0
   -2.1183    1.4068   -0.2401 H   0  0  0  0  0  0  0  0  0  0  0  0
    0.4463    0.1125    0.4417 H   0  0  0  0  0  0  0  0  0  0  0  0
    0.3949   -0.5745   -2.0632 H   0  0  0  0  0  0  0  0  0  0  0  0
   -1.2008    0.1230   -2.1725 H   0  0  0  0  0  0  0  0  0  0  0  0
   -3.3333   -1.3195   -1.2039 H   0  0  0  0  0  0  0  0  0  0  0  0
   -3.5124   -3.6394   -0.2918 H   0  0  0  0  0  0  0  0  0  0  0  0
    1.7097   -2.3887   -0.5657 H   0  0  0  0  0  0  0  0  0  0  0  0
   -1.8334   -5.7194    0.6037 H   0  0  0  0  0  0  0  0  0  0  0  0
    2.3201   -4.6108    0.3415 H   0  0  0  0  0  0  0  0  0  0  0  0
    0.5767   -6.2587    0.9209 H   0  0  0  0  0  0  0  0  0  0  0  0
    0.1667    3.0027   -0.2908 N   0  0  0  0  0  0  0  0  0  0  0  0
    0.7078    4.2972   -0.6375 C   0  0  2  0  0  0  0  0  0  0  0  0
    2.2259    4.2110   -0.5506 C   0  0  0  0  0  0  0  0  0  0  0  0
    2.8123    3.3667    0.1234 O   0  0  0  0  0  0  0  0  0  0  0  0
    0.1717    5.3848    0.2804 C   0  0  0  0  0  0  0  0  0  0  0  0
   -0.5727    2.9594    0.4042 H   0  0  0  0  0  0  0  0  0  0  0  0
    0.4114    4.4969   -1.6730 H   0  0  0  0  0  0  0  0  0  0  0  0
    0.4586    5.2018    1.3223 H   0  0  0  0  0  0  0  0  0  0  0  0
    0.5603    6.3690   -0.0014 H   0  0  0  0  0  0  0  0  0  0  0  0
   -0.9221    5.4254    0.2391 H   0  0  0  0  0  0  0  0  0  0  0  0
    2.8481    5.2146   -1.2798 N   0  0  0  0  0  0  0  0  0  0  0  0
    4.2841    5.3546   -1.3456 C   0  0  0  0  0  0  0  0  0  0  0  0
    2.2836    5.8601   -1.8243 H   0  0  0  0  0  0  0  0  0  0  0  0
    4.6223    6.0446   -0.5585 H   0  0  0  0  0  0  0  0  0  0  0  0
    4.7553    4.3715   -1.1985 H   0  0  0  0  0  0  0  0  0  0  0  0
    4.5687    5.7539   -2.3303 H   0  0  0  0  0  0  0  0  0  0  0  0
 29 30  2  0  0  0  0
 27 29  1  0  0  0  0
 28 30  1  0  0  0  0
 24 27  2  0  0  0  0
 26 28  2  0  0  0  0
 22 23  2  0  0  0  0
 23 25  1  0  0  0  0
 22 24  1  0  0  0  0
 24 26  1  0  0  0  0
 21 22  1  0  0  0  0
 25 26  1  0  0  0  0
  1  3  1  0  0  0  0
  1  7  1  0  0  0  0
  1  2  2  0  0  0  0
 42 43  1  0  0  0  0
 43 51  1  0  0  0  0
 43 44  2  0  0  0  0
  8  9  1  0  0  0  0
  9 17  1  0  0  0  0
  9 10  2  0  0  0  0
 18 19  1  0  0  0  0
 19 41  1  0  0  0  0
 19 20  2  0  0  0  0
 42 45  1  0  0  0  0
  8 11  1  0  0  0  0
 51 52  1  0  0  0  0
 18 21  1  0  0  0  0
 41 42  1  0  0  0  0
  7  8  1  0  0  0  0
 17 18  1  0  0  0  0
 29 39  1  0  0  0  0
 30 40  1  0  0  0  0
 27 37  1  0  0  0  0
 28 38  1  0  0  0  0
 23 35  1  0  0  0  0
  3  4  1  0  0  0  0
  3  5  1  0  0  0  0
  3  6  1  0  0  0  0
 45 48  1  0  0  0  0
 45 49  1  0  0  0  0
 45 50  1  0  0  0  0
 11 14  1  0  0  0  0
 11 15  1  0  0  0  0
 11 16  1  0  0  0  0
 52 54  1  0  0  0  0
 52 55  1  0  0  0  0
 52 56  1  0  0  0  0
 21 33  1  0  0  0  0
 21 34  1  0  0  0  0
 42 47  1  0  0  0  0
  8 13  1  0  0  0  0
 18 32  1  0  0  0  0
 25 36  1  0  0  0  0
 51 53  1  0  0  0  0
  7 12  1  0  0  0  0
 41 46  1  0  0  0  0
 17 31  1  0  0  0  0
M  END
$$$$

  -OEChem-05262214473D

 56 57  0     1  0  0  0  0  0999 V2000
   -2.2900    0.3401    4.1553 C   0  0  0  0  0  0  0  0  0  0  0  0
   -1.3426   -0.2746    3.6796 O   0  0  0  0  0  0  0  0  0  0  0  0
   -2.7219    0.0577    5.5560 C   0  0  0  0  0  0  0  0  0  0  0  0
   -3.4815   -0.7386    5.6094 H   0  0  0  0  0  0  0  0  0  0  0  0
   -1.8906   -0.2899    6.1903 H   0  0  0  0  0  0  0  0  0  0  0  0
   -3.1599    0.9126    6.0956 H   0  0  0  0  0  0  0  0  0  0  0  0
   -3.0397    1.3125    3.5142 N   0  0  0  0  0  0  0  0  0  0  0  0
   -2.7928    1.7385    2.1618 C   0  0  2  0  0  0  0  0  0  0  0  0
   -1.4579    1.1532    1.7206 C   0  0  0  0  0  0  0  0  0  0  0  0
   -0.5858    0.8004    2.5118 O   0  0  0  0  0  0  0  0  0  0  0  0
   -2.7841    3.2553    2.0523 C   0  0  0  0  0  0  0  0  0  0  0  0
   -3.8047    1.7484    4.0260 H   0  0  0  0  0  0  0  0  0  0  0  0
   -3.5969    1.3201    1.5466 H   0  0  0  0  0  0  0  0  0  0  0  0
   -1.9850    3.6926    2.6620 H   0  0  0  0  0  0  0  0  0  0  0  0
   -2.6246    3.5776    1.0180 H   0  0  0  0  0  0  0  0  0  0  0  0
   -3.7342    3.6765    2.3981 H   0  0  0  0  0  0  0  0  0  0  0  0
   -1.3352    1.1101    0.3372 N   0  0  0  0  0  0  0  0  0  0  0  0
   -0.1579    0.6093   -0.3265 C   0  0  2  0  0  0  0  0  0  0  0  0
    0.6067    1.8156   -0.8598 C   0  0  0  0  0  0  0  0  0  0  0  0
    1.2727    1.7826   -1.8924 O   0  0  0  0  0  0  0  0  0  0  0  0
   -0.5025   -0.3514   -1.4703 C   0  0  0  0  0  0  0  0  0  0  0  0
   -1.1228   -1.6387   -0.9844 C   0  0  0  0  0  0  0  0  0  0  0  0
   -2.4702   -1.9121   -0.9334 C   0  0  0  0  0  0  0  0  0  0  0  0
   -0.4299   -2.7836   -0.5007 C   0  0  0  0  0  0  0  0  0  0  0  0
   -2.6247   -3.1786   -0.4370 N   0  0  0  0  0  0  0  0  0  0  0  0
   -1.3953   -3.7349   -0.1641 C   0  0  0  0  0  0  0  0  0  0  0  0
    0.9300   -3.1029   -0.3163 C   0  0  0  0  0  0  0  0  0  0  0  0
   -1.0674   -4.9946    0.3498 C   0  0  0  0  0  0  0  0  0  0  0  0
    1.2729   -4.3591    0.1967 C   0  0  0  0  0  0  0  0  0  0  0  0
    0.2879   -5.2889    0.5239 C   0  0  0  0  0  0  0  0  0  0  0  0
   -2.1183    1.4068   -0.2401 H   0  0  0  0  0  0  0  0  0  0  0  0
    0.4463    0.1125    0.4417 H   0  0  0  0  0  0  0  0  0  0  0  0
    0.3949   -0.5745   -2.0632 H   0  0  0  0  0  0  0  0  0  0  0  0
   -1.2008    0.1230   -2.1725 H   0  0  0  0  0  0  0  0  0  0  0  0
   -3.3333   -1.3195   -1.2039 H   0  0  0  0  0  0  0  0  0  0  0  0
   -3.5124   -3.6394   -0.2918 H   0  0  0  0  0  0  0  0  0  0  0  0
    1.7097   -2.3887   -0.5657 H   0  0  0  0  0  0  0  0  0  0  0  0
   -1.8334   -5.7194    0.6037 H   0  0  0  0  0  0  0  0  0  0  0  0
    2.3201   -4.6108    0.3415 H   0  0  0  0  0  0  0  0  0  0  0  0
    0.5767   -6.2587    0.9209 H   0  0  0  0  0  0  0  0  0  0  0  0
    0.4146    2.9422   -0.0722 N   0  0  0  0  0  0  0  0  0  0  0  0
    1.0077    4.2269   -0.3667 C   0  0  2  0  0  0  0  0  0  0  0  0
    2.4953    4.0128   -0.6128 C   0  0  0  0  0  0  0  0  0  0  0  0
    3.1130    3.0402   -0.1842 O   0  0  0  0  0  0  0  0  0  0  0  0
    0.7809    5.2141    0.7676 C   0  0  0  0  0  0  0  0  0  0  0  0
   -0.1723    2.8597    0.7527 H   0  0  0  0  0  0  0  0  0  0  0  0
    0.5338    4.5910   -1.2848 H   0  0  0  0  0  0  0  0  0  0  0  0
    1.2486    4.8662    1.6959 H   0  0  0  0  0  0  0  0  0  0  0  0
    1.2060    6.1950    0.5308 H   0  0  0  0  0  0  0  0  0  0  0  0
   -0.2890    5.3442    0.9630 H   0  0  0  0  0  0  0  0  0  0  0  0
    3.0612    5.0571   -1.3306 N   0  0  0  0  0  0  0  0  0  0  0  0
    4.4620    5.0939   -1.6802 C   0  0  0  0  0  0  0  0  0  0  0  0
    2.4700    5.8137   -1.6620 H   0  0  0  0  0  0  0  0  0  0  0  0
    5.0198    5.6395   -0.9049 H   0  0  0  0  0  0  0  0  0  0  0  0
    4.8482    4.0666   -1.7552 H   0  0  0  0  0  0  0  0  0  0  0  0
    4.5852    5.6033   -2.6473 H   0  0  0  0  0  0  0  0  0  0  0  0
 29 30  2  0  0  0  0
 27 29  1  0  0  0  0
 28 30  1  0  0  0  0
 24 27  2  0  0  0  0
 26 28  2  0  0  0  0
 22 23  2  0  0  0  0
 23 25  1  0  0  0  0
 22 24  1  0  0  0  0
 24 26  1  0  0  0  0
 21 22  1  0  0  0  0
 25 26  1  0  0  0  0
  1  3  1  0  0  0  0
  1  7  1  0  0  0  0
  1  2  2  0  0  0  0
 42 43  1  0  0  0  0
 43 51  1  0  0  0  0
 43 44  2  0  0  0  0
  8  9  1  0  0  0  0
  9 17  1  0  0  0  0
  9 10  2  0  0  0  0
 18 19  1  0  0  0  0
 19 41  1  0  0  0  0
 19 20  2  0  0  0  0
 42 45  1  0  0  0  0
  8 11  1  0  0  0  0
 51 52  1  0  0  0  0
 18 21  1  0  0  0  0
 41 42  1  0  0  0  0
  7  8  1  0  0  0  0
 17 18  1  0  0  0  0
 29 39  1  0  0  0  0
 30 40  1  0  0  0  0
 27 37  1  0  0  0  0
 28 38  1  0  0  0  0
 23 35  1  0  0  0  0
  3  4  1  0  0  0  0
  3  5  1  0  0  0  0
  3  6  1  0  0  0  0
 45 48  1  0  0  0  0
 45 49  1  0  0  0  0
 45 50  1  0  0  0  0
 11 14  1  0  0  0  0
 11 15  1  0  0  0  0
 11 16  1  0  0  0  0
 52 54  1  0  0  0  0
 52 55  1  0  0  0  0
 52 56  1  0  0  0  0
 21 33  1  0  0  0  0
 21 34  1  0  0  0  0
 42 47  1  0  0  0  0
  8 13  1  0  0  0  0
 18 32  1  0  0  0  0
 25 36  1  0  0  0  0
 51 53  1  0  0  0  0
  7 12  1  0  0  0  0
 41 46  1  0  0  0  0
 17 31  1  0  0  0  0
M  END
$$$$

  -OEChem-05262214473D

 56 57  0     1  0  0  0  0  0999 V2000
   -2.2900    0.3401    4.1553 C   0  0  0  0  0  0  0  0  0  0  0  0
   -1.3426   -0.2746    3.6796 O   0  0  0  0  0  0  0  0  0  0  0  0
   -2.7219    0.0577    5.5560 C   0  0  0  0  0  0  0  0  0  0  0  0
   -3.4815   -0.7386    5.6094 H   0  0  0  0  0  0  0  0  0  0  0  0
   -1.8906   -0.2899    6.1903 H   0  0  0  0  0  0  0  0  0  0  0  0
   -3.1599    0.9126    6.0956 H   0  0  0  0  0  0  0  0  0  0  0  0
   -3.0397    1.3125    3.5142 N   0  0  0  0  0  0  0  0  0  0  0  0
   -2.7928    1.7385    2.1618 C   0  0  2  0  0  0  0  0  0  0  0  0
   -1.4579    1.1532    1.7206 C   0  0  0  0  0  0  0  0  0  0  0  0
   -0.5858    0.8004    2.5118 O   0  0  0  0  0  0  0  0  0  0  0  0
   -2.7841    3.2553    2.0523 C   0  0  0  0  0  0  0  0  0  0  0  0
   -3.8047    1.7484    4.0260 H   0  0  0  0  0  0  0  0  0  0  0  0
   -3.5969    1.3201    1.5466 H   0  0  0  0  0  0  0  0  0  0  0  0
   -1.9850    3.6926    2.6620 H   0  0  0  0  0  0  0  0  0  0  0  0
   -2.6246    3.5776    1.0180 H   0  0  0  0  0  0  0  0  0  0  0  0
   -3.7342    3.6765    2.3981 H   0  0  0  0  0  0  0  0  0  0  0  0
   -1.3352    1.1101    0.3372 N   0  0  0  0  0  0  0  0  0  0  0  0
   -0.1579    0.6093   -0.3265 C   0  0  2  0  0  0  0  0  0  0  0  0
    0.6067    1.8156   -0.8598 C   0  0  0  0  0  0  0  0  0  0  0  0
    1.0470    1.8755   -2.0059 O   0  0  0  0  0  0  0  0  0  0  0  0
   -0.5025   -0.3514   -1.4703 C   0  0  0  0  0  0  0  0  0  0  0  0
   -1.1228   -1.6387   -0.9844 C   0  0  0  0  0  0  0  0  0  0  0  0
   -2.4702   -1.9121   -0.9334 C   0  0  0  0  0  0  0  0  0  0  0  0
   -0.4299   -2.7836   -0.5007 C   0  0  0  0  0  0  0  0  0  0  0  0
   -2.6247   -3.1786   -0.4370 N   0  0  0  0  0  0  0  0  0  0  0  0
   -1.3953   -3.7349   -0.1641 C   0  0  0  0  0  0  0  0  0  0  0  0
    0.9300   -3.1029   -0.3163 C   0  0  0  0  0  0  0  0  0  0  0  0
   -1.0674   -4.9946    0.3498 C   0  0  0  0  0  0  0  0  0  0  0  0
    1.2729   -4.3591    0.1967 C   0  0  0  0  0  0  0  0  0  0  0  0
    0.2879   -5.2889    0.5239 C   0  0  0  0  0  0  0  0  0  0  0  0
   -2.1183    1.4068   -0.2401 H   0  0  0  0  0  0  0  0  0  0  0  0
    0.4463    0.1125    0.4417 H   0  0  0  0  0  0  0  0  0  0  0  0
    0.3949   -0.5745   -2.0632 H   0  0  0  0  0  0  0  0  0  0  0  0
   -1.2008    0.1230   -2.1725 H   0  0  0  0  0  0  0  0  0  0  0  0
   -3.3333   -1.3195   -1.2039 H   0  0  0  0  0  0  0  0  0  0  0  0
   -3.5124   -3.6394   -0.2918 H   0  0  0  0  0  0  0  0  0  0  0  0
    1.7097   -2.3887   -0.5657 H   0  0  0  0  0  0  0  0  0  0  0  0
   -1.8334   -5.7194    0.6037 H   0  0  0  0  0  0  0  0  0  0  0  0
    2.3201   -4.6108    0.3415 H   0  0  0  0  0  0  0  0  0  0  0  0
    0.5767   -6.2587    0.9209 H   0  0  0  0  0  0  0  0  0  0  0  0
    0.6933    2.8330    0.0803 N   0  0  0  0  0  0  0  0  0  0  0  0
    1.3464    4.0966   -0.1757 C   0  0  2  0  0  0  0  0  0  0  0  0
    2.7249    3.8049   -0.7538 C   0  0  0  0  0  0  0  0  0  0  0  0
    3.3108    2.7375   -0.5852 O   0  0  0  0  0  0  0  0  0  0  0  0
    1.4537    4.9308    1.0913 C   0  0  0  0  0  0  0  0  0  0  0  0
    0.2768    2.6818    0.9943 H   0  0  0  0  0  0  0  0  0  0  0  0
    0.7400    4.6204   -0.9226 H   0  0  0  0  0  0  0  0  0  0  0  0
    2.0578    4.4221    1.8514 H   0  0  0  0  0  0  0  0  0  0  0  0
    1.9229    5.8994    0.8901 H   0  0  0  0  0  0  0  0  0  0  0  0
    0.4635    5.1144    1.5220 H   0  0  0  0  0  0  0  0  0  0  0  0
    3.2423    4.8923   -1.4436 N   0  0  0  0  0  0  0  0  0  0  0  0
    4.5418    4.8694   -2.0737 C   0  0  0  0  0  0  0  0  0  0  0  0
    2.6790    5.7309   -1.5495 H   0  0  0  0  0  0  0  0  0  0  0  0
    5.2963    5.2571   -1.3734 H   0  0  0  0  0  0  0  0  0  0  0  0
    4.7962    3.8359   -2.3514 H   0  0  0  0  0  0  0  0  0  0  0  0
    4.5225    5.4975   -2.9765 H   0  0  0  0  0  0  0  0  0  0  0  0
 29 30  2  0  0  0  0
 27 29  1  0  0  0  0
 28 30  1  0  0  0  0
 24 27  2  0  0  0  0
 26 28  2  0  0  0  0
 22 23  2  0  0  0  0
 23 25  1  0  0  0  0
 22 24  1  0  0  0  0
 24 26  1  0  0  0  0
 21 22  1  0  0  0  0
 25 26  1  0  0  0  0
  1  3  1  0  0  0  0
  1  7  1  0  0  0  0
  1  2  2  0  0  0  0
 42 43  1  0  0  0  0
 43 51  1  0  0  0  0
 43 44  2  0  0  0  0
  8  9  1  0  0  0  0
  9 17  1  0  0  0  0
  9 10  2  0  0  0  0
 18 19  1  0  0  0  0
 19 41  1  0  0  0  0
 19 20  2  0  0  0  0
 42 45  1  0  0  0  0
  8 11  1  0  0  0  0
 51 52  1  0  0  0  0
 18 21  1  0  0  0  0
 41 42  1  0  0  0  0
  7  8  1  0  0  0  0
 17 18  1  0  0  0  0
 29 39  1  0  0  0  0
 30 40  1  0  0  0  0
 27 37  1  0  0  0  0
 28 38  1  0  0  0  0
 23 35  1  0  0  0  0
  3  4  1  0  0  0  0
  3  5  1  0  0  0  0
  3  6  1  0  0  0  0
 45 48  1  0  0  0  0
 45 49  1  0  0  0  0
 45 50  1  0  0  0  0
 11 14  1  0  0  0  0
 11 15  1  0  0  0  0
 11 16  1  0  0  0  0
 52 54  1  0  0  0  0
 52 55  1  0  0  0  0
 52 56  1  0  0  0  0
 21 33  1  0  0  0  0
 21 34  1  0  0  0  0
 42 47  1  0  0  0  0
  8 13  1  0  0  0  0
 18 32  1  0  0  0  0
 25 36  1  0  0  0  0
 51 53  1  0  0  0  0
  7 12  1  0  0  0  0
 41 46  1  0  0  0  0
 17 31  1  0  0  0  0
M  END
$$$$

  -OEChem-05262214473D

 56 57  0     1  0  0  0  0  0999 V2000
   -2.2900    0.3401    4.1553 C   0  0  0  0  0  0  0  0  0  0  0  0
   -1.3426   -0.2746    3.6796 O   0  0  0  0  0  0  0  0  0  0  0  0
   -2.7219    0.0577    5.5560 C   0  0  0  0  0  0  0  0  0  0  0  0
   -3.4815   -0.7386    5.6094 H   0  0  0  0  0  0  0  0  0  0  0  0
   -1.8906   -0.2899    6.1903 H   0  0  0  0  0  0  0  0  0  0  0  0
   -3.1599    0.9126    6.0956 H   0  0  0  0  0  0  0  0  0  0  0  0
   -3.0397    1.3125    3.5142 N   0  0  0  0  0  0  0  0  0  0  0  0
   -2.7928    1.7385    2.1618 C   0  0  2  0  0  0  0  0  0  0  0  0
   -1.4579    1.1532    1.7206 C   0  0  0  0  0  0  0  0  0  0  0  0
   -0.5858    0.8004    2.5118 O   0  0  0  0  0  0  0  0  0  0  0  0
   -2.7841    3.2553    2.0523 C   0  0  0  0  0  0  0  0  0  0  0  0
   -3.8047    1.7484    4.0260 H   0  0  0  0  0  0  0  0  0  0  0  0
   -3.5969    1.3201    1.5466 H   0  0  0  0  0  0  0  0  0  0  0  0
   -1.9850    3.6926    2.6620 H   0  0  0  0  0  0  0  0  0  0  0  0
   -2.6246    3.5776    1.0180 H   0  0  0  0  0  0  0  0  0  0  0  0
   -3.7342    3.6765    2.3981 H   0  0  0  0  0  0  0  0  0  0  0  0
   -1.3352    1.1101    0.3372 N   0  0  0  0  0  0  0  0  0  0  0  0
   -0.1579    0.6093   -0.3265 C   0  0  2  0  0  0  0  0  0  0  0  0
    0.6067    1.8156   -0.8598 C   0  0  0  0  0  0  0  0  0  0  0  0
    0.8141    2.0004   -2.0572 O   0  0  0  0  0  0  0  0  0  0  0  0
   -0.5025   -0.3514   -1.4703 C   0  0  0  0  0  0  0  0  0  0  0  0
   -1.1228   -1.6387   -0.9844 C   0  0  0  0  0  0  0  0  0  0  0  0
   -2.4702   -1.9121   -0.9334 C   0  0  0  0  0  0  0  0  0  0  0  0
   -0.4299   -2.7836   -0.5007 C   0  0  0  0  0  0  0  0  0  0  0  0
   -2.6247   -3.1786   -0.4370 N   0  0  0  0  0  0  0  0  0  0  0  0
   -1.3953   -3.7349   -0.1641 C   0  0  0  0  0  0  0  0  0  0  0  0
    0.9300   -3.1029   -0.3163 C   0  0  0  0  0  0  0  0  0  0  0  0
   -1.0674   -4.9946    0.3498 C   0  0  0  0  0  0  0  0  0  0  0  0
    1.2729   -4.3591    0.1967 C   0  0  0  0  0  0  0  0  0  0  0  0
    0.2879   -5.2889    0.5239 C   0  0  0  0  0  0  0  0  0  0  0  0
   -2.1183    1.4068   -0.2401 H   0  0  0  0  0  0  0  0  0  0  0  0
    0.4463    0.1125    0.4417 H   0  0  0  0  0  0  0  0  0  0  0  0
    0.3949   -0.5745   -2.0632 H   0  0  0  0  0  0  0  0  0  0  0  0
   -1.2008    0.1230   -2.1725 H   0  0  0  0  0  0  0  0  0  0  0  0
   -3.3333   -1.3195   -1.2039 H   0  0  0  0  0  0  0  0  0  0  0  0
   -3.5124   -3.6394   -0.2918 H   0  0  0  0  0  0  0  0  0  0  0  0
    1.7097   -2.3887   -0.5657 H   0  0  0  0  0  0  0  0  0  0  0  0
   -1.8334   -5.7194    0.6037 H   0  0  0  0  0  0  0  0  0  0  0  0
    2.3201   -4.6108    0.3415 H   0  0  0  0  0  0  0  0  0  0  0  0
    0.5767   -6.2587    0.9209 H   0  0  0  0  0  0  0  0  0  0  0  0
    0.9839    2.6825    0.1564 N   0  0  0  0  0  0  0  0  0  0  0  0
    1.7009    3.9153   -0.0775 C   0  0  2  0  0  0  0  0  0  0  0  0
    2.8990    3.6016   -0.9639 C   0  0  0  0  0  0  0  0  0  0  0  0
    3.3924    2.4792   -1.0524 O   0  0  0  0  0  0  0  0  0  0  0  0
    2.1442    4.5542    1.2294 C   0  0  0  0  0  0  0  0  0  0  0  0
    0.7440    2.4381    1.1127 H   0  0  0  0  0  0  0  0  0  0  0  0
    1.0160    4.5832   -0.6112 H   0  0  0  0  0  0  0  0  0  0  0  0
    2.8311    3.8996    1.7782 H   0  0  0  0  0  0  0  0  0  0  0  0
    2.6622    5.5024    1.0519 H   0  0  0  0  0  0  0  0  0  0  0  0
    1.2840    4.7518    1.8781 H   0  0  0  0  0  0  0  0  0  0  0  0
    3.3792    4.7314   -1.6113 N   0  0  0  0  0  0  0  0  0  0  0  0
    4.5179    4.6964   -2.4992 C   0  0  0  0  0  0  0  0  0  0  0  0
    2.8965    5.6175   -1.4944 H   0  0  0  0  0  0  0  0  0  0  0  0
    5.4327    4.9236   -1.9322 H   0  0  0  0  0  0  0  0  0  0  0  0
    4.6031    3.6952   -2.9466 H   0  0  0  0  0  0  0  0  0  0  0  0
    4.3850    5.4437   -3.2953 H   0  0  0  0  0  0  0  0  0  0  0  0
 29 30  2  0  0  0  0
 27 29  1  0  0  0  0
 28 30  1  0  0  0  0
 24 27  2  0  0  0  0
 26 28  2  0  0  0  0
 22 23  2  0  0  0  0
 23 25  1  0  0  0  0
 22 24  1  0  0  0  0
 24 26  1  0  0  0  0
 21 22  1  0  0  0  0
 25 26  1  0  0  0  0
  1  3  1  0  0  0  0
  1  7  1  0  0  0  0
  1  2  2  0  0  0  0
 42 43  1  0  0  0  0
 43 51  1  0  0  0  0
 43 44  2  0  0  0  0
  8  9  1  0  0  0  0
  9 17  1  0  0  0  0
  9 10  2  0  0  0  0
 18 19  1  0  0  0  0
 19 41  1  0  0  0  0
 19 20  2  0  0  0  0
 42 45  1  0  0  0  0
  8 11  1  0  0  0  0
 51 52  1  0  0  0  0
 18 21  1  0  0  0  0
 41 42  1  0  0  0  0
  7  8  1  0  0  0  0
 17 18  1  0  0  0  0
 29 39  1  0  0  0  0
 30 40  1  0  0  0  0
 27 37  1  0  0  0  0
 28 38  1  0  0  0  0
 23 35  1  0  0  0  0
  3  4  1  0  0  0  0
  3  5  1  0  0  0  0
  3  6  1  0  0  0  0
 45 48  1  0  0  0  0
 45 49  1  0  0  0  0
 45 50  1  0  0  0  0
 11 14  1  0  0  0  0
 11 15  1  0  0  0  0
 11 16  1  0  0  0  0
 52 54  1  0  0  0  0
 52 55  1  0  0  0  0
 52 56  1  0  0  0  0
 21 33  1  0  0  0  0
 21 34  1  0  0  0  0
 42 47  1  0  0  0  0
  8 13  1  0  0  0  0
 18 32  1  0  0  0  0
 25 36  1  0  0  0  0
 51 53  1  0  0  0  0
  7 12  1  0  0  0  0
 41 46  1  0  0  0  0
 17 31  1  0  0  0  0
M  END
$$$$

  -OEChem-05262214473D

 56 57  0     1  0  0  0  0  0999 V2000
   -2.2900    0.3401    4.1553 C   0  0  0  0  0  0  0  0  0  0  0  0
   -1.3426   -0.2746    3.6796 O   0  0  0  0  0  0  0  0  0  0  0  0
   -2.7219    0.0577    5.5560 C   0  0  0  0  0  0  0  0  0  0  0  0
   -3.4815   -0.7386    5.6094 H   0  0  0  0  0  0  0  0  0  0  0  0
   -1.8906   -0.2899    6.1903 H   0  0  0  0  0  0  0  0  0  0  0  0
   -3.1599    0.9126    6.0956 H   0  0  0  0  0  0  0  0  0  0  0  0
   -3.0397    1.3125    3.5142 N   0  0  0  0  0  0  0  0  0  0  0  0
   -2.7928    1.7385    2.1618 C   0  0  2  0  0  0  0  0  0  0  0  0
   -1.4579    1.1532    1.7206 C   0  0  0  0  0  0  0  0  0  0  0  0
   -0.5858    0.8004    2.5118 O   0  0  0  0  0  0  0  0  0  0  0  0
   -2.7841    3.2553    2.0523 C   0  0  0  0  0  0  0  0  0  0  0  0
   -3.8047    1.7484    4.0260 H   0  0  0  0  0  0  0  0  0  0  0  0
   -3.5969    1.3201    1.5466 H   0  0  0  0  0  0  0  0  0  0  0  0
   -1.9850    3.6926    2.6620 H   0  0  0  0  0  0  0  0  0  0  0  0
   -2.6246    3.5776    1.0180 H   0  0  0  0  0  0  0  0  0  0  0  0
   -3.7342    3.6765    2.3981 H   0  0  0  0  0  0  0  0  0  0  0  0
   -1.3352    1.1101    0.3372 N   0  0  0  0  0  0  0  0  0  0  0  0
   -0.1579    0.6093   -0.3265 C   0  0  2  0  0  0  0  0  0  0  0  0
    0.6067    1.8156   -0.8598 C   0  0  0  0  0  0  0  0  0  0  0  0
    0.5900    2.1488   -2.0429 O   0  0  0  0  0  0  0  0  0  0  0  0
   -0.5025   -0.3514   -1.4703 C   0  0  0  0  0  0  0  0  0  0  0  0
   -1.1228   -1.6387   -0.9844 C   0  0  0  0  0  0  0  0  0  0  0  0
   -2.4702   -1.9121   -0.9334 C   0  0  0  0  0  0  0  0  0  0  0  0
   -0.4299   -2.7836   -0.5007 C   0  0  0  0  0  0  0  0  0  0  0  0
   -2.6247   -3.1786   -0.4370 N   0  0  0  0  0  0  0  0  0  0  0  0
   -1.3953   -3.7349   -0.1641 C   0  0  0  0  0  0  0  0  0  0  0  0
    0.9300   -3.1029   -0.3163 C   0  0  0  0  0  0  0  0  0  0  0  0
   -1.0674   -4.9946    0.3498 C   0  0  0  0  0  0  0  0  0  0  0  0
    1.2729   -4.3591    0.1967 C   0  0  0  0  0  0  0  0  0  0  0  0
    0.2879   -5.2889    0.5239 C   0  0  0  0  0  0  0  0  0  0  0  0
   -2.1183    1.4068   -0.2401 H   0  0  0  0  0  0  0  0  0  0  0  0
    0.4463    0.1125    0.4417 H   0  0  0  0  0  0  0  0  0  0  0  0
    0.3949   -0.5745   -2.0632 H   0  0  0  0  0  0  0  0  0  0  0  0
   -1.2008    0.1230   -2.1725 H   0  0  0  0  0  0  0  0  0  0  0  0
   -3.3333   -1.3195   -1.2039 H   0  0  0  0  0  0  0  0  0  0  0  0
   -3.5124   -3.6394   -0.2918 H   0  0  0  0  0  0  0  0  0  0  0  0
    1.7097   -2.3887   -0.5657 H   0  0  0  0  0  0  0  0  0  0  0  0
   -1.8334   -5.7194    0.6037 H   0  0  0  0  0  0  0  0  0  0  0  0
    2.3201   -4.6108    0.3415 H   0  0  0  0  0  0  0  0  0  0  0  0
    0.5767   -6.2587    0.9209 H   0  0  0  0  0  0  0  0  0  0  0  0
    1.2665    2.5009    0.1509 N   0  0  0  0  0  0  0  0  0  0  0  0
    2.0471    3.6954   -0.0788 C   0  0  2  0  0  0  0  0  0  0  0  0
    3.0057    3.4168   -1.2290 C   0  0  0  0  0  0  0  0  0  0  0  0
    3.3521    2.2830   -1.5539 O   0  0  0  0  0  0  0  0  0  0  0  0
    2.8053    4.1100    1.1725 C   0  0  0  0  0  0  0  0  0  0  0  0
    1.1974    2.1449    1.0997 H   0  0  0  0  0  0  0  0  0  0  0  0
    1.3430    4.4818   -0.3717 H   0  0  0  0  0  0  0  0  0  0  0  0
    3.5157    3.3344    1.4813 H   0  0  0  0  0  0  0  0  0  0  0  0
    3.3736    5.0309    1.0053 H   0  0  0  0  0  0  0  0  0  0  0  0
    2.1166    4.2810    2.0069 H   0  0  0  0  0  0  0  0  0  0  0  0
    3.4625    4.5854   -1.8222 N   0  0  0  0  0  0  0  0  0  0  0  0
    4.3920    4.5867   -2.9277 C   0  0  0  0  0  0  0  0  0  0  0  0
    3.1076    5.4810   -1.5004 H   0  0  0  0  0  0  0  0  0  0  0  0
    5.4198    4.6616   -2.5432 H   0  0  0  0  0  0  0  0  0  0  0  0
    4.2819    3.6540   -3.5003 H   0  0  0  0  0  0  0  0  0  0  0  0
    4.1820    5.4456   -3.5821 H   0  0  0  0  0  0  0  0  0  0  0  0
 29 30  2  0  0  0  0
 27 29  1  0  0  0  0
 28 30  1  0  0  0  0
 24 27  2  0  0  0  0
 26 28  2  0  0  0  0
 22 23  2  0  0  0  0
 23 25  1  0  0  0  0
 22 24  1  0  0  0  0
 24 26  1  0  0  0  0
 21 22  1  0  0  0  0
 25 26  1  0  0  0  0
  1  3  1  0  0  0  0
  1  7  1  0  0  0  0
  1  2  2  0  0  0  0
 42 43  1  0  0  0  0
 43 51  1  0  0  0  0
 43 44  2  0  0  0  0
  8  9  1  0  0  0  0
  9 17  1  0  0  0  0
  9 10  2  0  0  0  0
 18 19  1  0  0  0  0
 19 41  1  0  0  0  0
 19 20  2  0  0  0  0
 42 45  1  0  0  0  0
  8 11  1  0  0  0  0
 51 52  1  0  0  0  0
 18 21  1  0  0  0  0
 41 42  1  0  0  0  0
  7  8  1  0  0  0  0
 17 18  1  0  0  0  0
 29 39  1  0  0  0  0
 30 40  1  0  0  0  0
 27 37  1  0  0  0  0
 28 38  1  0  0  0  0
 23 35  1  0  0  0  0
  3  4  1  0  0  0  0
  3  5  1  0  0  0  0
  3  6  1  0  0  0  0
 45 48  1  0  0  0  0
 45 49  1  0  0  0  0
 45 50  1  0  0  0  0
 11 14  1  0  0  0  0
 11 15  1  0  0  0  0
 11 16  1  0  0  0  0
 52 54  1  0  0  0  0
 52 55  1  0  0  0  0
 52 56  1  0  0  0  0
 21 33  1  0  0  0  0
 21 34  1  0  0  0  0
 42 47  1  0  0  0  0
  8 13  1  0  0  0  0
 18 32  1  0  0  0  0
 25 36  1  0  0  0  0
 51 53  1  0  0  0  0
  7 12  1  0  0  0  0
 41 46  1  0  0  0  0
 17 31  1  0  0  0  0
M  END
$$$$

  -OEChem-05262214473D

 56 57  0     1  0  0  0  0  0999 V2000
   -2.2900    0.3401    4.1553 C   0  0  0  0  0  0  0  0  0  0  0  0
   -1.3426   -0.2746    3.6796 O   0  0  0  0  0  0  0  0  0  0  0  0
   -2.7219    0.0577    5.5560 C   0  0  0  0  0  0  0  0  0  0  0  0
   -3.4815   -0.7386    5.6094 H   0  0  0  0  0  0  0  0  0  0  0  0
   -1.8906   -0.2899    6.1903 H   0  0  0  0  0  0  0  0  0  0  0  0
   -3.1599    0.9126    6.0956 H   0  0  0  0  0  0  0  0  0  0  0  0
   -3.0397    1.3125    3.5142 N   0  0  0  0  0  0  0  0  0  0  0  0
   -2.7928    1.7385    2.1618 C   0  0  2  0  0  0  0  0  0  0  0  0
   -1.4579    1.1532    1.7206 C   0  0  0  0  0  0  0  0  0  0  0  0
   -0.5858    0.8004    2.5118 O   0  0  0  0  0  0  0  0  0  0  0  0
   -2.7841    3.2553    2.0523 C   0  0  0  0  0  0  0  0  0  0  0  0
   -3.8047    1.7484    4.0260 H   0  0  0  0  0  0  0  0  0  0  0  0
   -3.5969    1.3201    1.5466 H   0  0  0  0  0  0  0  0  0  0  0  0
   -1.9850    3.6926    2.6620 H   0  0  0  0  0  0  0  0  0  0  0  0
   -2.6246    3.5776    1.0180 H   0  0  0  0  0  0  0  0  0  0  0  0
   -3.7342    3.6765    2.3981 H   0  0  0  0  0  0  0  0  0  0  0  0
   -1.3352    1.1101    0.3372 N   0  0  0  0  0  0  0  0  0  0  0  0
   -0.1579    0.6093   -0.3265 C   0  0  2  0  0  0  0  0  0  0  0  0
    0.6067    1.8156   -0.8598 C   0  0  0  0  0  0  0  0  0  0  0  0
    0.3899    2.3105   -1.9639 O   0  0  0  0  0  0  0  0  0  0  0  0
   -0.5025   -0.3514   -1.4703 C   0  0  0  0  0  0  0  0  0  0  0  0
   -1.1228   -1.6387   -0.9844 C   0  0  0  0  0  0  0  0  0  0  0  0
   -2.4702   -1.9121   -0.9334 C   0  0  0  0  0  0  0  0  0  0  0  0
   -0.4299   -2.7836   -0.5007 C   0  0  0  0  0  0  0  0  0  0  0  0
   -2.6247   -3.1786   -0.4370 N   0  0  0  0  0  0  0  0  0  0  0  0
   -1.3953   -3.7349   -0.1641 C   0  0  0  0  0  0  0  0  0  0  0  0
    0.9300   -3.1029   -0.3163 C   0  0  0  0  0  0  0  0  0  0  0  0
   -1.0674   -4.9946    0.3498 C   0  0  0  0  0  0  0  0  0  0  0  0
    1.2729   -4.3591    0.1967 C   0  0  0  0  0  0  0  0  0  0  0  0
    0.2879   -5.2889    0.5239 C   0  0  0  0  0  0  0  0  0  0  0  0
   -2.1183    1.4068   -0.2401 H   0  0  0  0  0  0  0  0  0  0  0  0
    0.4463    0.1125    0.4417 H   0  0  0  0  0  0  0  0  0  0  0  0
    0.3949   -0.5745   -2.0632 H   0  0  0  0  0  0  0  0  0  0  0  0
   -1.2008    0.1230   -2.1725 H   0  0  0  0  0  0  0  0  0  0  0  0
   -3.3333   -1.3195   -1.2039 H   0  0  0  0  0  0  0  0  0  0  0  0
   -3.5124   -3.6394   -0.2918 H   0  0  0  0  0  0  0  0  0  0  0  0
    1.7097   -2.3887   -0.5657 H   0  0  0  0  0  0  0  0  0  0  0  0
   -1.8334   -5.7194    0.6037 H   0  0  0  0  0  0  0  0  0  0  0  0
    2.3201   -4.6108    0.3415 H   0  0  0  0  0  0  0  0  0  0  0  0
    0.5767   -6.2587    0.9209 H   0  0  0  0  0  0  0  0  0  0  0  0
    1.5220    2.3006    0.0641 N   0  0  0  0  0  0  0  0  0  0  0  0
    2.3612    3.4517   -0.1795 C   0  0  2  0  0  0  0  0  0  0  0  0
    3.0378    3.2631   -1.5308 C   0  0  0  0  0  0  0  0  0  0  0  0
    3.1927    2.1623   -2.0555 O   0  0  0  0  0  0  0  0  0  0  0  0
    3.3921    3.6284    0.9245 C   0  0  0  0  0  0  0  0  0  0  0  0
    1.6062    1.8224    0.9562 H   0  0  0  0  0  0  0  0  0  0  0  0
    1.6987    4.3231   -0.2206 H   0  0  0  0  0  0  0  0  0  0  0  0
    4.0650    2.7650    0.9810 H   0  0  0  0  0  0  0  0  0  0  0  0
    4.0084    4.5172    0.7533 H   0  0  0  0  0  0  0  0  0  0  0  0
    2.9046    3.7341    1.8997 H   0  0  0  0  0  0  0  0  0  0  0  0
    3.4866    4.4641   -2.0620 N   0  0  0  0  0  0  0  0  0  0  0  0
    4.1727    4.5478   -3.3302 C   0  0  0  0  0  0  0  0  0  0  0  0
    3.2979    5.3309   -1.5671 H   0  0  0  0  0  0  0  0  0  0  0  0
    5.2586    4.4890   -3.1648 H   0  0  0  0  0  0  0  0  0  0  0  0
    3.8545    3.7151   -3.9747 H   0  0  0  0  0  0  0  0  0  0  0  0
    3.9273    5.5030   -3.8173 H   0  0  0  0  0  0  0  0  0  0  0  0
 29 30  2  0  0  0  0
 27 29  1  0  0  0  0
 28 30  1  0  0  0  0
 24 27  2  0  0  0  0
 26 28  2  0  0  0  0
 22 23  2  0  0  0  0
 23 25  1  0  0  0  0
 22 24  1  0  0  0  0
 24 26  1  0  0  0  0
 21 22  1  0  0  0  0
 25 26  1  0  0  0  0
  1  3  1  0  0  0  0
  1  7  1  0  0  0  0
  1  2  2  0  0  0  0
 42 43  1  0  0  0  0
 43 51  1  0  0  0  0
 43 44  2  0  0  0  0
  8  9  1  0  0  0  0
  9 17  1  0  0  0  0
  9 10  2  0  0  0  0
 18 19  1  0  0  0  0
 19 41  1  0  0  0  0
 19 20  2  0  0  0  0
 42 45  1  0  0  0  0
  8 11  1  0  0  0  0
 51 52  1  0  0  0  0
 18 21  1  0  0  0  0
 41 42  1  0  0  0  0
  7  8  1  0  0  0  0
 17 18  1  0  0  0  0
 29 39  1  0  0  0  0
 30 40  1  0  0  0  0
 27 37  1  0  0  0  0
 28 38  1  0  0  0  0
 23 35  1  0  0  0  0
  3  4  1  0  0  0  0
  3  5  1  0  0  0  0
  3  6  1  0  0  0  0
 45 48  1  0  0  0  0
 45 49  1  0  0  0  0
 45 50  1  0  0  0  0
 11 14  1  0  0  0  0
 11 15  1  0  0  0  0
 11 16  1  0  0  0  0
 52 54  1  0  0  0  0
 52 55  1  0  0  0  0
 52 56  1  0  0  0  0
 21 33  1  0  0  0  0
 21 34  1  0  0  0  0
 42 47  1  0  0  0  0
  8 13  1  0  0  0  0
 18 32  1  0  0  0  0
 25 36  1  0  0  0  0
 51 53  1  0  0  0  0
  7 12  1  0  0  0  0
 41 46  1  0  0  0  0
 17 31  1  0  0  0  0
M  END
$$$$

  -OEChem-05262214473D

 56 57  0     1  0  0  0  0  0999 V2000
   -2.2900    0.3401    4.1553 C   0  0  0  0  0  0  0  0  0  0  0  0
   -1.3426   -0.2746    3.6796 O   0  0  0  0  0  0  0  0  0  0  0  0
   -2.7219    0.0577    5.5560 C   0  0  0  0  0  0  0  0  0  0  0  0
   -3.4815   -0.7386    5.6094 H   0  0  0  0  0  0  0  0  0  0  0  0
   -1.8906   -0.2899    6.1903 H   0  0  0  0  0  0  0  0  0  0  0  0
   -3.1599    0.9126    6.0956 H   0  0  0  0  0  0  0  0  0  0  0  0
   -3.0397    1.3125    3.5142 N   0  0  0  0  0  0  0  0  0  0  0  0
   -2.7928    1.7385    2.1618 C   0  0  2  0  0  0  0  0  0  0  0  0
   -1.4579    1.1532    1.7206 C   0  0  0  0  0  0  0  0  0  0  0  0
   -0.5858    0.8004    2.5118 O   0  0  0  0  0  0  0  0  0  0  0  0
   -2.7841    3.2553    2.0523 C   0  0  0  0  0  0  0  0  0  0  0  0
   -3.8047    1.7484    4.0260 H   0  0  0  0  0  0  0  0  0  0  0  0
   -3.5969    1.3201    1.5466 H   0  0  0  0  0  0  0  0  0  0  0  0
   -1.9850    3.6926    2.6620 H   0  0  0  0  0  0  0  0  0  0  0  0
   -2.6246    3.5776    1.0180 H   0  0  0  0  0  0  0  0  0  0  0  0
   -3.7342    3.6765    2.3981 H   0  0  0  0  0  0  0  0  0  0  0  0
   -1.3352    1.1101    0.3372 N   0  0  0  0  0  0  0  0  0  0  0  0
   -0.1579    0.6093   -0.3265 C   0  0  2  0  0  0  0  0  0  0  0  0
    0.6067    1.8156   -0.8598 C   0  0  0  0  0  0  0  0  0  0  0  0
    0.2274    2.4746   -1.8256 O   0  0  0  0  0  0  0  0  0  0  0  0
   -0.5025   -0.3514   -1.4703 C   0  0  0  0  0  0  0  0  0  0  0  0
   -1.1228   -1.6387   -0.9844 C   0  0  0  0  0  0  0  0  0  0  0  0
   -2.4702   -1.9121   -0.9334 C   0  0  0  0  0  0  0  0  0  0  0  0
   -0.4299   -2.7836   -0.5007 C   0  0  0  0  0  0  0  0  0  0  0  0
   -2.6247   -3.1786   -0.4370 N   0  0  0  0  0  0  0  0  0  0  0  0
   -1.3953   -3.7349   -0.1641 C   0  0  0  0  0  0  0  0  0  0  0  0
    0.9300   -3.1029   -0.3163 C   0  0  0  0  0  0  0  0  0  0  0  0
   -1.0674   -4.9946    0.3498 C   0  0  0  0  0  0  0  0  0  0  0  0
    1.2729   -4.3591    0.1967 C   0  0  0  0  0  0  0  0  0  0  0  0
    0.2879   -5.2889    0.5239 C   0  0  0  0  0  0  0  0  0  0  0  0
   -2.1183    1.4068   -0.2401 H   0  0  0  0  0  0  0  0  0  0  0  0
    0.4463    0.1125    0.4417 H   0  0  0  0  0  0  0  0  0  0  0  0
    0.3949   -0.5745   -2.0632 H   0  0  0  0  0  0  0  0  0  0  0  0
   -1.2008    0.1230   -2.1725 H   0  0  0  0  0  0  0  0  0  0  0  0
   -3.3333   -1.3195   -1.2039 H   0  0  0  0  0  0  0  0  0  0  0  0
   -3.5124   -3.6394   -0.2918 H   0  0  0  0  0  0  0  0  0  0  0  0
    1.7097   -2.3887   -0.5657 H   0  0  0  0  0  0  0  0  0  0  0  0
   -1.8334   -5.7194    0.6037 H   0  0  0  0  0  0  0  0  0  0  0  0
    2.3201   -4.6108    0.3415 H   0  0  0  0  0  0  0  0  0  0  0  0
    0.5767   -6.2587    0.9209 H   0  0  0  0  0  0  0  0  0  0  0  0
    1.7328    2.0953   -0.0981 N   0  0  0  0  0  0  0  0  0  0  0  0
    2.6220    3.2010   -0.3727 C   0  0  2  0  0  0  0  0  0  0  0  0
    2.9930    3.1508   -1.8489 C   0  0  0  0  0  0  0  0  0  0  0  0
    2.9251    2.1252   -2.5231 O   0  0  0  0  0  0  0  0  0  0  0  0
    3.8645    3.1423    0.5023 C   0  0  0  0  0  0  0  0  0  0  0  0
    1.9425    1.4925    0.6921 H   0  0  0  0  0  0  0  0  0  0  0  0
    2.0589    4.1181   -0.1680 H   0  0  0  0  0  0  0  0  0  0  0  0
    4.4416    2.2303    0.3113 H   0  0  0  0  0  0  0  0  0  0  0  0
    4.5235    3.9961    0.3133 H   0  0  0  0  0  0  0  0  0  0  0  0
    3.5942    3.1485    1.5638 H   0  0  0  0  0  0  0  0  0  0  0  0
    3.4498    4.3760   -2.3142 N   0  0  0  0  0  0  0  0  0  0  0  0
    3.8749    4.5823   -3.6790 C   0  0  0  0  0  0  0  0  0  0  0  0
    3.4544    5.1773   -1.6901 H   0  0  0  0  0  0  0  0  0  0  0  0
    4.9599    4.4176   -3.7545 H   0  0  0  0  0  0  0  0  0  0  0  0
    3.3500    3.8745   -4.3374 H   0  0  0  0  0  0  0  0  0  0  0  0
    3.6384    5.6121   -3.9849 H   0  0  0  0  0  0  0  0  0  0  0  0
 29 30  2  0  0  0  0
 27 29  1  0  0  0  0
 28 30  1  0  0  0  0
 24 27  2  0  0  0  0
 26 28  2  0  0  0  0
 22 23  2  0  0  0  0
 23 25  1  0  0  0  0
 22 24  1  0  0  0  0
 24 26  1  0  0  0  0
 21 22  1  0  0  0  0
 25 26  1  0  0  0  0
  1  3  1  0  0  0  0
  1  7  1  0  0  0  0
  1  2  2  0  0  0  0
 42 43  1  0  0  0  0
 43 51  1  0  0  0  0
 43 44  2  0  0  0  0
  8  9  1  0  0  0  0
  9 17  1  0  0  0  0
  9 10  2  0  0  0  0
 18 19  1  0  0  0  0
 19 41  1  0  0  0  0
 19 20  2  0  0  0  0
 42 45  1  0  0  0  0
  8 11  1  0  0  0  0
 51 52  1  0  0  0  0
 18 21  1  0  0  0  0
 41 42  1  0  0  0  0
  7  8  1  0  0  0  0
 17 18  1  0  0  0  0
 29 39  1  0  0  0  0
 30 40  1  0  0  0  0
 27 37  1  0  0  0  0
 28 38  1  0  0  0  0
 23 35  1  0  0  0  0
  3  4  1  0  0  0  0
  3  5  1  0  0  0  0
  3  6  1  0  0  0  0
 45 48  1  0  0  0  0
 45 49  1  0  0  0  0
 45 50  1  0  0  0  0
 11 14  1  0  0  0  0
 11 15  1  0  0  0  0
 11 16  1  0  0  0  0
 52 54  1  0  0  0  0
 52 55  1  0  0  0  0
 52 56  1  0  0  0  0
 21 33  1  0  0  0  0
 21 34  1  0  0  0  0
 42 47  1  0  0  0  0
  8 13  1  0  0  0  0
 18 32  1  0  0  0  0
 25 36  1  0  0  0  0
 51 53  1  0  0  0  0
  7 12  1  0  0  0  0
 41 46  1  0  0  0  0
 17 31  1  0  0  0  0
M  END
$$$$

  -OEChem-05262214473D

 56 57  0     1  0  0  0  0  0999 V2000
   -2.2900    0.3401    4.1553 C   0  0  0  0  0  0  0  0  0  0  0  0
   -1.3426   -0.2746    3.6796 O   0  0  0  0  0  0  0  0  0  0  0  0
   -2.7219    0.0577    5.5560 C   0  0  0  0  0  0  0  0  0  0  0  0
   -3.4815   -0.7386    5.6094 H   0  0  0  0  0  0  0  0  0  0  0  0
   -1.8906   -0.2899    6.1903 H   0  0  0  0  0  0  0  0  0  0  0  0
   -3.1599    0.9126    6.0956 H   0  0  0  0  0  0  0  0  0  0  0  0
   -3.0397    1.3125    3.5142 N   0  0  0  0  0  0  0  0  0  0  0  0
   -2.7928    1.7385    2.1618 C   0  0  2  0  0  0  0  0  0  0  0  0
   -1.4579    1.1532    1.7206 C   0  0  0  0  0  0  0  0  0  0  0  0
   -0.5858    0.8004    2.5118 O   0  0  0  0  0  0  0  0  0  0  0  0
   -2.7841    3.2553    2.0523 C   0  0  0  0  0  0  0  0  0  0  0  0
   -3.8047    1.7484    4.0260 H   0  0  0  0  0  0  0  0  0  0  0  0
   -3.5969    1.3201    1.5466 H   0  0  0  0  0  0  0  0  0  0  0  0
   -1.9850    3.6926    2.6620 H   0  0  0  0  0  0  0  0  0  0  0  0
   -2.6246    3.5776    1.0180 H   0  0  0  0  0  0  0  0  0  0  0  0
   -3.7342    3.6765    2.3981 H   0  0  0  0  0  0  0  0  0  0  0  0
   -1.3352    1.1101    0.3372 N   0  0  0  0  0  0  0  0  0  0  0  0
   -0.1579    0.6093   -0.3265 C   0  0  2  0  0  0  0  0  0  0  0  0
    0.6067    1.8156   -0.8598 C   0  0  0  0  0  0  0  0  0  0  0  0
    0.1137    2.6299   -1.6374 O   0  0  0  0  0  0  0  0  0  0  0  0
   -0.5025   -0.3514   -1.4703 C   0  0  0  0  0  0  0  0  0  0  0  0
   -1.1228   -1.6387   -0.9844 C   0  0  0  0  0  0  0  0  0  0  0  0
   -2.4702   -1.9121   -0.9334 C   0  0  0  0  0  0  0  0  0  0  0  0
   -0.4299   -2.7836   -0.5007 C   0  0  0  0  0  0  0  0  0  0  0  0
   -2.6247   -3.1786   -0.4370 N   0  0  0  0  0  0  0  0  0  0  0  0
   -1.3953   -3.7349   -0.1641 C   0  0  0  0  0  0  0  0  0  0  0  0
    0.9300   -3.1029   -0.3163 C   0  0  0  0  0  0  0  0  0  0  0  0
   -1.0674   -4.9946    0.3498 C   0  0  0  0  0  0  0  0  0  0  0  0
    1.2729   -4.3591    0.1967 C   0  0  0  0  0  0  0  0  0  0  0  0
    0.2879   -5.2889    0.5239 C   0  0  0  0  0  0  0  0  0  0  0  0
   -2.1183    1.4068   -0.2401 H   0  0  0  0  0  0  0  0  0  0  0  0
    0.4463    0.1125    0.4417 H   0  0  0  0  0  0  0  0  0  0  0  0
    0.3949   -0.5745   -2.0632 H   0  0  0  0  0  0  0  0  0  0  0  0
   -1.2008    0.1230   -2.1725 H   0  0  0  0  0  0  0  0  0  0  0  0
   -3.3333   -1.3195   -1.2039 H   0  0  0  0  0  0  0  0  0  0  0  0
   -3.5124   -3.6394   -0.2918 H   0  0  0  0  0  0  0  0  0  0  0  0
    1.7097   -2.3887   -0.5657 H   0  0  0  0  0  0  0  0  0  0  0  0
   -1.8334   -5.7194    0.6037 H   0  0  0  0  0  0  0  0  0  0  0  0
    2.3201   -4.6108    0.3415 H   0  0  0  0  0  0  0  0  0  0  0  0
    0.5767   -6.2587    0.9209 H   0  0  0  0  0  0  0  0  0  0  0  0
    1.8846    1.8989   -0.3246 N   0  0  0  0  0  0  0  0  0  0  0  0
    2.8116    2.9603   -0.6452 C   0  0  2  0  0  0  0  0  0  0  0  0
    2.8744    3.0877   -2.1616 C   0  0  0  0  0  0  0  0  0  0  0  0
    2.5675    2.1742   -2.9248 O   0  0  0  0  0  0  0  0  0  0  0  0
    4.1902    2.6849   -0.0654 C   0  0  0  0  0  0  0  0  0  0  0  0
    2.1833    1.1776    0.3252 H   0  0  0  0  0  0  0  0  0  0  0  0
    2.3990    3.8806   -0.2176 H   0  0  0  0  0  0  0  0  0  0  0  0
    4.6198    1.7665   -0.4821 H   0  0  0  0  0  0  0  0  0  0  0  0
    4.8838    3.5033   -0.2848 H   0  0  0  0  0  0  0  0  0  0  0  0
    4.1386    2.5640    1.0221 H   0  0  0  0  0  0  0  0  0  0  0  0
    3.3545    4.3269   -2.5618 N   0  0  0  0  0  0  0  0  0  0  0  0
    3.5190    4.6879   -3.9505 C   0  0  0  0  0  0  0  0  0  0  0  0
    3.5666    5.0307   -1.8608 H   0  0  0  0  0  0  0  0  0  0  0  0
    4.5441    4.4522   -4.2723 H   0  0  0  0  0  0  0  0  0  0  0  0
    2.8029    4.1212   -4.5638 H   0  0  0  0  0  0  0  0  0  0  0  0
    3.3348    5.7654   -4.0735 H   0  0  0  0  0  0  0  0  0  0  0  0
 29 30  2  0  0  0  0
 27 29  1  0  0  0  0
 28 30  1  0  0  0  0
 24 27  2  0  0  0  0
 26 28  2  0  0  0  0
 22 23  2  0  0  0  0
 23 25  1  0  0  0  0
 22 24  1  0  0  0  0
 24 26  1  0  0  0  0
 21 22  1  0  0  0  0
 25 26  1  0  0  0  0
  1  3  1  0  0  0  0
  1  7  1  0  0  0  0
  1  2  2  0  0  0  0
 42 43  1  0  0  0  0
 43 51  1  0  0  0  0
 43 44  2  0  0  0  0
  8  9  1  0  0  0  0
  9 17  1  0  0  0  0
  9 10  2  0  0  0  0
 18 19  1  0  0  0  0
 19 41  1  0  0  0  0
 19 20  2  0  0  0  0
 42 45  1  0  0  0  0
  8 11  1  0  0  0  0
 51 52  1  0  0  0  0
 18 21  1  0  0  0  0
 41 42  1  0  0  0  0
  7  8  1  0  0  0  0
 17 18  1  0  0  0  0
 29 39  1  0  0  0  0
 30 40  1  0  0  0  0
 27 37  1  0  0  0  0
 28 38  1  0  0  0  0
 23 35  1  0  0  0  0
  3  4  1  0  0  0  0
  3  5  1  0  0  0  0
  3  6  1  0  0  0  0
 45 48  1  0  0  0  0
 45 49  1  0  0  0  0
 45 50  1  0  0  0  0
 11 14  1  0  0  0  0
 11 15  1  0  0  0  0
 11 16  1  0  0  0  0
 52 54  1  0  0  0  0
 52 55  1  0  0  0  0
 52 56  1  0  0  0  0
 21 33  1  0  0  0  0
 21 34  1  0  0  0  0
 42 47  1  0  0  0  0
  8 13  1  0  0  0  0
 18 32  1  0  0  0  0
 25 36  1  0  0  0  0
 51 53  1  0  0  0  0
  7 12  1  0  0  0  0
 41 46  1  0  0  0  0
 17 31  1  0  0  0  0
M  END
$$$$

  -OEChem-05262214473D

 56 57  0     1  0  0  0  0  0999 V2000
   -2.2900    0.3401    4.1553 C   0  0  0  0  0  0  0  0  0  0  0  0
   -1.3426   -0.2746    3.6796 O   0  0  0  0  0  0  0  0  0  0  0  0
   -2.7219    0.0577    5.5560 C   0  0  0  0  0  0  0  0  0  0  0  0
   -3.4815   -0.7386    5.6094 H   0  0  0  0  0  0  0  0  0  0  0  0
   -1.8906   -0.2899    6.1903 H   0  0  0  0  0  0  0  0  0  0  0  0
   -3.1599    0.9126    6.0956 H   0  0  0  0  0  0  0  0  0  0  0  0
   -3.0397    1.3125    3.5142 N   0  0  0  0  0  0  0  0  0  0  0  0
   -2.7928    1.7385    2.1618 C   0  0  2  0  0  0  0  0  0  0  0  0
   -1.4579    1.1532    1.7206 C   0  0  0  0  0  0  0  0  0  0  0  0
   -0.5858    0.8004    2.5118 O   0  0  0  0  0  0  0  0  0  0  0  0
   -2.7841    3.2553    2.0523 C   0  0  0  0  0  0  0  0  0  0  0  0
   -3.8047    1.7484    4.0260 H   0  0  0  0  0  0  0  0  0  0  0  0
   -3.5969    1.3201    1.5466 H   0  0  0  0  0  0  0  0  0  0  0  0
   -1.9850    3.6926    2.6620 H   0  0  0  0  0  0  0  0  0  0  0  0
   -2.6246    3.5776    1.0180 H   0  0  0  0  0  0  0  0  0  0  0  0
   -3.7342    3.6765    2.3981 H   0  0  0  0  0  0  0  0  0  0  0  0
   -1.3352    1.1101    0.3372 N   0  0  0  0  0  0  0  0  0  0  0  0
   -0.1579    0.6093   -0.3265 C   0  0  2  0  0  0  0  0  0  0  0  0
    0.6067    1.8156   -0.8598 C   0  0  0  0  0  0  0  0  0  0  0  0
    0.0564    2.7658   -1.4122 O   0  0  0  0  0  0  0  0  0  0  0  0
   -0.5025   -0.3514   -1.4703 C   0  0  0  0  0  0  0  0  0  0  0  0
   -1.1228   -1.6387   -0.9844 C   0  0  0  0  0  0  0  0  0  0  0  0
   -2.4702   -1.9121   -0.9334 C   0  0  0  0  0  0  0  0  0  0  0  0
   -0.4299   -2.7836   -0.5007 C   0  0  0  0  0  0  0  0  0  0  0  0
   -2.6247   -3.1786   -0.4370 N   0  0  0  0  0  0  0  0  0  0  0  0
   -1.3953   -3.7349   -0.1641 C   0  0  0  0  0  0  0  0  0  0  0  0
    0.9300   -3.1029   -0.3163 C   0  0  0  0  0  0  0  0  0  0  0  0
   -1.0674   -4.9946    0.3498 C   0  0  0  0  0  0  0  0  0  0  0  0
    1.2729   -4.3591    0.1967 C   0  0  0  0  0  0  0  0  0  0  0  0
    0.2879   -5.2889    0.5239 C   0  0  0  0  0  0  0  0  0  0  0  0
   -2.1183    1.4068   -0.2401 H   0  0  0  0  0  0  0  0  0  0  0  0
    0.4463    0.1125    0.4417 H   0  0  0  0  0  0  0  0  0  0  0  0
    0.3949   -0.5745   -2.0632 H   0  0  0  0  0  0  0  0  0  0  0  0
   -1.2008    0.1230   -2.1725 H   0  0  0  0  0  0  0  0  0  0  0  0
   -3.3333   -1.3195   -1.2039 H   0  0  0  0  0  0  0  0  0  0  0  0
   -3.5124   -3.6394   -0.2918 H   0  0  0  0  0  0  0  0  0  0  0  0
    1.7097   -2.3887   -0.5657 H   0  0  0  0  0  0  0  0  0  0  0  0
   -1.8334   -5.7194    0.6037 H   0  0  0  0  0  0  0  0  0  0  0  0
    2.3201   -4.6108    0.3415 H   0  0  0  0  0  0  0  0  0  0  0  0
    0.5767   -6.2587    0.9209 H   0  0  0  0  0  0  0  0  0  0  0  0
    1.9671    1.7249   -0.5999 N   0  0  0  0  0  0  0  0  0  0  0  0
    2.9172    2.7460   -0.9786 C   0  0  2  0  0  0  0  0  0  0  0  0
    2.6901    3.0781   -2.4475 C   0  0  0  0  0  0  0  0  0  0  0  0
    2.1443    2.3062   -3.2331 O   0  0  0  0  0  0  0  0  0  0  0  0
    4.3473    2.2872   -0.7398 C   0  0  0  0  0  0  0  0  0  0  0  0
    2.3123    0.8993   -0.1193 H   0  0  0  0  0  0  0  0  0  0  0  0
    2.6958    3.6268   -0.3660 H   0  0  0  0  0  0  0  0  0  0  0  0
    4.5874    1.4055   -1.3451 H   0  0  0  0  0  0  0  0  0  0  0  0
    5.0646    3.0723   -1.0004 H   0  0  0  0  0  0  0  0  0  0  0  0
    4.5006    2.0204    0.3114 H   0  0  0  0  0  0  0  0  0  0  0  0
    3.2074    4.3202   -2.7878 N   0  0  0  0  0  0  0  0  0  0  0  0
    3.1291    4.8573   -4.1262 C   0  0  0  0  0  0  0  0  0  0  0  0
    3.6267    4.9012   -2.0677 H   0  0  0  0  0  0  0  0  0  0  0  0
    4.0397    4.5905   -4.6827 H   0  0  0  0  0  0  0  0  0  0  0  0
    2.2504    4.4384   -4.6384 H   0  0  0  0  0  0  0  0  0  0  0  0
    3.0373    5.9524   -4.0769 H   0  0  0  0  0  0  0  0  0  0  0  0
 29 30  2  0  0  0  0
 27 29  1  0  0  0  0
 28 30  1  0  0  0  0
 24 27  2  0  0  0  0
 26 28  2  0  0  0  0
 22 23  2  0  0  0  0
 23 25  1  0  0  0  0
 22 24  1  0  0  0  0
 24 26  1  0  0  0  0
 21 22  1  0  0  0  0
 25 26  1  0  0  0  0
  1  3  1  0  0  0  0
  1  7  1  0  0  0  0
  1  2  2  0  0  0  0
 42 43  1  0  0  0  0
 43 51  1  0  0  0  0
 43 44  2  0  0  0  0
  8  9  1  0  0  0  0
  9 17  1  0  0  0  0
  9 10  2  0  0  0  0
 18 19  1  0  0  0  0
 19 41  1  0  0  0  0
 19 20  2  0  0  0  0
 42 45  1  0  0  0  0
  8 11  1  0  0  0  0
 51 52  1  0  0  0  0
 18 21  1  0  0  0  0
 41 42  1  0  0  0  0
  7  8  1  0  0  0  0
 17 18  1  0  0  0  0
 29 39  1  0  0  0  0
 30 40  1  0  0  0  0
 27 37  1  0  0  0  0
 28 38  1  0  0  0  0
 23 35  1  0  0  0  0
  3  4  1  0  0  0  0
  3  5  1  0  0  0  0
  3  6  1  0  0  0  0
 45 48  1  0  0  0  0
 45 49  1  0  0  0  0
 45 50  1  0  0  0  0
 11 14  1  0  0  0  0
 11 15  1  0  0  0  0
 11 16  1  0  0  0  0
 52 54  1  0  0  0  0
 52 55  1  0  0  0  0
 52 56  1  0  0  0  0
 21 33  1  0  0  0  0
 21 34  1  0  0  0  0
 42 47  1  0  0  0  0
  8 13  1  0  0  0  0
 18 32  1  0  0  0  0
 25 36  1  0  0  0  0
 51 53  1  0  0  0  0
  7 12  1  0  0  0  0
 41 46  1  0  0  0  0
 17 31  1  0  0  0  0
M  END
$$$$

  -OEChem-05262214473D

 56 57  0     1  0  0  0  0  0999 V2000
   -2.2900    0.3401    4.1553 C   0  0  0  0  0  0  0  0  0  0  0  0
   -1.3426   -0.2746    3.6796 O   0  0  0  0  0  0  0  0  0  0  0  0
   -2.7219    0.0577    5.5560 C   0  0  0  0  0  0  0  0  0  0  0  0
   -3.4815   -0.7386    5.6094 H   0  0  0  0  0  0  0  0  0  0  0  0
   -1.8906   -0.2899    6.1903 H   0  0  0  0  0  0  0  0  0  0  0  0
   -3.1599    0.9126    6.0956 H   0  0  0  0  0  0  0  0  0  0  0  0
   -3.0397    1.3125    3.5142 N   0  0  0  0  0  0  0  0  0  0  0  0
   -2.7928    1.7385    2.1618 C   0  0  2  0  0  0  0  0  0  0  0  0
   -1.4579    1.1532    1.7206 C   0  0  0  0  0  0  0  0  0  0  0  0
   -0.5858    0.8004    2.5118 O   0  0  0  0  0  0  0  0  0  0  0  0
   -2.7841    3.2553    2.0523 C   0  0  0  0  0  0  0  0  0  0  0  0
   -3.8047    1.7484    4.0260 H   0  0  0  0  0  0  0  0  0  0  0  0
   -3.5969    1.3201    1.5466 H   0  0  0  0  0  0  0  0  0  0  0  0
   -1.9850    3.6926    2.6620 H   0  0  0  0  0  0  0  0  0  0  0  0
   -2.6246    3.5776    1.0180 H   0  0  0  0  0  0  0  0  0  0  0  0
   -3.7342    3.6765    2.3981 H   0  0  0  0  0  0  0  0  0  0  0  0
   -1.3352    1.1101    0.3372 N   0  0  0  0  0  0  0  0  0  0  0  0
   -0.1579    0.6093   -0.3265 C   0  0  2  0  0  0  0  0  0  0  0  0
    0.6067    1.8156   -0.8598 C   0  0  0  0  0  0  0  0  0  0  0  0
    0.0595    2.8730   -1.1654 O   0  0  0  0  0  0  0  0  0  0  0  0
   -0.5025   -0.3514   -1.4703 C   0  0  0  0  0  0  0  0  0  0  0  0
   -1.1228   -1.6387   -0.9844 C   0  0  0  0  0  0  0  0  0  0  0  0
   -2.4702   -1.9121   -0.9334 C   0  0  0  0  0  0  0  0  0  0  0  0
   -0.4299   -2.7836   -0.5007 C   0  0  0  0  0  0  0  0  0  0  0  0
   -2.6247   -3.1786   -0.4370 N   0  0  0  0  0  0  0  0  0  0  0  0
   -1.3953   -3.7349   -0.1641 C   0  0  0  0  0  0  0  0  0  0  0  0
    0.9300   -3.1029   -0.3163 C   0  0  0  0  0  0  0  0  0  0  0  0
   -1.0674   -4.9946    0.3498 C   0  0  0  0  0  0  0  0  0  0  0  0
    1.2729   -4.3591    0.1967 C   0  0  0  0  0  0  0  0  0  0  0  0
    0.2879   -5.2889    0.5239 C   0  0  0  0  0  0  0  0  0  0  0  0
   -2.1183    1.4068   -0.2401 H   0  0  0  0  0  0  0  0  0  0  0  0
    0.4463    0.1125    0.4417 H   0  0  0  0  0  0  0  0  0  0  0  0
    0.3949   -0.5745   -2.0632 H   0  0  0  0  0  0  0  0  0  0  0  0
   -1.2008    0.1230   -2.1725 H   0  0  0  0  0  0  0  0  0  0  0  0
   -3.3333   -1.3195   -1.2039 H   0  0  0  0  0  0  0  0  0  0  0  0
   -3.5124   -3.6394   -0.2918 H   0  0  0  0  0  0  0  0  0  0  0  0
    1.7097   -2.3887   -0.5657 H   0  0  0  0  0  0  0  0  0  0  0  0
   -1.8334   -5.7194    0.6037 H   0  0  0  0  0  0  0  0  0  0  0  0
    2.3201   -4.6108    0.3415 H   0  0  0  0  0  0  0  0  0  0  0  0
    0.5767   -6.2587    0.9209 H   0  0  0  0  0  0  0  0  0  0  0  0
    1.9746    1.5851   -0.9053 N   0  0  0  0  0  0  0  0  0  0  0  0
    2.9315    2.5728   -1.3500 C   0  0  2  0  0  0  0  0  0  0  0  0
    2.4527    3.1226   -2.6872 C   0  0  0  0  0  0  0  0  0  0  0  0
    1.6843    2.5119   -3.4272 O   0  0  0  0  0  0  0  0  0  0  0  0
    4.3248    1.9763   -1.4750 C   0  0  0  0  0  0  0  0  0  0  0  0
    2.3207    0.6765   -0.6112 H   0  0  0  0  0  0  0  0  0  0  0  0
    2.9292    3.3741   -0.6031 H   0  0  0  0  0  0  0  0  0  0  0  0
    4.3468    1.1717   -2.2190 H   0  0  0  0  0  0  0  0  0  0  0  0
    5.0538    2.7326   -1.7845 H   0  0  0  0  0  0  0  0  0  0  0  0
    4.6554    1.5548   -0.5196 H   0  0  0  0  0  0  0  0  0  0  0  0
    3.0184    4.3564   -2.9768 N   0  0  0  0  0  0  0  0  0  0  0  0
    2.7319    5.0791   -4.1940 C   0  0  0  0  0  0  0  0  0  0  0  0
    3.6306    4.7974   -2.2967 H   0  0  0  0  0  0  0  0  0  0  0  0
    3.4808    4.8230   -4.9580 H   0  0  0  0  0  0  0  0  0  0  0  0
    1.7302    4.8045   -4.5562 H   0  0  0  0  0  0  0  0  0  0  0  0
    2.7662    6.1604   -3.9951 H   0  0  0  0  0  0  0  0  0  0  0  0
 29 30  2  0  0  0  0
 27 29  1  0  0  0  0
 28 30  1  0  0  0  0
 24 27  2  0  0  0  0
 26 28  2  0  0  0  0
 22 23  2  0  0  0  0
 23 25  1  0  0  0  0
 22 24  1  0  0  0  0
 24 26  1  0  0  0  0
 21 22  1  0  0  0  0
 25 26  1  0  0  0  0
  1  3  1  0  0  0  0
  1  7  1  0  0  0  0
  1  2  2  0  0  0  0
 42 43  1  0  0  0  0
 43 51  1  0  0  0  0
 43 44  2  0  0  0  0
  8  9  1  0  0  0  0
  9 17  1  0  0  0  0
  9 10  2  0  0  0  0
 18 19  1  0  0  0  0
 19 41  1  0  0  0  0
 19 20  2  0  0  0  0
 42 45  1  0  0  0  0
  8 11  1  0  0  0  0
 51 52  1  0  0  0  0
 18 21  1  0  0  0  0
 41 42  1  0  0  0  0
  7  8  1  0  0  0  0
 17 18  1  0  0  0  0
 29 39  1  0  0  0  0
 30 40  1  0  0  0  0
 27 37  1  0  0  0  0
 28 38  1  0  0  0  0
 23 35  1  0  0  0  0
  3  4  1  0  0  0  0
  3  5  1  0  0  0  0
  3  6  1  0  0  0  0
 45 48  1  0  0  0  0
 45 49  1  0  0  0  0
 45 50  1  0  0  0  0
 11 14  1  0  0  0  0
 11 15  1  0  0  0  0
 11 16  1  0  0  0  0
 52 54  1  0  0  0  0
 52 55  1  0  0  0  0
 52 56  1  0  0  0  0
 21 33  1  0  0  0  0
 21 34  1  0  0  0  0
 42 47  1  0  0  0  0
  8 13  1  0  0  0  0
 18 32  1  0  0  0  0
 25 36  1  0  0  0  0
 51 53  1  0  0  0  0
  7 12  1  0  0  0  0
 41 46  1  0  0  0  0
 17 31  1  0  0  0  0
M  END
$$$$

  -OEChem-05262214473D

 56 57  0     1  0  0  0  0  0999 V2000
   -2.2900    0.3401    4.1553 C   0  0  0  0  0  0  0  0  0  0  0  0
   -1.3426   -0.2746    3.6796 O   0  0  0  0  0  0  0  0  0  0  0  0
   -2.7219    0.0577    5.5560 C   0  0  0  0  0  0  0  0  0  0  0  0
   -3.4815   -0.7386    5.6094 H   0  0  0  0  0  0  0  0  0  0  0  0
   -1.8906   -0.2899    6.1903 H   0  0  0  0  0  0  0  0  0  0  0  0
   -3.1599    0.9126    6.0956 H   0  0  0  0  0  0  0  0  0  0  0  0
   -3.0397    1.3125    3.5142 N   0  0  0  0  0  0  0  0  0  0  0  0
   -2.7928    1.7385    2.1618 C   0  0  2  0  0  0  0  0  0  0  0  0
   -1.4579    1.1532    1.7206 C   0  0  0  0  0  0  0  0  0  0  0  0
   -0.5858    0.8004    2.5118 O   0  0  0  0  0  0  0  0  0  0  0  0
   -2.7841    3.2553    2.0523 C   0  0  0  0  0  0  0  0  0  0  0  0
   -3.8047    1.7484    4.0260 H   0  0  0  0  0  0  0  0  0  0  0  0
   -3.5969    1.3201    1.5466 H   0  0  0  0  0  0  0  0  0  0  0  0
   -1.9850    3.6926    2.6620 H   0  0  0  0  0  0  0  0  0  0  0  0
   -2.6246    3.5776    1.0180 H   0  0  0  0  0  0  0  0  0  0  0  0
   -3.7342    3.6765    2.3981 H   0  0  0  0  0  0  0  0  0  0  0  0
   -1.3352    1.1101    0.3372 N   0  0  0  0  0  0  0  0  0  0  0  0
   -0.1579    0.6093   -0.3265 C   0  0  2  0  0  0  0  0  0  0  0  0
    0.6067    1.8156   -0.8598 C   0  0  0  0  0  0  0  0  0  0  0  0
    0.1227    2.9442   -0.9136 O   0  0  0  0  0  0  0  0  0  0  0  0
   -0.5025   -0.3514   -1.4703 C   0  0  0  0  0  0  0  0  0  0  0  0
   -1.1228   -1.6387   -0.9844 C   0  0  0  0  0  0  0  0  0  0  0  0
   -2.4702   -1.9121   -0.9334 C   0  0  0  0  0  0  0  0  0  0  0  0
   -0.4299   -2.7836   -0.5007 C   0  0  0  0  0  0  0  0  0  0  0  0
   -2.6247   -3.1786   -0.4370 N   0  0  0  0  0  0  0  0  0  0  0  0
   -1.3953   -3.7349   -0.1641 C   0  0  0  0  0  0  0  0  0  0  0  0
    0.9300   -3.1029   -0.3163 C   0  0  0  0  0  0  0  0  0  0  0  0
   -1.0674   -4.9946    0.3498 C   0  0  0  0  0  0  0  0  0  0  0  0
    1.2729   -4.3591    0.1967 C   0  0  0  0  0  0  0  0  0  0  0  0
    0.2879   -5.2889    0.5239 C   0  0  0  0  0  0  0  0  0  0  0  0
   -2.1183    1.4068   -0.2401 H   0  0  0  0  0  0  0  0  0  0  0  0
    0.4463    0.1125    0.4417 H   0  0  0  0  0  0  0  0  0  0  0  0
    0.3949   -0.5745   -2.0632 H   0  0  0  0  0  0  0  0  0  0  0  0
   -1.2008    0.1230   -2.1725 H   0  0  0  0  0  0  0  0  0  0  0  0
   -3.3333   -1.3195   -1.2039 H   0  0  0  0  0  0  0  0  0  0  0  0
   -3.5124   -3.6394   -0.2918 H   0  0  0  0  0  0  0  0  0  0  0  0
    1.7097   -2.3887   -0.5657 H   0  0  0  0  0  0  0  0  0  0  0  0
   -1.8334   -5.7194    0.6037 H   0  0  0  0  0  0  0  0  0  0  0  0
    2.3201   -4.6108    0.3415 H   0  0  0  0  0  0  0  0  0  0  0  0
    0.5767   -6.2587    0.9209 H   0  0  0  0  0  0  0  0  0  0  0  0
    1.9067    1.4890   -1.2200 N   0  0  0  0  0  0  0  0  0  0  0  0
    2.8535    2.4523   -1.7342 C   0  0  2  0  0  0  0  0  0  0  0  0
    2.1784    3.2182   -2.8643 C   0  0  0  0  0  0  0  0  0  0  0  0
    1.2188    2.7775   -3.4937 O   0  0  0  0  0  0  0  0  0  0  0  0
    4.1244    1.7736   -2.2210 C   0  0  0  0  0  0  0  0  0  0  0  0
    2.2079    0.5244   -1.1170 H   0  0  0  0  0  0  0  0  0  0  0  0
    3.0832    3.1396   -0.9127 H   0  0  0  0  0  0  0  0  0  0  0  0
    3.9141    1.0811   -3.0442 H   0  0  0  0  0  0  0  0  0  0  0  0
    4.8519    2.5071   -2.5838 H   0  0  0  0  0  0  0  0  0  0  0  0
    4.5926    1.1989   -1.4146 H   0  0  0  0  0  0  0  0  0  0  0  0
    2.8004    4.4331   -3.1159 N   0  0  0  0  0  0  0  0  0  0  0  0
    2.3545    5.3380   -4.1494 C   0  0  0  0  0  0  0  0  0  0  0  0
    3.5781    4.7266   -2.5321 H   0  0  0  0  0  0  0  0  0  0  0  0
    2.9057    5.1339   -5.0792 H   0  0  0  0  0  0  0  0  0  0  0  0
    1.2777    5.1945   -4.3227 H   0  0  0  0  0  0  0  0  0  0  0  0
    2.5400    6.3752   -3.8335 H   0  0  0  0  0  0  0  0  0  0  0  0
 29 30  2  0  0  0  0
 27 29  1  0  0  0  0
 28 30  1  0  0  0  0
 24 27  2  0  0  0  0
 26 28  2  0  0  0  0
 22 23  2  0  0  0  0
 23 25  1  0  0  0  0
 22 24  1  0  0  0  0
 24 26  1  0  0  0  0
 21 22  1  0  0  0  0
 25 26  1  0  0  0  0
  1  3  1  0  0  0  0
  1  7  1  0  0  0  0
  1  2  2  0  0  0  0
 42 43  1  0  0  0  0
 43 51  1  0  0  0  0
 43 44  2  0  0  0  0
  8  9  1  0  0  0  0
  9 17  1  0  0  0  0
  9 10  2  0  0  0  0
 18 19  1  0  0  0  0
 19 41  1  0  0  0  0
 19 20  2  0  0  0  0
 42 45  1  0  0  0  0
  8 11  1  0  0  0  0
 51 52  1  0  0  0  0
 18 21  1  0  0  0  0
 41 42  1  0  0  0  0
  7  8  1  0  0  0  0
 17 18  1  0  0  0  0
 29 39  1  0  0  0  0
 30 40  1  0  0  0  0
 27 37  1  0  0  0  0
 28 38  1  0  0  0  0
 23 35  1  0  0  0  0
  3  4  1  0  0  0  0
  3  5  1  0  0  0  0
  3  6  1  0  0  0  0
 45 48  1  0  0  0  0
 45 49  1  0  0  0  0
 45 50  1  0  0  0  0
 11 14  1  0  0  0  0
 11 15  1  0  0  0  0
 11 16  1  0  0  0  0
 52 54  1  0  0  0  0
 52 55  1  0  0  0  0
 52 56  1  0  0  0  0
 21 33  1  0  0  0  0
 21 34  1  0  0  0  0
 42 47  1  0  0  0  0
  8 13  1  0  0  0  0
 18 32  1  0  0  0  0
 25 36  1  0  0  0  0
 51 53  1  0  0  0  0
  7 12  1  0  0  0  0
 41 46  1  0  0  0  0
 17 31  1  0  0  0  0
M  END
$$$$

  -OEChem-05262214473D

 56 57  0     1  0  0  0  0  0999 V2000
   -2.2900    0.3401    4.1553 C   0  0  0  0  0  0  0  0  0  0  0  0
   -1.3426   -0.2746    3.6796 O   0  0  0  0  0  0  0  0  0  0  0  0
   -2.7219    0.0577    5.5560 C   0  0  0  0  0  0  0  0  0  0  0  0
   -3.4815   -0.7386    5.6094 H   0  0  0  0  0  0  0  0  0  0  0  0
   -1.8906   -0.2899    6.1903 H   0  0  0  0  0  0  0  0  0  0  0  0
   -3.1599    0.9126    6.0956 H   0  0  0  0  0  0  0  0  0  0  0  0
   -3.0397    1.3125    3.5142 N   0  0  0  0  0  0  0  0  0  0  0  0
   -2.7928    1.7385    2.1618 C   0  0  2  0  0  0  0  0  0  0  0  0
   -1.4579    1.1532    1.7206 C   0  0  0  0  0  0  0  0  0  0  0  0
   -0.5858    0.8004    2.5118 O   0  0  0  0  0  0  0  0  0  0  0  0
   -2.7841    3.2553    2.0523 C   0  0  0  0  0  0  0  0  0  0  0  0
   -3.8047    1.7484    4.0260 H   0  0  0  0  0  0  0  0  0  0  0  0
   -3.5969    1.3201    1.5466 H   0  0  0  0  0  0  0  0  0  0  0  0
   -1.9850    3.6926    2.6620 H   0  0  0  0  0  0  0  0  0  0  0  0
   -2.6246    3.5776    1.0180 H   0  0  0  0  0  0  0  0  0  0  0  0
   -3.7342    3.6765    2.3981 H   0  0  0  0  0  0  0  0  0  0  0  0
   -1.3352    1.1101    0.3372 N   0  0  0  0  0  0  0  0  0  0  0  0
   -0.1579    0.6093   -0.3265 C   0  0  2  0  0  0  0  0  0  0  0  0
    0.7849    1.7908   -0.5249 C   0  0  0  0  0  0  0  0  0  0  0  0
    0.5320    2.9238   -0.1210 O   0  0  0  0  0  0  0  0  0  0  0  0
   -0.4863   -0.0427   -1.6745 C   0  0  0  0  0  0  0  0  0  0  0  0
   -1.2904   -1.3115   -1.5287 C   0  0  0  0  0  0  0  0  0  0  0  0
   -2.6577   -1.4136   -1.6422 C   0  0  0  0  0  0  0  0  0  0  0  0
   -0.7805   -2.6110   -1.2528 C   0  0  0  0  0  0  0  0  0  0  0  0
   -3.0002   -2.7245   -1.4457 N   0  0  0  0  0  0  0  0  0  0  0  0
   -1.8737   -3.4788   -1.2060 C   0  0  0  0  0  0  0  0  0  0  0  0
    0.5102   -3.1339   -1.0377 C   0  0  0  0  0  0  0  0  0  0  0  0
   -1.7402   -4.8488   -0.9538 C   0  0  0  0  0  0  0  0  0  0  0  0
    0.6589   -4.5024   -0.7845 C   0  0  0  0  0  0  0  0  0  0  0  0
   -0.4504   -5.3448   -0.7436 C   0  0  0  0  0  0  0  0  0  0  0  0
   -2.1183    1.4068   -0.2401 H   0  0  0  0  0  0  0  0  0  0  0  0
    0.3061   -0.1087    0.3599 H   0  0  0  0  0  0  0  0  0  0  0  0
    0.4374   -0.2526   -2.2307 H   0  0  0  0  0  0  0  0  0  0  0  0
   -1.0525    0.6522   -2.3088 H   0  0  0  0  0  0  0  0  0  0  0  0
   -3.4184   -0.6718   -1.8435 H   0  0  0  0  0  0  0  0  0  0  0  0
   -3.9432   -3.0870   -1.4728 H   0  0  0  0  0  0  0  0  0  0  0  0
    1.3848   -2.4902   -1.0654 H   0  0  0  0  0  0  0  0  0  0  0  0
   -2.6030   -5.5055   -0.9229 H   0  0  0  0  0  0  0  0  0  0  0  0
    1.6517   -4.9113   -0.6174 H   0  0  0  0  0  0  0  0  0  0  0  0
   -0.3119   -6.4045   -0.5453 H   0  0  0  0  0  0  0  0  0  0  0  0
    1.9603    1.4164   -1.1611 N   0  0  0  0  0  0  0  0  0  0  0  0
    3.0344    2.3390   -1.4509 C   0  0  2  0  0  0  0  0  0  0  0  0
    2.4349    3.5565   -2.1421 C   0  0  0  0  0  0  0  0  0  0  0  0
    1.3588    3.5287   -2.7357 O   0  0  0  0  0  0  0  0  0  0  0  0
    4.1011    1.6910   -2.3199 C   0  0  0  0  0  0  0  0  0  0  0  0
    2.0713    0.4451   -1.4368 H   0  0  0  0  0  0  0  0  0  0  0  0
    3.4623    2.6388   -0.4881 H   0  0  0  0  0  0  0  0  0  0  0  0
    3.6910    1.3840   -3.2889 H   0  0  0  0  0  0  0  0  0  0  0  0
    4.9277    2.3821   -2.5148 H   0  0  0  0  0  0  0  0  0  0  0  0
    4.5101    0.7985   -1.8342 H   0  0  0  0  0  0  0  0  0  0  0  0
    3.2632    4.6667   -2.0550 N   0  0  0  0  0  0  0  0  0  0  0  0
    2.9230    5.9413   -2.6429 C   0  0  0  0  0  0  0  0  0  0  0  0
    4.1287    4.6041   -1.5270 H   0  0  0  0  0  0  0  0  0  0  0  0
    3.3449    6.0023   -3.6569 H   0  0  0  0  0  0  0  0  0  0  0  0
    1.8287    6.0407   -2.6946 H   0  0  0  0  0  0  0  0  0  0  0  0
    3.3360    6.7520   -2.0246 H   0  0  0  0  0  0  0  0  0  0  0  0
 29 30  2  0  0  0  0
 27 29  1  0  0  0  0
 28 30  1  0  0  0  0
 24 27  2  0  0  0  0
 26 28  2  0  0  0  0
 22 23  2  0  0  0  0
 23 25  1  0  0  0  0
 22 24  1  0  0  0  0
 24 26  1  0  0  0  0
 21 22  1  0  0  0  0
 25 26  1  0  0  0  0
  1  3  1  0  0  0  0
  1  7  1  0  0  0  0
  1  2  2  0  0  0  0
 42 43  1  0  0  0  0
 43 51  1  0  0  0  0
 43 44  2  0  0  0  0
  8  9  1  0  0  0  0
  9 17  1  0  0  0  0
  9 10  2  0  0  0  0
 18 19  1  0  0  0  0
 19 41  1  0  0  0  0
 19 20  2  0  0  0  0
 42 45  1  0  0  0  0
  8 11  1  0  0  0  0
 51 52  1  0  0  0  0
 18 21  1  0  0  0  0
 41 42  1  0  0  0  0
  7  8  1  0  0  0  0
 17 18  1  0  0  0  0
 29 39  1  0  0  0  0
 30 40  1  0  0  0  0
 27 37  1  0  0  0  0
 28 38  1  0  0  0  0
 23 35  1  0  0  0  0
  3  4  1  0  0  0  0
  3  5  1  0  0  0  0
  3  6  1  0  0  0  0
 45 48  1  0  0  0  0
 45 49  1  0  0  0  0
 45 50  1  0  0  0  0
 11 14  1  0  0  0  0
 11 15  1  0  0  0  0
 11 16  1  0  0  0  0
 52 54  1  0  0  0  0
 52 55  1  0  0  0  0
 52 56  1  0  0  0  0
 21 33  1  0  0  0  0
 21 34  1  0  0  0  0
 42 47  1  0  0  0  0
  8 13  1  0  0  0  0
 18 32  1  0  0  0  0
 25 36  1  0  0  0  0
 51 53  1  0  0  0  0
  7 12  1  0  0  0  0
 41 46  1  0  0  0  0
 17 31  1  0  0  0  0
M  END
$$$$

  -OEChem-05262214473D

 56 57  0     1  0  0  0  0  0999 V2000
   -2.2900    0.3401    4.1553 C   0  0  0  0  0  0  0  0  0  0  0  0
   -1.3426   -0.2746    3.6796 O   0  0  0  0  0  0  0  0  0  0  0  0
   -2.7219    0.0577    5.5560 C   0  0  0  0  0  0  0  0  0  0  0  0
   -3.4815   -0.7386    5.6094 H   0  0  0  0  0  0  0  0  0  0  0  0
   -1.8906   -0.2899    6.1903 H   0  0  0  0  0  0  0  0  0  0  0  0
   -3.1599    0.9126    6.0956 H   0  0  0  0  0  0  0  0  0  0  0  0
   -3.0397    1.3125    3.5142 N   0  0  0  0  0  0  0  0  0  0  0  0
   -2.7928    1.7385    2.1618 C   0  0  2  0  0  0  0  0  0  0  0  0
   -1.4579    1.1532    1.7206 C   0  0  0  0  0  0  0  0  0  0  0  0
   -0.5858    0.8004    2.5118 O   0  0  0  0  0  0  0  0  0  0  0  0
   -2.7841    3.2553    2.0523 C   0  0  0  0  0  0  0  0  0  0  0  0
   -3.8047    1.7484    4.0260 H   0  0  0  0  0  0  0  0  0  0  0  0
   -3.5969    1.3201    1.5466 H   0  0  0  0  0  0  0  0  0  0  0  0
   -1.9850    3.6926    2.6620 H   0  0  0  0  0  0  0  0  0  0  0  0
   -2.6246    3.5776    1.0180 H   0  0  0  0  0  0  0  0  0  0  0  0
   -3.7342    3.6765    2.3981 H   0  0  0  0  0  0  0  0  0  0  0  0
   -1.3352    1.1101    0.3372 N   0  0  0  0  0  0  0  0  0  0  0  0
   -0.1579    0.6093   -0.3265 C   0  0  2  0  0  0  0  0  0  0  0  0
    0.7849    1.7908   -0.5249 C   0  0  0  0  0  0  0  0  0  0  0  0
    0.6739    2.8468    0.0943 O   0  0  0  0  0  0  0  0  0  0  0  0
   -0.4863   -0.0427   -1.6745 C   0  0  0  0  0  0  0  0  0  0  0  0
   -1.2904   -1.3115   -1.5287 C   0  0  0  0  0  0  0  0  0  0  0  0
   -2.6577   -1.4136   -1.6422 C   0  0  0  0  0  0  0  0  0  0  0  0
   -0.7805   -2.6110   -1.2528 C   0  0  0  0  0  0  0  0  0  0  0  0
   -3.0002   -2.7245   -1.4457 N   0  0  0  0  0  0  0  0  0  0  0  0
   -1.8737   -3.4788   -1.2060 C   0  0  0  0  0  0  0  0  0  0  0  0
    0.5102   -3.1339   -1.0377 C   0  0  0  0  0  0  0  0  0  0  0  0
   -1.7402   -4.8488   -0.9538 C   0  0  0  0  0  0  0  0  0  0  0  0
    0.6589   -4.5024   -0.7845 C   0  0  0  0  0  0  0  0  0  0  0  0
   -0.4504   -5.3448   -0.7436 C   0  0  0  0  0  0  0  0  0  0  0  0
   -2.1183    1.4068   -0.2401 H   0  0  0  0  0  0  0  0  0  0  0  0
    0.3061   -0.1087    0.3599 H   0  0  0  0  0  0  0  0  0  0  0  0
    0.4374   -0.2526   -2.2307 H   0  0  0  0  0  0  0  0  0  0  0  0
   -1.0525    0.6522   -2.3088 H   0  0  0  0  0  0  0  0  0  0  0  0
   -3.4184   -0.6718   -1.8435 H   0  0  0  0  0  0  0  0  0  0  0  0
   -3.9432   -3.0870   -1.4728 H   0  0  0  0  0  0  0  0  0  0  0  0
    1.3848   -2.4902   -1.0654 H   0  0  0  0  0  0  0  0  0  0  0  0
   -2.6030   -5.5055   -0.9229 H   0  0  0  0  0  0  0  0  0  0  0  0
    1.6517   -4.9113   -0.6174 H   0  0  0  0  0  0  0  0  0  0  0  0
   -0.3119   -6.4045   -0.5453 H   0  0  0  0  0  0  0  0  0  0  0  0
    1.7910    1.5051   -1.4374 N   0  0  0  0  0  0  0  0  0  0  0  0
    2.8313    2.4439   -1.7914 C   0  0  2  0  0  0  0  0  0  0  0  0
    2.1685    3.7683   -2.1469 C   0  0  0  0  0  0  0  0  0  0  0  0
    0.9963    3.8566   -2.5062 O   0  0  0  0  0  0  0  0  0  0  0  0
    3.6712    1.9283   -2.9496 C   0  0  0  0  0  0  0  0  0  0  0  0
    1.7965    0.5902   -1.8786 H   0  0  0  0  0  0  0  0  0  0  0  0
    3.4557    2.5747   -0.9009 H   0  0  0  0  0  0  0  0  0  0  0  0
    3.0627    1.7910   -3.8509 H   0  0  0  0  0  0  0  0  0  0  0  0
    4.4765    2.6275   -3.1979 H   0  0  0  0  0  0  0  0  0  0  0  0
    4.1230    0.9614   -2.7032 H   0  0  0  0  0  0  0  0  0  0  0  0
    3.0522    4.8347   -2.0572 N   0  0  0  0  0  0  0  0  0  0  0  0
    2.6666    6.1940   -2.3566 C   0  0  0  0  0  0  0  0  0  0  0  0
    4.0008    4.6717   -1.7327 H   0  0  0  0  0  0  0  0  0  0  0  0
    2.8821    6.4126   -3.4129 H   0  0  0  0  0  0  0  0  0  0  0  0
    1.5901    6.3195   -2.1685 H   0  0  0  0  0  0  0  0  0  0  0  0
    3.2338    6.8854   -1.7160 H   0  0  0  0  0  0  0  0  0  0  0  0
 29 30  2  0  0  0  0
 27 29  1  0  0  0  0
 28 30  1  0  0  0  0
 24 27  2  0  0  0  0
 26 28  2  0  0  0  0
 22 23  2  0  0  0  0
 23 25  1  0  0  0  0
 22 24  1  0  0  0  0
 24 26  1  0  0  0  0
 21 22  1  0  0  0  0
 25 26  1  0  0  0  0
  1  3  1  0  0  0  0
  1  7  1  0  0  0  0
  1  2  2  0  0  0  0
 42 43  1  0  0  0  0
 43 51  1  0  0  0  0
 43 44  2  0  0  0  0
  8  9  1  0  0  0  0
  9 17  1  0  0  0  0
  9 10  2  0  0  0  0
 18 19  1  0  0  0  0
 19 41  1  0  0  0  0
 19 20  2  0  0  0  0
 42 45  1  0  0  0  0
  8 11  1  0  0  0  0
 51 52  1  0  0  0  0
 18 21  1  0  0  0  0
 41 42  1  0  0  0  0
  7  8  1  0  0  0  0
 17 18  1  0  0  0  0
 29 39  1  0  0  0  0
 30 40  1  0  0  0  0
 27 37  1  0  0  0  0
 28 38  1  0  0  0  0
 23 35  1  0  0  0  0
  3  4  1  0  0  0  0
  3  5  1  0  0  0  0
  3  6  1  0  0  0  0
 45 48  1  0  0  0  0
 45 49  1  0  0  0  0
 45 50  1  0  0  0  0
 11 14  1  0  0  0  0
 11 15  1  0  0  0  0
 11 16  1  0  0  0  0
 52 54  1  0  0  0  0
 52 55  1  0  0  0  0
 52 56  1  0  0  0  0
 21 33  1  0  0  0  0
 21 34  1  0  0  0  0
 42 47  1  0  0  0  0
  8 13  1  0  0  0  0
 18 32  1  0  0  0  0
 25 36  1  0  0  0  0
 51 53  1  0  0  0  0
  7 12  1  0  0  0  0
 41 46  1  0  0  0  0
 17 31  1  0  0  0  0
M  END
$$$$

  -OEChem-05262214473D

 56 57  0     1  0  0  0  0  0999 V2000
   -2.2900    0.3401    4.1553 C   0  0  0  0  0  0  0  0  0  0  0  0
   -1.3426   -0.2746    3.6796 O   0  0  0  0  0  0  0  0  0  0  0  0
   -2.7219    0.0577    5.5560 C   0  0  0  0  0  0  0  0  0  0  0  0
   -3.4815   -0.7386    5.6094 H   0  0  0  0  0  0  0  0  0  0  0  0
   -1.8906   -0.2899    6.1903 H   0  0  0  0  0  0  0  0  0  0  0  0
   -3.1599    0.9126    6.0956 H   0  0  0  0  0  0  0  0  0  0  0  0
   -3.0397    1.3125    3.5142 N   0  0  0  0  0  0  0  0  0  0  0  0
   -2.7928    1.7385    2.1618 C   0  0  2  0  0  0  0  0  0  0  0  0
   -1.4579    1.1532    1.7206 C   0  0  0  0  0  0  0  0  0  0  0  0
   -0.5858    0.8004    2.5118 O   0  0  0  0  0  0  0  0  0  0  0  0
   -2.7841    3.2553    2.0523 C   0  0  0  0  0  0  0  0  0  0  0  0
   -3.8047    1.7484    4.0260 H   0  0  0  0  0  0  0  0  0  0  0  0
   -3.5969    1.3201    1.5466 H   0  0  0  0  0  0  0  0  0  0  0  0
   -1.9850    3.6926    2.6620 H   0  0  0  0  0  0  0  0  0  0  0  0
   -2.6246    3.5776    1.0180 H   0  0  0  0  0  0  0  0  0  0  0  0
   -3.7342    3.6765    2.3981 H   0  0  0  0  0  0  0  0  0  0  0  0
   -1.3352    1.1101    0.3372 N   0  0  0  0  0  0  0  0  0  0  0  0
   -0.1579    0.6093   -0.3265 C   0  0  2  0  0  0  0  0  0  0  0  0
    0.7849    1.7908   -0.5249 C   0  0  0  0  0  0  0  0  0  0  0  0
    0.8516    2.7331    0.2615 O   0  0  0  0  0  0  0  0  0  0  0  0
   -0.4863   -0.0427   -1.6745 C   0  0  0  0  0  0  0  0  0  0  0  0
   -1.2904   -1.3115   -1.5287 C   0  0  0  0  0  0  0  0  0  0  0  0
   -2.6577   -1.4136   -1.6422 C   0  0  0  0  0  0  0  0  0  0  0  0
   -0.7805   -2.6110   -1.2528 C   0  0  0  0  0  0  0  0  0  0  0  0
   -3.0002   -2.7245   -1.4457 N   0  0  0  0  0  0  0  0  0  0  0  0
   -1.8737   -3.4788   -1.2060 C   0  0  0  0  0  0  0  0  0  0  0  0
    0.5102   -3.1339   -1.0377 C   0  0  0  0  0  0  0  0  0  0  0  0
   -1.7402   -4.8488   -0.9538 C   0  0  0  0  0  0  0  0  0  0  0  0
    0.6589   -4.5024   -0.7845 C   0  0  0  0  0  0  0  0  0  0  0  0
   -0.4504   -5.3448   -0.7436 C   0  0  0  0  0  0  0  0  0  0  0  0
   -2.1183    1.4068   -0.2401 H   0  0  0  0  0  0  0  0  0  0  0  0
    0.3061   -0.1087    0.3599 H   0  0  0  0  0  0  0  0  0  0  0  0
    0.4374   -0.2526   -2.2307 H   0  0  0  0  0  0  0  0  0  0  0  0
   -1.0525    0.6522   -2.3088 H   0  0  0  0  0  0  0  0  0  0  0  0
   -3.4184   -0.6718   -1.8435 H   0  0  0  0  0  0  0  0  0  0  0  0
   -3.9432   -3.0870   -1.4728 H   0  0  0  0  0  0  0  0  0  0  0  0
    1.3848   -2.4902   -1.0654 H   0  0  0  0  0  0  0  0  0  0  0  0
   -2.6030   -5.5055   -0.9229 H   0  0  0  0  0  0  0  0  0  0  0  0
    1.6517   -4.9113   -0.6174 H   0  0  0  0  0  0  0  0  0  0  0  0
   -0.3119   -6.4045   -0.5453 H   0  0  0  0  0  0  0  0  0  0  0  0
    1.5750    1.6407   -1.6562 N   0  0  0  0  0  0  0  0  0  0  0  0
    2.5703    2.6066   -2.0628 C   0  0  2  0  0  0  0  0  0  0  0  0
    1.9175    3.9825   -2.0641 C   0  0  0  0  0  0  0  0  0  0  0  0
    0.7032    4.1487   -2.1592 O   0  0  0  0  0  0  0  0  0  0  0  0
    3.1376    2.2727   -3.4337 C   0  0  0  0  0  0  0  0  0  0  0  0
    1.4473    0.8103   -2.2270 H   0  0  0  0  0  0  0  0  0  0  0  0
    3.3643    2.5792   -1.3085 H   0  0  0  0  0  0  0  0  0  0  0  0
    2.3567    2.2952   -4.2026 H   0  0  0  0  0  0  0  0  0  0  0  0
    3.9118    2.9891   -3.7279 H   0  0  0  0  0  0  0  0  0  0  0  0
    3.5804    1.2709   -3.4389 H   0  0  0  0  0  0  0  0  0  0  0  0
    2.8536    5.0044   -1.9901 N   0  0  0  0  0  0  0  0  0  0  0  0
    2.4849    6.4009   -1.9882 C   0  0  0  0  0  0  0  0  0  0  0  0
    3.8383    4.7741   -1.8949 H   0  0  0  0  0  0  0  0  0  0  0  0
    2.4978    6.7855   -3.0186 H   0  0  0  0  0  0  0  0  0  0  0  0
    1.4745    6.5126   -1.5679 H   0  0  0  0  0  0  0  0  0  0  0  0
    3.2014    6.9683   -1.3761 H   0  0  0  0  0  0  0  0  0  0  0  0
 29 30  2  0  0  0  0
 27 29  1  0  0  0  0
 28 30  1  0  0  0  0
 24 27  2  0  0  0  0
 26 28  2  0  0  0  0
 22 23  2  0  0  0  0
 23 25  1  0  0  0  0
 22 24  1  0  0  0  0
 24 26  1  0  0  0  0
 21 22  1  0  0  0  0
 25 26  1  0  0  0  0
  1  3  1  0  0  0  0
  1  7  1  0  0  0  0
  1  2  2  0  0  0  0
 42 43  1  0  0  0  0
 43 51  1  0  0  0  0
 43 44  2  0  0  0  0
  8  9  1  0  0  0  0
  9 17  1  0  0  0  0
  9 10  2  0  0  0  0
 18 19  1  0  0  0  0
 19 41  1  0  0  0  0
 19 20  2  0  0  0  0
 42 45  1  0  0  0  0
  8 11  1  0  0  0  0
 51 52  1  0  0  0  0
 18 21  1  0  0  0  0
 41 42  1  0  0  0  0
  7  8  1  0  0  0  0
 17 18  1  0  0  0  0
 29 39  1  0  0  0  0
 30 40  1  0  0  0  0
 27 37  1  0  0  0  0
 28 38  1  0  0  0  0
 23 35  1  0  0  0  0
  3  4  1  0  0  0  0
  3  5  1  0  0  0  0
  3  6  1  0  0  0  0
 45 48  1  0  0  0  0
 45 49  1  0  0  0  0
 45 50  1  0  0  0  0
 11 14  1  0  0  0  0
 11 15  1  0  0  0  0
 11 16  1  0  0  0  0
 52 54  1  0  0  0  0
 52 55  1  0  0  0  0
 52 56  1  0  0  0  0
 21 33  1  0  0  0  0
 21 34  1  0  0  0  0
 42 47  1  0  0  0  0
  8 13  1  0  0  0  0
 18 32  1  0  0  0  0
 25 36  1  0  0  0  0
 51 53  1  0  0  0  0
  7 12  1  0  0  0  0
 41 46  1  0  0  0  0
 17 31  1  0  0  0  0
M  END
$$$$

  -OEChem-05262214473D

 56 57  0     1  0  0  0  0  0999 V2000
   -2.2900    0.3401    4.1553 C   0  0  0  0  0  0  0  0  0  0  0  0
   -1.3426   -0.2746    3.6796 O   0  0  0  0  0  0  0  0  0  0  0  0
   -2.7219    0.0577    5.5560 C   0  0  0  0  0  0  0  0  0  0  0  0
   -3.4815   -0.7386    5.6094 H   0  0  0  0  0  0  0  0  0  0  0  0
   -1.8906   -0.2899    6.1903 H   0  0  0  0  0  0  0  0  0  0  0  0
   -3.1599    0.9126    6.0956 H   0  0  0  0  0  0  0  0  0  0  0  0
   -3.0397    1.3125    3.5142 N   0  0  0  0  0  0  0  0  0  0  0  0
   -2.7928    1.7385    2.1618 C   0  0  2  0  0  0  0  0  0  0  0  0
   -1.4579    1.1532    1.7206 C   0  0  0  0  0  0  0  0  0  0  0  0
   -0.5858    0.8004    2.5118 O   0  0  0  0  0  0  0  0  0  0  0  0
   -2.7841    3.2553    2.0523 C   0  0  0  0  0  0  0  0  0  0  0  0
   -3.8047    1.7484    4.0260 H   0  0  0  0  0  0  0  0  0  0  0  0
   -3.5969    1.3201    1.5466 H   0  0  0  0  0  0  0  0  0  0  0  0
   -1.9850    3.6926    2.6620 H   0  0  0  0  0  0  0  0  0  0  0  0
   -2.6246    3.5776    1.0180 H   0  0  0  0  0  0  0  0  0  0  0  0
   -3.7342    3.6765    2.3981 H   0  0  0  0  0  0  0  0  0  0  0  0
   -1.3352    1.1101    0.3372 N   0  0  0  0  0  0  0  0  0  0  0  0
   -0.1579    0.6093   -0.3265 C   0  0  2  0  0  0  0  0  0  0  0  0
    0.7849    1.7908   -0.5249 C   0  0  0  0  0  0  0  0  0  0  0  0
    1.0529    2.5905    0.3692 O   0  0  0  0  0  0  0  0  0  0  0  0
   -0.4863   -0.0427   -1.6745 C   0  0  0  0  0  0  0  0  0  0  0  0
   -1.2904   -1.3115   -1.5287 C   0  0  0  0  0  0  0  0  0  0  0  0
   -2.6577   -1.4136   -1.6422 C   0  0  0  0  0  0  0  0  0  0  0  0
   -0.7805   -2.6110   -1.2528 C   0  0  0  0  0  0  0  0  0  0  0  0
   -3.0002   -2.7245   -1.4457 N   0  0  0  0  0  0  0  0  0  0  0  0
   -1.8737   -3.4788   -1.2060 C   0  0  0  0  0  0  0  0  0  0  0  0
    0.5102   -3.1339   -1.0377 C   0  0  0  0  0  0  0  0  0  0  0  0
   -1.7402   -4.8488   -0.9538 C   0  0  0  0  0  0  0  0  0  0  0  0
    0.6589   -4.5024   -0.7845 C   0  0  0  0  0  0  0  0  0  0  0  0
   -0.4504   -5.3448   -0.7436 C   0  0  0  0  0  0  0  0  0  0  0  0
   -2.1183    1.4068   -0.2401 H   0  0  0  0  0  0  0  0  0  0  0  0
    0.3061   -0.1087    0.3599 H   0  0  0  0  0  0  0  0  0  0  0  0
    0.4374   -0.2526   -2.2307 H   0  0  0  0  0  0  0  0  0  0  0  0
   -1.0525    0.6522   -2.3088 H   0  0  0  0  0  0  0  0  0  0  0  0
   -3.4184   -0.6718   -1.8435 H   0  0  0  0  0  0  0  0  0  0  0  0
   -3.9432   -3.0870   -1.4728 H   0  0  0  0  0  0  0  0  0  0  0  0
    1.3848   -2.4902   -1.0654 H   0  0  0  0  0  0  0  0  0  0  0  0
   -2.6030   -5.5055   -0.9229 H   0  0  0  0  0  0  0  0  0  0  0  0
    1.6517   -4.9113   -0.6174 H   0  0  0  0  0  0  0  0  0  0  0  0
   -0.3119   -6.4045   -0.5453 H   0  0  0  0  0  0  0  0  0  0  0  0
    1.3271    1.8140   -1.8024 N   0  0  0  0  0  0  0  0  0  0  0  0
    2.2693    2.8159   -2.2465 C   0  0  2  0  0  0  0  0  0  0  0  0
    1.6987    4.1847   -1.8996 C   0  0  0  0  0  0  0  0  0  0  0  0
    0.4995    4.3853   -1.7185 O   0  0  0  0  0  0  0  0  0  0  0  0
    2.5368    2.7009   -3.7391 C   0  0  0  0  0  0  0  0  0  0  0  0
    1.0476    1.0904   -2.4582 H   0  0  0  0  0  0  0  0  0  0  0  0
    3.1944    2.6518   -1.6833 H   0  0  0  0  0  0  0  0  0  0  0  0
    1.6213    2.8624   -4.3200 H   0  0  0  0  0  0  0  0  0  0  0  0
    3.2723    3.4422   -4.0687 H   0  0  0  0  0  0  0  0  0  0  0  0
    2.9190    1.7058   -3.9911 H   0  0  0  0  0  0  0  0  0  0  0  0
    2.6809    5.1643   -1.8583 N   0  0  0  0  0  0  0  0  0  0  0  0
    2.3902    6.5479   -1.5628 C   0  0  0  0  0  0  0  0  0  0  0  0
    3.6522    4.9045   -2.0026 H   0  0  0  0  0  0  0  0  0  0  0  0
    2.2183    7.0955   -2.5011 H   0  0  0  0  0  0  0  0  0  0  0  0
    1.4899    6.6069   -0.9336 H   0  0  0  0  0  0  0  0  0  0  0  0
    3.2412    6.9950   -1.0280 H   0  0  0  0  0  0  0  0  0  0  0  0
 29 30  2  0  0  0  0
 27 29  1  0  0  0  0
 28 30  1  0  0  0  0
 24 27  2  0  0  0  0
 26 28  2  0  0  0  0
 22 23  2  0  0  0  0
 23 25  1  0  0  0  0
 22 24  1  0  0  0  0
 24 26  1  0  0  0  0
 21 22  1  0  0  0  0
 25 26  1  0  0  0  0
  1  3  1  0  0  0  0
  1  7  1  0  0  0  0
  1  2  2  0  0  0  0
 42 43  1  0  0  0  0
 43 51  1  0  0  0  0
 43 44  2  0  0  0  0
  8  9  1  0  0  0  0
  9 17  1  0  0  0  0
  9 10  2  0  0  0  0
 18 19  1  0  0  0  0
 19 41  1  0  0  0  0
 19 20  2  0  0  0  0
 42 45  1  0  0  0  0
  8 11  1  0  0  0  0
 51 52  1  0  0  0  0
 18 21  1  0  0  0  0
 41 42  1  0  0  0  0
  7  8  1  0  0  0  0
 17 18  1  0  0  0  0
 29 39  1  0  0  0  0
 30 40  1  0  0  0  0
 27 37  1  0  0  0  0
 28 38  1  0  0  0  0
 23 35  1  0  0  0  0
  3  4  1  0  0  0  0
  3  5  1  0  0  0  0
  3  6  1  0  0  0  0
 45 48  1  0  0  0  0
 45 49  1  0  0  0  0
 45 50  1  0  0  0  0
 11 14  1  0  0  0  0
 11 15  1  0  0  0  0
 11 16  1  0  0  0  0
 52 54  1  0  0  0  0
 52 55  1  0  0  0  0
 52 56  1  0  0  0  0
 21 33  1  0  0  0  0
 21 34  1  0  0  0  0
 42 47  1  0  0  0  0
  8 13  1  0  0  0  0
 18 32  1  0  0  0  0
 25 36  1  0  0  0  0
 51 53  1  0  0  0  0
  7 12  1  0  0  0  0
 41 46  1  0  0  0  0
 17 31  1  0  0  0  0
M  END
$$$$

  -OEChem-05262214473D

 56 57  0     1  0  0  0  0  0999 V2000
   -2.2900    0.3401    4.1553 C   0  0  0  0  0  0  0  0  0  0  0  0
   -1.3426   -0.2746    3.6796 O   0  0  0  0  0  0  0  0  0  0  0  0
   -2.7219    0.0577    5.5560 C   0  0  0  0  0  0  0  0  0  0  0  0
   -3.4815   -0.7386    5.6094 H   0  0  0  0  0  0  0  0  0  0  0  0
   -1.8906   -0.2899    6.1903 H   0  0  0  0  0  0  0  0  0  0  0  0
   -3.1599    0.9126    6.0956 H   0  0  0  0  0  0  0  0  0  0  0  0
   -3.0397    1.3125    3.5142 N   0  0  0  0  0  0  0  0  0  0  0  0
   -2.7928    1.7385    2.1618 C   0  0  2  0  0  0  0  0  0  0  0  0
   -1.4579    1.1532    1.7206 C   0  0  0  0  0  0  0  0  0  0  0  0
   -0.5858    0.8004    2.5118 O   0  0  0  0  0  0  0  0  0  0  0  0
   -2.7841    3.2553    2.0523 C   0  0  0  0  0  0  0  0  0  0  0  0
   -3.8047    1.7484    4.0260 H   0  0  0  0  0  0  0  0  0  0  0  0
   -3.5969    1.3201    1.5466 H   0  0  0  0  0  0  0  0  0  0  0  0
   -1.9850    3.6926    2.6620 H   0  0  0  0  0  0  0  0  0  0  0  0
   -2.6246    3.5776    1.0180 H   0  0  0  0  0  0  0  0  0  0  0  0
   -3.7342    3.6765    2.3981 H   0  0  0  0  0  0  0  0  0  0  0  0
   -1.3352    1.1101    0.3372 N   0  0  0  0  0  0  0  0  0  0  0  0
   -0.1579    0.6093   -0.3265 C   0  0  2  0  0  0  0  0  0  0  0  0
    0.7849    1.7908   -0.5249 C   0  0  0  0  0  0  0  0  0  0  0  0
    1.2642    2.4288    0.4100 O   0  0  0  0  0  0  0  0  0  0  0  0
   -0.4863   -0.0427   -1.6745 C   0  0  0  0  0  0  0  0  0  0  0  0
   -1.2904   -1.3115   -1.5287 C   0  0  0  0  0  0  0  0  0  0  0  0
   -2.6577   -1.4136   -1.6422 C   0  0  0  0  0  0  0  0  0  0  0  0
   -0.7805   -2.6110   -1.2528 C   0  0  0  0  0  0  0  0  0  0  0  0
   -3.0002   -2.7245   -1.4457 N   0  0  0  0  0  0  0  0  0  0  0  0
   -1.8737   -3.4788   -1.2060 C   0  0  0  0  0  0  0  0  0  0  0  0
    0.5102   -3.1339   -1.0377 C   0  0  0  0  0  0  0  0  0  0  0  0
   -1.7402   -4.8488   -0.9538 C   0  0  0  0  0  0  0  0  0  0  0  0
    0.6589   -4.5024   -0.7845 C   0  0  0  0  0  0  0  0  0  0  0  0
   -0.4504   -5.3448   -0.7436 C   0  0  0  0  0  0  0  0  0  0  0  0
   -2.1183    1.4068   -0.2401 H   0  0  0  0  0  0  0  0  0  0  0  0
    0.3061   -0.1087    0.3599 H   0  0  0  0  0  0  0  0  0  0  0  0
    0.4374   -0.2526   -2.2307 H   0  0  0  0  0  0  0  0  0  0  0  0
   -1.0525    0.6522   -2.3088 H   0  0  0  0  0  0  0  0  0  0  0  0
   -3.4184   -0.6718   -1.8435 H   0  0  0  0  0  0  0  0  0  0  0  0
   -3.9432   -3.0870   -1.4728 H   0  0  0  0  0  0  0  0  0  0  0  0
    1.3848   -2.4902   -1.0654 H   0  0  0  0  0  0  0  0  0  0  0  0
   -2.6030   -5.5055   -0.9229 H   0  0  0  0  0  0  0  0  0  0  0  0
    1.6517   -4.9113   -0.6174 H   0  0  0  0  0  0  0  0  0  0  0  0
   -0.3119   -6.4045   -0.5453 H   0  0  0  0  0  0  0  0  0  0  0  0
    1.0641    2.0131   -1.8662 N   0  0  0  0  0  0  0  0  0  0  0  0
    1.9488    3.0577   -2.3301 C   0  0  2  0  0  0  0  0  0  0  0  0
    1.5273    4.3610   -1.6644 C   0  0  0  0  0  0  0  0  0  0  0  0
    0.3992    4.5501   -1.2142 O   0  0  0  0  0  0  0  0  0  0  0  0
    1.9096    3.1837   -3.8451 C   0  0  0  0  0  0  0  0  0  0  0  0
    0.6246    1.4115   -2.5566 H   0  0  0  0  0  0  0  0  0  0  0  0
    2.9576    2.7876   -1.9995 H   0  0  0  0  0  0  0  0  0  0  0  0
    0.9065    3.4538   -4.1951 H   0  0  0  0  0  0  0  0  0  0  0  0
    2.6015    3.9559   -4.1971 H   0  0  0  0  0  0  0  0  0  0  0  0
    2.1842    2.2367   -4.3222 H   0  0  0  0  0  0  0  0  0  0  0  0
    2.5460    5.3035   -1.6708 N   0  0  0  0  0  0  0  0  0  0  0  0
    2.3891    6.6249   -1.1093 C   0  0  0  0  0  0  0  0  0  0  0  0
    3.4553    5.0539   -2.0484 H   0  0  0  0  0  0  0  0  0  0  0  0
    2.0625    7.3215   -1.8955 H   0  0  0  0  0  0  0  0  0  0  0  0
    1.6351    6.5959   -0.3089 H   0  0  0  0  0  0  0  0  0  0  0  0
    3.3503    6.9638   -0.6955 H   0  0  0  0  0  0  0  0  0  0  0  0
 29 30  2  0  0  0  0
 27 29  1  0  0  0  0
 28 30  1  0  0  0  0
 24 27  2  0  0  0  0
 26 28  2  0  0  0  0
 22 23  2  0  0  0  0
 23 25  1  0  0  0  0
 22 24  1  0  0  0  0
 24 26  1  0  0  0  0
 21 22  1  0  0  0  0
 25 26  1  0  0  0  0
  1  3  1  0  0  0  0
  1  7  1  0  0  0  0
  1  2  2  0  0  0  0
 42 43  1  0  0  0  0
 43 51  1  0  0  0  0
 43 44  2  0  0  0  0
  8  9  1  0  0  0  0
  9 17  1  0  0  0  0
  9 10  2  0  0  0  0
 18 19  1  0  0  0  0
 19 41  1  0  0  0  0
 19 20  2  0  0  0  0
 42 45  1  0  0  0  0
  8 11  1  0  0  0  0
 51 52  1  0  0  0  0
 18 21  1  0  0  0  0
 41 42  1  0  0  0  0
  7  8  1  0  0  0  0
 17 18  1  0  0  0  0
 29 39  1  0  0  0  0
 30 40  1  0  0  0  0
 27 37  1  0  0  0  0
 28 38  1  0  0  0  0
 23 35  1  0  0  0  0
  3  4  1  0  0  0  0
  3  5  1  0  0  0  0
  3  6  1  0  0  0  0
 45 48  1  0  0  0  0
 45 49  1  0  0  0  0
 45 50  1  0  0  0  0
 11 14  1  0  0  0  0
 11 15  1  0  0  0  0
 11 16  1  0  0  0  0
 52 54  1  0  0  0  0
 52 55  1  0  0  0  0
 52 56  1  0  0  0  0
 21 33  1  0  0  0  0
 21 34  1  0  0  0  0
 42 47  1  0  0  0  0
  8 13  1  0  0  0  0
 18 32  1  0  0  0  0
 25 36  1  0  0  0  0
 51 53  1  0  0  0  0
  7 12  1  0  0  0  0
 41 46  1  0  0  0  0
 17 31  1  0  0  0  0
M  END
$$$$

  -OEChem-05262214473D

 56 57  0     1  0  0  0  0  0999 V2000
   -2.2900    0.3401    4.1553 C   0  0  0  0  0  0  0  0  0  0  0  0
   -1.3426   -0.2746    3.6796 O   0  0  0  0  0  0  0  0  0  0  0  0
   -2.7219    0.0577    5.5560 C   0  0  0  0  0  0  0  0  0  0  0  0
   -3.4815   -0.7386    5.6094 H   0  0  0  0  0  0  0  0  0  0  0  0
   -1.8906   -0.2899    6.1903 H   0  0  0  0  0  0  0  0  0  0  0  0
   -3.1599    0.9126    6.0956 H   0  0  0  0  0  0  0  0  0  0  0  0
   -3.0397    1.3125    3.5142 N   0  0  0  0  0  0  0  0  0  0  0  0
   -2.7928    1.7385    2.1618 C   0  0  2  0  0  0  0  0  0  0  0  0
   -1.4579    1.1532    1.7206 C   0  0  0  0  0  0  0  0  0  0  0  0
   -0.5858    0.8004    2.5118 O   0  0  0  0  0  0  0  0  0  0  0  0
   -2.7841    3.2553    2.0523 C   0  0  0  0  0  0  0  0  0  0  0  0
   -3.8047    1.7484    4.0260 H   0  0  0  0  0  0  0  0  0  0  0  0
   -3.5969    1.3201    1.5466 H   0  0  0  0  0  0  0  0  0  0  0  0
   -1.9850    3.6926    2.6620 H   0  0  0  0  0  0  0  0  0  0  0  0
   -2.6246    3.5776    1.0180 H   0  0  0  0  0  0  0  0  0  0  0  0
   -3.7342    3.6765    2.3981 H   0  0  0  0  0  0  0  0  0  0  0  0
   -1.3352    1.1101    0.3372 N   0  0  0  0  0  0  0  0  0  0  0  0
   -0.1579    0.6093   -0.3265 C   0  0  2  0  0  0  0  0  0  0  0  0
    0.7849    1.7908   -0.5249 C   0  0  0  0  0  0  0  0  0  0  0  0
    1.4710    2.2589    0.3812 O   0  0  0  0  0  0  0  0  0  0  0  0
   -0.4863   -0.0427   -1.6745 C   0  0  0  0  0  0  0  0  0  0  0  0
   -1.2904   -1.3115   -1.5287 C   0  0  0  0  0  0  0  0  0  0  0  0
   -2.6577   -1.4136   -1.6422 C   0  0  0  0  0  0  0  0  0  0  0  0
   -0.7805   -2.6110   -1.2528 C   0  0  0  0  0  0  0  0  0  0  0  0
   -3.0002   -2.7245   -1.4457 N   0  0  0  0  0  0  0  0  0  0  0  0
   -1.8737   -3.4788   -1.2060 C   0  0  0  0  0  0  0  0  0  0  0  0
    0.5102   -3.1339   -1.0377 C   0  0  0  0  0  0  0  0  0  0  0  0
   -1.7402   -4.8488   -0.9538 C   0  0  0  0  0  0  0  0  0  0  0  0
    0.6589   -4.5024   -0.7845 C   0  0  0  0  0  0  0  0  0  0  0  0
   -0.4504   -5.3448   -0.7436 C   0  0  0  0  0  0  0  0  0  0  0  0
   -2.1183    1.4068   -0.2401 H   0  0  0  0  0  0  0  0  0  0  0  0
    0.3061   -0.1087    0.3599 H   0  0  0  0  0  0  0  0  0  0  0  0
    0.4374   -0.2526   -2.2307 H   0  0  0  0  0  0  0  0  0  0  0  0
   -1.0525    0.6522   -2.3088 H   0  0  0  0  0  0  0  0  0  0  0  0
   -3.4184   -0.6718   -1.8435 H   0  0  0  0  0  0  0  0  0  0  0  0
   -3.9432   -3.0870   -1.4728 H   0  0  0  0  0  0  0  0  0  0  0  0
    1.3848   -2.4902   -1.0654 H   0  0  0  0  0  0  0  0  0  0  0  0
   -2.6030   -5.5055   -0.9229 H   0  0  0  0  0  0  0  0  0  0  0  0
    1.6517   -4.9113   -0.6174 H   0  0  0  0  0  0  0  0  0  0  0  0
   -0.3119   -6.4045   -0.5453 H   0  0  0  0  0  0  0  0  0  0  0  0
    0.8040    2.2246   -1.8432 N   0  0  0  0  0  0  0  0  0  0  0  0
    1.6305    3.3154   -2.3078 C   0  0  2  0  0  0  0  0  0  0  0  0
    1.4148    4.4994   -1.3746 C   0  0  0  0  0  0  0  0  0  0  0  0
    0.4090    4.6319   -0.6805 O   0  0  0  0  0  0  0  0  0  0  0  0
    1.2987    3.6880   -3.7444 C   0  0  0  0  0  0  0  0  0  0  0  0
    0.2070    1.7516   -2.5153 H   0  0  0  0  0  0  0  0  0  0  0  0
    2.6700    2.9774   -2.2358 H   0  0  0  0  0  0  0  0  0  0  0  0
    0.2611    4.0291   -3.8364 H   0  0  0  0  0  0  0  0  0  0  0  0
    1.9451    4.4953   -4.1043 H   0  0  0  0  0  0  0  0  0  0  0  0
    1.4258    2.8272   -4.4097 H   0  0  0  0  0  0  0  0  0  0  0  0
    2.4580    5.4125   -1.4403 N   0  0  0  0  0  0  0  0  0  0  0  0
    2.4815    6.6268   -0.6588 C   0  0  0  0  0  0  0  0  0  0  0  0
    3.2610    5.2122   -2.0292 H   0  0  0  0  0  0  0  0  0  0  0  0
    2.0411    7.4482   -1.2431 H   0  0  0  0  0  0  0  0  0  0  0  0
    1.9003    6.4805    0.2636 H   0  0  0  0  0  0  0  0  0  0  0  0
    3.5213    6.8768   -0.4011 H   0  0  0  0  0  0  0  0  0  0  0  0
 29 30  2  0  0  0  0
 27 29  1  0  0  0  0
 28 30  1  0  0  0  0
 24 27  2  0  0  0  0
 26 28  2  0  0  0  0
 22 23  2  0  0  0  0
 23 25  1  0  0  0  0
 22 24  1  0  0  0  0
 24 26  1  0  0  0  0
 21 22  1  0  0  0  0
 25 26  1  0  0  0  0
  1  3  1  0  0  0  0
  1  7  1  0  0  0  0
  1  2  2  0  0  0  0
 42 43  1  0  0  0  0
 43 51  1  0  0  0  0
 43 44  2  0  0  0  0
  8  9  1  0  0  0  0
  9 17  1  0  0  0  0
  9 10  2  0  0  0  0
 18 19  1  0  0  0  0
 19 41  1  0  0  0  0
 19 20  2  0  0  0  0
 42 45  1  0  0  0  0
  8 11  1  0  0  0  0
 51 52  1  0  0  0  0
 18 21  1  0  0  0  0
 41 42  1  0  0  0  0
  7  8  1  0  0  0  0
 17 18  1  0  0  0  0
 29 39  1  0  0  0  0
 30 40  1  0  0  0  0
 27 37  1  0  0  0  0
 28 38  1  0  0  0  0
 23 35  1  0  0  0  0
  3  4  1  0  0  0  0
  3  5  1  0  0  0  0
  3  6  1  0  0  0  0
 45 48  1  0  0  0  0
 45 49  1  0  0  0  0
 45 50  1  0  0  0  0
 11 14  1  0  0  0  0
 11 15  1  0  0  0  0
 11 16  1  0  0  0  0
 52 54  1  0  0  0  0
 52 55  1  0  0  0  0
 52 56  1  0  0  0  0
 21 33  1  0  0  0  0
 21 34  1  0  0  0  0
 42 47  1  0  0  0  0
  8 13  1  0  0  0  0
 18 32  1  0  0  0  0
 25 36  1  0  0  0  0
 51 53  1  0  0  0  0
  7 12  1  0  0  0  0
 41 46  1  0  0  0  0
 17 31  1  0  0  0  0
M  END
$$$$

  -OEChem-05262214473D

 56 57  0     1  0  0  0  0  0999 V2000
   -2.2900    0.3401    4.1553 C   0  0  0  0  0  0  0  0  0  0  0  0
   -1.3426   -0.2746    3.6796 O   0  0  0  0  0  0  0  0  0  0  0  0
   -2.7219    0.0577    5.5560 C   0  0  0  0  0  0  0  0  0  0  0  0
   -3.4815   -0.7386    5.6094 H   0  0  0  0  0  0  0  0  0  0  0  0
   -1.8906   -0.2899    6.1903 H   0  0  0  0  0  0  0  0  0  0  0  0
   -3.1599    0.9126    6.0956 H   0  0  0  0  0  0  0  0  0  0  0  0
   -3.0397    1.3125    3.5142 N   0  0  0  0  0  0  0  0  0  0  0  0
   -2.7928    1.7385    2.1618 C   0  0  2  0  0  0  0  0  0  0  0  0
   -1.4579    1.1532    1.7206 C   0  0  0  0  0  0  0  0  0  0  0  0
   -0.5858    0.8004    2.5118 O   0  0  0  0  0  0  0  0  0  0  0  0
   -2.7841    3.2553    2.0523 C   0  0  0  0  0  0  0  0  0  0  0  0
   -3.8047    1.7484    4.0260 H   0  0  0  0  0  0  0  0  0  0  0  0
   -3.5969    1.3201    1.5466 H   0  0  0  0  0  0  0  0  0  0  0  0
   -1.9850    3.6926    2.6620 H   0  0  0  0  0  0  0  0  0  0  0  0
   -2.6246    3.5776    1.0180 H   0  0  0  0  0  0  0  0  0  0  0  0
   -3.7342    3.6765    2.3981 H   0  0  0  0  0  0  0  0  0  0  0  0
   -1.3352    1.1101    0.3372 N   0  0  0  0  0  0  0  0  0  0  0  0
   -0.1579    0.6093   -0.3265 C   0  0  2  0  0  0  0  0  0  0  0  0
    0.7849    1.7908   -0.5249 C   0  0  0  0  0  0  0  0  0  0  0  0
    1.6592    2.0925    0.2847 O   0  0  0  0  0  0  0  0  0  0  0  0
   -0.4863   -0.0427   -1.6745 C   0  0  0  0  0  0  0  0  0  0  0  0
   -1.2904   -1.3115   -1.5287 C   0  0  0  0  0  0  0  0  0  0  0  0
   -2.6577   -1.4136   -1.6422 C   0  0  0  0  0  0  0  0  0  0  0  0
   -0.7805   -2.6110   -1.2528 C   0  0  0  0  0  0  0  0  0  0  0  0
   -3.0002   -2.7245   -1.4457 N   0  0  0  0  0  0  0  0  0  0  0  0
   -1.8737   -3.4788   -1.2060 C   0  0  0  0  0  0  0  0  0  0  0  0
    0.5102   -3.1339   -1.0377 C   0  0  0  0  0  0  0  0  0  0  0  0
   -1.7402   -4.8488   -0.9538 C   0  0  0  0  0  0  0  0  0  0  0  0
    0.6589   -4.5024   -0.7845 C   0  0  0  0  0  0  0  0  0  0  0  0
   -0.4504   -5.3448   -0.7436 C   0  0  0  0  0  0  0  0  0  0  0  0
   -2.1183    1.4068   -0.2401 H   0  0  0  0  0  0  0  0  0  0  0  0
    0.3061   -0.1087    0.3599 H   0  0  0  0  0  0  0  0  0  0  0  0
    0.4374   -0.2526   -2.2307 H   0  0  0  0  0  0  0  0  0  0  0  0
   -1.0525    0.6522   -2.3088 H   0  0  0  0  0  0  0  0  0  0  0  0
   -3.4184   -0.6718   -1.8435 H   0  0  0  0  0  0  0  0  0  0  0  0
   -3.9432   -3.0870   -1.4728 H   0  0  0  0  0  0  0  0  0  0  0  0
    1.3848   -2.4902   -1.0654 H   0  0  0  0  0  0  0  0  0  0  0  0
   -2.6030   -5.5055   -0.9229 H   0  0  0  0  0  0  0  0  0  0  0  0
    1.6517   -4.9113   -0.6174 H   0  0  0  0  0  0  0  0  0  0  0  0
   -0.3119   -6.4045   -0.5453 H   0  0  0  0  0  0  0  0  0  0  0  0
    0.5645    2.4339   -1.7350 N   0  0  0  0  0  0  0  0  0  0  0  0
    1.3363    3.5714   -2.1813 C   0  0  2  0  0  0  0  0  0  0  0  0
    1.3689    4.5906   -1.0500 C   0  0  0  0  0  0  0  0  0  0  0  0
    0.5282    4.6252   -0.1539 O   0  0  0  0  0  0  0  0  0  0  0  0
    0.7459    4.1797   -3.4439 C   0  0  0  0  0  0  0  0  0  0  0  0
   -0.1765    2.0876   -2.3373 H   0  0  0  0  0  0  0  0  0  0  0  0
    2.3513    3.2083   -2.3759 H   0  0  0  0  0  0  0  0  0  0  0  0
   -0.2711    4.5491   -3.2684 H   0  0  0  0  0  0  0  0  0  0  0  0
    1.3478    5.0236   -3.7967 H   0  0  0  0  0  0  0  0  0  0  0  0
    0.6956    3.4371   -4.2475 H   0  0  0  0  0  0  0  0  0  0  0  0
    2.4228    5.4838   -1.1826 N   0  0  0  0  0  0  0  0  0  0  0  0
    2.6613    6.5535   -0.2418 C   0  0  0  0  0  0  0  0  0  0  0  0
    3.0824    5.3686   -1.9464 H   0  0  0  0  0  0  0  0  0  0  0  0
    2.1556    7.4668   -0.5884 H   0  0  0  0  0  0  0  0  0  0  0  0
    2.2674    6.2683    0.7449 H   0  0  0  0  0  0  0  0  0  0  0  0
    3.7426    6.7398   -0.1650 H   0  0  0  0  0  0  0  0  0  0  0  0
 29 30  2  0  0  0  0
 27 29  1  0  0  0  0
 28 30  1  0  0  0  0
 24 27  2  0  0  0  0
 26 28  2  0  0  0  0
 22 23  2  0  0  0  0
 23 25  1  0  0  0  0
 22 24  1  0  0  0  0
 24 26  1  0  0  0  0
 21 22  1  0  0  0  0
 25 26  1  0  0  0  0
  1  3  1  0  0  0  0
  1  7  1  0  0  0  0
  1  2  2  0  0  0  0
 42 43  1  0  0  0  0
 43 51  1  0  0  0  0
 43 44  2  0  0  0  0
  8  9  1  0  0  0  0
  9 17  1  0  0  0  0
  9 10  2  0  0  0  0
 18 19  1  0  0  0  0
 19 41  1  0  0  0  0
 19 20  2  0  0  0  0
 42 45  1  0  0  0  0
  8 11  1  0  0  0  0
 51 52  1  0  0  0  0
 18 21  1  0  0  0  0
 41 42  1  0  0  0  0
  7  8  1  0  0  0  0
 17 18  1  0  0  0  0
 29 39  1  0  0  0  0
 30 40  1  0  0  0  0
 27 37  1  0  0  0  0
 28 38  1  0  0  0  0
 23 35  1  0  0  0  0
  3  4  1  0  0  0  0
  3  5  1  0  0  0  0
  3  6  1  0  0  0  0
 45 48  1  0  0  0  0
 45 49  1  0  0  0  0
 45 50  1  0  0  0  0
 11 14  1  0  0  0  0
 11 15  1  0  0  0  0
 11 16  1  0  0  0  0
 52 54  1  0  0  0  0
 52 55  1  0  0  0  0
 52 56  1  0  0  0  0
 21 33  1  0  0  0  0
 21 34  1  0  0  0  0
 42 47  1  0  0  0  0
  8 13  1  0  0  0  0
 18 32  1  0  0  0  0
 25 36  1  0  0  0  0
 51 53  1  0  0  0  0
  7 12  1  0  0  0  0
 41 46  1  0  0  0  0
 17 31  1  0  0  0  0
M  END
$$$$

  -OEChem-05262214473D

 56 57  0     1  0  0  0  0  0999 V2000
   -2.2900    0.3401    4.1553 C   0  0  0  0  0  0  0  0  0  0  0  0
   -1.3426   -0.2746    3.6796 O   0  0  0  0  0  0  0  0  0  0  0  0
   -2.7219    0.0577    5.5560 C   0  0  0  0  0  0  0  0  0  0  0  0
   -3.4815   -0.7386    5.6094 H   0  0  0  0  0  0  0  0  0  0  0  0
   -1.8906   -0.2899    6.1903 H   0  0  0  0  0  0  0  0  0  0  0  0
   -3.1599    0.9126    6.0956 H   0  0  0  0  0  0  0  0  0  0  0  0
   -3.0397    1.3125    3.5142 N   0  0  0  0  0  0  0  0  0  0  0  0
   -2.7928    1.7385    2.1618 C   0  0  2  0  0  0  0  0  0  0  0  0
   -1.4579    1.1532    1.7206 C   0  0  0  0  0  0  0  0  0  0  0  0
   -0.5858    0.8004    2.5118 O   0  0  0  0  0  0  0  0  0  0  0  0
   -2.7841    3.2553    2.0523 C   0  0  0  0  0  0  0  0  0  0  0  0
   -3.8047    1.7484    4.0260 H   0  0  0  0  0  0  0  0  0  0  0  0
   -3.5969    1.3201    1.5466 H   0  0  0  0  0  0  0  0  0  0  0  0
   -1.9850    3.6926    2.6620 H   0  0  0  0  0  0  0  0  0  0  0  0
   -2.6246    3.5776    1.0180 H   0  0  0  0  0  0  0  0  0  0  0  0
   -3.7342    3.6765    2.3981 H   0  0  0  0  0  0  0  0  0  0  0  0
   -1.3352    1.1101    0.3372 N   0  0  0  0  0  0  0  0  0  0  0  0
   -0.1579    0.6093   -0.3265 C   0  0  2  0  0  0  0  0  0  0  0  0
    0.7849    1.7908   -0.5249 C   0  0  0  0  0  0  0  0  0  0  0  0
    1.8161    1.9408    0.1270 O   0  0  0  0  0  0  0  0  0  0  0  0
   -0.4863   -0.0427   -1.6745 C   0  0  0  0  0  0  0  0  0  0  0  0
   -1.2904   -1.3115   -1.5287 C   0  0  0  0  0  0  0  0  0  0  0  0
   -2.6577   -1.4136   -1.6422 C   0  0  0  0  0  0  0  0  0  0  0  0
   -0.7805   -2.6110   -1.2528 C   0  0  0  0  0  0  0  0  0  0  0  0
   -3.0002   -2.7245   -1.4457 N   0  0  0  0  0  0  0  0  0  0  0  0
   -1.8737   -3.4788   -1.2060 C   0  0  0  0  0  0  0  0  0  0  0  0
    0.5102   -3.1339   -1.0377 C   0  0  0  0  0  0  0  0  0  0  0  0
   -1.7402   -4.8488   -0.9538 C   0  0  0  0  0  0  0  0  0  0  0  0
    0.6589   -4.5024   -0.7845 C   0  0  0  0  0  0  0  0  0  0  0  0
   -0.4504   -5.3448   -0.7436 C   0  0  0  0  0  0  0  0  0  0  0  0
   -2.1183    1.4068   -0.2401 H   0  0  0  0  0  0  0  0  0  0  0  0
    0.3061   -0.1087    0.3599 H   0  0  0  0  0  0  0  0  0  0  0  0
    0.4374   -0.2526   -2.2307 H   0  0  0  0  0  0  0  0  0  0  0  0
   -1.0525    0.6522   -2.3088 H   0  0  0  0  0  0  0  0  0  0  0  0
   -3.4184   -0.6718   -1.8435 H   0  0  0  0  0  0  0  0  0  0  0  0
   -3.9432   -3.0870   -1.4728 H   0  0  0  0  0  0  0  0  0  0  0  0
    1.3848   -2.4902   -1.0654 H   0  0  0  0  0  0  0  0  0  0  0  0
   -2.6030   -5.5055   -0.9229 H   0  0  0  0  0  0  0  0  0  0  0  0
    1.6517   -4.9113   -0.6174 H   0  0  0  0  0  0  0  0  0  0  0  0
   -0.3119   -6.4045   -0.5453 H   0  0  0  0  0  0  0  0  0  0  0  0
    0.3619    2.6268   -1.5489 N   0  0  0  0  0  0  0  0  0  0  0  0
    1.0860    3.8084   -1.9590 C   0  0  2  0  0  0  0  0  0  0  0  0
    1.3928    4.6282   -0.7126 C   0  0  0  0  0  0  0  0  0  0  0  0
    0.7488    4.5304    0.3299 O   0  0  0  0  0  0  0  0  0  0  0  0
    0.2887    4.6251   -2.9640 C   0  0  0  0  0  0  0  0  0  0  0  0
   -0.5000    2.3965   -2.0346 H   0  0  0  0  0  0  0  0  0  0  0  0
    2.0230    3.4644   -2.4103 H   0  0  0  0  0  0  0  0  0  0  0  0
   -0.6536    4.9785   -2.5297 H   0  0  0  0  0  0  0  0  0  0  0  0
    0.8504    5.5048   -3.2952 H   0  0  0  0  0  0  0  0  0  0  0  0
    0.0433    4.0249   -3.8468 H   0  0  0  0  0  0  0  0  0  0  0  0
    2.4430    5.5127   -0.9151 N   0  0  0  0  0  0  0  0  0  0  0  0
    2.9160    6.4098    0.1132 C   0  0  0  0  0  0  0  0  0  0  0  0
    2.9318    5.5125   -1.8055 H   0  0  0  0  0  0  0  0  0  0  0  0
    2.3981    7.3761    0.0241 H   0  0  0  0  0  0  0  0  0  0  0  0
    2.7114    5.9741    1.1023 H   0  0  0  0  0  0  0  0  0  0  0  0
    3.9991    6.5623   -0.0033 H   0  0  0  0  0  0  0  0  0  0  0  0
 29 30  2  0  0  0  0
 27 29  1  0  0  0  0
 28 30  1  0  0  0  0
 24 27  2  0  0  0  0
 26 28  2  0  0  0  0
 22 23  2  0  0  0  0
 23 25  1  0  0  0  0
 22 24  1  0  0  0  0
 24 26  1  0  0  0  0
 21 22  1  0  0  0  0
 25 26  1  0  0  0  0
  1  3  1  0  0  0  0
  1  7  1  0  0  0  0
  1  2  2  0  0  0  0
 42 43  1  0  0  0  0
 43 51  1  0  0  0  0
 43 44  2  0  0  0  0
  8  9  1  0  0  0  0
  9 17  1  0  0  0  0
  9 10  2  0  0  0  0
 18 19  1  0  0  0  0
 19 41  1  0  0  0  0
 19 20  2  0  0  0  0
 42 45  1  0  0  0  0
  8 11  1  0  0  0  0
 51 52  1  0  0  0  0
 18 21  1  0  0  0  0
 41 42  1  0  0  0  0
  7  8  1  0  0  0  0
 17 18  1  0  0  0  0
 29 39  1  0  0  0  0
 30 40  1  0  0  0  0
 27 37  1  0  0  0  0
 28 38  1  0  0  0  0
 23 35  1  0  0  0  0
  3  4  1  0  0  0  0
  3  5  1  0  0  0  0
  3  6  1  0  0  0  0
 45 48  1  0  0  0  0
 45 49  1  0  0  0  0
 45 50  1  0  0  0  0
 11 14  1  0  0  0  0
 11 15  1  0  0  0  0
 11 16  1  0  0  0  0
 52 54  1  0  0  0  0
 52 55  1  0  0  0  0
 52 56  1  0  0  0  0
 21 33  1  0  0  0  0
 21 34  1  0  0  0  0
 42 47  1  0  0  0  0
  8 13  1  0  0  0  0
 18 32  1  0  0  0  0
 25 36  1  0  0  0  0
 51 53  1  0  0  0  0
  7 12  1  0  0  0  0
 41 46  1  0  0  0  0
 17 31  1  0  0  0  0
M  END
$$$$

  -OEChem-05262214473D

 56 57  0     1  0  0  0  0  0999 V2000
   -2.2900    0.3401    4.1553 C   0  0  0  0  0  0  0  0  0  0  0  0
   -1.3426   -0.2746    3.6796 O   0  0  0  0  0  0  0  0  0  0  0  0
   -2.7219    0.0577    5.5560 C   0  0  0  0  0  0  0  0  0  0  0  0
   -3.4815   -0.7386    5.6094 H   0  0  0  0  0  0  0  0  0  0  0  0
   -1.8906   -0.2899    6.1903 H   0  0  0  0  0  0  0  0  0  0  0  0
   -3.1599    0.9126    6.0956 H   0  0  0  0  0  0  0  0  0  0  0  0
   -3.0397    1.3125    3.5142 N   0  0  0  0  0  0  0  0  0  0  0  0
   -2.7928    1.7385    2.1618 C   0  0  2  0  0  0  0  0  0  0  0  0
   -1.4579    1.1532    1.7206 C   0  0  0  0  0  0  0  0  0  0  0  0
   -0.5858    0.8004    2.5118 O   0  0  0  0  0  0  0  0  0  0  0  0
   -2.7841    3.2553    2.0523 C   0  0  0  0  0  0  0  0  0  0  0  0
   -3.8047    1.7484    4.0260 H   0  0  0  0  0  0  0  0  0  0  0  0
   -3.5969    1.3201    1.5466 H   0  0  0  0  0  0  0  0  0  0  0  0
   -1.9850    3.6926    2.6620 H   0  0  0  0  0  0  0  0  0  0  0  0
   -2.6246    3.5776    1.0180 H   0  0  0  0  0  0  0  0  0  0  0  0
   -3.7342    3.6765    2.3981 H   0  0  0  0  0  0  0  0  0  0  0  0
   -1.3352    1.1101    0.3372 N   0  0  0  0  0  0  0  0  0  0  0  0
   -0.1579    0.6093   -0.3265 C   0  0  2  0  0  0  0  0  0  0  0  0
    0.7849    1.7908   -0.5249 C   0  0  0  0  0  0  0  0  0  0  0  0
    1.9309    1.8143   -0.0810 O   0  0  0  0  0  0  0  0  0  0  0  0
   -0.4863   -0.0427   -1.6745 C   0  0  0  0  0  0  0  0  0  0  0  0
   -1.2904   -1.3115   -1.5287 C   0  0  0  0  0  0  0  0  0  0  0  0
   -2.6577   -1.4136   -1.6422 C   0  0  0  0  0  0  0  0  0  0  0  0
   -0.7805   -2.6110   -1.2528 C   0  0  0  0  0  0  0  0  0  0  0  0
   -3.0002   -2.7245   -1.4457 N   0  0  0  0  0  0  0  0  0  0  0  0
   -1.8737   -3.4788   -1.2060 C   0  0  0  0  0  0  0  0  0  0  0  0
    0.5102   -3.1339   -1.0377 C   0  0  0  0  0  0  0  0  0  0  0  0
   -1.7402   -4.8488   -0.9538 C   0  0  0  0  0  0  0  0  0  0  0  0
    0.6589   -4.5024   -0.7845 C   0  0  0  0  0  0  0  0  0  0  0  0
   -0.4504   -5.3448   -0.7436 C   0  0  0  0  0  0  0  0  0  0  0  0
   -2.1183    1.4068   -0.2401 H   0  0  0  0  0  0  0  0  0  0  0  0
    0.3061   -0.1087    0.3599 H   0  0  0  0  0  0  0  0  0  0  0  0
    0.4374   -0.2526   -2.2307 H   0  0  0  0  0  0  0  0  0  0  0  0
   -1.0525    0.6522   -2.3088 H   0  0  0  0  0  0  0  0  0  0  0  0
   -3.4184   -0.6718   -1.8435 H   0  0  0  0  0  0  0  0  0  0  0  0
   -3.9432   -3.0870   -1.4728 H   0  0  0  0  0  0  0  0  0  0  0  0
    1.3848   -2.4902   -1.0654 H   0  0  0  0  0  0  0  0  0  0  0  0
   -2.6030   -5.5055   -0.9229 H   0  0  0  0  0  0  0  0  0  0  0  0
    1.6517   -4.9113   -0.6174 H   0  0  0  0  0  0  0  0  0  0  0  0
   -0.3119   -6.4045   -0.5453 H   0  0  0  0  0  0  0  0  0  0  0  0
    0.2100    2.7902   -1.2977 N   0  0  0  0  0  0  0  0  0  0  0  0
    0.8969    4.0102   -1.6562 C   0  0  2  0  0  0  0  0  0  0  0  0
    1.4848    4.6097   -0.3855 C   0  0  0  0  0  0  0  0  0  0  0  0
    1.0557    4.3540    0.7377 O   0  0  0  0  0  0  0  0  0  0  0  0
   -0.0416    4.9939   -2.3375 C   0  0  0  0  0  0  0  0  0  0  0  0
   -0.7413    2.6574   -1.6279 H   0  0  0  0  0  0  0  0  0  0  0  0
    1.7077    3.7284   -2.3368 H   0  0  0  0  0  0  0  0  0  0  0  0
   -0.8606    5.2878   -1.6708 H   0  0  0  0  0  0  0  0  0  0  0  0
    0.4867    5.9060   -2.6340 H   0  0  0  0  0  0  0  0  0  0  0  0
   -0.4865    4.5505   -3.2348 H   0  0  0  0  0  0  0  0  0  0  0  0
    2.5171    5.4970   -0.6562 N   0  0  0  0  0  0  0  0  0  0  0  0
    3.2285    6.2056    0.3819 C   0  0  0  0  0  0  0  0  0  0  0  0
    2.8194    5.6339   -1.6162 H   0  0  0  0  0  0  0  0  0  0  0  0
    2.7522    7.1824    0.5525 H   0  0  0  0  0  0  0  0  0  0  0  0
    3.2020    5.6176    1.3113 H   0  0  0  0  0  0  0  0  0  0  0  0
    4.2734    6.3563    0.0730 H   0  0  0  0  0  0  0  0  0  0  0  0
 29 30  2  0  0  0  0
 27 29  1  0  0  0  0
 28 30  1  0  0  0  0
 24 27  2  0  0  0  0
 26 28  2  0  0  0  0
 22 23  2  0  0  0  0
 23 25  1  0  0  0  0
 22 24  1  0  0  0  0
 24 26  1  0  0  0  0
 21 22  1  0  0  0  0
 25 26  1  0  0  0  0
  1  3  1  0  0  0  0
  1  7  1  0  0  0  0
  1  2  2  0  0  0  0
 42 43  1  0  0  0  0
 43 51  1  0  0  0  0
 43 44  2  0  0  0  0
  8  9  1  0  0  0  0
  9 17  1  0  0  0  0
  9 10  2  0  0  0  0
 18 19  1  0  0  0  0
 19 41  1  0  0  0  0
 19 20  2  0  0  0  0
 42 45  1  0  0  0  0
  8 11  1  0  0  0  0
 51 52  1  0  0  0  0
 18 21  1  0  0  0  0
 41 42  1  0  0  0  0
  7  8  1  0  0  0  0
 17 18  1  0  0  0  0
 29 39  1  0  0  0  0
 30 40  1  0  0  0  0
 27 37  1  0  0  0  0
 28 38  1  0  0  0  0
 23 35  1  0  0  0  0
  3  4  1  0  0  0  0
  3  5  1  0  0  0  0
  3  6  1  0  0  0  0
 45 48  1  0  0  0  0
 45 49  1  0  0  0  0
 45 50  1  0  0  0  0
 11 14  1  0  0  0  0
 11 15  1  0  0  0  0
 11 16  1  0  0  0  0
 52 54  1  0  0  0  0
 52 55  1  0  0  0  0
 52 56  1  0  0  0  0
 21 33  1  0  0  0  0
 21 34  1  0  0  0  0
 42 47  1  0  0  0  0
  8 13  1  0  0  0  0
 18 32  1  0  0  0  0
 25 36  1  0  0  0  0
 51 53  1  0  0  0  0
  7 12  1  0  0  0  0
 41 46  1  0  0  0  0
 17 31  1  0  0  0  0
M  END
$$$$

  -OEChem-05262214473D

 56 57  0     1  0  0  0  0  0999 V2000
   -2.2900    0.3401    4.1553 C   0  0  0  0  0  0  0  0  0  0  0  0
   -1.3426   -0.2746    3.6796 O   0  0  0  0  0  0  0  0  0  0  0  0
   -2.7219    0.0577    5.5560 C   0  0  0  0  0  0  0  0  0  0  0  0
   -3.4815   -0.7386    5.6094 H   0  0  0  0  0  0  0  0  0  0  0  0
   -1.8906   -0.2899    6.1903 H   0  0  0  0  0  0  0  0  0  0  0  0
   -3.1599    0.9126    6.0956 H   0  0  0  0  0  0  0  0  0  0  0  0
   -3.0397    1.3125    3.5142 N   0  0  0  0  0  0  0  0  0  0  0  0
   -2.7928    1.7385    2.1618 C   0  0  2  0  0  0  0  0  0  0  0  0
   -1.4579    1.1532    1.7206 C   0  0  0  0  0  0  0  0  0  0  0  0
   -0.5858    0.8004    2.5118 O   0  0  0  0  0  0  0  0  0  0  0  0
   -2.7841    3.2553    2.0523 C   0  0  0  0  0  0  0  0  0  0  0  0
   -3.8047    1.7484    4.0260 H   0  0  0  0  0  0  0  0  0  0  0  0
   -3.5969    1.3201    1.5466 H   0  0  0  0  0  0  0  0  0  0  0  0
   -1.9850    3.6926    2.6620 H   0  0  0  0  0  0  0  0  0  0  0  0
   -2.6246    3.5776    1.0180 H   0  0  0  0  0  0  0  0  0  0  0  0
   -3.7342    3.6765    2.3981 H   0  0  0  0  0  0  0  0  0  0  0  0
   -1.3352    1.1101    0.3372 N   0  0  0  0  0  0  0  0  0  0  0  0
   -0.1579    0.6093   -0.3265 C   0  0  2  0  0  0  0  0  0  0  0  0
    0.7849    1.7908   -0.5249 C   0  0  0  0  0  0  0  0  0  0  0  0
    1.9958    1.7215   -0.3252 O   0  0  0  0  0  0  0  0  0  0  0  0
   -0.4863   -0.0427   -1.6745 C   0  0  0  0  0  0  0  0  0  0  0  0
   -1.2904   -1.3115   -1.5287 C   0  0  0  0  0  0  0  0  0  0  0  0
   -2.6577   -1.4136   -1.6422 C   0  0  0  0  0  0  0  0  0  0  0  0
   -0.7805   -2.6110   -1.2528 C   0  0  0  0  0  0  0  0  0  0  0  0
   -3.0002   -2.7245   -1.4457 N   0  0  0  0  0  0  0  0  0  0  0  0
   -1.8737   -3.4788   -1.2060 C   0  0  0  0  0  0  0  0  0  0  0  0
    0.5102   -3.1339   -1.0377 C   0  0  0  0  0  0  0  0  0  0  0  0
   -1.7402   -4.8488   -0.9538 C   0  0  0  0  0  0  0  0  0  0  0  0
    0.6589   -4.5024   -0.7845 C   0  0  0  0  0  0  0  0  0  0  0  0
   -0.4504   -5.3448   -0.7436 C   0  0  0  0  0  0  0  0  0  0  0  0
   -2.1183    1.4068   -0.2401 H   0  0  0  0  0  0  0  0  0  0  0  0
    0.3061   -0.1087    0.3599 H   0  0  0  0  0  0  0  0  0  0  0  0
    0.4374   -0.2526   -2.2307 H   0  0  0  0  0  0  0  0  0  0  0  0
   -1.0525    0.6522   -2.3088 H   0  0  0  0  0  0  0  0  0  0  0  0
   -3.4184   -0.6718   -1.8435 H   0  0  0  0  0  0  0  0  0  0  0  0
   -3.9432   -3.0870   -1.4728 H   0  0  0  0  0  0  0  0  0  0  0  0
    1.3848   -2.4902   -1.0654 H   0  0  0  0  0  0  0  0  0  0  0  0
   -2.6030   -5.5055   -0.9229 H   0  0  0  0  0  0  0  0  0  0  0  0
    1.6517   -4.9113   -0.6174 H   0  0  0  0  0  0  0  0  0  0  0  0
   -0.3119   -6.4045   -0.5453 H   0  0  0  0  0  0  0  0  0  0  0  0
    0.1192    2.9129   -0.9984 N   0  0  0  0  0  0  0  0  0  0  0  0
    0.7818    4.1630   -1.2934 C   0  0  2  0  0  0  0  0  0  0  0  0
    1.6387    4.5364   -0.0910 C   0  0  0  0  0  0  0  0  0  0  0  0
    1.4280    4.1080    1.0418 O   0  0  0  0  0  0  0  0  0  0  0  0
   -0.2226    5.2610   -1.6070 C   0  0  0  0  0  0  0  0  0  0  0  0
   -0.8841    2.8525   -1.1449 H   0  0  0  0  0  0  0  0  0  0  0  0
    1.4267    3.9823   -2.1602 H   0  0  0  0  0  0  0  0  0  0  0  0
   -0.8777    5.4562   -0.7501 H   0  0  0  0  0  0  0  0  0  0  0  0
    0.2816    6.2000   -1.8582 H   0  0  0  0  0  0  0  0  0  0  0  0
   -0.8578    4.9780   -2.4533 H   0  0  0  0  0  0  0  0  0  0  0  0
    2.6400    5.4380   -0.4235 N   0  0  0  0  0  0  0  0  0  0  0  0
    3.5773    5.9548    0.5462 C   0  0  0  0  0  0  0  0  0  0  0  0
    2.7530    5.7247   -1.3914 H   0  0  0  0  0  0  0  0  0  0  0  0
    3.1936    6.8987    0.9609 H   0  0  0  0  0  0  0  0  0  0  0  0
    3.7058    5.2234    1.3577 H   0  0  0  0  0  0  0  0  0  0  0  0
    4.5466    6.1358    0.0588 H   0  0  0  0  0  0  0  0  0  0  0  0
 29 30  2  0  0  0  0
 27 29  1  0  0  0  0
 28 30  1  0  0  0  0
 24 27  2  0  0  0  0
 26 28  2  0  0  0  0
 22 23  2  0  0  0  0
 23 25  1  0  0  0  0
 22 24  1  0  0  0  0
 24 26  1  0  0  0  0
 21 22  1  0  0  0  0
 25 26  1  0  0  0  0
  1  3  1  0  0  0  0
  1  7  1  0  0  0  0
  1  2  2  0  0  0  0
 42 43  1  0  0  0  0
 43 51  1  0  0  0  0
 43 44  2  0  0  0  0
  8  9  1  0  0  0  0
  9 17  1  0  0  0  0
  9 10  2  0  0  0  0
 18 19  1  0  0  0  0
 19 41  1  0  0  0  0
 19 20  2  0  0  0  0
 42 45  1  0  0  0  0
  8 11  1  0  0  0  0
 51 52  1  0  0  0  0
 18 21  1  0  0  0  0
 41 42  1  0  0  0  0
  7  8  1  0  0  0  0
 17 18  1  0  0  0  0
 29 39  1  0  0  0  0
 30 40  1  0  0  0  0
 27 37  1  0  0  0  0
 28 38  1  0  0  0  0
 23 35  1  0  0  0  0
  3  4  1  0  0  0  0
  3  5  1  0  0  0  0
  3  6  1  0  0  0  0
 45 48  1  0  0  0  0
 45 49  1  0  0  0  0
 45 50  1  0  0  0  0
 11 14  1  0  0  0  0
 11 15  1  0  0  0  0
 11 16  1  0  0  0  0
 52 54  1  0  0  0  0
 52 55  1  0  0  0  0
 52 56  1  0  0  0  0
 21 33  1  0  0  0  0
 21 34  1  0  0  0  0
 42 47  1  0  0  0  0
  8 13  1  0  0  0  0
 18 32  1  0  0  0  0
 25 36  1  0  0  0  0
 51 53  1  0  0  0  0
  7 12  1  0  0  0  0
 41 46  1  0  0  0  0
 17 31  1  0  0  0  0
M  END
$$$$

  -OEChem-05262214473D

 56 57  0     1  0  0  0  0  0999 V2000
   -2.2900    0.3401    4.1553 C   0  0  0  0  0  0  0  0  0  0  0  0
   -1.3426   -0.2746    3.6796 O   0  0  0  0  0  0  0  0  0  0  0  0
   -2.7219    0.0577    5.5560 C   0  0  0  0  0  0  0  0  0  0  0  0
   -3.4815   -0.7386    5.6094 H   0  0  0  0  0  0  0  0  0  0  0  0
   -1.8906   -0.2899    6.1903 H   0  0  0  0  0  0  0  0  0  0  0  0
   -3.1599    0.9126    6.0956 H   0  0  0  0  0  0  0  0  0  0  0  0
   -3.0397    1.3125    3.5142 N   0  0  0  0  0  0  0  0  0  0  0  0
   -2.7928    1.7385    2.1618 C   0  0  2  0  0  0  0  0  0  0  0  0
   -1.4579    1.1532    1.7206 C   0  0  0  0  0  0  0  0  0  0  0  0
   -0.5858    0.8004    2.5118 O   0  0  0  0  0  0  0  0  0  0  0  0
   -2.7841    3.2553    2.0523 C   0  0  0  0  0  0  0  0  0  0  0  0
   -3.8047    1.7484    4.0260 H   0  0  0  0  0  0  0  0  0  0  0  0
   -3.5969    1.3201    1.5466 H   0  0  0  0  0  0  0  0  0  0  0  0
   -1.9850    3.6926    2.6620 H   0  0  0  0  0  0  0  0  0  0  0  0
   -2.6246    3.5776    1.0180 H   0  0  0  0  0  0  0  0  0  0  0  0
   -3.7342    3.6765    2.3981 H   0  0  0  0  0  0  0  0  0  0  0  0
   -1.3352    1.1101    0.3372 N   0  0  0  0  0  0  0  0  0  0  0  0
   -0.1579    0.6093   -0.3265 C   0  0  2  0  0  0  0  0  0  0  0  0
    0.7849    1.7908   -0.5249 C   0  0  0  0  0  0  0  0  0  0  0  0
    2.0064    1.6687   -0.5889 O   0  0  0  0  0  0  0  0  0  0  0  0
   -0.4863   -0.0427   -1.6745 C   0  0  0  0  0  0  0  0  0  0  0  0
   -1.2904   -1.3115   -1.5287 C   0  0  0  0  0  0  0  0  0  0  0  0
   -2.6577   -1.4136   -1.6422 C   0  0  0  0  0  0  0  0  0  0  0  0
   -0.7805   -2.6110   -1.2528 C   0  0  0  0  0  0  0  0  0  0  0  0
   -3.0002   -2.7245   -1.4457 N   0  0  0  0  0  0  0  0  0  0  0  0
   -1.8737   -3.4788   -1.2060 C   0  0  0  0  0  0  0  0  0  0  0  0
    0.5102   -3.1339   -1.0377 C   0  0  0  0  0  0  0  0  0  0  0  0
   -1.7402   -4.8488   -0.9538 C   0  0  0  0  0  0  0  0  0  0  0  0
    0.6589   -4.5024   -0.7845 C   0  0  0  0  0  0  0  0  0  0  0  0
   -0.4504   -5.3448   -0.7436 C   0  0  0  0  0  0  0  0  0  0  0  0
   -2.1183    1.4068   -0.2401 H   0  0  0  0  0  0  0  0  0  0  0  0
    0.3061   -0.1087    0.3599 H   0  0  0  0  0  0  0  0  0  0  0  0
    0.4374   -0.2526   -2.2307 H   0  0  0  0  0  0  0  0  0  0  0  0
   -1.0525    0.6522   -2.3088 H   0  0  0  0  0  0  0  0  0  0  0  0
   -3.4184   -0.6718   -1.8435 H   0  0  0  0  0  0  0  0  0  0  0  0
   -3.9432   -3.0870   -1.4728 H   0  0  0  0  0  0  0  0  0  0  0  0
    1.3848   -2.4902   -1.0654 H   0  0  0  0  0  0  0  0  0  0  0  0
   -2.6030   -5.5055   -0.9229 H   0  0  0  0  0  0  0  0  0  0  0  0
    1.6517   -4.9113   -0.6174 H   0  0  0  0  0  0  0  0  0  0  0  0
   -0.3119   -6.4045   -0.5453 H   0  0  0  0  0  0  0  0  0  0  0  0
    0.0957    2.9866   -0.6714 N   0  0  0  0  0  0  0  0  0  0  0  0
    0.7485    4.2564   -0.8955 C   0  0  2  0  0  0  0  0  0  0  0  0
    1.8439    4.4132    0.1509 C   0  0  0  0  0  0  0  0  0  0  0  0
    1.8403    3.8091    1.2215 O   0  0  0  0  0  0  0  0  0  0  0  0
   -0.2419    5.4082   -0.8224 C   0  0  0  0  0  0  0  0  0  0  0  0
   -0.9185    2.9684   -0.6185 H   0  0  0  0  0  0  0  0  0  0  0  0
    1.1993    4.2087   -1.8927 H   0  0  0  0  0  0  0  0  0  0  0  0
   -0.7039    5.4720    0.1695 H   0  0  0  0  0  0  0  0  0  0  0  0
    0.2489    6.3667   -1.0206 H   0  0  0  0  0  0  0  0  0  0  0  0
   -1.0453    5.2785   -1.5555 H   0  0  0  0  0  0  0  0  0  0  0  0
    2.8035    5.3396   -0.2329 N   0  0  0  0  0  0  0  0  0  0  0  0
    3.9387    5.6746    0.5948 C   0  0  0  0  0  0  0  0  0  0  0  0
    2.7369    5.7787   -1.1464 H   0  0  0  0  0  0  0  0  0  0  0  0
    3.6924    6.5444    1.2214 H   0  0  0  0  0  0  0  0  0  0  0  0
    4.1885    4.8182    1.2384 H   0  0  0  0  0  0  0  0  0  0  0  0
    4.8003    5.9160   -0.0451 H   0  0  0  0  0  0  0  0  0  0  0  0
 29 30  2  0  0  0  0
 27 29  1  0  0  0  0
 28 30  1  0  0  0  0
 24 27  2  0  0  0  0
 26 28  2  0  0  0  0
 22 23  2  0  0  0  0
 23 25  1  0  0  0  0
 22 24  1  0  0  0  0
 24 26  1  0  0  0  0
 21 22  1  0  0  0  0
 25 26  1  0  0  0  0
  1  3  1  0  0  0  0
  1  7  1  0  0  0  0
  1  2  2  0  0  0  0
 42 43  1  0  0  0  0
 43 51  1  0  0  0  0
 43 44  2  0  0  0  0
  8  9  1  0  0  0  0
  9 17  1  0  0  0  0
  9 10  2  0  0  0  0
 18 19  1  0  0  0  0
 19 41  1  0  0  0  0
 19 20  2  0  0  0  0
 42 45  1  0  0  0  0
  8 11  1  0  0  0  0
 51 52  1  0  0  0  0
 18 21  1  0  0  0  0
 41 42  1  0  0  0  0
  7  8  1  0  0  0  0
 17 18  1  0  0  0  0
 29 39  1  0  0  0  0
 30 40  1  0  0  0  0
 27 37  1  0  0  0  0
 28 38  1  0  0  0  0
 23 35  1  0  0  0  0
  3  4  1  0  0  0  0
  3  5  1  0  0  0  0
  3  6  1  0  0  0  0
 45 48  1  0  0  0  0
 45 49  1  0  0  0  0
 45 50  1  0  0  0  0
 11 14  1  0  0  0  0
 11 15  1  0  0  0  0
 11 16  1  0  0  0  0
 52 54  1  0  0  0  0
 52 55  1  0  0  0  0
 52 56  1  0  0  0  0
 21 33  1  0  0  0  0
 21 34  1  0  0  0  0
 42 47  1  0  0  0  0
  8 13  1  0  0  0  0
 18 32  1  0  0  0  0
 25 36  1  0  0  0  0
 51 53  1  0  0  0  0
  7 12  1  0  0  0  0
 41 46  1  0  0  0  0
 17 31  1  0  0  0  0
M  END
$$$$

  -OEChem-05262214473D

 56 57  0     1  0  0  0  0  0999 V2000
   -2.2900    0.3401    4.1553 C   0  0  0  0  0  0  0  0  0  0  0  0
   -1.3426   -0.2746    3.6796 O   0  0  0  0  0  0  0  0  0  0  0  0
   -2.7219    0.0577    5.5560 C   0  0  0  0  0  0  0  0  0  0  0  0
   -3.4815   -0.7386    5.6094 H   0  0  0  0  0  0  0  0  0  0  0  0
   -1.8906   -0.2899    6.1903 H   0  0  0  0  0  0  0  0  0  0  0  0
   -3.1599    0.9126    6.0956 H   0  0  0  0  0  0  0  0  0  0  0  0
   -3.0397    1.3125    3.5142 N   0  0  0  0  0  0  0  0  0  0  0  0
   -2.7928    1.7385    2.1618 C   0  0  2  0  0  0  0  0  0  0  0  0
   -1.4579    1.1532    1.7206 C   0  0  0  0  0  0  0  0  0  0  0  0
   -0.5858    0.8004    2.5118 O   0  0  0  0  0  0  0  0  0  0  0  0
   -2.7841    3.2553    2.0523 C   0  0  0  0  0  0  0  0  0  0  0  0
   -3.8047    1.7484    4.0260 H   0  0  0  0  0  0  0  0  0  0  0  0
   -3.5969    1.3201    1.5466 H   0  0  0  0  0  0  0  0  0  0  0  0
   -1.9850    3.6926    2.6620 H   0  0  0  0  0  0  0  0  0  0  0  0
   -2.6246    3.5776    1.0180 H   0  0  0  0  0  0  0  0  0  0  0  0
   -3.7342    3.6765    2.3981 H   0  0  0  0  0  0  0  0  0  0  0  0
   -1.3352    1.1101    0.3372 N   0  0  0  0  0  0  0  0  0  0  0  0
   -0.1579    0.6093   -0.3265 C   0  0  2  0  0  0  0  0  0  0  0  0
    0.7849    1.7908   -0.5249 C   0  0  0  0  0  0  0  0  0  0  0  0
    1.9619    1.6597   -0.8542 O   0  0  0  0  0  0  0  0  0  0  0  0
   -0.4863   -0.0427   -1.6745 C   0  0  0  0  0  0  0  0  0  0  0  0
   -1.2904   -1.3115   -1.5287 C   0  0  0  0  0  0  0  0  0  0  0  0
   -2.6577   -1.4136   -1.6422 C   0  0  0  0  0  0  0  0  0  0  0  0
   -0.7805   -2.6110   -1.2528 C   0  0  0  0  0  0  0  0  0  0  0  0
   -3.0002   -2.7245   -1.4457 N   0  0  0  0  0  0  0  0  0  0  0  0
   -1.8737   -3.4788   -1.2060 C   0  0  0  0  0  0  0  0  0  0  0  0
    0.5102   -3.1339   -1.0377 C   0  0  0  0  0  0  0  0  0  0  0  0
   -1.7402   -4.8488   -0.9538 C   0  0  0  0  0  0  0  0  0  0  0  0
    0.6589   -4.5024   -0.7845 C   0  0  0  0  0  0  0  0  0  0  0  0
   -0.4504   -5.3448   -0.7436 C   0  0  0  0  0  0  0  0  0  0  0  0
   -2.1183    1.4068   -0.2401 H   0  0  0  0  0  0  0  0  0  0  0  0
    0.3061   -0.1087    0.3599 H   0  0  0  0  0  0  0  0  0  0  0  0
    0.4374   -0.2526   -2.2307 H   0  0  0  0  0  0  0  0  0  0  0  0
   -1.0525    0.6522   -2.3088 H   0  0  0  0  0  0  0  0  0  0  0  0
   -3.4184   -0.6718   -1.8435 H   0  0  0  0  0  0  0  0  0  0  0  0
   -3.9432   -3.0870   -1.4728 H   0  0  0  0  0  0  0  0  0  0  0  0
    1.3848   -2.4902   -1.0654 H   0  0  0  0  0  0  0  0  0  0  0  0
   -2.6030   -5.5055   -0.9229 H   0  0  0  0  0  0  0  0  0  0  0  0
    1.6517   -4.9113   -0.6174 H   0  0  0  0  0  0  0  0  0  0  0  0
   -0.3119   -6.4045   -0.5453 H   0  0  0  0  0  0  0  0  0  0  0  0
    0.1410    3.0062   -0.3391 N   0  0  0  0  0  0  0  0  0  0  0  0
    0.7993    4.2841   -0.4895 C   0  0  2  0  0  0  0  0  0  0  0  0
    2.0865    4.2487    0.3237 C   0  0  0  0  0  0  0  0  0  0  0  0
    2.2646    3.4778    1.2645 O   0  0  0  0  0  0  0  0  0  0  0  0
   -0.0982    5.4254   -0.0371 C   0  0  0  0  0  0  0  0  0  0  0  0
   -0.8423    2.9972   -0.0846 H   0  0  0  0  0  0  0  0  0  0  0  0
    1.0409    4.3922   -1.5525 H   0  0  0  0  0  0  0  0  0  0  0  0
   -0.3511    5.3342    1.0256 H   0  0  0  0  0  0  0  0  0  0  0  0
    0.3911    6.3948   -0.1783 H   0  0  0  0  0  0  0  0  0  0  0  0
   -1.0363    5.4313   -0.6026 H   0  0  0  0  0  0  0  0  0  0  0  0
    2.9963    5.2085   -0.0972 N   0  0  0  0  0  0  0  0  0  0  0  0
    4.2881    5.3839    0.5243 C   0  0  0  0  0  0  0  0  0  0  0  0
    2.7724    5.7922   -0.8978 H   0  0  0  0  0  0  0  0  0  0  0  0
    4.2145    6.1437    1.3163 H   0  0  0  0  0  0  0  0  0  0  0  0
    4.6172    4.4296    0.9614 H   0  0  0  0  0  0  0  0  0  0  0  0
    5.0171    5.7117   -0.2315 H   0  0  0  0  0  0  0  0  0  0  0  0
 29 30  2  0  0  0  0
 27 29  1  0  0  0  0
 28 30  1  0  0  0  0
 24 27  2  0  0  0  0
 26 28  2  0  0  0  0
 22 23  2  0  0  0  0
 23 25  1  0  0  0  0
 22 24  1  0  0  0  0
 24 26  1  0  0  0  0
 21 22  1  0  0  0  0
 25 26  1  0  0  0  0
  1  3  1  0  0  0  0
  1  7  1  0  0  0  0
  1  2  2  0  0  0  0
 42 43  1  0  0  0  0
 43 51  1  0  0  0  0
 43 44  2  0  0  0  0
  8  9  1  0  0  0  0
  9 17  1  0  0  0  0
  9 10  2  0  0  0  0
 18 19  1  0  0  0  0
 19 41  1  0  0  0  0
 19 20  2  0  0  0  0
 42 45  1  0  0  0  0
  8 11  1  0  0  0  0
 51 52  1  0  0  0  0
 18 21  1  0  0  0  0
 41 42  1  0  0  0  0
  7  8  1  0  0  0  0
 17 18  1  0  0  0  0
 29 39  1  0  0  0  0
 30 40  1  0  0  0  0
 27 37  1  0  0  0  0
 28 38  1  0  0  0  0
 23 35  1  0  0  0  0
  3  4  1  0  0  0  0
  3  5  1  0  0  0  0
  3  6  1  0  0  0  0
 45 48  1  0  0  0  0
 45 49  1  0  0  0  0
 45 50  1  0  0  0  0
 11 14  1  0  0  0  0
 11 15  1  0  0  0  0
 11 16  1  0  0  0  0
 52 54  1  0  0  0  0
 52 55  1  0  0  0  0
 52 56  1  0  0  0  0
 21 33  1  0  0  0  0
 21 34  1  0  0  0  0
 42 47  1  0  0  0  0
  8 13  1  0  0  0  0
 18 32  1  0  0  0  0
 25 36  1  0  0  0  0
 51 53  1  0  0  0  0
  7 12  1  0  0  0  0
 41 46  1  0  0  0  0
 17 31  1  0  0  0  0
M  END
$$$$

  -OEChem-05262214473D

 56 57  0     1  0  0  0  0  0999 V2000
   -2.2900    0.3401    4.1553 C   0  0  0  0  0  0  0  0  0  0  0  0
   -1.3426   -0.2746    3.6796 O   0  0  0  0  0  0  0  0  0  0  0  0
   -2.7219    0.0577    5.5560 C   0  0  0  0  0  0  0  0  0  0  0  0
   -3.4815   -0.7386    5.6094 H   0  0  0  0  0  0  0  0  0  0  0  0
   -1.8906   -0.2899    6.1903 H   0  0  0  0  0  0  0  0  0  0  0  0
   -3.1599    0.9126    6.0956 H   0  0  0  0  0  0  0  0  0  0  0  0
   -3.0397    1.3125    3.5142 N   0  0  0  0  0  0  0  0  0  0  0  0
   -2.7928    1.7385    2.1618 C   0  0  2  0  0  0  0  0  0  0  0  0
   -1.4579    1.1532    1.7206 C   0  0  0  0  0  0  0  0  0  0  0  0
   -0.5858    0.8004    2.5118 O   0  0  0  0  0  0  0  0  0  0  0  0
   -2.7841    3.2553    2.0523 C   0  0  0  0  0  0  0  0  0  0  0  0
   -3.8047    1.7484    4.0260 H   0  0  0  0  0  0  0  0  0  0  0  0
   -3.5969    1.3201    1.5466 H   0  0  0  0  0  0  0  0  0  0  0  0
   -1.9850    3.6926    2.6620 H   0  0  0  0  0  0  0  0  0  0  0  0
   -2.6246    3.5776    1.0180 H   0  0  0  0  0  0  0  0  0  0  0  0
   -3.7342    3.6765    2.3981 H   0  0  0  0  0  0  0  0  0  0  0  0
   -1.3352    1.1101    0.3372 N   0  0  0  0  0  0  0  0  0  0  0  0
   -0.1579    0.6093   -0.3265 C   0  0  2  0  0  0  0  0  0  0  0  0
    0.7849    1.7908   -0.5249 C   0  0  0  0  0  0  0  0  0  0  0  0
    1.8654    1.6948   -1.1030 O   0  0  0  0  0  0  0  0  0  0  0  0
   -0.4863   -0.0427   -1.6745 C   0  0  0  0  0  0  0  0  0  0  0  0
   -1.2904   -1.3115   -1.5287 C   0  0  0  0  0  0  0  0  0  0  0  0
   -2.6577   -1.4136   -1.6422 C   0  0  0  0  0  0  0  0  0  0  0  0
   -0.7805   -2.6110   -1.2528 C   0  0  0  0  0  0  0  0  0  0  0  0
   -3.0002   -2.7245   -1.4457 N   0  0  0  0  0  0  0  0  0  0  0  0
   -1.8737   -3.4788   -1.2060 C   0  0  0  0  0  0  0  0  0  0  0  0
    0.5102   -3.1339   -1.0377 C   0  0  0  0  0  0  0  0  0  0  0  0
   -1.7402   -4.8488   -0.9538 C   0  0  0  0  0  0  0  0  0  0  0  0
    0.6589   -4.5024   -0.7845 C   0  0  0  0  0  0  0  0  0  0  0  0
   -0.4504   -5.3448   -0.7436 C   0  0  0  0  0  0  0  0  0  0  0  0
   -2.1183    1.4068   -0.2401 H   0  0  0  0  0  0  0  0  0  0  0  0
    0.3061   -0.1087    0.3599 H   0  0  0  0  0  0  0  0  0  0  0  0
    0.4374   -0.2526   -2.2307 H   0  0  0  0  0  0  0  0  0  0  0  0
   -1.0525    0.6522   -2.3088 H   0  0  0  0  0  0  0  0  0  0  0  0
   -3.4184   -0.6718   -1.8435 H   0  0  0  0  0  0  0  0  0  0  0  0
   -3.9432   -3.0870   -1.4728 H   0  0  0  0  0  0  0  0  0  0  0  0
    1.3848   -2.4902   -1.0654 H   0  0  0  0  0  0  0  0  0  0  0  0
   -2.6030   -5.5055   -0.9229 H   0  0  0  0  0  0  0  0  0  0  0  0
    1.6517   -4.9113   -0.6174 H   0  0  0  0  0  0  0  0  0  0  0  0
   -0.3119   -6.4045   -0.5453 H   0  0  0  0  0  0  0  0  0  0  0  0
    0.2522    2.9705   -0.0240 N   0  0  0  0  0  0  0  0  0  0  0  0
    0.9307    4.2441   -0.1031 C   0  0  2  0  0  0  0  0  0  0  0  0
    2.3499    4.0539    0.4156 C   0  0  0  0  0  0  0  0  0  0  0  0
    2.6719    3.1366    1.1679 O   0  0  0  0  0  0  0  0  0  0  0  0
    0.1987    5.3115    0.6954 C   0  0  0  0  0  0  0  0  0  0  0  0
   -0.6606    2.9370    0.4205 H   0  0  0  0  0  0  0  0  0  0  0  0
    0.9624    4.5204   -1.1626 H   0  0  0  0  0  0  0  0  0  0  0  0
    0.1568    5.0522    1.7596 H   0  0  0  0  0  0  0  0  0  0  0  0
    0.6982    6.2823    0.6113 H   0  0  0  0  0  0  0  0  0  0  0  0
   -0.8312    5.4260    0.3405 H   0  0  0  0  0  0  0  0  0  0  0  0
    3.2053    5.0537   -0.0259 N   0  0  0  0  0  0  0  0  0  0  0  0
    4.6017    5.1026    0.3396 C   0  0  0  0  0  0  0  0  0  0  0  0
    2.8569    5.7642   -0.6627 H   0  0  0  0  0  0  0  0  0  0  0  0
    4.7243    5.7239    1.2391 H   0  0  0  0  0  0  0  0  0  0  0  0
    4.9626    4.0841    0.5458 H   0  0  0  0  0  0  0  0  0  0  0  0
    5.1822    5.5369   -0.4877 H   0  0  0  0  0  0  0  0  0  0  0  0
 29 30  2  0  0  0  0
 27 29  1  0  0  0  0
 28 30  1  0  0  0  0
 24 27  2  0  0  0  0
 26 28  2  0  0  0  0
 22 23  2  0  0  0  0
 23 25  1  0  0  0  0
 22 24  1  0  0  0  0
 24 26  1  0  0  0  0
 21 22  1  0  0  0  0
 25 26  1  0  0  0  0
  1  3  1  0  0  0  0
  1  7  1  0  0  0  0
  1  2  2  0  0  0  0
 42 43  1  0  0  0  0
 43 51  1  0  0  0  0
 43 44  2  0  0  0  0
  8  9  1  0  0  0  0
  9 17  1  0  0  0  0
  9 10  2  0  0  0  0
 18 19  1  0  0  0  0
 19 41  1  0  0  0  0
 19 20  2  0  0  0  0
 42 45  1  0  0  0  0
  8 11  1  0  0  0  0
 51 52  1  0  0  0  0
 18 21  1  0  0  0  0
 41 42  1  0  0  0  0
  7  8  1  0  0  0  0
 17 18  1  0  0  0  0
 29 39  1  0  0  0  0
 30 40  1  0  0  0  0
 27 37  1  0  0  0  0
 28 38  1  0  0  0  0
 23 35  1  0  0  0  0
  3  4  1  0  0  0  0
  3  5  1  0  0  0  0
  3  6  1  0  0  0  0
 45 48  1  0  0  0  0
 45 49  1  0  0  0  0
 45 50  1  0  0  0  0
 11 14  1  0  0  0  0
 11 15  1  0  0  0  0
 11 16  1  0  0  0  0
 52 54  1  0  0  0  0
 52 55  1  0  0  0  0
 52 56  1  0  0  0  0
 21 33  1  0  0  0  0
 21 34  1  0  0  0  0
 42 47  1  0  0  0  0
  8 13  1  0  0  0  0
 18 32  1  0  0  0  0
 25 36  1  0  0  0  0
 51 53  1  0  0  0  0
  7 12  1  0  0  0  0
 41 46  1  0  0  0  0
 17 31  1  0  0  0  0
M  END
$$$$

  -OEChem-05262214473D

 56 57  0     1  0  0  0  0  0999 V2000
   -2.2900    0.3401    4.1553 C   0  0  0  0  0  0  0  0  0  0  0  0
   -1.3426   -0.2746    3.6796 O   0  0  0  0  0  0  0  0  0  0  0  0
   -2.7219    0.0577    5.5560 C   0  0  0  0  0  0  0  0  0  0  0  0
   -3.4815   -0.7386    5.6094 H   0  0  0  0  0  0  0  0  0  0  0  0
   -1.8906   -0.2899    6.1903 H   0  0  0  0  0  0  0  0  0  0  0  0
   -3.1599    0.9126    6.0956 H   0  0  0  0  0  0  0  0  0  0  0  0
   -3.0397    1.3125    3.5142 N   0  0  0  0  0  0  0  0  0  0  0  0
   -2.7928    1.7385    2.1618 C   0  0  2  0  0  0  0  0  0  0  0  0
   -1.4579    1.1532    1.7206 C   0  0  0  0  0  0  0  0  0  0  0  0
   -0.5858    0.8004    2.5118 O   0  0  0  0  0  0  0  0  0  0  0  0
   -2.7841    3.2553    2.0523 C   0  0  0  0  0  0  0  0  0  0  0  0
   -3.8047    1.7484    4.0260 H   0  0  0  0  0  0  0  0  0  0  0  0
   -3.5969    1.3201    1.5466 H   0  0  0  0  0  0  0  0  0  0  0  0
   -1.9850    3.6926    2.6620 H   0  0  0  0  0  0  0  0  0  0  0  0
   -2.6246    3.5776    1.0180 H   0  0  0  0  0  0  0  0  0  0  0  0
   -3.7342    3.6765    2.3981 H   0  0  0  0  0  0  0  0  0  0  0  0
   -1.3352    1.1101    0.3372 N   0  0  0  0  0  0  0  0  0  0  0  0
   -0.1579    0.6093   -0.3265 C   0  0  2  0  0  0  0  0  0  0  0  0
    0.7849    1.7908   -0.5249 C   0  0  0  0  0  0  0  0  0  0  0  0
    1.7235    1.7719   -1.3184 O   0  0  0  0  0  0  0  0  0  0  0  0
   -0.4863   -0.0427   -1.6745 C   0  0  0  0  0  0  0  0  0  0  0  0
   -1.2904   -1.3115   -1.5287 C   0  0  0  0  0  0  0  0  0  0  0  0
   -2.6577   -1.4136   -1.6422 C   0  0  0  0  0  0  0  0  0  0  0  0
   -0.7805   -2.6110   -1.2528 C   0  0  0  0  0  0  0  0  0  0  0  0
   -3.0002   -2.7245   -1.4457 N   0  0  0  0  0  0  0  0  0  0  0  0
   -1.8737   -3.4788   -1.2060 C   0  0  0  0  0  0  0  0  0  0  0  0
    0.5102   -3.1339   -1.0377 C   0  0  0  0  0  0  0  0  0  0  0  0
   -1.7402   -4.8488   -0.9538 C   0  0  0  0  0  0  0  0  0  0  0  0
    0.6589   -4.5024   -0.7845 C   0  0  0  0  0  0  0  0  0  0  0  0
   -0.4504   -5.3448   -0.7436 C   0  0  0  0  0  0  0  0  0  0  0  0
   -2.1183    1.4068   -0.2401 H   0  0  0  0  0  0  0  0  0  0  0  0
    0.3061   -0.1087    0.3599 H   0  0  0  0  0  0  0  0  0  0  0  0
    0.4374   -0.2526   -2.2307 H   0  0  0  0  0  0  0  0  0  0  0  0
   -1.0525    0.6522   -2.3088 H   0  0  0  0  0  0  0  0  0  0  0  0
   -3.4184   -0.6718   -1.8435 H   0  0  0  0  0  0  0  0  0  0  0  0
   -3.9432   -3.0870   -1.4728 H   0  0  0  0  0  0  0  0  0  0  0  0
    1.3848   -2.4902   -1.0654 H   0  0  0  0  0  0  0  0  0  0  0  0
   -2.6030   -5.5055   -0.9229 H   0  0  0  0  0  0  0  0  0  0  0  0
    1.6517   -4.9113   -0.6174 H   0  0  0  0  0  0  0  0  0  0  0  0
   -0.3119   -6.4045   -0.5453 H   0  0  0  0  0  0  0  0  0  0  0  0
    0.4215    2.8818    0.2523 N   0  0  0  0  0  0  0  0  0  0  0  0
    1.1338    4.1392    0.2374 C   0  0  2  0  0  0  0  0  0  0  0  0
    2.6163    3.8421    0.4203 C   0  0  0  0  0  0  0  0  0  0  0  0
    3.0344    2.8087    0.9384 O   0  0  0  0  0  0  0  0  0  0  0  0
    0.6286    5.0743    1.3252 C   0  0  0  0  0  0  0  0  0  0  0  0
   -0.3858    2.7919    0.8622 H   0  0  0  0  0  0  0  0  0  0  0  0
    0.9690    4.5844   -0.7498 H   0  0  0  0  0  0  0  0  0  0  0  0
    0.7851    4.6452    2.3216 H   0  0  0  0  0  0  0  0  0  0  0  0
    1.1495    6.0369    1.2943 H   0  0  0  0  0  0  0  0  0  0  0  0
   -0.4442    5.2631    1.2095 H   0  0  0  0  0  0  0  0  0  0  0  0
    3.4163    4.8857   -0.0237 N   0  0  0  0  0  0  0  0  0  0  0  0
    4.8581    4.8499    0.0533 C   0  0  0  0  0  0  0  0  0  0  0  0
    2.9848    5.6967   -0.4571 H   0  0  0  0  0  0  0  0  0  0  0  0
    5.1871    5.3136    0.9950 H   0  0  0  0  0  0  0  0  0  0  0  0
    5.2012    3.8054    0.0197 H   0  0  0  0  0  0  0  0  0  0  0  0
    5.2844    5.4035   -0.7963 H   0  0  0  0  0  0  0  0  0  0  0  0
 29 30  2  0  0  0  0
 27 29  1  0  0  0  0
 28 30  1  0  0  0  0
 24 27  2  0  0  0  0
 26 28  2  0  0  0  0
 22 23  2  0  0  0  0
 23 25  1  0  0  0  0
 22 24  1  0  0  0  0
 24 26  1  0  0  0  0
 21 22  1  0  0  0  0
 25 26  1  0  0  0  0
  1  3  1  0  0  0  0
  1  7  1  0  0  0  0
  1  2  2  0  0  0  0
 42 43  1  0  0  0  0
 43 51  1  0  0  0  0
 43 44  2  0  0  0  0
  8  9  1  0  0  0  0
  9 17  1  0  0  0  0
  9 10  2  0  0  0  0
 18 19  1  0  0  0  0
 19 41  1  0  0  0  0
 19 20  2  0  0  0  0
 42 45  1  0  0  0  0
  8 11  1  0  0  0  0
 51 52  1  0  0  0  0
 18 21  1  0  0  0  0
 41 42  1  0  0  0  0
  7  8  1  0  0  0  0
 17 18  1  0  0  0  0
 29 39  1  0  0  0  0
 30 40  1  0  0  0  0
 27 37  1  0  0  0  0
 28 38  1  0  0  0  0
 23 35  1  0  0  0  0
  3  4  1  0  0  0  0
  3  5  1  0  0  0  0
  3  6  1  0  0  0  0
 45 48  1  0  0  0  0
 45 49  1  0  0  0  0
 45 50  1  0  0  0  0
 11 14  1  0  0  0  0
 11 15  1  0  0  0  0
 11 16  1  0  0  0  0
 52 54  1  0  0  0  0
 52 55  1  0  0  0  0
 52 56  1  0  0  0  0
 21 33  1  0  0  0  0
 21 34  1  0  0  0  0
 42 47  1  0  0  0  0
  8 13  1  0  0  0  0
 18 32  1  0  0  0  0
 25 36  1  0  0  0  0
 51 53  1  0  0  0  0
  7 12  1  0  0  0  0
 41 46  1  0  0  0  0
 17 31  1  0  0  0  0
M  END
$$$$

  -OEChem-05262214473D

 56 57  0     1  0  0  0  0  0999 V2000
   -2.2900    0.3401    4.1553 C   0  0  0  0  0  0  0  0  0  0  0  0
   -1.3426   -0.2746    3.6796 O   0  0  0  0  0  0  0  0  0  0  0  0
   -2.7219    0.0577    5.5560 C   0  0  0  0  0  0  0  0  0  0  0  0
   -3.4815   -0.7386    5.6094 H   0  0  0  0  0  0  0  0  0  0  0  0
   -1.8906   -0.2899    6.1903 H   0  0  0  0  0  0  0  0  0  0  0  0
   -3.1599    0.9126    6.0956 H   0  0  0  0  0  0  0  0  0  0  0  0
   -3.0397    1.3125    3.5142 N   0  0  0  0  0  0  0  0  0  0  0  0
   -2.7928    1.7385    2.1618 C   0  0  2  0  0  0  0  0  0  0  0  0
   -1.4579    1.1532    1.7206 C   0  0  0  0  0  0  0  0  0  0  0  0
   -0.5858    0.8004    2.5118 O   0  0  0  0  0  0  0  0  0  0  0  0
   -2.7841    3.2553    2.0523 C   0  0  0  0  0  0  0  0  0  0  0  0
   -3.8047    1.7484    4.0260 H   0  0  0  0  0  0  0  0  0  0  0  0
   -3.5969    1.3201    1.5466 H   0  0  0  0  0  0  0  0  0  0  0  0
   -1.9850    3.6926    2.6620 H   0  0  0  0  0  0  0  0  0  0  0  0
   -2.6246    3.5776    1.0180 H   0  0  0  0  0  0  0  0  0  0  0  0
   -3.7342    3.6765    2.3981 H   0  0  0  0  0  0  0  0  0  0  0  0
   -1.3352    1.1101    0.3372 N   0  0  0  0  0  0  0  0  0  0  0  0
   -0.1579    0.6093   -0.3265 C   0  0  2  0  0  0  0  0  0  0  0  0
    0.7849    1.7908   -0.5249 C   0  0  0  0  0  0  0  0  0  0  0  0
    1.5459    1.8856   -1.4856 O   0  0  0  0  0  0  0  0  0  0  0  0
   -0.4863   -0.0427   -1.6745 C   0  0  0  0  0  0  0  0  0  0  0  0
   -1.2904   -1.3115   -1.5287 C   0  0  0  0  0  0  0  0  0  0  0  0
   -2.6577   -1.4136   -1.6422 C   0  0  0  0  0  0  0  0  0  0  0  0
   -0.7805   -2.6110   -1.2528 C   0  0  0  0  0  0  0  0  0  0  0  0
   -3.0002   -2.7245   -1.4457 N   0  0  0  0  0  0  0  0  0  0  0  0
   -1.8737   -3.4788   -1.2060 C   0  0  0  0  0  0  0  0  0  0  0  0
    0.5102   -3.1339   -1.0377 C   0  0  0  0  0  0  0  0  0  0  0  0
   -1.7402   -4.8488   -0.9538 C   0  0  0  0  0  0  0  0  0  0  0  0
    0.6589   -4.5024   -0.7845 C   0  0  0  0  0  0  0  0  0  0  0  0
   -0.4504   -5.3448   -0.7436 C   0  0  0  0  0  0  0  0  0  0  0  0
   -2.1183    1.4068   -0.2401 H   0  0  0  0  0  0  0  0  0  0  0  0
    0.3061   -0.1087    0.3599 H   0  0  0  0  0  0  0  0  0  0  0  0
    0.4374   -0.2526   -2.2307 H   0  0  0  0  0  0  0  0  0  0  0  0
   -1.0525    0.6522   -2.3088 H   0  0  0  0  0  0  0  0  0  0  0  0
   -3.4184   -0.6718   -1.8435 H   0  0  0  0  0  0  0  0  0  0  0  0
   -3.9432   -3.0870   -1.4728 H   0  0  0  0  0  0  0  0  0  0  0  0
    1.3848   -2.4902   -1.0654 H   0  0  0  0  0  0  0  0  0  0  0  0
   -2.6030   -5.5055   -0.9229 H   0  0  0  0  0  0  0  0  0  0  0  0
    1.6517   -4.9113   -0.6174 H   0  0  0  0  0  0  0  0  0  0  0  0
   -0.3119   -6.4045   -0.5453 H   0  0  0  0  0  0  0  0  0  0  0  0
    0.6375    2.7462    0.4710 N   0  0  0  0  0  0  0  0  0  0  0  0
    1.3947    3.9766    0.5088 C   0  0  2  0  0  0  0  0  0  0  0  0
    2.8674    3.6279    0.3376 C   0  0  0  0  0  0  0  0  0  0  0  0
    3.3275    2.5166    0.5914 O   0  0  0  0  0  0  0  0  0  0  0  0
    1.1621    4.7298    1.8093 C   0  0  0  0  0  0  0  0  0  0  0  0
   -0.0366    2.5718    1.2106 H   0  0  0  0  0  0  0  0  0  0  0  0
    1.0604    4.5800   -0.3422 H   0  0  0  0  0  0  0  0  0  0  0  0
    1.4911    4.1409    2.6733 H   0  0  0  0  0  0  0  0  0  0  0  0
    1.7141    5.6754    1.8243 H   0  0  0  0  0  0  0  0  0  0  0  0
    0.0985    4.9536    1.9451 H   0  0  0  0  0  0  0  0  0  0  0  0
    3.6149    4.7159   -0.0908 N   0  0  0  0  0  0  0  0  0  0  0  0
    5.0398    4.6431   -0.3151 C   0  0  0  0  0  0  0  0  0  0  0  0
    3.1473    5.5942   -0.2949 H   0  0  0  0  0  0  0  0  0  0  0  0
    5.5714    4.9407    0.6008 H   0  0  0  0  0  0  0  0  0  0  0  0
    5.3168    3.6122   -0.5810 H   0  0  0  0  0  0  0  0  0  0  0  0
    5.3168    5.3206   -1.1362 H   0  0  0  0  0  0  0  0  0  0  0  0
 29 30  2  0  0  0  0
 27 29  1  0  0  0  0
 28 30  1  0  0  0  0
 24 27  2  0  0  0  0
 26 28  2  0  0  0  0
 22 23  2  0  0  0  0
 23 25  1  0  0  0  0
 22 24  1  0  0  0  0
 24 26  1  0  0  0  0
 21 22  1  0  0  0  0
 25 26  1  0  0  0  0
  1  3  1  0  0  0  0
  1  7  1  0  0  0  0
  1  2  2  0  0  0  0
 42 43  1  0  0  0  0
 43 51  1  0  0  0  0
 43 44  2  0  0  0  0
  8  9  1  0  0  0  0
  9 17  1  0  0  0  0
  9 10  2  0  0  0  0
 18 19  1  0  0  0  0
 19 41  1  0  0  0  0
 19 20  2  0  0  0  0
 42 45  1  0  0  0  0
  8 11  1  0  0  0  0
 51 52  1  0  0  0  0
 18 21  1  0  0  0  0
 41 42  1  0  0  0  0
  7  8  1  0  0  0  0
 17 18  1  0  0  0  0
 29 39  1  0  0  0  0
 30 40  1  0  0  0  0
 27 37  1  0  0  0  0
 28 38  1  0  0  0  0
 23 35  1  0  0  0  0
  3  4  1  0  0  0  0
  3  5  1  0  0  0  0
  3  6  1  0  0  0  0
 45 48  1  0  0  0  0
 45 49  1  0  0  0  0
 45 50  1  0  0  0  0
 11 14  1  0  0  0  0
 11 15  1  0  0  0  0
 11 16  1  0  0  0  0
 52 54  1  0  0  0  0
 52 55  1  0  0  0  0
 52 56  1  0  0  0  0
 21 33  1  0  0  0  0
 21 34  1  0  0  0  0
 42 47  1  0  0  0  0
  8 13  1  0  0  0  0
 18 32  1  0  0  0  0
 25 36  1  0  0  0  0
 51 53  1  0  0  0  0
  7 12  1  0  0  0  0
 41 46  1  0  0  0  0
 17 31  1  0  0  0  0
M  END
$$$$

  -OEChem-05262214473D

 56 57  0     1  0  0  0  0  0999 V2000
   -2.2900    0.3401    4.1553 C   0  0  0  0  0  0  0  0  0  0  0  0
   -1.3426   -0.2746    3.6796 O   0  0  0  0  0  0  0  0  0  0  0  0
   -2.7219    0.0577    5.5560 C   0  0  0  0  0  0  0  0  0  0  0  0
   -3.4815   -0.7386    5.6094 H   0  0  0  0  0  0  0  0  0  0  0  0
   -1.8906   -0.2899    6.1903 H   0  0  0  0  0  0  0  0  0  0  0  0
   -3.1599    0.9126    6.0956 H   0  0  0  0  0  0  0  0  0  0  0  0
   -3.0397    1.3125    3.5142 N   0  0  0  0  0  0  0  0  0  0  0  0
   -2.7928    1.7385    2.1618 C   0  0  2  0  0  0  0  0  0  0  0  0
   -1.4579    1.1532    1.7206 C   0  0  0  0  0  0  0  0  0  0  0  0
   -0.5858    0.8004    2.5118 O   0  0  0  0  0  0  0  0  0  0  0  0
   -2.7841    3.2553    2.0523 C   0  0  0  0  0  0  0  0  0  0  0  0
   -3.8047    1.7484    4.0260 H   0  0  0  0  0  0  0  0  0  0  0  0
   -3.5969    1.3201    1.5466 H   0  0  0  0  0  0  0  0  0  0  0  0
   -1.9850    3.6926    2.6620 H   0  0  0  0  0  0  0  0  0  0  0  0
   -2.6246    3.5776    1.0180 H   0  0  0  0  0  0  0  0  0  0  0  0
   -3.7342    3.6765    2.3981 H   0  0  0  0  0  0  0  0  0  0  0  0
   -1.3352    1.1101    0.3372 N   0  0  0  0  0  0  0  0  0  0  0  0
   -0.1579    0.6093   -0.3265 C   0  0  2  0  0  0  0  0  0  0  0  0
    0.7849    1.7908   -0.5249 C   0  0  0  0  0  0  0  0  0  0  0  0
    1.3445    2.0282   -1.5933 O   0  0  0  0  0  0  0  0  0  0  0  0
   -0.4863   -0.0427   -1.6745 C   0  0  0  0  0  0  0  0  0  0  0  0
   -1.2904   -1.3115   -1.5287 C   0  0  0  0  0  0  0  0  0  0  0  0
   -2.6577   -1.4136   -1.6422 C   0  0  0  0  0  0  0  0  0  0  0  0
   -0.7805   -2.6110   -1.2528 C   0  0  0  0  0  0  0  0  0  0  0  0
   -3.0002   -2.7245   -1.4457 N   0  0  0  0  0  0  0  0  0  0  0  0
   -1.8737   -3.4788   -1.2060 C   0  0  0  0  0  0  0  0  0  0  0  0
    0.5102   -3.1339   -1.0377 C   0  0  0  0  0  0  0  0  0  0  0  0
   -1.7402   -4.8488   -0.9538 C   0  0  0  0  0  0  0  0  0  0  0  0
    0.6589   -4.5024   -0.7845 C   0  0  0  0  0  0  0  0  0  0  0  0
   -0.4504   -5.3448   -0.7436 C   0  0  0  0  0  0  0  0  0  0  0  0
   -2.1183    1.4068   -0.2401 H   0  0  0  0  0  0  0  0  0  0  0  0
    0.3061   -0.1087    0.3599 H   0  0  0  0  0  0  0  0  0  0  0  0
    0.4374   -0.2526   -2.2307 H   0  0  0  0  0  0  0  0  0  0  0  0
   -1.0525    0.6522   -2.3088 H   0  0  0  0  0  0  0  0  0  0  0  0
   -3.4184   -0.6718   -1.8435 H   0  0  0  0  0  0  0  0  0  0  0  0
   -3.9432   -3.0870   -1.4728 H   0  0  0  0  0  0  0  0  0  0  0  0
    1.3848   -2.4902   -1.0654 H   0  0  0  0  0  0  0  0  0  0  0  0
   -2.6030   -5.5055   -0.9229 H   0  0  0  0  0  0  0  0  0  0  0  0
    1.6517   -4.9113   -0.6174 H   0  0  0  0  0  0  0  0  0  0  0  0
   -0.3119   -6.4045   -0.5453 H   0  0  0  0  0  0  0  0  0  0  0  0
    0.8854    2.5729    0.6173 N   0  0  0  0  0  0  0  0  0  0  0  0
    1.6958    3.7672    0.6925 C   0  0  2  0  0  0  0  0  0  0  0  0
    3.0861    3.4257    0.1730 C   0  0  0  0  0  0  0  0  0  0  0  0
    3.5311    2.2801    0.1507 O   0  0  0  0  0  0  0  0  0  0  0  0
    1.7630    4.3016    2.1147 C   0  0  0  0  0  0  0  0  0  0  0  0
    0.3631    2.2917    1.4418 H   0  0  0  0  0  0  0  0  0  0  0  0
    1.2303    4.5073    0.0325 H   0  0  0  0  0  0  0  0  0  0  0  0
    2.2265    3.5738    2.7906 H   0  0  0  0  0  0  0  0  0  0  0  0
    2.3537    5.2223    2.1651 H   0  0  0  0  0  0  0  0  0  0  0  0
    0.7598    4.5187    2.4973 H   0  0  0  0  0  0  0  0  0  0  0  0
    3.7876    4.5560   -0.2226 N   0  0  0  0  0  0  0  0  0  0  0  0
    5.1345    4.4961   -0.7405 C   0  0  0  0  0  0  0  0  0  0  0  0
    3.3334    5.4638   -0.1872 H   0  0  0  0  0  0  0  0  0  0  0  0
    5.8510    4.6307    0.0833 H   0  0  0  0  0  0  0  0  0  0  0  0
    5.3015    3.5179   -1.2153 H   0  0  0  0  0  0  0  0  0  0  0  0
    5.2770    5.2938   -1.4843 H   0  0  0  0  0  0  0  0  0  0  0  0
 29 30  2  0  0  0  0
 27 29  1  0  0  0  0
 28 30  1  0  0  0  0
 24 27  2  0  0  0  0
 26 28  2  0  0  0  0
 22 23  2  0  0  0  0
 23 25  1  0  0  0  0
 22 24  1  0  0  0  0
 24 26  1  0  0  0  0
 21 22  1  0  0  0  0
 25 26  1  0  0  0  0
  1  3  1  0  0  0  0
  1  7  1  0  0  0  0
  1  2  2  0  0  0  0
 42 43  1  0  0  0  0
 43 51  1  0  0  0  0
 43 44  2  0  0  0  0
  8  9  1  0  0  0  0
  9 17  1  0  0  0  0
  9 10  2  0  0  0  0
 18 19  1  0  0  0  0
 19 41  1  0  0  0  0
 19 20  2  0  0  0  0
 42 45  1  0  0  0  0
  8 11  1  0  0  0  0
 51 52  1  0  0  0  0
 18 21  1  0  0  0  0
 41 42  1  0  0  0  0
  7  8  1  0  0  0  0
 17 18  1  0  0  0  0
 29 39  1  0  0  0  0
 30 40  1  0  0  0  0
 27 37  1  0  0  0  0
 28 38  1  0  0  0  0
 23 35  1  0  0  0  0
  3  4  1  0  0  0  0
  3  5  1  0  0  0  0
  3  6  1  0  0  0  0
 45 48  1  0  0  0  0
 45 49  1  0  0  0  0
 45 50  1  0  0  0  0
 11 14  1  0  0  0  0
 11 15  1  0  0  0  0
 11 16  1  0  0  0  0
 52 54  1  0  0  0  0
 52 55  1  0  0  0  0
 52 56  1  0  0  0  0
 21 33  1  0  0  0  0
 21 34  1  0  0  0  0
 42 47  1  0  0  0  0
  8 13  1  0  0  0  0
 18 32  1  0  0  0  0
 25 36  1  0  0  0  0
 51 53  1  0  0  0  0
  7 12  1  0  0  0  0
 41 46  1  0  0  0  0
 17 31  1  0  0  0  0
M  END
$$$$

  -OEChem-05262214473D

 56 57  0     1  0  0  0  0  0999 V2000
   -2.2900    0.3401    4.1553 C   0  0  0  0  0  0  0  0  0  0  0  0
   -1.3426   -0.2746    3.6796 O   0  0  0  0  0  0  0  0  0  0  0  0
   -2.7219    0.0577    5.5560 C   0  0  0  0  0  0  0  0  0  0  0  0
   -3.4815   -0.7386    5.6094 H   0  0  0  0  0  0  0  0  0  0  0  0
   -1.8906   -0.2899    6.1903 H   0  0  0  0  0  0  0  0  0  0  0  0
   -3.1599    0.9126    6.0956 H   0  0  0  0  0  0  0  0  0  0  0  0
   -3.0397    1.3125    3.5142 N   0  0  0  0  0  0  0  0  0  0  0  0
   -2.7928    1.7385    2.1618 C   0  0  2  0  0  0  0  0  0  0  0  0
   -1.4579    1.1532    1.7206 C   0  0  0  0  0  0  0  0  0  0  0  0
   -0.5858    0.8004    2.5118 O   0  0  0  0  0  0  0  0  0  0  0  0
   -2.7841    3.2553    2.0523 C   0  0  0  0  0  0  0  0  0  0  0  0
   -3.8047    1.7484    4.0260 H   0  0  0  0  0  0  0  0  0  0  0  0
   -3.5969    1.3201    1.5466 H   0  0  0  0  0  0  0  0  0  0  0  0
   -1.9850    3.6926    2.6620 H   0  0  0  0  0  0  0  0  0  0  0  0
   -2.6246    3.5776    1.0180 H   0  0  0  0  0  0  0  0  0  0  0  0
   -3.7342    3.6765    2.3981 H   0  0  0  0  0  0  0  0  0  0  0  0
   -1.3352    1.1101    0.3372 N   0  0  0  0  0  0  0  0  0  0  0  0
   -0.1579    0.6093   -0.3265 C   0  0  2  0  0  0  0  0  0  0  0  0
    0.7849    1.7908   -0.5249 C   0  0  0  0  0  0  0  0  0  0  0  0
    1.1333    2.1899   -1.6341 O   0  0  0  0  0  0  0  0  0  0  0  0
   -0.4863   -0.0427   -1.6745 C   0  0  0  0  0  0  0  0  0  0  0  0
   -1.2904   -1.3115   -1.5287 C   0  0  0  0  0  0  0  0  0  0  0  0
   -2.6577   -1.4136   -1.6422 C   0  0  0  0  0  0  0  0  0  0  0  0
   -0.7805   -2.6110   -1.2528 C   0  0  0  0  0  0  0  0  0  0  0  0
   -3.0002   -2.7245   -1.4457 N   0  0  0  0  0  0  0  0  0  0  0  0
   -1.8737   -3.4788   -1.2060 C   0  0  0  0  0  0  0  0  0  0  0  0
    0.5102   -3.1339   -1.0377 C   0  0  0  0  0  0  0  0  0  0  0  0
   -1.7402   -4.8488   -0.9538 C   0  0  0  0  0  0  0  0  0  0  0  0
    0.6589   -4.5024   -0.7845 C   0  0  0  0  0  0  0  0  0  0  0  0
   -0.4504   -5.3448   -0.7436 C   0  0  0  0  0  0  0  0  0  0  0  0
   -2.1183    1.4068   -0.2401 H   0  0  0  0  0  0  0  0  0  0  0  0
    0.3061   -0.1087    0.3599 H   0  0  0  0  0  0  0  0  0  0  0  0
    0.4374   -0.2526   -2.2307 H   0  0  0  0  0  0  0  0  0  0  0  0
   -1.0525    0.6522   -2.3088 H   0  0  0  0  0  0  0  0  0  0  0  0
   -3.4184   -0.6718   -1.8435 H   0  0  0  0  0  0  0  0  0  0  0  0
   -3.9432   -3.0870   -1.4728 H   0  0  0  0  0  0  0  0  0  0  0  0
    1.3848   -2.4902   -1.0654 H   0  0  0  0  0  0  0  0  0  0  0  0
   -2.6030   -5.5055   -0.9229 H   0  0  0  0  0  0  0  0  0  0  0  0
    1.6517   -4.9113   -0.6174 H   0  0  0  0  0  0  0  0  0  0  0  0
   -0.3119   -6.4045   -0.5453 H   0  0  0  0  0  0  0  0  0  0  0  0
    1.1484    2.3738    0.6811 N   0  0  0  0  0  0  0  0  0  0  0  0
    2.0163    3.5255    0.7761 C   0  0  2  0  0  0  0  0  0  0  0  0
    3.2575    3.2494   -0.0621 C   0  0  0  0  0  0  0  0  0  0  0  0
    3.6315    2.1153   -0.3536 O   0  0  0  0  0  0  0  0  0  0  0  0
    2.3902    3.8189    2.2207 C   0  0  0  0  0  0  0  0  0  0  0  0
    0.7861    1.9706    1.5402 H   0  0  0  0  0  0  0  0  0  0  0  0
    1.4671    4.3715    0.3488 H   0  0  0  0  0  0  0  0  0  0  0  0
    2.9413    2.9824    2.6657 H   0  0  0  0  0  0  0  0  0  0  0  0
    3.0245    4.7085    2.2935 H   0  0  0  0  0  0  0  0  0  0  0  0
    1.4947    3.9878    2.8284 H   0  0  0  0  0  0  0  0  0  0  0  0
    3.9225    4.4168   -0.4101 N   0  0  0  0  0  0  0  0  0  0  0  0
    5.1357    4.4190   -1.1939 C   0  0  0  0  0  0  0  0  0  0  0  0
    3.5303    5.3144   -0.1414 H   0  0  0  0  0  0  0  0  0  0  0  0
    6.0067    4.4047   -0.5224 H   0  0  0  0  0  0  0  0  0  0  0  0
    5.1562    3.5289   -1.8399 H   0  0  0  0  0  0  0  0  0  0  0  0
    5.1679    5.3250   -1.8169 H   0  0  0  0  0  0  0  0  0  0  0  0
 29 30  2  0  0  0  0
 27 29  1  0  0  0  0
 28 30  1  0  0  0  0
 24 27  2  0  0  0  0
 26 28  2  0  0  0  0
 22 23  2  0  0  0  0
 23 25  1  0  0  0  0
 22 24  1  0  0  0  0
 24 26  1  0  0  0  0
 21 22  1  0  0  0  0
 25 26  1  0  0  0  0
  1  3  1  0  0  0  0
  1  7  1  0  0  0  0
  1  2  2  0  0  0  0
 42 43  1  0  0  0  0
 43 51  1  0  0  0  0
 43 44  2  0  0  0  0
  8  9  1  0  0  0  0
  9 17  1  0  0  0  0
  9 10  2  0  0  0  0
 18 19  1  0  0  0  0
 19 41  1  0  0  0  0
 19 20  2  0  0  0  0
 42 45  1  0  0  0  0
  8 11  1  0  0  0  0
 51 52  1  0  0  0  0
 18 21  1  0  0  0  0
 41 42  1  0  0  0  0
  7  8  1  0  0  0  0
 17 18  1  0  0  0  0
 29 39  1  0  0  0  0
 30 40  1  0  0  0  0
 27 37  1  0  0  0  0
 28 38  1  0  0  0  0
 23 35  1  0  0  0  0
  3  4  1  0  0  0  0
  3  5  1  0  0  0  0
  3  6  1  0  0  0  0
 45 48  1  0  0  0  0
 45 49  1  0  0  0  0
 45 50  1  0  0  0  0
 11 14  1  0  0  0  0
 11 15  1  0  0  0  0
 11 16  1  0  0  0  0
 52 54  1  0  0  0  0
 52 55  1  0  0  0  0
 52 56  1  0  0  0  0
 21 33  1  0  0  0  0
 21 34  1  0  0  0  0
 42 47  1  0  0  0  0
  8 13  1  0  0  0  0
 18 32  1  0  0  0  0
 25 36  1  0  0  0  0
 51 53  1  0  0  0  0
  7 12  1  0  0  0  0
 41 46  1  0  0  0  0
 17 31  1  0  0  0  0
M  END
$$$$

  -OEChem-05262214473D

 56 57  0     1  0  0  0  0  0999 V2000
   -2.2900    0.3401    4.1553 C   0  0  0  0  0  0  0  0  0  0  0  0
   -1.3426   -0.2746    3.6796 O   0  0  0  0  0  0  0  0  0  0  0  0
   -2.7219    0.0577    5.5560 C   0  0  0  0  0  0  0  0  0  0  0  0
   -3.4815   -0.7386    5.6094 H   0  0  0  0  0  0  0  0  0  0  0  0
   -1.8906   -0.2899    6.1903 H   0  0  0  0  0  0  0  0  0  0  0  0
   -3.1599    0.9126    6.0956 H   0  0  0  0  0  0  0  0  0  0  0  0
   -3.0397    1.3125    3.5142 N   0  0  0  0  0  0  0  0  0  0  0  0
   -2.7928    1.7385    2.1618 C   0  0  2  0  0  0  0  0  0  0  0  0
   -1.4579    1.1532    1.7206 C   0  0  0  0  0  0  0  0  0  0  0  0
   -0.5858    0.8004    2.5118 O   0  0  0  0  0  0  0  0  0  0  0  0
   -2.7841    3.2553    2.0523 C   0  0  0  0  0  0  0  0  0  0  0  0
   -3.8047    1.7484    4.0260 H   0  0  0  0  0  0  0  0  0  0  0  0
   -3.5969    1.3201    1.5466 H   0  0  0  0  0  0  0  0  0  0  0  0
   -1.9850    3.6926    2.6620 H   0  0  0  0  0  0  0  0  0  0  0  0
   -2.6246    3.5776    1.0180 H   0  0  0  0  0  0  0  0  0  0  0  0
   -3.7342    3.6765    2.3981 H   0  0  0  0  0  0  0  0  0  0  0  0
   -1.3352    1.1101    0.3372 N   0  0  0  0  0  0  0  0  0  0  0  0
   -0.1579    0.6093   -0.3265 C   0  0  2  0  0  0  0  0  0  0  0  0
    0.7849    1.7908   -0.5249 C   0  0  0  0  0  0  0  0  0  0  0  0
    0.9265    2.3598   -1.6053 O   0  0  0  0  0  0  0  0  0  0  0  0
   -0.4863   -0.0427   -1.6745 C   0  0  0  0  0  0  0  0  0  0  0  0
   -1.2904   -1.3115   -1.5287 C   0  0  0  0  0  0  0  0  0  0  0  0
   -2.6577   -1.4136   -1.6422 C   0  0  0  0  0  0  0  0  0  0  0  0
   -0.7805   -2.6110   -1.2528 C   0  0  0  0  0  0  0  0  0  0  0  0
   -3.0002   -2.7245   -1.4457 N   0  0  0  0  0  0  0  0  0  0  0  0
   -1.8737   -3.4788   -1.2060 C   0  0  0  0  0  0  0  0  0  0  0  0
    0.5102   -3.1339   -1.0377 C   0  0  0  0  0  0  0  0  0  0  0  0
   -1.7402   -4.8488   -0.9538 C   0  0  0  0  0  0  0  0  0  0  0  0
    0.6589   -4.5024   -0.7845 C   0  0  0  0  0  0  0  0  0  0  0  0
   -0.4504   -5.3448   -0.7436 C   0  0  0  0  0  0  0  0  0  0  0  0
   -2.1183    1.4068   -0.2401 H   0  0  0  0  0  0  0  0  0  0  0  0
    0.3061   -0.1087    0.3599 H   0  0  0  0  0  0  0  0  0  0  0  0
    0.4374   -0.2526   -2.2307 H   0  0  0  0  0  0  0  0  0  0  0  0
   -1.0525    0.6522   -2.3088 H   0  0  0  0  0  0  0  0  0  0  0  0
   -3.4184   -0.6718   -1.8435 H   0  0  0  0  0  0  0  0  0  0  0  0
   -3.9432   -3.0870   -1.4728 H   0  0  0  0  0  0  0  0  0  0  0  0
    1.3848   -2.4902   -1.0654 H   0  0  0  0  0  0  0  0  0  0  0  0
   -2.6030   -5.5055   -0.9229 H   0  0  0  0  0  0  0  0  0  0  0  0
    1.6517   -4.9113   -0.6174 H   0  0  0  0  0  0  0  0  0  0  0  0
   -0.3119   -6.4045   -0.5453 H   0  0  0  0  0  0  0  0  0  0  0  0
    1.4085    2.1623    0.6581 N   0  0  0  0  0  0  0  0  0  0  0  0
    2.3346    3.2678    0.7538 C   0  0  2  0  0  0  0  0  0  0  0  0
    3.3700    3.1110   -0.3519 C   0  0  0  0  0  0  0  0  0  0  0  0
    3.6217    2.0334   -0.8873 O   0  0  0  0  0  0  0  0  0  0  0  0
    3.0011    3.3145    2.1200 C   0  0  0  0  0  0  0  0  0  0  0  0
    1.2037    1.6305    1.4989 H   0  0  0  0  0  0  0  0  0  0  0  0
    1.7547    4.1817    0.5850 H   0  0  0  0  0  0  0  0  0  0  0  0
    3.5867    2.4071    2.3071 H   0  0  0  0  0  0  0  0  0  0  0  0
    3.6809    4.1691    2.2007 H   0  0  0  0  0  0  0  0  0  0  0  0
    2.2531    3.3973    2.9159 H   0  0  0  0  0  0  0  0  0  0  0  0
    4.0106    4.3078   -0.6406 N   0  0  0  0  0  0  0  0  0  0  0  0
    5.0432    4.4171   -1.6445 C   0  0  0  0  0  0  0  0  0  0  0  0
    3.7246    5.1561   -0.1605 H   0  0  0  0  0  0  0  0  0  0  0  0
    6.0281    4.2781   -1.1748 H   0  0  0  0  0  0  0  0  0  0  0  0
    4.8910    3.6444   -2.4124 H   0  0  0  0  0  0  0  0  0  0  0  0
    4.9969    5.4121   -2.1112 H   0  0  0  0  0  0  0  0  0  0  0  0
 29 30  2  0  0  0  0
 27 29  1  0  0  0  0
 28 30  1  0  0  0  0
 24 27  2  0  0  0  0
 26 28  2  0  0  0  0
 22 23  2  0  0  0  0
 23 25  1  0  0  0  0
 22 24  1  0  0  0  0
 24 26  1  0  0  0  0
 21 22  1  0  0  0  0
 25 26  1  0  0  0  0
  1  3  1  0  0  0  0
  1  7  1  0  0  0  0
  1  2  2  0  0  0  0
 42 43  1  0  0  0  0
 43 51  1  0  0  0  0
 43 44  2  0  0  0  0
  8  9  1  0  0  0  0
  9 17  1  0  0  0  0
  9 10  2  0  0  0  0
 18 19  1  0  0  0  0
 19 41  1  0  0  0  0
 19 20  2  0  0  0  0
 42 45  1  0  0  0  0
  8 11  1  0  0  0  0
 51 52  1  0  0  0  0
 18 21  1  0  0  0  0
 41 42  1  0  0  0  0
  7  8  1  0  0  0  0
 17 18  1  0  0  0  0
 29 39  1  0  0  0  0
 30 40  1  0  0  0  0
 27 37  1  0  0  0  0
 28 38  1  0  0  0  0
 23 35  1  0  0  0  0
  3  4  1  0  0  0  0
  3  5  1  0  0  0  0
  3  6  1  0  0  0  0
 45 48  1  0  0  0  0
 45 49  1  0  0  0  0
 45 50  1  0  0  0  0
 11 14  1  0  0  0  0
 11 15  1  0  0  0  0
 11 16  1  0  0  0  0
 52 54  1  0  0  0  0
 52 55  1  0  0  0  0
 52 56  1  0  0  0  0
 21 33  1  0  0  0  0
 21 34  1  0  0  0  0
 42 47  1  0  0  0  0
  8 13  1  0  0  0  0
 18 32  1  0  0  0  0
 25 36  1  0  0  0  0
 51 53  1  0  0  0  0
  7 12  1  0  0  0  0
 41 46  1  0  0  0  0
 17 31  1  0  0  0  0
M  END
$$$$

  -OEChem-05262214473D

 56 57  0     1  0  0  0  0  0999 V2000
   -2.2900    0.3401    4.1553 C   0  0  0  0  0  0  0  0  0  0  0  0
   -1.3426   -0.2746    3.6796 O   0  0  0  0  0  0  0  0  0  0  0  0
   -2.7219    0.0577    5.5560 C   0  0  0  0  0  0  0  0  0  0  0  0
   -3.4815   -0.7386    5.6094 H   0  0  0  0  0  0  0  0  0  0  0  0
   -1.8906   -0.2899    6.1903 H   0  0  0  0  0  0  0  0  0  0  0  0
   -3.1599    0.9126    6.0956 H   0  0  0  0  0  0  0  0  0  0  0  0
   -3.0397    1.3125    3.5142 N   0  0  0  0  0  0  0  0  0  0  0  0
   -2.7928    1.7385    2.1618 C   0  0  2  0  0  0  0  0  0  0  0  0
   -1.4579    1.1532    1.7206 C   0  0  0  0  0  0  0  0  0  0  0  0
   -0.5858    0.8004    2.5118 O   0  0  0  0  0  0  0  0  0  0  0  0
   -2.7841    3.2553    2.0523 C   0  0  0  0  0  0  0  0  0  0  0  0
   -3.8047    1.7484    4.0260 H   0  0  0  0  0  0  0  0  0  0  0  0
   -3.5969    1.3201    1.5466 H   0  0  0  0  0  0  0  0  0  0  0  0
   -1.9850    3.6926    2.6620 H   0  0  0  0  0  0  0  0  0  0  0  0
   -2.6246    3.5776    1.0180 H   0  0  0  0  0  0  0  0  0  0  0  0
   -3.7342    3.6765    2.3981 H   0  0  0  0  0  0  0  0  0  0  0  0
   -1.3352    1.1101    0.3372 N   0  0  0  0  0  0  0  0  0  0  0  0
   -0.1579    0.6093   -0.3265 C   0  0  2  0  0  0  0  0  0  0  0  0
    0.7849    1.7908   -0.5249 C   0  0  0  0  0  0  0  0  0  0  0  0
    0.7382    2.5262   -1.5087 O   0  0  0  0  0  0  0  0  0  0  0  0
   -0.4863   -0.0427   -1.6745 C   0  0  0  0  0  0  0  0  0  0  0  0
   -1.2904   -1.3115   -1.5287 C   0  0  0  0  0  0  0  0  0  0  0  0
   -2.6577   -1.4136   -1.6422 C   0  0  0  0  0  0  0  0  0  0  0  0
   -0.7805   -2.6110   -1.2528 C   0  0  0  0  0  0  0  0  0  0  0  0
   -3.0002   -2.7245   -1.4457 N   0  0  0  0  0  0  0  0  0  0  0  0
   -1.8737   -3.4788   -1.2060 C   0  0  0  0  0  0  0  0  0  0  0  0
    0.5102   -3.1339   -1.0377 C   0  0  0  0  0  0  0  0  0  0  0  0
   -1.7402   -4.8488   -0.9538 C   0  0  0  0  0  0  0  0  0  0  0  0
    0.6589   -4.5024   -0.7845 C   0  0  0  0  0  0  0  0  0  0  0  0
   -0.4504   -5.3448   -0.7436 C   0  0  0  0  0  0  0  0  0  0  0  0
   -2.1183    1.4068   -0.2401 H   0  0  0  0  0  0  0  0  0  0  0  0
    0.3061   -0.1087    0.3599 H   0  0  0  0  0  0  0  0  0  0  0  0
    0.4374   -0.2526   -2.2307 H   0  0  0  0  0  0  0  0  0  0  0  0
   -1.0525    0.6522   -2.3088 H   0  0  0  0  0  0  0  0  0  0  0  0
   -3.4184   -0.6718   -1.8435 H   0  0  0  0  0  0  0  0  0  0  0  0
   -3.9432   -3.0870   -1.4728 H   0  0  0  0  0  0  0  0  0  0  0  0
    1.3848   -2.4902   -1.0654 H   0  0  0  0  0  0  0  0  0  0  0  0
   -2.6030   -5.5055   -0.9229 H   0  0  0  0  0  0  0  0  0  0  0  0
    1.6517   -4.9113   -0.6174 H   0  0  0  0  0  0  0  0  0  0  0  0
   -0.3119   -6.4045   -0.5453 H   0  0  0  0  0  0  0  0  0  0  0  0
    1.6480    1.9530    0.5499 N   0  0  0  0  0  0  0  0  0  0  0  0
    2.6288    3.0117    0.6273 C   0  0  2  0  0  0  0  0  0  0  0  0
    3.4159    3.0198   -0.6766 C   0  0  0  0  0  0  0  0  0  0  0  0
    3.5025    2.0401   -1.4140 O   0  0  0  0  0  0  0  0  0  0  0  0
    3.5539    2.8229    1.8194 C   0  0  0  0  0  0  0  0  0  0  0  0
    1.5872    1.2945    1.3209 H   0  0  0  0  0  0  0  0  0  0  0  0
    2.0734    3.9508    0.7251 H   0  0  0  0  0  0  0  0  0  0  0  0
    4.1189    1.8870    1.7391 H   0  0  0  0  0  0  0  0  0  0  0  0
    4.2782    3.6409    1.8931 H   0  0  0  0  0  0  0  0  0  0  0  0
    2.9833    2.7874    2.7537 H   0  0  0  0  0  0  0  0  0  0  0  0
    4.0457    4.2365   -0.8984 N   0  0  0  0  0  0  0  0  0  0  0  0
    4.8635    4.4905   -2.0614 C   0  0  0  0  0  0  0  0  0  0  0  0
    3.9032    4.9997   -0.2434 H   0  0  0  0  0  0  0  0  0  0  0  0
    5.9136    4.2594   -1.8295 H   0  0  0  0  0  0  0  0  0  0  0  0
    4.5239    3.8565   -2.8938 H   0  0  0  0  0  0  0  0  0  0  0  0
    4.7756    5.5490   -2.3473 H   0  0  0  0  0  0  0  0  0  0  0  0
 29 30  2  0  0  0  0
 27 29  1  0  0  0  0
 28 30  1  0  0  0  0
 24 27  2  0  0  0  0
 26 28  2  0  0  0  0
 22 23  2  0  0  0  0
 23 25  1  0  0  0  0
 22 24  1  0  0  0  0
 24 26  1  0  0  0  0
 21 22  1  0  0  0  0
 25 26  1  0  0  0  0
  1  3  1  0  0  0  0
  1  7  1  0  0  0  0
  1  2  2  0  0  0  0
 42 43  1  0  0  0  0
 43 51  1  0  0  0  0
 43 44  2  0  0  0  0
  8  9  1  0  0  0  0
  9 17  1  0  0  0  0
  9 10  2  0  0  0  0
 18 19  1  0  0  0  0
 19 41  1  0  0  0  0
 19 20  2  0  0  0  0
 42 45  1  0  0  0  0
  8 11  1  0  0  0  0
 51 52  1  0  0  0  0
 18 21  1  0  0  0  0
 41 42  1  0  0  0  0
  7  8  1  0  0  0  0
 17 18  1  0  0  0  0
 29 39  1  0  0  0  0
 30 40  1  0  0  0  0
 27 37  1  0  0  0  0
 28 38  1  0  0  0  0
 23 35  1  0  0  0  0
  3  4  1  0  0  0  0
  3  5  1  0  0  0  0
  3  6  1  0  0  0  0
 45 48  1  0  0  0  0
 45 49  1  0  0  0  0
 45 50  1  0  0  0  0
 11 14  1  0  0  0  0
 11 15  1  0  0  0  0
 11 16  1  0  0  0  0
 52 54  1  0  0  0  0
 52 55  1  0  0  0  0
 52 56  1  0  0  0  0
 21 33  1  0  0  0  0
 21 34  1  0  0  0  0
 42 47  1  0  0  0  0
  8 13  1  0  0  0  0
 18 32  1  0  0  0  0
 25 36  1  0  0  0  0
 51 53  1  0  0  0  0
  7 12  1  0  0  0  0
 41 46  1  0  0  0  0
 17 31  1  0  0  0  0
M  END
$$$$

  -OEChem-05262214473D

 56 57  0     1  0  0  0  0  0999 V2000
   -2.2900    0.3401    4.1553 C   0  0  0  0  0  0  0  0  0  0  0  0
   -1.3426   -0.2746    3.6796 O   0  0  0  0  0  0  0  0  0  0  0  0
   -2.7219    0.0577    5.5560 C   0  0  0  0  0  0  0  0  0  0  0  0
   -3.4815   -0.7386    5.6094 H   0  0  0  0  0  0  0  0  0  0  0  0
   -1.8906   -0.2899    6.1903 H   0  0  0  0  0  0  0  0  0  0  0  0
   -3.1599    0.9126    6.0956 H   0  0  0  0  0  0  0  0  0  0  0  0
   -3.0397    1.3125    3.5142 N   0  0  0  0  0  0  0  0  0  0  0  0
   -2.7928    1.7385    2.1618 C   0  0  2  0  0  0  0  0  0  0  0  0
   -1.4579    1.1532    1.7206 C   0  0  0  0  0  0  0  0  0  0  0  0
   -0.5858    0.8004    2.5118 O   0  0  0  0  0  0  0  0  0  0  0  0
   -2.7841    3.2553    2.0523 C   0  0  0  0  0  0  0  0  0  0  0  0
   -3.8047    1.7484    4.0260 H   0  0  0  0  0  0  0  0  0  0  0  0
   -3.5969    1.3201    1.5466 H   0  0  0  0  0  0  0  0  0  0  0  0
   -1.9850    3.6926    2.6620 H   0  0  0  0  0  0  0  0  0  0  0  0
   -2.6246    3.5776    1.0180 H   0  0  0  0  0  0  0  0  0  0  0  0
   -3.7342    3.6765    2.3981 H   0  0  0  0  0  0  0  0  0  0  0  0
   -1.3352    1.1101    0.3372 N   0  0  0  0  0  0  0  0  0  0  0  0
   -0.1579    0.6093   -0.3265 C   0  0  2  0  0  0  0  0  0  0  0  0
    0.7849    1.7908   -0.5249 C   0  0  0  0  0  0  0  0  0  0  0  0
    0.5814    2.6779   -1.3511 O   0  0  0  0  0  0  0  0  0  0  0  0
   -0.4863   -0.0427   -1.6745 C   0  0  0  0  0  0  0  0  0  0  0  0
   -1.2904   -1.3115   -1.5287 C   0  0  0  0  0  0  0  0  0  0  0  0
   -2.6577   -1.4136   -1.6422 C   0  0  0  0  0  0  0  0  0  0  0  0
   -0.7805   -2.6110   -1.2528 C   0  0  0  0  0  0  0  0  0  0  0  0
   -3.0002   -2.7245   -1.4457 N   0  0  0  0  0  0  0  0  0  0  0  0
   -1.8737   -3.4788   -1.2060 C   0  0  0  0  0  0  0  0  0  0  0  0
    0.5102   -3.1339   -1.0377 C   0  0  0  0  0  0  0  0  0  0  0  0
   -1.7402   -4.8488   -0.9538 C   0  0  0  0  0  0  0  0  0  0  0  0
    0.6589   -4.5024   -0.7845 C   0  0  0  0  0  0  0  0  0  0  0  0
   -0.4504   -5.3448   -0.7436 C   0  0  0  0  0  0  0  0  0  0  0  0
   -2.1183    1.4068   -0.2401 H   0  0  0  0  0  0  0  0  0  0  0  0
    0.3061   -0.1087    0.3599 H   0  0  0  0  0  0  0  0  0  0  0  0
    0.4374   -0.2526   -2.2307 H   0  0  0  0  0  0  0  0  0  0  0  0
   -1.0525    0.6522   -2.3088 H   0  0  0  0  0  0  0  0  0  0  0  0
   -3.4184   -0.6718   -1.8435 H   0  0  0  0  0  0  0  0  0  0  0  0
   -3.9432   -3.0870   -1.4728 H   0  0  0  0  0  0  0  0  0  0  0  0
    1.3848   -2.4902   -1.0654 H   0  0  0  0  0  0  0  0  0  0  0  0
   -2.6030   -5.5055   -0.9229 H   0  0  0  0  0  0  0  0  0  0  0  0
    1.6517   -4.9113   -0.6174 H   0  0  0  0  0  0  0  0  0  0  0  0
   -0.3119   -6.4045   -0.5453 H   0  0  0  0  0  0  0  0  0  0  0  0
    1.8506    1.7601    0.3638 N   0  0  0  0  0  0  0  0  0  0  0  0
    2.8790    2.7747    0.4050 C   0  0  2  0  0  0  0  0  0  0  0  0
    3.3920    2.9822   -1.0139 C   0  0  0  0  0  0  0  0  0  0  0  0
    3.2819    2.1349   -1.8977 O   0  0  0  0  0  0  0  0  0  0  0  0
    4.0111    2.3775    1.3396 C   0  0  0  0  0  0  0  0  0  0  0  0
    1.9107    0.9856    1.0182 H   0  0  0  0  0  0  0  0  0  0  0  0
    2.4017    3.6947    0.7596 H   0  0  0  0  0  0  0  0  0  0  0  0
    4.5014    1.4577    1.0004 H   0  0  0  0  0  0  0  0  0  0  0  0
    4.7756    3.1597    1.3916 H   0  0  0  0  0  0  0  0  0  0  0  0
    3.6355    2.1996    2.3530 H   0  0  0  0  0  0  0  0  0  0  0  0
    4.0256    4.2077   -1.1658 N   0  0  0  0  0  0  0  0  0  0  0  0
    4.6087    4.6341   -2.4164 C   0  0  0  0  0  0  0  0  0  0  0  0
    4.0538    4.8558   -0.3842 H   0  0  0  0  0  0  0  0  0  0  0  0
    5.6711    4.3501   -2.4419 H   0  0  0  0  0  0  0  0  0  0  0  0
    4.0799    4.1508   -3.2511 H   0  0  0  0  0  0  0  0  0  0  0  0
    4.5190    5.7266   -2.5090 H   0  0  0  0  0  0  0  0  0  0  0  0
 29 30  2  0  0  0  0
 27 29  1  0  0  0  0
 28 30  1  0  0  0  0
 24 27  2  0  0  0  0
 26 28  2  0  0  0  0
 22 23  2  0  0  0  0
 23 25  1  0  0  0  0
 22 24  1  0  0  0  0
 24 26  1  0  0  0  0
 21 22  1  0  0  0  0
 25 26  1  0  0  0  0
  1  3  1  0  0  0  0
  1  7  1  0  0  0  0
  1  2  2  0  0  0  0
 42 43  1  0  0  0  0
 43 51  1  0  0  0  0
 43 44  2  0  0  0  0
  8  9  1  0  0  0  0
  9 17  1  0  0  0  0
  9 10  2  0  0  0  0
 18 19  1  0  0  0  0
 19 41  1  0  0  0  0
 19 20  2  0  0  0  0
 42 45  1  0  0  0  0
  8 11  1  0  0  0  0
 51 52  1  0  0  0  0
 18 21  1  0  0  0  0
 41 42  1  0  0  0  0
  7  8  1  0  0  0  0
 17 18  1  0  0  0  0
 29 39  1  0  0  0  0
 30 40  1  0  0  0  0
 27 37  1  0  0  0  0
 28 38  1  0  0  0  0
 23 35  1  0  0  0  0
  3  4  1  0  0  0  0
  3  5  1  0  0  0  0
  3  6  1  0  0  0  0
 45 48  1  0  0  0  0
 45 49  1  0  0  0  0
 45 50  1  0  0  0  0
 11 14  1  0  0  0  0
 11 15  1  0  0  0  0
 11 16  1  0  0  0  0
 52 54  1  0  0  0  0
 52 55  1  0  0  0  0
 52 56  1  0  0  0  0
 21 33  1  0  0  0  0
 21 34  1  0  0  0  0
 42 47  1  0  0  0  0
  8 13  1  0  0  0  0
 18 32  1  0  0  0  0
 25 36  1  0  0  0  0
 51 53  1  0  0  0  0
  7 12  1  0  0  0  0
 41 46  1  0  0  0  0
 17 31  1  0  0  0  0
M  END
$$$$

  -OEChem-05262214473D

 56 57  0     1  0  0  0  0  0999 V2000
   -2.2900    0.3401    4.1553 C   0  0  0  0  0  0  0  0  0  0  0  0
   -1.3426   -0.2746    3.6796 O   0  0  0  0  0  0  0  0  0  0  0  0
   -2.7219    0.0577    5.5560 C   0  0  0  0  0  0  0  0  0  0  0  0
   -3.4815   -0.7386    5.6094 H   0  0  0  0  0  0  0  0  0  0  0  0
   -1.8906   -0.2899    6.1903 H   0  0  0  0  0  0  0  0  0  0  0  0
   -3.1599    0.9126    6.0956 H   0  0  0  0  0  0  0  0  0  0  0  0
   -3.0397    1.3125    3.5142 N   0  0  0  0  0  0  0  0  0  0  0  0
   -2.7928    1.7385    2.1618 C   0  0  2  0  0  0  0  0  0  0  0  0
   -1.4579    1.1532    1.7206 C   0  0  0  0  0  0  0  0  0  0  0  0
   -0.5858    0.8004    2.5118 O   0  0  0  0  0  0  0  0  0  0  0  0
   -2.7841    3.2553    2.0523 C   0  0  0  0  0  0  0  0  0  0  0  0
   -3.8047    1.7484    4.0260 H   0  0  0  0  0  0  0  0  0  0  0  0
   -3.5969    1.3201    1.5466 H   0  0  0  0  0  0  0  0  0  0  0  0
   -1.9850    3.6926    2.6620 H   0  0  0  0  0  0  0  0  0  0  0  0
   -2.6246    3.5776    1.0180 H   0  0  0  0  0  0  0  0  0  0  0  0
   -3.7342    3.6765    2.3981 H   0  0  0  0  0  0  0  0  0  0  0  0
   -1.3352    1.1101    0.3372 N   0  0  0  0  0  0  0  0  0  0  0  0
   -0.1579    0.6093   -0.3265 C   0  0  2  0  0  0  0  0  0  0  0  0
    0.7849    1.7908   -0.5249 C   0  0  0  0  0  0  0  0  0  0  0  0
    0.4666    2.8044   -1.1431 O   0  0  0  0  0  0  0  0  0  0  0  0
   -0.4863   -0.0427   -1.6745 C   0  0  0  0  0  0  0  0  0  0  0  0
   -1.2904   -1.3115   -1.5287 C   0  0  0  0  0  0  0  0  0  0  0  0
   -2.6577   -1.4136   -1.6422 C   0  0  0  0  0  0  0  0  0  0  0  0
   -0.7805   -2.6110   -1.2528 C   0  0  0  0  0  0  0  0  0  0  0  0
   -3.0002   -2.7245   -1.4457 N   0  0  0  0  0  0  0  0  0  0  0  0
   -1.8737   -3.4788   -1.2060 C   0  0  0  0  0  0  0  0  0  0  0  0
    0.5102   -3.1339   -1.0377 C   0  0  0  0  0  0  0  0  0  0  0  0
   -1.7402   -4.8488   -0.9538 C   0  0  0  0  0  0  0  0  0  0  0  0
    0.6589   -4.5024   -0.7845 C   0  0  0  0  0  0  0  0  0  0  0  0
   -0.4504   -5.3448   -0.7436 C   0  0  0  0  0  0  0  0  0  0  0  0
   -2.1183    1.4068   -0.2401 H   0  0  0  0  0  0  0  0  0  0  0  0
    0.3061   -0.1087    0.3599 H   0  0  0  0  0  0  0  0  0  0  0  0
    0.4374   -0.2526   -2.2307 H   0  0  0  0  0  0  0  0  0  0  0  0
   -1.0525    0.6522   -2.3088 H   0  0  0  0  0  0  0  0  0  0  0  0
   -3.4184   -0.6718   -1.8435 H   0  0  0  0  0  0  0  0  0  0  0  0
   -3.9432   -3.0870   -1.4728 H   0  0  0  0  0  0  0  0  0  0  0  0
    1.3848   -2.4902   -1.0654 H   0  0  0  0  0  0  0  0  0  0  0  0
   -2.6030   -5.5055   -0.9229 H   0  0  0  0  0  0  0  0  0  0  0  0
    1.6517   -4.9113   -0.6174 H   0  0  0  0  0  0  0  0  0  0  0  0
   -0.3119   -6.4045   -0.5453 H   0  0  0  0  0  0  0  0  0  0  0  0
    2.0025    1.5967    0.1126 N   0  0  0  0  0  0  0  0  0  0  0  0
    3.0682    2.5729    0.1022 C   0  0  2  0  0  0  0  0  0  0  0  0
    3.3000    3.0007   -1.3410 C   0  0  0  0  0  0  0  0  0  0  0  0
    2.9750    2.3113   -2.3055 O   0  0  0  0  0  0  0  0  0  0  0  0
    4.3414    2.0086    0.7130 C   0  0  0  0  0  0  0  0  0  0  0  0
    2.1520    0.7247    0.6115 H   0  0  0  0  0  0  0  0  0  0  0  0
    2.7170    3.4307    0.6861 H   0  0  0  0  0  0  0  0  0  0  0  0
    4.7083    1.1483    0.1415 H   0  0  0  0  0  0  0  0  0  0  0  0
    5.1392    2.7584    0.7304 H   0  0  0  0  0  0  0  0  0  0  0  0
    4.1654    1.6740    1.7411 H   0  0  0  0  0  0  0  0  0  0  0  0
    3.9515    4.2233   -1.4247 N   0  0  0  0  0  0  0  0  0  0  0  0
    4.2963    4.8383   -2.6852 C   0  0  0  0  0  0  0  0  0  0  0  0
    4.1662    4.7344   -0.5735 H   0  0  0  0  0  0  0  0  0  0  0  0
    5.3171    4.5439   -2.9703 H   0  0  0  0  0  0  0  0  0  0  0  0
    3.5893    4.5072   -3.4601 H   0  0  0  0  0  0  0  0  0  0  0  0
    4.2448    5.9326   -2.5853 H   0  0  0  0  0  0  0  0  0  0  0  0
 29 30  2  0  0  0  0
 27 29  1  0  0  0  0
 28 30  1  0  0  0  0
 24 27  2  0  0  0  0
 26 28  2  0  0  0  0
 22 23  2  0  0  0  0
 23 25  1  0  0  0  0
 22 24  1  0  0  0  0
 24 26  1  0  0  0  0
 21 22  1  0  0  0  0
 25 26  1  0  0  0  0
  1  3  1  0  0  0  0
  1  7  1  0  0  0  0
  1  2  2  0  0  0  0
 42 43  1  0  0  0  0
 43 51  1  0  0  0  0
 43 44  2  0  0  0  0
  8  9  1  0  0  0  0
  9 17  1  0  0  0  0
  9 10  2  0  0  0  0
 18 19  1  0  0  0  0
 19 41  1  0  0  0  0
 19 20  2  0  0  0  0
 42 45  1  0  0  0  0
  8 11  1  0  0  0  0
 51 52  1  0  0  0  0
 18 21  1  0  0  0  0
 41 42  1  0  0  0  0
  7  8  1  0  0  0  0
 17 18  1  0  0  0  0
 29 39  1  0  0  0  0
 30 40  1  0  0  0  0
 27 37  1  0  0  0  0
 28 38  1  0  0  0  0
 23 35  1  0  0  0  0
  3  4  1  0  0  0  0
  3  5  1  0  0  0  0
  3  6  1  0  0  0  0
 45 48  1  0  0  0  0
 45 49  1  0  0  0  0
 45 50  1  0  0  0  0
 11 14  1  0  0  0  0
 11 15  1  0  0  0  0
 11 16  1  0  0  0  0
 52 54  1  0  0  0  0
 52 55  1  0  0  0  0
 52 56  1  0  0  0  0
 21 33  1  0  0  0  0
 21 34  1  0  0  0  0
 42 47  1  0  0  0  0
  8 13  1  0  0  0  0
 18 32  1  0  0  0  0
 25 36  1  0  0  0  0
 51 53  1  0  0  0  0
  7 12  1  0  0  0  0
 41 46  1  0  0  0  0
 17 31  1  0  0  0  0
M  END
$$$$

  -OEChem-05262214473D

 56 57  0     1  0  0  0  0  0999 V2000
   -2.2900    0.3401    4.1553 C   0  0  0  0  0  0  0  0  0  0  0  0
   -1.3426   -0.2746    3.6796 O   0  0  0  0  0  0  0  0  0  0  0  0
   -2.7219    0.0577    5.5560 C   0  0  0  0  0  0  0  0  0  0  0  0
   -3.4815   -0.7386    5.6094 H   0  0  0  0  0  0  0  0  0  0  0  0
   -1.8906   -0.2899    6.1903 H   0  0  0  0  0  0  0  0  0  0  0  0
   -3.1599    0.9126    6.0956 H   0  0  0  0  0  0  0  0  0  0  0  0
   -3.0397    1.3125    3.5142 N   0  0  0  0  0  0  0  0  0  0  0  0
   -2.7928    1.7385    2.1618 C   0  0  2  0  0  0  0  0  0  0  0  0
   -1.4579    1.1532    1.7206 C   0  0  0  0  0  0  0  0  0  0  0  0
   -0.5858    0.8004    2.5118 O   0  0  0  0  0  0  0  0  0  0  0  0
   -2.7841    3.2553    2.0523 C   0  0  0  0  0  0  0  0  0  0  0  0
   -3.8047    1.7484    4.0260 H   0  0  0  0  0  0  0  0  0  0  0  0
   -3.5969    1.3201    1.5466 H   0  0  0  0  0  0  0  0  0  0  0  0
   -1.9850    3.6926    2.6620 H   0  0  0  0  0  0  0  0  0  0  0  0
   -2.6246    3.5776    1.0180 H   0  0  0  0  0  0  0  0  0  0  0  0
   -3.7342    3.6765    2.3981 H   0  0  0  0  0  0  0  0  0  0  0  0
   -1.3352    1.1101    0.3372 N   0  0  0  0  0  0  0  0  0  0  0  0
   -0.1579    0.6093   -0.3265 C   0  0  2  0  0  0  0  0  0  0  0  0
    0.7849    1.7908   -0.5249 C   0  0  0  0  0  0  0  0  0  0  0  0
    0.4017    2.8972   -0.8989 O   0  0  0  0  0  0  0  0  0  0  0  0
   -0.4863   -0.0427   -1.6745 C   0  0  0  0  0  0  0  0  0  0  0  0
   -1.2904   -1.3115   -1.5287 C   0  0  0  0  0  0  0  0  0  0  0  0
   -2.6577   -1.4136   -1.6422 C   0  0  0  0  0  0  0  0  0  0  0  0
   -0.7805   -2.6110   -1.2528 C   0  0  0  0  0  0  0  0  0  0  0  0
   -3.0002   -2.7245   -1.4457 N   0  0  0  0  0  0  0  0  0  0  0  0
   -1.8737   -3.4788   -1.2060 C   0  0  0  0  0  0  0  0  0  0  0  0
    0.5102   -3.1339   -1.0377 C   0  0  0  0  0  0  0  0  0  0  0  0
   -1.7402   -4.8488   -0.9538 C   0  0  0  0  0  0  0  0  0  0  0  0
    0.6589   -4.5024   -0.7845 C   0  0  0  0  0  0  0  0  0  0  0  0
   -0.4504   -5.3448   -0.7436 C   0  0  0  0  0  0  0  0  0  0  0  0
   -2.1183    1.4068   -0.2401 H   0  0  0  0  0  0  0  0  0  0  0  0
    0.3061   -0.1087    0.3599 H   0  0  0  0  0  0  0  0  0  0  0  0
    0.4374   -0.2526   -2.2307 H   0  0  0  0  0  0  0  0  0  0  0  0
   -1.0525    0.6522   -2.3088 H   0  0  0  0  0  0  0  0  0  0  0  0
   -3.4184   -0.6718   -1.8435 H   0  0  0  0  0  0  0  0  0  0  0  0
   -3.9432   -3.0870   -1.4728 H   0  0  0  0  0  0  0  0  0  0  0  0
    1.3848   -2.4902   -1.0654 H   0  0  0  0  0  0  0  0  0  0  0  0
   -2.6030   -5.5055   -0.9229 H   0  0  0  0  0  0  0  0  0  0  0  0
    1.6517   -4.9113   -0.6174 H   0  0  0  0  0  0  0  0  0  0  0  0
   -0.3119   -6.4045   -0.5453 H   0  0  0  0  0  0  0  0  0  0  0  0
    2.0933    1.4740   -0.1867 N   0  0  0  0  0  0  0  0  0  0  0  0
    3.1833    2.4201   -0.2606 C   0  0  2  0  0  0  0  0  0  0  0  0
    3.1461    3.0740   -1.6355 C   0  0  0  0  0  0  0  0  0  0  0  0
    2.6027    2.5573   -2.6096 O   0  0  0  0  0  0  0  0  0  0  0  0
    4.5224    1.7415   -0.0174 C   0  0  0  0  0  0  0  0  0  0  0  0
    2.2948    0.5297    0.1285 H   0  0  0  0  0  0  0  0  0  0  0  0
    2.9980    3.1768    0.5095 H   0  0  0  0  0  0  0  0  0  0  0  0
    4.7255    0.9800   -0.7792 H   0  0  0  0  0  0  0  0  0  0  0  0
    5.3444    2.4644   -0.0454 H   0  0  0  0  0  0  0  0  0  0  0  0
    4.5367    1.2465    0.9596 H   0  0  0  0  0  0  0  0  0  0  0  0
    3.8285    4.2823   -1.6574 N   0  0  0  0  0  0  0  0  0  0  0  0
    3.9475    5.0891   -2.8494 C   0  0  0  0  0  0  0  0  0  0  0  0
    4.2326    4.6436   -0.7984 H   0  0  0  0  0  0  0  0  0  0  0  0
    4.8756    4.8276   -3.3787 H   0  0  0  0  0  0  0  0  0  0  0  0
    3.0855    4.9014   -3.5065 H   0  0  0  0  0  0  0  0  0  0  0  0
    3.9716    6.1530   -2.5711 H   0  0  0  0  0  0  0  0  0  0  0  0
 29 30  2  0  0  0  0
 27 29  1  0  0  0  0
 28 30  1  0  0  0  0
 24 27  2  0  0  0  0
 26 28  2  0  0  0  0
 22 23  2  0  0  0  0
 23 25  1  0  0  0  0
 22 24  1  0  0  0  0
 24 26  1  0  0  0  0
 21 22  1  0  0  0  0
 25 26  1  0  0  0  0
  1  3  1  0  0  0  0
  1  7  1  0  0  0  0
  1  2  2  0  0  0  0
 42 43  1  0  0  0  0
 43 51  1  0  0  0  0
 43 44  2  0  0  0  0
  8  9  1  0  0  0  0
  9 17  1  0  0  0  0
  9 10  2  0  0  0  0
 18 19  1  0  0  0  0
 19 41  1  0  0  0  0
 19 20  2  0  0  0  0
 42 45  1  0  0  0  0
  8 11  1  0  0  0  0
 51 52  1  0  0  0  0
 18 21  1  0  0  0  0
 41 42  1  0  0  0  0
  7  8  1  0  0  0  0
 17 18  1  0  0  0  0
 29 39  1  0  0  0  0
 30 40  1  0  0  0  0
 27 37  1  0  0  0  0
 28 38  1  0  0  0  0
 23 35  1  0  0  0  0
  3  4  1  0  0  0  0
  3  5  1  0  0  0  0
  3  6  1  0  0  0  0
 45 48  1  0  0  0  0
 45 49  1  0  0  0  0
 45 50  1  0  0  0  0
 11 14  1  0  0  0  0
 11 15  1  0  0  0  0
 11 16  1  0  0  0  0
 52 54  1  0  0  0  0
 52 55  1  0  0  0  0
 52 56  1  0  0  0  0
 21 33  1  0  0  0  0
 21 34  1  0  0  0  0
 42 47  1  0  0  0  0
  8 13  1  0  0  0  0
 18 32  1  0  0  0  0
 25 36  1  0  0  0  0
 51 53  1  0  0  0  0
  7 12  1  0  0  0  0
 41 46  1  0  0  0  0
 17 31  1  0  0  0  0
M  END
$$$$

  -OEChem-05262214473D

 56 57  0     1  0  0  0  0  0999 V2000
   -2.2900    0.3401    4.1553 C   0  0  0  0  0  0  0  0  0  0  0  0
   -1.3426   -0.2746    3.6796 O   0  0  0  0  0  0  0  0  0  0  0  0
   -2.7219    0.0577    5.5560 C   0  0  0  0  0  0  0  0  0  0  0  0
   -3.4815   -0.7386    5.6094 H   0  0  0  0  0  0  0  0  0  0  0  0
   -1.8906   -0.2899    6.1903 H   0  0  0  0  0  0  0  0  0  0  0  0
   -3.1599    0.9126    6.0956 H   0  0  0  0  0  0  0  0  0  0  0  0
   -3.0397    1.3125    3.5142 N   0  0  0  0  0  0  0  0  0  0  0  0
   -2.7928    1.7385    2.1618 C   0  0  2  0  0  0  0  0  0  0  0  0
   -1.4579    1.1532    1.7206 C   0  0  0  0  0  0  0  0  0  0  0  0
   -0.5858    0.8004    2.5118 O   0  0  0  0  0  0  0  0  0  0  0  0
   -2.7841    3.2553    2.0523 C   0  0  0  0  0  0  0  0  0  0  0  0
   -3.8047    1.7484    4.0260 H   0  0  0  0  0  0  0  0  0  0  0  0
   -3.5969    1.3201    1.5466 H   0  0  0  0  0  0  0  0  0  0  0  0
   -1.9850    3.6926    2.6620 H   0  0  0  0  0  0  0  0  0  0  0  0
   -2.6246    3.5776    1.0180 H   0  0  0  0  0  0  0  0  0  0  0  0
   -3.7342    3.6765    2.3981 H   0  0  0  0  0  0  0  0  0  0  0  0
   -1.3352    1.1101    0.3372 N   0  0  0  0  0  0  0  0  0  0  0  0
   -0.1579    0.6093   -0.3265 C   0  0  2  0  0  0  0  0  0  0  0  0
    0.7849    1.7908   -0.5249 C   0  0  0  0  0  0  0  0  0  0  0  0
    0.3911    2.9499   -0.6352 O   0  0  0  0  0  0  0  0  0  0  0  0
   -0.4863   -0.0427   -1.6745 C   0  0  0  0  0  0  0  0  0  0  0  0
   -1.2904   -1.3115   -1.5287 C   0  0  0  0  0  0  0  0  0  0  0  0
   -2.6577   -1.4136   -1.6422 C   0  0  0  0  0  0  0  0  0  0  0  0
   -0.7805   -2.6110   -1.2528 C   0  0  0  0  0  0  0  0  0  0  0  0
   -3.0002   -2.7245   -1.4457 N   0  0  0  0  0  0  0  0  0  0  0  0
   -1.8737   -3.4788   -1.2060 C   0  0  0  0  0  0  0  0  0  0  0  0
    0.5102   -3.1339   -1.0377 C   0  0  0  0  0  0  0  0  0  0  0  0
   -1.7402   -4.8488   -0.9538 C   0  0  0  0  0  0  0  0  0  0  0  0
    0.6589   -4.5024   -0.7845 C   0  0  0  0  0  0  0  0  0  0  0  0
   -0.4504   -5.3448   -0.7436 C   0  0  0  0  0  0  0  0  0  0  0  0
   -2.1183    1.4068   -0.2401 H   0  0  0  0  0  0  0  0  0  0  0  0
    0.3061   -0.1087    0.3599 H   0  0  0  0  0  0  0  0  0  0  0  0
    0.4374   -0.2526   -2.2307 H   0  0  0  0  0  0  0  0  0  0  0  0
   -1.0525    0.6522   -2.3088 H   0  0  0  0  0  0  0  0  0  0  0  0
   -3.4184   -0.6718   -1.8435 H   0  0  0  0  0  0  0  0  0  0  0  0
   -3.9432   -3.0870   -1.4728 H   0  0  0  0  0  0  0  0  0  0  0  0
    1.3848   -2.4902   -1.0654 H   0  0  0  0  0  0  0  0  0  0  0  0
   -2.6030   -5.5055   -0.9229 H   0  0  0  0  0  0  0  0  0  0  0  0
    1.6517   -4.9113   -0.6174 H   0  0  0  0  0  0  0  0  0  0  0  0
   -0.3119   -6.4045   -0.5453 H   0  0  0  0  0  0  0  0  0  0  0  0
    2.1168    1.4003   -0.5137 N   0  0  0  0  0  0  0  0  0  0  0  0
    3.2166    2.3267   -0.6585 C   0  0  2  0  0  0  0  0  0  0  0  0
    2.9409    3.1972   -1.8774 C   0  0  0  0  0  0  0  0  0  0  0  0
    2.1903    2.8562   -2.7893 O   0  0  0  0  0  0  0  0  0  0  0  0
    4.5417    1.5944   -0.8021 C   0  0  0  0  0  0  0  0  0  0  0  0
    2.3292    0.4138   -0.3979 H   0  0  0  0  0  0  0  0  0  0  0  0
    3.2254    2.9504    0.2420 H   0  0  0  0  0  0  0  0  0  0  0  0
    4.5517    0.9642   -1.6989 H   0  0  0  0  0  0  0  0  0  0  0  0
    5.3770    2.2977   -0.8830 H   0  0  0  0  0  0  0  0  0  0  0  0
    4.7242    0.9460    0.0618 H   0  0  0  0  0  0  0  0  0  0  0  0
    3.6651    4.3808   -1.8480 N   0  0  0  0  0  0  0  0  0  0  0  0
    3.5860    5.3694   -2.8980 C   0  0  0  0  0  0  0  0  0  0  0  0
    4.2487    4.5896   -1.0434 H   0  0  0  0  0  0  0  0  0  0  0  0
    4.3769    5.1818   -3.6392 H   0  0  0  0  0  0  0  0  0  0  0  0
    2.6028    5.3067   -3.3872 H   0  0  0  0  0  0  0  0  0  0  0  0
    3.7179    6.3729   -2.4672 H   0  0  0  0  0  0  0  0  0  0  0  0
 29 30  2  0  0  0  0
 27 29  1  0  0  0  0
 28 30  1  0  0  0  0
 24 27  2  0  0  0  0
 26 28  2  0  0  0  0
 22 23  2  0  0  0  0
 23 25  1  0  0  0  0
 22 24  1  0  0  0  0
 24 26  1  0  0  0  0
 21 22  1  0  0  0  0
 25 26  1  0  0  0  0
  1  3  1  0  0  0  0
  1  7  1  0  0  0  0
  1  2  2  0  0  0  0
 42 43  1  0  0  0  0
 43 51  1  0  0  0  0
 43 44  2  0  0  0  0
  8  9  1  0  0  0  0
  9 17  1  0  0  0  0
  9 10  2  0  0  0  0
 18 19  1  0  0  0  0
 19 41  1  0  0  0  0
 19 20  2  0  0  0  0
 42 45  1  0  0  0  0
  8 11  1  0  0  0  0
 51 52  1  0  0  0  0
 18 21  1  0  0  0  0
 41 42  1  0  0  0  0
  7  8  1  0  0  0  0
 17 18  1  0  0  0  0
 29 39  1  0  0  0  0
 30 40  1  0  0  0  0
 27 37  1  0  0  0  0
 28 38  1  0  0  0  0
 23 35  1  0  0  0  0
  3  4  1  0  0  0  0
  3  5  1  0  0  0  0
  3  6  1  0  0  0  0
 45 48  1  0  0  0  0
 45 49  1  0  0  0  0
 45 50  1  0  0  0  0
 11 14  1  0  0  0  0
 11 15  1  0  0  0  0
 11 16  1  0  0  0  0
 52 54  1  0  0  0  0
 52 55  1  0  0  0  0
 52 56  1  0  0  0  0
 21 33  1  0  0  0  0
 21 34  1  0  0  0  0
 42 47  1  0  0  0  0
  8 13  1  0  0  0  0
 18 32  1  0  0  0  0
 25 36  1  0  0  0  0
 51 53  1  0  0  0  0
  7 12  1  0  0  0  0
 41 46  1  0  0  0  0
 17 31  1  0  0  0  0
M  END
$$$$

  -OEChem-05262214473D

 56 57  0     1  0  0  0  0  0999 V2000
   -2.2900    0.3401    4.1553 C   0  0  0  0  0  0  0  0  0  0  0  0
   -1.3426   -0.2746    3.6796 O   0  0  0  0  0  0  0  0  0  0  0  0
   -2.7219    0.0577    5.5560 C   0  0  0  0  0  0  0  0  0  0  0  0
   -3.4815   -0.7386    5.6094 H   0  0  0  0  0  0  0  0  0  0  0  0
   -1.8906   -0.2899    6.1903 H   0  0  0  0  0  0  0  0  0  0  0  0
   -3.1599    0.9126    6.0956 H   0  0  0  0  0  0  0  0  0  0  0  0
   -3.0397    1.3125    3.5142 N   0  0  0  0  0  0  0  0  0  0  0  0
   -2.7928    1.7385    2.1618 C   0  0  2  0  0  0  0  0  0  0  0  0
   -1.4579    1.1532    1.7206 C   0  0  0  0  0  0  0  0  0  0  0  0
   -0.5858    0.8004    2.5118 O   0  0  0  0  0  0  0  0  0  0  0  0
   -2.7841    3.2553    2.0523 C   0  0  0  0  0  0  0  0  0  0  0  0
   -3.8047    1.7484    4.0260 H   0  0  0  0  0  0  0  0  0  0  0  0
   -3.5969    1.3201    1.5466 H   0  0  0  0  0  0  0  0  0  0  0  0
   -1.9850    3.6926    2.6620 H   0  0  0  0  0  0  0  0  0  0  0  0
   -2.6246    3.5776    1.0180 H   0  0  0  0  0  0  0  0  0  0  0  0
   -3.7342    3.6765    2.3981 H   0  0  0  0  0  0  0  0  0  0  0  0
   -1.3352    1.1101    0.3372 N   0  0  0  0  0  0  0  0  0  0  0  0
   -0.1579    0.6093   -0.3265 C   0  0  2  0  0  0  0  0  0  0  0  0
    0.7849    1.7908   -0.5249 C   0  0  0  0  0  0  0  0  0  0  0  0
    0.4356    2.9590   -0.3698 O   0  0  0  0  0  0  0  0  0  0  0  0
   -0.4863   -0.0427   -1.6745 C   0  0  0  0  0  0  0  0  0  0  0  0
   -1.2904   -1.3115   -1.5287 C   0  0  0  0  0  0  0  0  0  0  0  0
   -2.6577   -1.4136   -1.6422 C   0  0  0  0  0  0  0  0  0  0  0  0
   -0.7805   -2.6110   -1.2528 C   0  0  0  0  0  0  0  0  0  0  0  0
   -3.0002   -2.7245   -1.4457 N   0  0  0  0  0  0  0  0  0  0  0  0
   -1.8737   -3.4788   -1.2060 C   0  0  0  0  0  0  0  0  0  0  0  0
    0.5102   -3.1339   -1.0377 C   0  0  0  0  0  0  0  0  0  0  0  0
   -1.7402   -4.8488   -0.9538 C   0  0  0  0  0  0  0  0  0  0  0  0
    0.6589   -4.5024   -0.7845 C   0  0  0  0  0  0  0  0  0  0  0  0
   -0.4504   -5.3448   -0.7436 C   0  0  0  0  0  0  0  0  0  0  0  0
   -2.1183    1.4068   -0.2401 H   0  0  0  0  0  0  0  0  0  0  0  0
    0.3061   -0.1087    0.3599 H   0  0  0  0  0  0  0  0  0  0  0  0
    0.4374   -0.2526   -2.2307 H   0  0  0  0  0  0  0  0  0  0  0  0
   -1.0525    0.6522   -2.3088 H   0  0  0  0  0  0  0  0  0  0  0  0
   -3.4184   -0.6718   -1.8435 H   0  0  0  0  0  0  0  0  0  0  0  0
   -3.9432   -3.0870   -1.4728 H   0  0  0  0  0  0  0  0  0  0  0  0
    1.3848   -2.4902   -1.0654 H   0  0  0  0  0  0  0  0  0  0  0  0
   -2.6030   -5.5055   -0.9229 H   0  0  0  0  0  0  0  0  0  0  0  0
    1.6517   -4.9113   -0.6174 H   0  0  0  0  0  0  0  0  0  0  0  0
   -0.3119   -6.4045   -0.5453 H   0  0  0  0  0  0  0  0  0  0  0  0
    2.0714    1.3807   -0.8460 N   0  0  0  0  0  0  0  0  0  0  0  0
    3.1658    2.2990   -1.0645 C   0  0  2  0  0  0  0  0  0  0  0  0
    2.6983    3.3617   -2.0502 C   0  0  0  0  0  0  0  0  0  0  0  0
    1.7661    3.1875   -2.8323 O   0  0  0  0  0  0  0  0  0  0  0  0
    4.3980    1.5771   -1.5874 C   0  0  0  0  0  0  0  0  0  0  0  0
    2.2530    0.3849   -0.9318 H   0  0  0  0  0  0  0  0  0  0  0  0
    3.3838    2.7669   -0.0983 H   0  0  0  0  0  0  0  0  0  0  0  0
    4.1989    1.1020   -2.5549 H   0  0  0  0  0  0  0  0  0  0  0  0
    5.2349    2.2696   -1.7253 H   0  0  0  0  0  0  0  0  0  0  0  0
    4.7151    0.7932   -0.8912 H   0  0  0  0  0  0  0  0  0  0  0  0
    3.4722    4.5118   -1.9837 N   0  0  0  0  0  0  0  0  0  0  0  0
    3.2366    5.6600   -2.8275 C   0  0  0  0  0  0  0  0  0  0  0  0
    4.2132    4.5762   -1.2919 H   0  0  0  0  0  0  0  0  0  0  0  0
    3.8548    5.5825   -3.7341 H   0  0  0  0  0  0  0  0  0  0  0  0
    2.1741    5.6952   -3.1103 H   0  0  0  0  0  0  0  0  0  0  0  0
    3.5011    6.5772   -2.2808 H   0  0  0  0  0  0  0  0  0  0  0  0
 29 30  2  0  0  0  0
 27 29  1  0  0  0  0
 28 30  1  0  0  0  0
 24 27  2  0  0  0  0
 26 28  2  0  0  0  0
 22 23  2  0  0  0  0
 23 25  1  0  0  0  0
 22 24  1  0  0  0  0
 24 26  1  0  0  0  0
 21 22  1  0  0  0  0
 25 26  1  0  0  0  0
  1  3  1  0  0  0  0
  1  7  1  0  0  0  0
  1  2  2  0  0  0  0
 42 43  1  0  0  0  0
 43 51  1  0  0  0  0
 43 44  2  0  0  0  0
  8  9  1  0  0  0  0
  9 17  1  0  0  0  0
  9 10  2  0  0  0  0
 18 19  1  0  0  0  0
 19 41  1  0  0  0  0
 19 20  2  0  0  0  0
 42 45  1  0  0  0  0
  8 11  1  0  0  0  0
 51 52  1  0  0  0  0
 18 21  1  0  0  0  0
 41 42  1  0  0  0  0
  7  8  1  0  0  0  0
 17 18  1  0  0  0  0
 29 39  1  0  0  0  0
 30 40  1  0  0  0  0
 27 37  1  0  0  0  0
 28 38  1  0  0  0  0
 23 35  1  0  0  0  0
  3  4  1  0  0  0  0
  3  5  1  0  0  0  0
  3  6  1  0  0  0  0
 45 48  1  0  0  0  0
 45 49  1  0  0  0  0
 45 50  1  0  0  0  0
 11 14  1  0  0  0  0
 11 15  1  0  0  0  0
 11 16  1  0  0  0  0
 52 54  1  0  0  0  0
 52 55  1  0  0  0  0
 52 56  1  0  0  0  0
 21 33  1  0  0  0  0
 21 34  1  0  0  0  0
 42 47  1  0  0  0  0
  8 13  1  0  0  0  0
 18 32  1  0  0  0  0
 25 36  1  0  0  0  0
 51 53  1  0  0  0  0
  7 12  1  0  0  0  0
 41 46  1  0  0  0  0
 17 31  1  0  0  0  0
M  END
$$$$

  -OEChem-05262214473D

 56 57  0     1  0  0  0  0  0999 V2000
   -2.2900    0.3401    4.1553 C   0  0  0  0  0  0  0  0  0  0  0  0
   -1.3426   -0.2746    3.6796 O   0  0  0  0  0  0  0  0  0  0  0  0
   -2.7219    0.0577    5.5560 C   0  0  0  0  0  0  0  0  0  0  0  0
   -3.4815   -0.7386    5.6094 H   0  0  0  0  0  0  0  0  0  0  0  0
   -1.8906   -0.2899    6.1903 H   0  0  0  0  0  0  0  0  0  0  0  0
   -3.1599    0.9126    6.0956 H   0  0  0  0  0  0  0  0  0  0  0  0
   -3.0397    1.3125    3.5142 N   0  0  0  0  0  0  0  0  0  0  0  0
   -2.7928    1.7385    2.1618 C   0  0  2  0  0  0  0  0  0  0  0  0
   -1.4579    1.1532    1.7206 C   0  0  0  0  0  0  0  0  0  0  0  0
   -0.5858    0.8004    2.5118 O   0  0  0  0  0  0  0  0  0  0  0  0
   -2.7841    3.2553    2.0523 C   0  0  0  0  0  0  0  0  0  0  0  0
   -3.8047    1.7484    4.0260 H   0  0  0  0  0  0  0  0  0  0  0  0
   -3.5969    1.3201    1.5466 H   0  0  0  0  0  0  0  0  0  0  0  0
   -1.9850    3.6926    2.6620 H   0  0  0  0  0  0  0  0  0  0  0  0
   -2.6246    3.5776    1.0180 H   0  0  0  0  0  0  0  0  0  0  0  0
   -3.7342    3.6765    2.3981 H   0  0  0  0  0  0  0  0  0  0  0  0
   -1.3352    1.1101    0.3372 N   0  0  0  0  0  0  0  0  0  0  0  0
   -0.1579    0.6093   -0.3265 C   0  0  2  0  0  0  0  0  0  0  0  0
    0.9240    1.6748   -0.1907 C   0  0  0  0  0  0  0  0  0  0  0  0
    0.7566    2.7233    0.4286 O   0  0  0  0  0  0  0  0  0  0  0  0
   -0.4155    0.2968   -1.8051 C   0  0  0  0  0  0  0  0  0  0  0  0
   -1.3644   -0.8604   -2.0003 C   0  0  0  0  0  0  0  0  0  0  0  0
   -2.7157   -0.7599   -2.2384 C   0  0  0  0  0  0  0  0  0  0  0  0
   -1.0309   -2.2435   -1.9743 C   0  0  0  0  0  0  0  0  0  0  0  0
   -3.2180   -2.0279   -2.3579 N   0  0  0  0  0  0  0  0  0  0  0  0
   -2.2116   -2.9541   -2.2012 C   0  0  0  0  0  0  0  0  0  0  0  0
    0.1657   -2.9613   -1.7789 C   0  0  0  0  0  0  0  0  0  0  0  0
   -2.2556   -4.3522   -2.2427 C   0  0  0  0  0  0  0  0  0  0  0  0
    0.1369   -4.3601   -1.8177 C   0  0  0  0  0  0  0  0  0  0  0  0
   -1.0562   -5.0428   -2.0462 C   0  0  0  0  0  0  0  0  0  0  0  0
   -2.1183    1.4068   -0.2401 H   0  0  0  0  0  0  0  0  0  0  0  0
    0.1517   -0.2884    0.2216 H   0  0  0  0  0  0  0  0  0  0  0  0
    0.5319    0.0887   -2.3205 H   0  0  0  0  0  0  0  0  0  0  0  0
   -0.8340    1.1744   -2.3153 H   0  0  0  0  0  0  0  0  0  0  0  0
   -3.3658    0.0991   -2.3321 H   0  0  0  0  0  0  0  0  0  0  0  0
   -4.1873   -2.2525   -2.5355 H   0  0  0  0  0  0  0  0  0  0  0  0
    1.1038   -2.4439   -1.5988 H   0  0  0  0  0  0  0  0  0  0  0  0
   -3.1836   -4.8844   -2.4216 H   0  0  0  0  0  0  0  0  0  0  0  0
    1.0565   -4.9192   -1.6673 H   0  0  0  0  0  0  0  0  0  0  0  0
   -1.0557   -6.1294   -2.0724 H   0  0  0  0  0  0  0  0  0  0  0  0
    2.1105    1.2912   -0.8003 N   0  0  0  0  0  0  0  0  0  0  0  0
    3.3031    2.1074   -0.7995 C   0  0  2  0  0  0  0  0  0  0  0  0
    2.9148    3.5081   -1.2543 C   0  0  0  0  0  0  0  0  0  0  0  0
    1.9089    3.7421   -1.9210 O   0  0  0  0  0  0  0  0  0  0  0  0
    4.3760    1.5204   -1.7033 C   0  0  0  0  0  0  0  0  0  0  0  0
    2.1421    0.3915   -1.2707 H   0  0  0  0  0  0  0  0  0  0  0  0
    3.6601    2.1448    0.2355 H   0  0  0  0  0  0  0  0  0  0  0  0
    4.0365    1.4750   -2.7446 H   0  0  0  0  0  0  0  0  0  0  0  0
    5.2891    2.1245   -1.6795 H   0  0  0  0  0  0  0  0  0  0  0  0
    4.6328    0.5019   -1.3928 H   0  0  0  0  0  0  0  0  0  0  0  0
    3.8463    4.4603   -0.8649 N   0  0  0  0  0  0  0  0  0  0  0  0
    3.7100    5.8617   -1.1868 C   0  0  0  0  0  0  0  0  0  0  0  0
    4.6409    4.1794   -0.2979 H   0  0  0  0  0  0  0  0  0  0  0  0
    4.2380    6.0753   -2.1278 H   0  0  0  0  0  0  0  0  0  0  0  0
    2.6443    6.1097   -1.2999 H   0  0  0  0  0  0  0  0  0  0  0  0
    4.1435    6.4675   -0.3775 H   0  0  0  0  0  0  0  0  0  0  0  0
 29 30  2  0  0  0  0
 27 29  1  0  0  0  0
 28 30  1  0  0  0  0
 24 27  2  0  0  0  0
 26 28  2  0  0  0  0
 22 23  2  0  0  0  0
 23 25  1  0  0  0  0
 22 24  1  0  0  0  0
 24 26  1  0  0  0  0
 21 22  1  0  0  0  0
 25 26  1  0  0  0  0
  1  3  1  0  0  0  0
  1  7  1  0  0  0  0
  1  2  2  0  0  0  0
 42 43  1  0  0  0  0
 43 51  1  0  0  0  0
 43 44  2  0  0  0  0
  8  9  1  0  0  0  0
  9 17  1  0  0  0  0
  9 10  2  0  0  0  0
 18 19  1  0  0  0  0
 19 41  1  0  0  0  0
 19 20  2  0  0  0  0
 42 45  1  0  0  0  0
  8 11  1  0  0  0  0
 51 52  1  0  0  0  0
 18 21  1  0  0  0  0
 41 42  1  0  0  0  0
  7  8  1  0  0  0  0
 17 18  1  0  0  0  0
 29 39  1  0  0  0  0
 30 40  1  0  0  0  0
 27 37  1  0  0  0  0
 28 38  1  0  0  0  0
 23 35  1  0  0  0  0
  3  4  1  0  0  0  0
  3  5  1  0  0  0  0
  3  6  1  0  0  0  0
 45 48  1  0  0  0  0
 45 49  1  0  0  0  0
 45 50  1  0  0  0  0
 11 14  1  0  0  0  0
 11 15  1  0  0  0  0
 11 16  1  0  0  0  0
 52 54  1  0  0  0  0
 52 55  1  0  0  0  0
 52 56  1  0  0  0  0
 21 33  1  0  0  0  0
 21 34  1  0  0  0  0
 42 47  1  0  0  0  0
  8 13  1  0  0  0  0
 18 32  1  0  0  0  0
 25 36  1  0  0  0  0
 51 53  1  0  0  0  0
  7 12  1  0  0  0  0
 41 46  1  0  0  0  0
 17 31  1  0  0  0  0
M  END
$$$$

  -OEChem-05262214473D

 56 57  0     1  0  0  0  0  0999 V2000
   -2.2900    0.3401    4.1553 C   0  0  0  0  0  0  0  0  0  0  0  0
   -1.3426   -0.2746    3.6796 O   0  0  0  0  0  0  0  0  0  0  0  0
   -2.7219    0.0577    5.5560 C   0  0  0  0  0  0  0  0  0  0  0  0
   -3.4815   -0.7386    5.6094 H   0  0  0  0  0  0  0  0  0  0  0  0
   -1.8906   -0.2899    6.1903 H   0  0  0  0  0  0  0  0  0  0  0  0
   -3.1599    0.9126    6.0956 H   0  0  0  0  0  0  0  0  0  0  0  0
   -3.0397    1.3125    3.5142 N   0  0  0  0  0  0  0  0  0  0  0  0
   -2.7928    1.7385    2.1618 C   0  0  2  0  0  0  0  0  0  0  0  0
   -1.4579    1.1532    1.7206 C   0  0  0  0  0  0  0  0  0  0  0  0
   -0.5858    0.8004    2.5118 O   0  0  0  0  0  0  0  0  0  0  0  0
   -2.7841    3.2553    2.0523 C   0  0  0  0  0  0  0  0  0  0  0  0
   -3.8047    1.7484    4.0260 H   0  0  0  0  0  0  0  0  0  0  0  0
   -3.5969    1.3201    1.5466 H   0  0  0  0  0  0  0  0  0  0  0  0
   -1.9850    3.6926    2.6620 H   0  0  0  0  0  0  0  0  0  0  0  0
   -2.6246    3.5776    1.0180 H   0  0  0  0  0  0  0  0  0  0  0  0
   -3.7342    3.6765    2.3981 H   0  0  0  0  0  0  0  0  0  0  0  0
   -1.3352    1.1101    0.3372 N   0  0  0  0  0  0  0  0  0  0  0  0
   -0.1579    0.6093   -0.3265 C   0  0  2  0  0  0  0  0  0  0  0  0
    0.9240    1.6748   -0.1907 C   0  0  0  0  0  0  0  0  0  0  0  0
    0.8663    2.5859    0.6324 O   0  0  0  0  0  0  0  0  0  0  0  0
   -0.4155    0.2968   -1.8051 C   0  0  0  0  0  0  0  0  0  0  0  0
   -1.3644   -0.8604   -2.0003 C   0  0  0  0  0  0  0  0  0  0  0  0
   -2.7157   -0.7599   -2.2384 C   0  0  0  0  0  0  0  0  0  0  0  0
   -1.0309   -2.2435   -1.9743 C   0  0  0  0  0  0  0  0  0  0  0  0
   -3.2180   -2.0279   -2.3579 N   0  0  0  0  0  0  0  0  0  0  0  0
   -2.2116   -2.9541   -2.2012 C   0  0  0  0  0  0  0  0  0  0  0  0
    0.1657   -2.9613   -1.7789 C   0  0  0  0  0  0  0  0  0  0  0  0
   -2.2556   -4.3522   -2.2427 C   0  0  0  0  0  0  0  0  0  0  0  0
    0.1369   -4.3601   -1.8177 C   0  0  0  0  0  0  0  0  0  0  0  0
   -1.0562   -5.0428   -2.0462 C   0  0  0  0  0  0  0  0  0  0  0  0
   -2.1183    1.4068   -0.2401 H   0  0  0  0  0  0  0  0  0  0  0  0
    0.1517   -0.2884    0.2216 H   0  0  0  0  0  0  0  0  0  0  0  0
    0.5319    0.0887   -2.3205 H   0  0  0  0  0  0  0  0  0  0  0  0
   -0.8340    1.1744   -2.3153 H   0  0  0  0  0  0  0  0  0  0  0  0
   -3.3658    0.0991   -2.3321 H   0  0  0  0  0  0  0  0  0  0  0  0
   -4.1873   -2.2525   -2.5355 H   0  0  0  0  0  0  0  0  0  0  0  0
    1.1038   -2.4439   -1.5988 H   0  0  0  0  0  0  0  0  0  0  0  0
   -3.1836   -4.8844   -2.4216 H   0  0  0  0  0  0  0  0  0  0  0  0
    1.0565   -4.9192   -1.6673 H   0  0  0  0  0  0  0  0  0  0  0  0
   -1.0557   -6.1294   -2.0724 H   0  0  0  0  0  0  0  0  0  0  0  0
    1.9812    1.4560   -1.0630 N   0  0  0  0  0  0  0  0  0  0  0  0
    3.1488    2.3055   -1.1237 C   0  0  2  0  0  0  0  0  0  0  0  0
    2.6751    3.7488   -1.2335 C   0  0  0  0  0  0  0  0  0  0  0  0
    1.5628    4.0595   -1.6544 O   0  0  0  0  0  0  0  0  0  0  0  0
    4.0417    1.9357   -2.2979 C   0  0  0  0  0  0  0  0  0  0  0  0
    1.9317    0.6586   -1.6904 H   0  0  0  0  0  0  0  0  0  0  0  0
    3.6889    2.1685   -0.1806 H   0  0  0  0  0  0  0  0  0  0  0  0
    3.5177    2.0665   -3.2516 H   0  0  0  0  0  0  0  0  0  0  0  0
    4.9400    2.5613   -2.3258 H   0  0  0  0  0  0  0  0  0  0  0  0
    4.3573    0.8887   -2.2329 H   0  0  0  0  0  0  0  0  0  0  0  0
    3.6563    4.6509   -0.8469 N   0  0  0  0  0  0  0  0  0  0  0  0
    3.4547    6.0808   -0.8731 C   0  0  0  0  0  0  0  0  0  0  0  0
    4.5430    4.3037   -0.4932 H   0  0  0  0  0  0  0  0  0  0  0  0
    3.8003    6.4827   -1.8370 H   0  0  0  0  0  0  0  0  0  0  0  0
    2.3848    6.3026   -0.7459 H   0  0  0  0  0  0  0  0  0  0  0  0
    4.0254    6.5465   -0.0561 H   0  0  0  0  0  0  0  0  0  0  0  0
 29 30  2  0  0  0  0
 27 29  1  0  0  0  0
 28 30  1  0  0  0  0
 24 27  2  0  0  0  0
 26 28  2  0  0  0  0
 22 23  2  0  0  0  0
 23 25  1  0  0  0  0
 22 24  1  0  0  0  0
 24 26  1  0  0  0  0
 21 22  1  0  0  0  0
 25 26  1  0  0  0  0
  1  3  1  0  0  0  0
  1  7  1  0  0  0  0
  1  2  2  0  0  0  0
 42 43  1  0  0  0  0
 43 51  1  0  0  0  0
 43 44  2  0  0  0  0
  8  9  1  0  0  0  0
  9 17  1  0  0  0  0
  9 10  2  0  0  0  0
 18 19  1  0  0  0  0
 19 41  1  0  0  0  0
 19 20  2  0  0  0  0
 42 45  1  0  0  0  0
  8 11  1  0  0  0  0
 51 52  1  0  0  0  0
 18 21  1  0  0  0  0
 41 42  1  0  0  0  0
  7  8  1  0  0  0  0
 17 18  1  0  0  0  0
 29 39  1  0  0  0  0
 30 40  1  0  0  0  0
 27 37  1  0  0  0  0
 28 38  1  0  0  0  0
 23 35  1  0  0  0  0
  3  4  1  0  0  0  0
  3  5  1  0  0  0  0
  3  6  1  0  0  0  0
 45 48  1  0  0  0  0
 45 49  1  0  0  0  0
 45 50  1  0  0  0  0
 11 14  1  0  0  0  0
 11 15  1  0  0  0  0
 11 16  1  0  0  0  0
 52 54  1  0  0  0  0
 52 55  1  0  0  0  0
 52 56  1  0  0  0  0
 21 33  1  0  0  0  0
 21 34  1  0  0  0  0
 42 47  1  0  0  0  0
  8 13  1  0  0  0  0
 18 32  1  0  0  0  0
 25 36  1  0  0  0  0
 51 53  1  0  0  0  0
  7 12  1  0  0  0  0
 41 46  1  0  0  0  0
 17 31  1  0  0  0  0
M  END
$$$$

  -OEChem-05262214473D

 56 57  0     1  0  0  0  0  0999 V2000
   -2.2900    0.3401    4.1553 C   0  0  0  0  0  0  0  0  0  0  0  0
   -1.3426   -0.2746    3.6796 O   0  0  0  0  0  0  0  0  0  0  0  0
   -2.7219    0.0577    5.5560 C   0  0  0  0  0  0  0  0  0  0  0  0
   -3.4815   -0.7386    5.6094 H   0  0  0  0  0  0  0  0  0  0  0  0
   -1.8906   -0.2899    6.1903 H   0  0  0  0  0  0  0  0  0  0  0  0
   -3.1599    0.9126    6.0956 H   0  0  0  0  0  0  0  0  0  0  0  0
   -3.0397    1.3125    3.5142 N   0  0  0  0  0  0  0  0  0  0  0  0
   -2.7928    1.7385    2.1618 C   0  0  2  0  0  0  0  0  0  0  0  0
   -1.4579    1.1532    1.7206 C   0  0  0  0  0  0  0  0  0  0  0  0
   -0.5858    0.8004    2.5118 O   0  0  0  0  0  0  0  0  0  0  0  0
   -2.7841    3.2553    2.0523 C   0  0  0  0  0  0  0  0  0  0  0  0
   -3.8047    1.7484    4.0260 H   0  0  0  0  0  0  0  0  0  0  0  0
   -3.5969    1.3201    1.5466 H   0  0  0  0  0  0  0  0  0  0  0  0
   -1.9850    3.6926    2.6620 H   0  0  0  0  0  0  0  0  0  0  0  0
   -2.6246    3.5776    1.0180 H   0  0  0  0  0  0  0  0  0  0  0  0
   -3.7342    3.6765    2.3981 H   0  0  0  0  0  0  0  0  0  0  0  0
   -1.3352    1.1101    0.3372 N   0  0  0  0  0  0  0  0  0  0  0  0
   -0.1579    0.6093   -0.3265 C   0  0  2  0  0  0  0  0  0  0  0  0
    0.9240    1.6748   -0.1907 C   0  0  0  0  0  0  0  0  0  0  0  0
    1.0123    2.4183    0.7842 O   0  0  0  0  0  0  0  0  0  0  0  0
   -0.4155    0.2968   -1.8051 C   0  0  0  0  0  0  0  0  0  0  0  0
   -1.3644   -0.8604   -2.0003 C   0  0  0  0  0  0  0  0  0  0  0  0
   -2.7157   -0.7599   -2.2384 C   0  0  0  0  0  0  0  0  0  0  0  0
   -1.0309   -2.2435   -1.9743 C   0  0  0  0  0  0  0  0  0  0  0  0
   -3.2180   -2.0279   -2.3579 N   0  0  0  0  0  0  0  0  0  0  0  0
   -2.2116   -2.9541   -2.2012 C   0  0  0  0  0  0  0  0  0  0  0  0
    0.1657   -2.9613   -1.7789 C   0  0  0  0  0  0  0  0  0  0  0  0
   -2.2556   -4.3522   -2.2427 C   0  0  0  0  0  0  0  0  0  0  0  0
    0.1369   -4.3601   -1.8177 C   0  0  0  0  0  0  0  0  0  0  0  0
   -1.0562   -5.0428   -2.0462 C   0  0  0  0  0  0  0  0  0  0  0  0
   -2.1183    1.4068   -0.2401 H   0  0  0  0  0  0  0  0  0  0  0  0
    0.1517   -0.2884    0.2216 H   0  0  0  0  0  0  0  0  0  0  0  0
    0.5319    0.0887   -2.3205 H   0  0  0  0  0  0  0  0  0  0  0  0
   -0.8340    1.1744   -2.3153 H   0  0  0  0  0  0  0  0  0  0  0  0
   -3.3658    0.0991   -2.3321 H   0  0  0  0  0  0  0  0  0  0  0  0
   -4.1873   -2.2525   -2.5355 H   0  0  0  0  0  0  0  0  0  0  0  0
    1.1038   -2.4439   -1.5988 H   0  0  0  0  0  0  0  0  0  0  0  0
   -3.1836   -4.8844   -2.4216 H   0  0  0  0  0  0  0  0  0  0  0  0
    1.0565   -4.9192   -1.6673 H   0  0  0  0  0  0  0  0  0  0  0  0
   -1.0557   -6.1294   -2.0724 H   0  0  0  0  0  0  0  0  0  0  0  0
    1.8050    1.6604   -1.2631 N   0  0  0  0  0  0  0  0  0  0  0  0
    2.9365    2.5528   -1.3726 C   0  0  2  0  0  0  0  0  0  0  0  0
    2.4419    3.9719   -1.1259 C   0  0  0  0  0  0  0  0  0  0  0  0
    1.2693    4.3092   -1.2760 O   0  0  0  0  0  0  0  0  0  0  0  0
    3.6017    2.4383   -2.7354 C   0  0  0  0  0  0  0  0  0  0  0  0
    1.6464    0.9889   -2.0086 H   0  0  0  0  0  0  0  0  0  0  0  0
    3.6410    2.2686   -0.5834 H   0  0  0  0  0  0  0  0  0  0  0  0
    2.9111    2.7191   -3.5390 H   0  0  0  0  0  0  0  0  0  0  0  0
    4.4758    3.0940   -2.8066 H   0  0  0  0  0  0  0  0  0  0  0  0
    3.9302    1.4104   -2.9236 H   0  0  0  0  0  0  0  0  0  0  0  0
    3.4717    4.8274   -0.7601 N   0  0  0  0  0  0  0  0  0  0  0  0
    3.2599    6.2291   -0.4838 C   0  0  0  0  0  0  0  0  0  0  0  0
    4.4102    4.4574   -0.6414 H   0  0  0  0  0  0  0  0  0  0  0  0
    3.4207    6.8128   -1.4022 H   0  0  0  0  0  0  0  0  0  0  0  0
    2.2300    6.3811   -0.1284 H   0  0  0  0  0  0  0  0  0  0  0  0
    3.9675    6.5611    0.2902 H   0  0  0  0  0  0  0  0  0  0  0  0
 29 30  2  0  0  0  0
 27 29  1  0  0  0  0
 28 30  1  0  0  0  0
 24 27  2  0  0  0  0
 26 28  2  0  0  0  0
 22 23  2  0  0  0  0
 23 25  1  0  0  0  0
 22 24  1  0  0  0  0
 24 26  1  0  0  0  0
 21 22  1  0  0  0  0
 25 26  1  0  0  0  0
  1  3  1  0  0  0  0
  1  7  1  0  0  0  0
  1  2  2  0  0  0  0
 42 43  1  0  0  0  0
 43 51  1  0  0  0  0
 43 44  2  0  0  0  0
  8  9  1  0  0  0  0
  9 17  1  0  0  0  0
  9 10  2  0  0  0  0
 18 19  1  0  0  0  0
 19 41  1  0  0  0  0
 19 20  2  0  0  0  0
 42 45  1  0  0  0  0
  8 11  1  0  0  0  0
 51 52  1  0  0  0  0
 18 21  1  0  0  0  0
 41 42  1  0  0  0  0
  7  8  1  0  0  0  0
 17 18  1  0  0  0  0
 29 39  1  0  0  0  0
 30 40  1  0  0  0  0
 27 37  1  0  0  0  0
 28 38  1  0  0  0  0
 23 35  1  0  0  0  0
  3  4  1  0  0  0  0
  3  5  1  0  0  0  0
  3  6  1  0  0  0  0
 45 48  1  0  0  0  0
 45 49  1  0  0  0  0
 45 50  1  0  0  0  0
 11 14  1  0  0  0  0
 11 15  1  0  0  0  0
 11 16  1  0  0  0  0
 52 54  1  0  0  0  0
 52 55  1  0  0  0  0
 52 56  1  0  0  0  0
 21 33  1  0  0  0  0
 21 34  1  0  0  0  0
 42 47  1  0  0  0  0
  8 13  1  0  0  0  0
 18 32  1  0  0  0  0
 25 36  1  0  0  0  0
 51 53  1  0  0  0  0
  7 12  1  0  0  0  0
 41 46  1  0  0  0  0
 17 31  1  0  0  0  0
M  END
$$$$

  -OEChem-05262214473D

 56 57  0     1  0  0  0  0  0999 V2000
   -2.2900    0.3401    4.1553 C   0  0  0  0  0  0  0  0  0  0  0  0
   -1.3426   -0.2746    3.6796 O   0  0  0  0  0  0  0  0  0  0  0  0
   -2.7219    0.0577    5.5560 C   0  0  0  0  0  0  0  0  0  0  0  0
   -3.4815   -0.7386    5.6094 H   0  0  0  0  0  0  0  0  0  0  0  0
   -1.8906   -0.2899    6.1903 H   0  0  0  0  0  0  0  0  0  0  0  0
   -3.1599    0.9126    6.0956 H   0  0  0  0  0  0  0  0  0  0  0  0
   -3.0397    1.3125    3.5142 N   0  0  0  0  0  0  0  0  0  0  0  0
   -2.7928    1.7385    2.1618 C   0  0  2  0  0  0  0  0  0  0  0  0
   -1.4579    1.1532    1.7206 C   0  0  0  0  0  0  0  0  0  0  0  0
   -0.5858    0.8004    2.5118 O   0  0  0  0  0  0  0  0  0  0  0  0
   -2.7841    3.2553    2.0523 C   0  0  0  0  0  0  0  0  0  0  0  0
   -3.8047    1.7484    4.0260 H   0  0  0  0  0  0  0  0  0  0  0  0
   -3.5969    1.3201    1.5466 H   0  0  0  0  0  0  0  0  0  0  0  0
   -1.9850    3.6926    2.6620 H   0  0  0  0  0  0  0  0  0  0  0  0
   -2.6246    3.5776    1.0180 H   0  0  0  0  0  0  0  0  0  0  0  0
   -3.7342    3.6765    2.3981 H   0  0  0  0  0  0  0  0  0  0  0  0
   -1.3352    1.1101    0.3372 N   0  0  0  0  0  0  0  0  0  0  0  0
   -0.1579    0.6093   -0.3265 C   0  0  2  0  0  0  0  0  0  0  0  0
    0.9240    1.6748   -0.1907 C   0  0  0  0  0  0  0  0  0  0  0  0
    1.1847    2.2318    0.8736 O   0  0  0  0  0  0  0  0  0  0  0  0
   -0.4155    0.2968   -1.8051 C   0  0  0  0  0  0  0  0  0  0  0  0
   -1.3644   -0.8604   -2.0003 C   0  0  0  0  0  0  0  0  0  0  0  0
   -2.7157   -0.7599   -2.2384 C   0  0  0  0  0  0  0  0  0  0  0  0
   -1.0309   -2.2435   -1.9743 C   0  0  0  0  0  0  0  0  0  0  0  0
   -3.2180   -2.0279   -2.3579 N   0  0  0  0  0  0  0  0  0  0  0  0
   -2.2116   -2.9541   -2.2012 C   0  0  0  0  0  0  0  0  0  0  0  0
    0.1657   -2.9613   -1.7789 C   0  0  0  0  0  0  0  0  0  0  0  0
   -2.2556   -4.3522   -2.2427 C   0  0  0  0  0  0  0  0  0  0  0  0
    0.1369   -4.3601   -1.8177 C   0  0  0  0  0  0  0  0  0  0  0  0
   -1.0562   -5.0428   -2.0462 C   0  0  0  0  0  0  0  0  0  0  0  0
   -2.1183    1.4068   -0.2401 H   0  0  0  0  0  0  0  0  0  0  0  0
    0.1517   -0.2884    0.2216 H   0  0  0  0  0  0  0  0  0  0  0  0
    0.5319    0.0887   -2.3205 H   0  0  0  0  0  0  0  0  0  0  0  0
   -0.8340    1.1744   -2.3153 H   0  0  0  0  0  0  0  0  0  0  0  0
   -3.3658    0.0991   -2.3321 H   0  0  0  0  0  0  0  0  0  0  0  0
   -4.1873   -2.2525   -2.5355 H   0  0  0  0  0  0  0  0  0  0  0  0
    1.1038   -2.4439   -1.5988 H   0  0  0  0  0  0  0  0  0  0  0  0
   -3.1836   -4.8844   -2.4216 H   0  0  0  0  0  0  0  0  0  0  0  0
    1.0565   -4.9192   -1.6673 H   0  0  0  0  0  0  0  0  0  0  0  0
   -1.0557   -6.1294   -2.0724 H   0  0  0  0  0  0  0  0  0  0  0  0
    1.5938    1.8906   -1.3870 N   0  0  0  0  0  0  0  0  0  0  0  0
    2.6807    2.8325   -1.5293 C   0  0  2  0  0  0  0  0  0  0  0  0
    2.2308    4.1623   -0.9388 C   0  0  0  0  0  0  0  0  0  0  0  0
    1.0486    4.4741   -0.8116 O   0  0  0  0  0  0  0  0  0  0  0  0
    3.0859    2.9939   -2.9861 C   0  0  0  0  0  0  0  0  0  0  0  0
    1.3057    1.3597   -2.2037 H   0  0  0  0  0  0  0  0  0  0  0  0
    3.5195    2.4381   -0.9454 H   0  0  0  0  0  0  0  0  0  0  0  0
    2.2582    3.3881   -3.5869 H   0  0  0  0  0  0  0  0  0  0  0  0
    3.9281    3.6861   -3.0893 H   0  0  0  0  0  0  0  0  0  0  0  0
    3.3808    2.0313   -3.4176 H   0  0  0  0  0  0  0  0  0  0  0  0
    3.3050    4.9776   -0.6105 N   0  0  0  0  0  0  0  0  0  0  0  0
    3.1387    6.2962   -0.0452 C   0  0  0  0  0  0  0  0  0  0  0  0
    4.2516    4.6301   -0.7323 H   0  0  0  0  0  0  0  0  0  0  0  0
    3.1251    7.0429   -0.8528 H   0  0  0  0  0  0  0  0  0  0  0  0
    2.1903    6.3399    0.5104 H   0  0  0  0  0  0  0  0  0  0  0  0
    3.9740    6.5102    0.6378 H   0  0  0  0  0  0  0  0  0  0  0  0
 29 30  2  0  0  0  0
 27 29  1  0  0  0  0
 28 30  1  0  0  0  0
 24 27  2  0  0  0  0
 26 28  2  0  0  0  0
 22 23  2  0  0  0  0
 23 25  1  0  0  0  0
 22 24  1  0  0  0  0
 24 26  1  0  0  0  0
 21 22  1  0  0  0  0
 25 26  1  0  0  0  0
  1  3  1  0  0  0  0
  1  7  1  0  0  0  0
  1  2  2  0  0  0  0
 42 43  1  0  0  0  0
 43 51  1  0  0  0  0
 43 44  2  0  0  0  0
  8  9  1  0  0  0  0
  9 17  1  0  0  0  0
  9 10  2  0  0  0  0
 18 19  1  0  0  0  0
 19 41  1  0  0  0  0
 19 20  2  0  0  0  0
 42 45  1  0  0  0  0
  8 11  1  0  0  0  0
 51 52  1  0  0  0  0
 18 21  1  0  0  0  0
 41 42  1  0  0  0  0
  7  8  1  0  0  0  0
 17 18  1  0  0  0  0
 29 39  1  0  0  0  0
 30 40  1  0  0  0  0
 27 37  1  0  0  0  0
 28 38  1  0  0  0  0
 23 35  1  0  0  0  0
  3  4  1  0  0  0  0
  3  5  1  0  0  0  0
  3  6  1  0  0  0  0
 45 48  1  0  0  0  0
 45 49  1  0  0  0  0
 45 50  1  0  0  0  0
 11 14  1  0  0  0  0
 11 15  1  0  0  0  0
 11 16  1  0  0  0  0
 52 54  1  0  0  0  0
 52 55  1  0  0  0  0
 52 56  1  0  0  0  0
 21 33  1  0  0  0  0
 21 34  1  0  0  0  0
 42 47  1  0  0  0  0
  8 13  1  0  0  0  0
 18 32  1  0  0  0  0
 25 36  1  0  0  0  0
 51 53  1  0  0  0  0
  7 12  1  0  0  0  0
 41 46  1  0  0  0  0
 17 31  1  0  0  0  0
M  END
$$$$

  -OEChem-05262214473D

 56 57  0     1  0  0  0  0  0999 V2000
   -2.2900    0.3401    4.1553 C   0  0  0  0  0  0  0  0  0  0  0  0
   -1.3426   -0.2746    3.6796 O   0  0  0  0  0  0  0  0  0  0  0  0
   -2.7219    0.0577    5.5560 C   0  0  0  0  0  0  0  0  0  0  0  0
   -3.4815   -0.7386    5.6094 H   0  0  0  0  0  0  0  0  0  0  0  0
   -1.8906   -0.2899    6.1903 H   0  0  0  0  0  0  0  0  0  0  0  0
   -3.1599    0.9126    6.0956 H   0  0  0  0  0  0  0  0  0  0  0  0
   -3.0397    1.3125    3.5142 N   0  0  0  0  0  0  0  0  0  0  0  0
   -2.7928    1.7385    2.1618 C   0  0  2  0  0  0  0  0  0  0  0  0
   -1.4579    1.1532    1.7206 C   0  0  0  0  0  0  0  0  0  0  0  0
   -0.5858    0.8004    2.5118 O   0  0  0  0  0  0  0  0  0  0  0  0
   -2.7841    3.2553    2.0523 C   0  0  0  0  0  0  0  0  0  0  0  0
   -3.8047    1.7484    4.0260 H   0  0  0  0  0  0  0  0  0  0  0  0
   -3.5969    1.3201    1.5466 H   0  0  0  0  0  0  0  0  0  0  0  0
   -1.9850    3.6926    2.6620 H   0  0  0  0  0  0  0  0  0  0  0  0
   -2.6246    3.5776    1.0180 H   0  0  0  0  0  0  0  0  0  0  0  0
   -3.7342    3.6765    2.3981 H   0  0  0  0  0  0  0  0  0  0  0  0
   -1.3352    1.1101    0.3372 N   0  0  0  0  0  0  0  0  0  0  0  0
   -0.1579    0.6093   -0.3265 C   0  0  2  0  0  0  0  0  0  0  0  0
    0.9240    1.6748   -0.1907 C   0  0  0  0  0  0  0  0  0  0  0  0
    1.3716    2.0393    0.8945 O   0  0  0  0  0  0  0  0  0  0  0  0
   -0.4155    0.2968   -1.8051 C   0  0  0  0  0  0  0  0  0  0  0  0
   -1.3644   -0.8604   -2.0003 C   0  0  0  0  0  0  0  0  0  0  0  0
   -2.7157   -0.7599   -2.2384 C   0  0  0  0  0  0  0  0  0  0  0  0
   -1.0309   -2.2435   -1.9743 C   0  0  0  0  0  0  0  0  0  0  0  0
   -3.2180   -2.0279   -2.3579 N   0  0  0  0  0  0  0  0  0  0  0  0
   -2.2116   -2.9541   -2.2012 C   0  0  0  0  0  0  0  0  0  0  0  0
    0.1657   -2.9613   -1.7789 C   0  0  0  0  0  0  0  0  0  0  0  0
   -2.2556   -4.3522   -2.2427 C   0  0  0  0  0  0  0  0  0  0  0  0
    0.1369   -4.3601   -1.8177 C   0  0  0  0  0  0  0  0  0  0  0  0
   -1.0562   -5.0428   -2.0462 C   0  0  0  0  0  0  0  0  0  0  0  0
   -2.1183    1.4068   -0.2401 H   0  0  0  0  0  0  0  0  0  0  0  0
    0.1517   -0.2884    0.2216 H   0  0  0  0  0  0  0  0  0  0  0  0
    0.5319    0.0887   -2.3205 H   0  0  0  0  0  0  0  0  0  0  0  0
   -0.8340    1.1744   -2.3153 H   0  0  0  0  0  0  0  0  0  0  0  0
   -3.3658    0.0991   -2.3321 H   0  0  0  0  0  0  0  0  0  0  0  0
   -4.1873   -2.2525   -2.5355 H   0  0  0  0  0  0  0  0  0  0  0  0
    1.1038   -2.4439   -1.5988 H   0  0  0  0  0  0  0  0  0  0  0  0
   -3.1836   -4.8844   -2.4216 H   0  0  0  0  0  0  0  0  0  0  0  0
    1.0565   -4.9192   -1.6673 H   0  0  0  0  0  0  0  0  0  0  0  0
   -1.0557   -6.1294   -2.0724 H   0  0  0  0  0  0  0  0  0  0  0  0
    1.3622    2.1308   -1.4262 N   0  0  0  0  0  0  0  0  0  0  0  0
    2.3989    3.1255   -1.5829 C   0  0  2  0  0  0  0  0  0  0  0  0
    2.0565    4.3070   -0.6849 C   0  0  0  0  0  0  0  0  0  0  0  0
    0.9156    4.5431   -0.2928 O   0  0  0  0  0  0  0  0  0  0  0  0
    2.5295    3.5648   -3.0329 C   0  0  0  0  0  0  0  0  0  0  0  0
    0.9327    1.7459   -2.2624 H   0  0  0  0  0  0  0  0  0  0  0  0
    3.3328    2.6655   -1.2419 H   0  0  0  0  0  0  0  0  0  0  0  0
    1.6034    4.0282   -3.3922 H   0  0  0  0  0  0  0  0  0  0  0  0
    3.3344    4.2973   -3.1546 H   0  0  0  0  0  0  0  0  0  0  0  0
    2.7464    2.7091   -3.6814 H   0  0  0  0  0  0  0  0  0  0  0  0
    3.1675    5.0914   -0.4082 N   0  0  0  0  0  0  0  0  0  0  0  0
    3.0994    6.2778    0.4127 C   0  0  0  0  0  0  0  0  0  0  0  0
    4.0780    4.8098   -0.7596 H   0  0  0  0  0  0  0  0  0  0  0  0
    2.9336    7.1575   -0.2265 H   0  0  0  0  0  0  0  0  0  0  0  0
    2.2685    6.1819    1.1272 H   0  0  0  0  0  0  0  0  0  0  0  0
    4.0443    6.3974    0.9631 H   0  0  0  0  0  0  0  0  0  0  0  0
 29 30  2  0  0  0  0
 27 29  1  0  0  0  0
 28 30  1  0  0  0  0
 24 27  2  0  0  0  0
 26 28  2  0  0  0  0
 22 23  2  0  0  0  0
 23 25  1  0  0  0  0
 22 24  1  0  0  0  0
 24 26  1  0  0  0  0
 21 22  1  0  0  0  0
 25 26  1  0  0  0  0
  1  3  1  0  0  0  0
  1  7  1  0  0  0  0
  1  2  2  0  0  0  0
 42 43  1  0  0  0  0
 43 51  1  0  0  0  0
 43 44  2  0  0  0  0
  8  9  1  0  0  0  0
  9 17  1  0  0  0  0
  9 10  2  0  0  0  0
 18 19  1  0  0  0  0
 19 41  1  0  0  0  0
 19 20  2  0  0  0  0
 42 45  1  0  0  0  0
  8 11  1  0  0  0  0
 51 52  1  0  0  0  0
 18 21  1  0  0  0  0
 41 42  1  0  0  0  0
  7  8  1  0  0  0  0
 17 18  1  0  0  0  0
 29 39  1  0  0  0  0
 30 40  1  0  0  0  0
 27 37  1  0  0  0  0
 28 38  1  0  0  0  0
 23 35  1  0  0  0  0
  3  4  1  0  0  0  0
  3  5  1  0  0  0  0
  3  6  1  0  0  0  0
 45 48  1  0  0  0  0
 45 49  1  0  0  0  0
 45 50  1  0  0  0  0
 11 14  1  0  0  0  0
 11 15  1  0  0  0  0
 11 16  1  0  0  0  0
 52 54  1  0  0  0  0
 52 55  1  0  0  0  0
 52 56  1  0  0  0  0
 21 33  1  0  0  0  0
 21 34  1  0  0  0  0
 42 47  1  0  0  0  0
  8 13  1  0  0  0  0
 18 32  1  0  0  0  0
 25 36  1  0  0  0  0
 51 53  1  0  0  0  0
  7 12  1  0  0  0  0
 41 46  1  0  0  0  0
 17 31  1  0  0  0  0
M  END
$$$$

  -OEChem-05262214473D

 56 57  0     1  0  0  0  0  0999 V2000
   -2.2900    0.3401    4.1553 C   0  0  0  0  0  0  0  0  0  0  0  0
   -1.3426   -0.2746    3.6796 O   0  0  0  0  0  0  0  0  0  0  0  0
   -2.7219    0.0577    5.5560 C   0  0  0  0  0  0  0  0  0  0  0  0
   -3.4815   -0.7386    5.6094 H   0  0  0  0  0  0  0  0  0  0  0  0
   -1.8906   -0.2899    6.1903 H   0  0  0  0  0  0  0  0  0  0  0  0
   -3.1599    0.9126    6.0956 H   0  0  0  0  0  0  0  0  0  0  0  0
   -3.0397    1.3125    3.5142 N   0  0  0  0  0  0  0  0  0  0  0  0
   -2.7928    1.7385    2.1618 C   0  0  2  0  0  0  0  0  0  0  0  0
   -1.4579    1.1532    1.7206 C   0  0  0  0  0  0  0  0  0  0  0  0
   -0.5858    0.8004    2.5118 O   0  0  0  0  0  0  0  0  0  0  0  0
   -2.7841    3.2553    2.0523 C   0  0  0  0  0  0  0  0  0  0  0  0
   -3.8047    1.7484    4.0260 H   0  0  0  0  0  0  0  0  0  0  0  0
   -3.5969    1.3201    1.5466 H   0  0  0  0  0  0  0  0  0  0  0  0
   -1.9850    3.6926    2.6620 H   0  0  0  0  0  0  0  0  0  0  0  0
   -2.6246    3.5776    1.0180 H   0  0  0  0  0  0  0  0  0  0  0  0
   -3.7342    3.6765    2.3981 H   0  0  0  0  0  0  0  0  0  0  0  0
   -1.3352    1.1101    0.3372 N   0  0  0  0  0  0  0  0  0  0  0  0
   -0.1579    0.6093   -0.3265 C   0  0  2  0  0  0  0  0  0  0  0  0
    0.9240    1.6748   -0.1907 C   0  0  0  0  0  0  0  0  0  0  0  0
    1.5604    1.8538    0.8456 O   0  0  0  0  0  0  0  0  0  0  0  0
   -0.4155    0.2968   -1.8051 C   0  0  0  0  0  0  0  0  0  0  0  0
   -1.3644   -0.8604   -2.0003 C   0  0  0  0  0  0  0  0  0  0  0  0
   -2.7157   -0.7599   -2.2384 C   0  0  0  0  0  0  0  0  0  0  0  0
   -1.0309   -2.2435   -1.9743 C   0  0  0  0  0  0  0  0  0  0  0  0
   -3.2180   -2.0279   -2.3579 N   0  0  0  0  0  0  0  0  0  0  0  0
   -2.2116   -2.9541   -2.2012 C   0  0  0  0  0  0  0  0  0  0  0  0
    0.1657   -2.9613   -1.7789 C   0  0  0  0  0  0  0  0  0  0  0  0
   -2.2556   -4.3522   -2.2427 C   0  0  0  0  0  0  0  0  0  0  0  0
    0.1369   -4.3601   -1.8177 C   0  0  0  0  0  0  0  0  0  0  0  0
   -1.0562   -5.0428   -2.0462 C   0  0  0  0  0  0  0  0  0  0  0  0
   -2.1183    1.4068   -0.2401 H   0  0  0  0  0  0  0  0  0  0  0  0
    0.1517   -0.2884    0.2216 H   0  0  0  0  0  0  0  0  0  0  0  0
    0.5319    0.0887   -2.3205 H   0  0  0  0  0  0  0  0  0  0  0  0
   -0.8340    1.1744   -2.3153 H   0  0  0  0  0  0  0  0  0  0  0  0
   -3.3658    0.0991   -2.3321 H   0  0  0  0  0  0  0  0  0  0  0  0
   -4.1873   -2.2525   -2.5355 H   0  0  0  0  0  0  0  0  0  0  0  0
    1.1038   -2.4439   -1.5988 H   0  0  0  0  0  0  0  0  0  0  0  0
   -3.1836   -4.8844   -2.4216 H   0  0  0  0  0  0  0  0  0  0  0  0
    1.0565   -4.9192   -1.6673 H   0  0  0  0  0  0  0  0  0  0  0  0
   -1.0557   -6.1294   -2.0724 H   0  0  0  0  0  0  0  0  0  0  0  0
    1.1258    2.3646   -1.3780 N   0  0  0  0  0  0  0  0  0  0  0  0
    2.1101    3.4119   -1.5299 C   0  0  2  0  0  0  0  0  0  0  0  0
    1.9307    4.3961   -0.3815 C   0  0  0  0  0  0  0  0  0  0  0  0
    0.8794    4.5113    0.2451 O   0  0  0  0  0  0  0  0  0  0  0  0
    1.9705    4.1121   -2.8726 C   0  0  0  0  0  0  0  0  0  0  0  0
    0.5529    2.1212   -2.1807 H   0  0  0  0  0  0  0  0  0  0  0  0
    3.0935    2.9353   -1.4529 H   0  0  0  0  0  0  0  0  0  0  0  0
    0.9914    4.5956   -2.9682 H   0  0  0  0  0  0  0  0  0  0  0  0
    2.7349    4.8860   -2.9980 H   0  0  0  0  0  0  0  0  0  0  0  0
    2.0702    3.3976   -3.6969 H   0  0  0  0  0  0  0  0  0  0  0  0
    3.0687    5.1609   -0.1670 N   0  0  0  0  0  0  0  0  0  0  0  0
    3.1447    6.1749    0.8587 C   0  0  0  0  0  0  0  0  0  0  0  0
    3.9012    4.9845   -0.7216 H   0  0  0  0  0  0  0  0  0  0  0  0
    2.8593    7.1487    0.4342 H   0  0  0  0  0  0  0  0  0  0  0  0
    2.4592    5.9178    1.6797 H   0  0  0  0  0  0  0  0  0  0  0  0
    4.1736    6.2303    1.2438 H   0  0  0  0  0  0  0  0  0  0  0  0
 29 30  2  0  0  0  0
 27 29  1  0  0  0  0
 28 30  1  0  0  0  0
 24 27  2  0  0  0  0
 26 28  2  0  0  0  0
 22 23  2  0  0  0  0
 23 25  1  0  0  0  0
 22 24  1  0  0  0  0
 24 26  1  0  0  0  0
 21 22  1  0  0  0  0
 25 26  1  0  0  0  0
  1  3  1  0  0  0  0
  1  7  1  0  0  0  0
  1  2  2  0  0  0  0
 42 43  1  0  0  0  0
 43 51  1  0  0  0  0
 43 44  2  0  0  0  0
  8  9  1  0  0  0  0
  9 17  1  0  0  0  0
  9 10  2  0  0  0  0
 18 19  1  0  0  0  0
 19 41  1  0  0  0  0
 19 20  2  0  0  0  0
 42 45  1  0  0  0  0
  8 11  1  0  0  0  0
 51 52  1  0  0  0  0
 18 21  1  0  0  0  0
 41 42  1  0  0  0  0
  7  8  1  0  0  0  0
 17 18  1  0  0  0  0
 29 39  1  0  0  0  0
 30 40  1  0  0  0  0
 27 37  1  0  0  0  0
 28 38  1  0  0  0  0
 23 35  1  0  0  0  0
  3  4  1  0  0  0  0
  3  5  1  0  0  0  0
  3  6  1  0  0  0  0
 45 48  1  0  0  0  0
 45 49  1  0  0  0  0
 45 50  1  0  0  0  0
 11 14  1  0  0  0  0
 11 15  1  0  0  0  0
 11 16  1  0  0  0  0
 52 54  1  0  0  0  0
 52 55  1  0  0  0  0
 52 56  1  0  0  0  0
 21 33  1  0  0  0  0
 21 34  1  0  0  0  0
 42 47  1  0  0  0  0
  8 13  1  0  0  0  0
 18 32  1  0  0  0  0
 25 36  1  0  0  0  0
 51 53  1  0  0  0  0
  7 12  1  0  0  0  0
 41 46  1  0  0  0  0
 17 31  1  0  0  0  0
M  END
$$$$

  -OEChem-05262214473D

 56 57  0     1  0  0  0  0  0999 V2000
   -2.2900    0.3401    4.1553 C   0  0  0  0  0  0  0  0  0  0  0  0
   -1.3426   -0.2746    3.6796 O   0  0  0  0  0  0  0  0  0  0  0  0
   -2.7219    0.0577    5.5560 C   0  0  0  0  0  0  0  0  0  0  0  0
   -3.4815   -0.7386    5.6094 H   0  0  0  0  0  0  0  0  0  0  0  0
   -1.8906   -0.2899    6.1903 H   0  0  0  0  0  0  0  0  0  0  0  0
   -3.1599    0.9126    6.0956 H   0  0  0  0  0  0  0  0  0  0  0  0
   -3.0397    1.3125    3.5142 N   0  0  0  0  0  0  0  0  0  0  0  0
   -2.7928    1.7385    2.1618 C   0  0  2  0  0  0  0  0  0  0  0  0
   -1.4579    1.1532    1.7206 C   0  0  0  0  0  0  0  0  0  0  0  0
   -0.5858    0.8004    2.5118 O   0  0  0  0  0  0  0  0  0  0  0  0
   -2.7841    3.2553    2.0523 C   0  0  0  0  0  0  0  0  0  0  0  0
   -3.8047    1.7484    4.0260 H   0  0  0  0  0  0  0  0  0  0  0  0
   -3.5969    1.3201    1.5466 H   0  0  0  0  0  0  0  0  0  0  0  0
   -1.9850    3.6926    2.6620 H   0  0  0  0  0  0  0  0  0  0  0  0
   -2.6246    3.5776    1.0180 H   0  0  0  0  0  0  0  0  0  0  0  0
   -3.7342    3.6765    2.3981 H   0  0  0  0  0  0  0  0  0  0  0  0
   -1.3352    1.1101    0.3372 N   0  0  0  0  0  0  0  0  0  0  0  0
   -0.1579    0.6093   -0.3265 C   0  0  2  0  0  0  0  0  0  0  0  0
    0.9240    1.6748   -0.1907 C   0  0  0  0  0  0  0  0  0  0  0  0
    1.7383    1.6880    0.7300 O   0  0  0  0  0  0  0  0  0  0  0  0
   -0.4155    0.2968   -1.8051 C   0  0  0  0  0  0  0  0  0  0  0  0
   -1.3644   -0.8604   -2.0003 C   0  0  0  0  0  0  0  0  0  0  0  0
   -2.7157   -0.7599   -2.2384 C   0  0  0  0  0  0  0  0  0  0  0  0
   -1.0309   -2.2435   -1.9743 C   0  0  0  0  0  0  0  0  0  0  0  0
   -3.2180   -2.0279   -2.3579 N   0  0  0  0  0  0  0  0  0  0  0  0
   -2.2116   -2.9541   -2.2012 C   0  0  0  0  0  0  0  0  0  0  0  0
    0.1657   -2.9613   -1.7789 C   0  0  0  0  0  0  0  0  0  0  0  0
   -2.2556   -4.3522   -2.2427 C   0  0  0  0  0  0  0  0  0  0  0  0
    0.1369   -4.3601   -1.8177 C   0  0  0  0  0  0  0  0  0  0  0  0
   -1.0562   -5.0428   -2.0462 C   0  0  0  0  0  0  0  0  0  0  0  0
   -2.1183    1.4068   -0.2401 H   0  0  0  0  0  0  0  0  0  0  0  0
    0.1517   -0.2884    0.2216 H   0  0  0  0  0  0  0  0  0  0  0  0
    0.5319    0.0887   -2.3205 H   0  0  0  0  0  0  0  0  0  0  0  0
   -0.8340    1.1744   -2.3153 H   0  0  0  0  0  0  0  0  0  0  0  0
   -3.3658    0.0991   -2.3321 H   0  0  0  0  0  0  0  0  0  0  0  0
   -4.1873   -2.2525   -2.5355 H   0  0  0  0  0  0  0  0  0  0  0  0
    1.1038   -2.4439   -1.5988 H   0  0  0  0  0  0  0  0  0  0  0  0
   -3.1836   -4.8844   -2.4216 H   0  0  0  0  0  0  0  0  0  0  0  0
    1.0565   -4.9192   -1.6673 H   0  0  0  0  0  0  0  0  0  0  0  0
   -1.0557   -6.1294   -2.0724 H   0  0  0  0  0  0  0  0  0  0  0  0
    0.9008    2.5762   -1.2458 N   0  0  0  0  0  0  0  0  0  0  0  0
    1.8343    3.6722   -1.3739 C   0  0  2  0  0  0  0  0  0  0  0  0
    1.8619    4.4236   -0.0494 C   0  0  0  0  0  0  0  0  0  0  0  0
    0.9425    4.3809    0.7653 O   0  0  0  0  0  0  0  0  0  0  0  0
    1.4469    4.5983   -2.5162 C   0  0  0  0  0  0  0  0  0  0  0  0
    0.1922    2.4598   -1.9641 H   0  0  0  0  0  0  0  0  0  0  0  0
    2.8180    3.2292   -1.5637 H   0  0  0  0  0  0  0  0  0  0  0  0
    0.4639    5.0516   -2.3437 H   0  0  0  0  0  0  0  0  0  0  0  0
    2.1707    5.4121   -2.6301 H   0  0  0  0  0  0  0  0  0  0  0  0
    1.3984    4.0500   -3.4632 H   0  0  0  0  0  0  0  0  0  0  0  0
    3.0153    5.1816    0.0966 N   0  0  0  0  0  0  0  0  0  0  0  0
    3.2715    5.9947    1.2624 C   0  0  0  0  0  0  0  0  0  0  0  0
    3.7333    5.1422   -0.6209 H   0  0  0  0  0  0  0  0  0  0  0  0
    2.9072    7.0172    1.0842 H   0  0  0  0  0  0  0  0  0  0  0  0
    2.7495    5.5656    2.1304 H   0  0  0  0  0  0  0  0  0  0  0  0
    4.3532    6.0203    1.4609 H   0  0  0  0  0  0  0  0  0  0  0  0
 29 30  2  0  0  0  0
 27 29  1  0  0  0  0
 28 30  1  0  0  0  0
 24 27  2  0  0  0  0
 26 28  2  0  0  0  0
 22 23  2  0  0  0  0
 23 25  1  0  0  0  0
 22 24  1  0  0  0  0
 24 26  1  0  0  0  0
 21 22  1  0  0  0  0
 25 26  1  0  0  0  0
  1  3  1  0  0  0  0
  1  7  1  0  0  0  0
  1  2  2  0  0  0  0
 42 43  1  0  0  0  0
 43 51  1  0  0  0  0
 43 44  2  0  0  0  0
  8  9  1  0  0  0  0
  9 17  1  0  0  0  0
  9 10  2  0  0  0  0
 18 19  1  0  0  0  0
 19 41  1  0  0  0  0
 19 20  2  0  0  0  0
 42 45  1  0  0  0  0
  8 11  1  0  0  0  0
 51 52  1  0  0  0  0
 18 21  1  0  0  0  0
 41 42  1  0  0  0  0
  7  8  1  0  0  0  0
 17 18  1  0  0  0  0
 29 39  1  0  0  0  0
 30 40  1  0  0  0  0
 27 37  1  0  0  0  0
 28 38  1  0  0  0  0
 23 35  1  0  0  0  0
  3  4  1  0  0  0  0
  3  5  1  0  0  0  0
  3  6  1  0  0  0  0
 45 48  1  0  0  0  0
 45 49  1  0  0  0  0
 45 50  1  0  0  0  0
 11 14  1  0  0  0  0
 11 15  1  0  0  0  0
 11 16  1  0  0  0  0
 52 54  1  0  0  0  0
 52 55  1  0  0  0  0
 52 56  1  0  0  0  0
 21 33  1  0  0  0  0
 21 34  1  0  0  0  0
 42 47  1  0  0  0  0
  8 13  1  0  0  0  0
 18 32  1  0  0  0  0
 25 36  1  0  0  0  0
 51 53  1  0  0  0  0
  7 12  1  0  0  0  0
 41 46  1  0  0  0  0
 17 31  1  0  0  0  0
M  END
$$$$

  -OEChem-05262214473D

 56 57  0     1  0  0  0  0  0999 V2000
   -2.2900    0.3401    4.1553 C   0  0  0  0  0  0  0  0  0  0  0  0
   -1.3426   -0.2746    3.6796 O   0  0  0  0  0  0  0  0  0  0  0  0
   -2.7219    0.0577    5.5560 C   0  0  0  0  0  0  0  0  0  0  0  0
   -3.4815   -0.7386    5.6094 H   0  0  0  0  0  0  0  0  0  0  0  0
   -1.8906   -0.2899    6.1903 H   0  0  0  0  0  0  0  0  0  0  0  0
   -3.1599    0.9126    6.0956 H   0  0  0  0  0  0  0  0  0  0  0  0
   -3.0397    1.3125    3.5142 N   0  0  0  0  0  0  0  0  0  0  0  0
   -2.7928    1.7385    2.1618 C   0  0  2  0  0  0  0  0  0  0  0  0
   -1.4579    1.1532    1.7206 C   0  0  0  0  0  0  0  0  0  0  0  0
   -0.5858    0.8004    2.5118 O   0  0  0  0  0  0  0  0  0  0  0  0
   -2.7841    3.2553    2.0523 C   0  0  0  0  0  0  0  0  0  0  0  0
   -3.8047    1.7484    4.0260 H   0  0  0  0  0  0  0  0  0  0  0  0
   -3.5969    1.3201    1.5466 H   0  0  0  0  0  0  0  0  0  0  0  0
   -1.9850    3.6926    2.6620 H   0  0  0  0  0  0  0  0  0  0  0  0
   -2.6246    3.5776    1.0180 H   0  0  0  0  0  0  0  0  0  0  0  0
   -3.7342    3.6765    2.3981 H   0  0  0  0  0  0  0  0  0  0  0  0
   -1.3352    1.1101    0.3372 N   0  0  0  0  0  0  0  0  0  0  0  0
   -0.1579    0.6093   -0.3265 C   0  0  2  0  0  0  0  0  0  0  0  0
    0.9240    1.6748   -0.1907 C   0  0  0  0  0  0  0  0  0  0  0  0
    1.8929    1.5532    0.5558 O   0  0  0  0  0  0  0  0  0  0  0  0
   -0.4155    0.2968   -1.8051 C   0  0  0  0  0  0  0  0  0  0  0  0
   -1.3644   -0.8604   -2.0003 C   0  0  0  0  0  0  0  0  0  0  0  0
   -2.7157   -0.7599   -2.2384 C   0  0  0  0  0  0  0  0  0  0  0  0
   -1.0309   -2.2435   -1.9743 C   0  0  0  0  0  0  0  0  0  0  0  0
   -3.2180   -2.0279   -2.3579 N   0  0  0  0  0  0  0  0  0  0  0  0
   -2.2116   -2.9541   -2.2012 C   0  0  0  0  0  0  0  0  0  0  0  0
    0.1657   -2.9613   -1.7789 C   0  0  0  0  0  0  0  0  0  0  0  0
   -2.2556   -4.3522   -2.2427 C   0  0  0  0  0  0  0  0  0  0  0  0
    0.1369   -4.3601   -1.8177 C   0  0  0  0  0  0  0  0  0  0  0  0
   -1.0562   -5.0428   -2.0462 C   0  0  0  0  0  0  0  0  0  0  0  0
   -2.1183    1.4068   -0.2401 H   0  0  0  0  0  0  0  0  0  0  0  0
    0.1517   -0.2884    0.2216 H   0  0  0  0  0  0  0  0  0  0  0  0
    0.5319    0.0887   -2.3205 H   0  0  0  0  0  0  0  0  0  0  0  0
   -0.8340    1.1744   -2.3153 H   0  0  0  0  0  0  0  0  0  0  0  0
   -3.3658    0.0991   -2.3321 H   0  0  0  0  0  0  0  0  0  0  0  0
   -4.1873   -2.2525   -2.5355 H   0  0  0  0  0  0  0  0  0  0  0  0
    1.1038   -2.4439   -1.5988 H   0  0  0  0  0  0  0  0  0  0  0  0
   -3.1836   -4.8844   -2.4216 H   0  0  0  0  0  0  0  0  0  0  0  0
    1.0565   -4.9192   -1.6673 H   0  0  0  0  0  0  0  0  0  0  0  0
   -1.0557   -6.1294   -2.0724 H   0  0  0  0  0  0  0  0  0  0  0  0
    0.7025    2.7512   -1.0385 N   0  0  0  0  0  0  0  0  0  0  0  0
    1.5900    3.8885   -1.1254 C   0  0  2  0  0  0  0  0  0  0  0  0
    1.8550    4.3875    0.2889 C   0  0  0  0  0  0  0  0  0  0  0  0
    1.1005    4.1609    1.2325 O   0  0  0  0  0  0  0  0  0  0  0  0
    0.9944    4.9905   -1.9879 C   0  0  0  0  0  0  0  0  0  0  0  0
   -0.1249    2.7389   -1.6275 H   0  0  0  0  0  0  0  0  0  0  0  0
    2.5251    3.5271   -1.5670 H   0  0  0  0  0  0  0  0  0  0  0  0
    0.0568    5.3652   -1.5613 H   0  0  0  0  0  0  0  0  0  0  0  0
    1.6801    5.8396   -2.0761 H   0  0  0  0  0  0  0  0  0  0  0  0
    0.7768    4.6217   -2.9960 H   0  0  0  0  0  0  0  0  0  0  0  0
    3.0109    5.1519    0.3646 N   0  0  0  0  0  0  0  0  0  0  0  0
    3.4712    5.7494    1.5963 C   0  0  0  0  0  0  0  0  0  0  0  0
    3.5857    5.2721   -0.4642 H   0  0  0  0  0  0  0  0  0  0  0  0
    3.0741    6.7719    1.6793 H   0  0  0  0  0  0  0  0  0  0  0  0
    3.1195    5.1494    2.4486 H   0  0  0  0  0  0  0  0  0  0  0  0
    4.5707    5.7817    1.5996 H   0  0  0  0  0  0  0  0  0  0  0  0
 29 30  2  0  0  0  0
 27 29  1  0  0  0  0
 28 30  1  0  0  0  0
 24 27  2  0  0  0  0
 26 28  2  0  0  0  0
 22 23  2  0  0  0  0
 23 25  1  0  0  0  0
 22 24  1  0  0  0  0
 24 26  1  0  0  0  0
 21 22  1  0  0  0  0
 25 26  1  0  0  0  0
  1  3  1  0  0  0  0
  1  7  1  0  0  0  0
  1  2  2  0  0  0  0
 42 43  1  0  0  0  0
 43 51  1  0  0  0  0
 43 44  2  0  0  0  0
  8  9  1  0  0  0  0
  9 17  1  0  0  0  0
  9 10  2  0  0  0  0
 18 19  1  0  0  0  0
 19 41  1  0  0  0  0
 19 20  2  0  0  0  0
 42 45  1  0  0  0  0
  8 11  1  0  0  0  0
 51 52  1  0  0  0  0
 18 21  1  0  0  0  0
 41 42  1  0  0  0  0
  7  8  1  0  0  0  0
 17 18  1  0  0  0  0
 29 39  1  0  0  0  0
 30 40  1  0  0  0  0
 27 37  1  0  0  0  0
 28 38  1  0  0  0  0
 23 35  1  0  0  0  0
  3  4  1  0  0  0  0
  3  5  1  0  0  0  0
  3  6  1  0  0  0  0
 45 48  1  0  0  0  0
 45 49  1  0  0  0  0
 45 50  1  0  0  0  0
 11 14  1  0  0  0  0
 11 15  1  0  0  0  0
 11 16  1  0  0  0  0
 52 54  1  0  0  0  0
 52 55  1  0  0  0  0
 52 56  1  0  0  0  0
 21 33  1  0  0  0  0
 21 34  1  0  0  0  0
 42 47  1  0  0  0  0
  8 13  1  0  0  0  0
 18 32  1  0  0  0  0
 25 36  1  0  0  0  0
 51 53  1  0  0  0  0
  7 12  1  0  0  0  0
 41 46  1  0  0  0  0
 17 31  1  0  0  0  0
M  END
$$$$

  -OEChem-05262214473D

 56 57  0     1  0  0  0  0  0999 V2000
   -2.2900    0.3401    4.1553 C   0  0  0  0  0  0  0  0  0  0  0  0
   -1.3426   -0.2746    3.6796 O   0  0  0  0  0  0  0  0  0  0  0  0
   -2.7219    0.0577    5.5560 C   0  0  0  0  0  0  0  0  0  0  0  0
   -3.4815   -0.7386    5.6094 H   0  0  0  0  0  0  0  0  0  0  0  0
   -1.8906   -0.2899    6.1903 H   0  0  0  0  0  0  0  0  0  0  0  0
   -3.1599    0.9126    6.0956 H   0  0  0  0  0  0  0  0  0  0  0  0
   -3.0397    1.3125    3.5142 N   0  0  0  0  0  0  0  0  0  0  0  0
   -2.7928    1.7385    2.1618 C   0  0  2  0  0  0  0  0  0  0  0  0
   -1.4579    1.1532    1.7206 C   0  0  0  0  0  0  0  0  0  0  0  0
   -0.5858    0.8004    2.5118 O   0  0  0  0  0  0  0  0  0  0  0  0
   -2.7841    3.2553    2.0523 C   0  0  0  0  0  0  0  0  0  0  0  0
   -3.8047    1.7484    4.0260 H   0  0  0  0  0  0  0  0  0  0  0  0
   -3.5969    1.3201    1.5466 H   0  0  0  0  0  0  0  0  0  0  0  0
   -1.9850    3.6926    2.6620 H   0  0  0  0  0  0  0  0  0  0  0  0
   -2.6246    3.5776    1.0180 H   0  0  0  0  0  0  0  0  0  0  0  0
   -3.7342    3.6765    2.3981 H   0  0  0  0  0  0  0  0  0  0  0  0
   -1.3352    1.1101    0.3372 N   0  0  0  0  0  0  0  0  0  0  0  0
   -0.1579    0.6093   -0.3265 C   0  0  2  0  0  0  0  0  0  0  0  0
    0.9240    1.6748   -0.1907 C   0  0  0  0  0  0  0  0  0  0  0  0
    2.0139    1.4585    0.3348 O   0  0  0  0  0  0  0  0  0  0  0  0
   -0.4155    0.2968   -1.8051 C   0  0  0  0  0  0  0  0  0  0  0  0
   -1.3644   -0.8604   -2.0003 C   0  0  0  0  0  0  0  0  0  0  0  0
   -2.7157   -0.7599   -2.2384 C   0  0  0  0  0  0  0  0  0  0  0  0
   -1.0309   -2.2435   -1.9743 C   0  0  0  0  0  0  0  0  0  0  0  0
   -3.2180   -2.0279   -2.3579 N   0  0  0  0  0  0  0  0  0  0  0  0
   -2.2116   -2.9541   -2.2012 C   0  0  0  0  0  0  0  0  0  0  0  0
    0.1657   -2.9613   -1.7789 C   0  0  0  0  0  0  0  0  0  0  0  0
   -2.2556   -4.3522   -2.2427 C   0  0  0  0  0  0  0  0  0  0  0  0
    0.1369   -4.3601   -1.8177 C   0  0  0  0  0  0  0  0  0  0  0  0
   -1.0562   -5.0428   -2.0462 C   0  0  0  0  0  0  0  0  0  0  0  0
   -2.1183    1.4068   -0.2401 H   0  0  0  0  0  0  0  0  0  0  0  0
    0.1517   -0.2884    0.2216 H   0  0  0  0  0  0  0  0  0  0  0  0
    0.5319    0.0887   -2.3205 H   0  0  0  0  0  0  0  0  0  0  0  0
   -0.8340    1.1744   -2.3153 H   0  0  0  0  0  0  0  0  0  0  0  0
   -3.3658    0.0991   -2.3321 H   0  0  0  0  0  0  0  0  0  0  0  0
   -4.1873   -2.2525   -2.5355 H   0  0  0  0  0  0  0  0  0  0  0  0
    1.1038   -2.4439   -1.5988 H   0  0  0  0  0  0  0  0  0  0  0  0
   -3.1836   -4.8844   -2.4216 H   0  0  0  0  0  0  0  0  0  0  0  0
    1.0565   -4.9192   -1.6673 H   0  0  0  0  0  0  0  0  0  0  0  0
   -1.0557   -6.1294   -2.0724 H   0  0  0  0  0  0  0  0  0  0  0  0
    0.5445    2.8775   -0.7703 N   0  0  0  0  0  0  0  0  0  0  0  0
    1.3940    4.0463   -0.8016 C   0  0  2  0  0  0  0  0  0  0  0  0
    1.9103    4.2903    0.6103 C   0  0  0  0  0  0  0  0  0  0  0  0
    1.3427    3.8663    1.6148 O   0  0  0  0  0  0  0  0  0  0  0  0
    0.6438    5.2618   -1.3236 C   0  0  0  0  0  0  0  0  0  0  0  0
   -0.3767    2.9393   -1.1938 H   0  0  0  0  0  0  0  0  0  0  0  0
    2.2346    3.8086   -1.4625 H   0  0  0  0  0  0  0  0  0  0  0  0
   -0.2021    5.5151   -0.6743 H   0  0  0  0  0  0  0  0  0  0  0  0
    1.2965    6.1395   -1.3737 H   0  0  0  0  0  0  0  0  0  0  0  0
    0.2476    5.0737   -2.3274 H   0  0  0  0  0  0  0  0  0  0  0  0
    3.0558    5.0738    0.6189 N   0  0  0  0  0  0  0  0  0  0  0  0
    3.7301    5.4557    1.8377 C   0  0  0  0  0  0  0  0  0  0  0  0
    3.4684    5.3654   -0.2623 H   0  0  0  0  0  0  0  0  0  0  0  0
    3.3487    6.4294    2.1788 H   0  0  0  0  0  0  0  0  0  0  0  0
    3.5441    4.6974    2.6125 H   0  0  0  0  0  0  0  0  0  0  0  0
    4.8114    5.5308    1.6503 H   0  0  0  0  0  0  0  0  0  0  0  0
 29 30  2  0  0  0  0
 27 29  1  0  0  0  0
 28 30  1  0  0  0  0
 24 27  2  0  0  0  0
 26 28  2  0  0  0  0
 22 23  2  0  0  0  0
 23 25  1  0  0  0  0
 22 24  1  0  0  0  0
 24 26  1  0  0  0  0
 21 22  1  0  0  0  0
 25 26  1  0  0  0  0
  1  3  1  0  0  0  0
  1  7  1  0  0  0  0
  1  2  2  0  0  0  0
 42 43  1  0  0  0  0
 43 51  1  0  0  0  0
 43 44  2  0  0  0  0
  8  9  1  0  0  0  0
  9 17  1  0  0  0  0
  9 10  2  0  0  0  0
 18 19  1  0  0  0  0
 19 41  1  0  0  0  0
 19 20  2  0  0  0  0
 42 45  1  0  0  0  0
  8 11  1  0  0  0  0
 51 52  1  0  0  0  0
 18 21  1  0  0  0  0
 41 42  1  0  0  0  0
  7  8  1  0  0  0  0
 17 18  1  0  0  0  0
 29 39  1  0  0  0  0
 30 40  1  0  0  0  0
 27 37  1  0  0  0  0
 28 38  1  0  0  0  0
 23 35  1  0  0  0  0
  3  4  1  0  0  0  0
  3  5  1  0  0  0  0
  3  6  1  0  0  0  0
 45 48  1  0  0  0  0
 45 49  1  0  0  0  0
 45 50  1  0  0  0  0
 11 14  1  0  0  0  0
 11 15  1  0  0  0  0
 11 16  1  0  0  0  0
 52 54  1  0  0  0  0
 52 55  1  0  0  0  0
 52 56  1  0  0  0  0
 21 33  1  0  0  0  0
 21 34  1  0  0  0  0
 42 47  1  0  0  0  0
  8 13  1  0  0  0  0
 18 32  1  0  0  0  0
 25 36  1  0  0  0  0
 51 53  1  0  0  0  0
  7 12  1  0  0  0  0
 41 46  1  0  0  0  0
 17 31  1  0  0  0  0
M  END
$$$$

  -OEChem-05262214473D

 56 57  0     1  0  0  0  0  0999 V2000
   -2.2900    0.3401    4.1553 C   0  0  0  0  0  0  0  0  0  0  0  0
   -1.3426   -0.2746    3.6796 O   0  0  0  0  0  0  0  0  0  0  0  0
   -2.7219    0.0577    5.5560 C   0  0  0  0  0  0  0  0  0  0  0  0
   -3.4815   -0.7386    5.6094 H   0  0  0  0  0  0  0  0  0  0  0  0
   -1.8906   -0.2899    6.1903 H   0  0  0  0  0  0  0  0  0  0  0  0
   -3.1599    0.9126    6.0956 H   0  0  0  0  0  0  0  0  0  0  0  0
   -3.0397    1.3125    3.5142 N   0  0  0  0  0  0  0  0  0  0  0  0
   -2.7928    1.7385    2.1618 C   0  0  2  0  0  0  0  0  0  0  0  0
   -1.4579    1.1532    1.7206 C   0  0  0  0  0  0  0  0  0  0  0  0
   -0.5858    0.8004    2.5118 O   0  0  0  0  0  0  0  0  0  0  0  0
   -2.7841    3.2553    2.0523 C   0  0  0  0  0  0  0  0  0  0  0  0
   -3.8047    1.7484    4.0260 H   0  0  0  0  0  0  0  0  0  0  0  0
   -3.5969    1.3201    1.5466 H   0  0  0  0  0  0  0  0  0  0  0  0
   -1.9850    3.6926    2.6620 H   0  0  0  0  0  0  0  0  0  0  0  0
   -2.6246    3.5776    1.0180 H   0  0  0  0  0  0  0  0  0  0  0  0
   -3.7342    3.6765    2.3981 H   0  0  0  0  0  0  0  0  0  0  0  0
   -1.3352    1.1101    0.3372 N   0  0  0  0  0  0  0  0  0  0  0  0
   -0.1579    0.6093   -0.3265 C   0  0  2  0  0  0  0  0  0  0  0  0
    0.9240    1.6748   -0.1907 C   0  0  0  0  0  0  0  0  0  0  0  0
    2.0930    1.4104    0.0821 O   0  0  0  0  0  0  0  0  0  0  0  0
   -0.4155    0.2968   -1.8051 C   0  0  0  0  0  0  0  0  0  0  0  0
   -1.3644   -0.8604   -2.0003 C   0  0  0  0  0  0  0  0  0  0  0  0
   -2.7157   -0.7599   -2.2384 C   0  0  0  0  0  0  0  0  0  0  0  0
   -1.0309   -2.2435   -1.9743 C   0  0  0  0  0  0  0  0  0  0  0  0
   -3.2180   -2.0279   -2.3579 N   0  0  0  0  0  0  0  0  0  0  0  0
   -2.2116   -2.9541   -2.2012 C   0  0  0  0  0  0  0  0  0  0  0  0
    0.1657   -2.9613   -1.7789 C   0  0  0  0  0  0  0  0  0  0  0  0
   -2.2556   -4.3522   -2.2427 C   0  0  0  0  0  0  0  0  0  0  0  0
    0.1369   -4.3601   -1.8177 C   0  0  0  0  0  0  0  0  0  0  0  0
   -1.0562   -5.0428   -2.0462 C   0  0  0  0  0  0  0  0  0  0  0  0
   -2.1183    1.4068   -0.2401 H   0  0  0  0  0  0  0  0  0  0  0  0
    0.1517   -0.2884    0.2216 H   0  0  0  0  0  0  0  0  0  0  0  0
    0.5319    0.0887   -2.3205 H   0  0  0  0  0  0  0  0  0  0  0  0
   -0.8340    1.1744   -2.3153 H   0  0  0  0  0  0  0  0  0  0  0  0
   -3.3658    0.0991   -2.3321 H   0  0  0  0  0  0  0  0  0  0  0  0
   -4.1873   -2.2525   -2.5355 H   0  0  0  0  0  0  0  0  0  0  0  0
    1.1038   -2.4439   -1.5988 H   0  0  0  0  0  0  0  0  0  0  0  0
   -3.1836   -4.8844   -2.4216 H   0  0  0  0  0  0  0  0  0  0  0  0
    1.0565   -4.9192   -1.6673 H   0  0  0  0  0  0  0  0  0  0  0  0
   -1.0557   -6.1294   -2.0724 H   0  0  0  0  0  0  0  0  0  0  0  0
    0.4374    2.9466   -0.4594 N   0  0  0  0  0  0  0  0  0  0  0  0
    1.2596    4.1346   -0.4243 C   0  0  2  0  0  0  0  0  0  0  0  0
    2.0242    4.1387    0.8929 C   0  0  0  0  0  0  0  0  0  0  0  0
    1.6526    3.5170    1.8861 O   0  0  0  0  0  0  0  0  0  0  0  0
    0.4191    5.3937   -0.5688 C   0  0  0  0  0  0  0  0  0  0  0  0
   -0.5461    3.0474   -0.6924 H   0  0  0  0  0  0  0  0  0  0  0  0
    1.9665    4.0547   -1.2573 H   0  0  0  0  0  0  0  0  0  0  0  0
   -0.2952    5.4910    0.2569 H   0  0  0  0  0  0  0  0  0  0  0  0
    1.0462    6.2914   -0.5707 H   0  0  0  0  0  0  0  0  0  0  0  0
   -0.1530    5.3754   -1.5028 H   0  0  0  0  0  0  0  0  0  0  0  0
    3.1470    4.9528    0.8420 N   0  0  0  0  0  0  0  0  0  0  0  0
    4.0306    5.1336    1.9701 C   0  0  0  0  0  0  0  0  0  0  0  0
    3.3896    5.4157   -0.0290 H   0  0  0  0  0  0  0  0  0  0  0  0
    3.7121    6.0133    2.5487 H   0  0  0  0  0  0  0  0  0  0  0  0
    3.9943    4.2404    2.6111 H   0  0  0  0  0  0  0  0  0  0  0  0
    5.0589    5.2847    1.6097 H   0  0  0  0  0  0  0  0  0  0  0  0
 29 30  2  0  0  0  0
 27 29  1  0  0  0  0
 28 30  1  0  0  0  0
 24 27  2  0  0  0  0
 26 28  2  0  0  0  0
 22 23  2  0  0  0  0
 23 25  1  0  0  0  0
 22 24  1  0  0  0  0
 24 26  1  0  0  0  0
 21 22  1  0  0  0  0
 25 26  1  0  0  0  0
  1  3  1  0  0  0  0
  1  7  1  0  0  0  0
  1  2  2  0  0  0  0
 42 43  1  0  0  0  0
 43 51  1  0  0  0  0
 43 44  2  0  0  0  0
  8  9  1  0  0  0  0
  9 17  1  0  0  0  0
  9 10  2  0  0  0  0
 18 19  1  0  0  0  0
 19 41  1  0  0  0  0
 19 20  2  0  0  0  0
 42 45  1  0  0  0  0
  8 11  1  0  0  0  0
 51 52  1  0  0  0  0
 18 21  1  0  0  0  0
 41 42  1  0  0  0  0
  7  8  1  0  0  0  0
 17 18  1  0  0  0  0
 29 39  1  0  0  0  0
 30 40  1  0  0  0  0
 27 37  1  0  0  0  0
 28 38  1  0  0  0  0
 23 35  1  0  0  0  0
  3  4  1  0  0  0  0
  3  5  1  0  0  0  0
  3  6  1  0  0  0  0
 45 48  1  0  0  0  0
 45 49  1  0  0  0  0
 45 50  1  0  0  0  0
 11 14  1  0  0  0  0
 11 15  1  0  0  0  0
 11 16  1  0  0  0  0
 52 54  1  0  0  0  0
 52 55  1  0  0  0  0
 52 56  1  0  0  0  0
 21 33  1  0  0  0  0
 21 34  1  0  0  0  0
 42 47  1  0  0  0  0
  8 13  1  0  0  0  0
 18 32  1  0  0  0  0
 25 36  1  0  0  0  0
 51 53  1  0  0  0  0
  7 12  1  0  0  0  0
 41 46  1  0  0  0  0
 17 31  1  0  0  0  0
M  END
$$$$

  -OEChem-05262214473D

 56 57  0     1  0  0  0  0  0999 V2000
   -2.2900    0.3401    4.1553 C   0  0  0  0  0  0  0  0  0  0  0  0
   -1.3426   -0.2746    3.6796 O   0  0  0  0  0  0  0  0  0  0  0  0
   -2.7219    0.0577    5.5560 C   0  0  0  0  0  0  0  0  0  0  0  0
   -3.4815   -0.7386    5.6094 H   0  0  0  0  0  0  0  0  0  0  0  0
   -1.8906   -0.2899    6.1903 H   0  0  0  0  0  0  0  0  0  0  0  0
   -3.1599    0.9126    6.0956 H   0  0  0  0  0  0  0  0  0  0  0  0
   -3.0397    1.3125    3.5142 N   0  0  0  0  0  0  0  0  0  0  0  0
   -2.7928    1.7385    2.1618 C   0  0  2  0  0  0  0  0  0  0  0  0
   -1.4579    1.1532    1.7206 C   0  0  0  0  0  0  0  0  0  0  0  0
   -0.5858    0.8004    2.5118 O   0  0  0  0  0  0  0  0  0  0  0  0
   -2.7841    3.2553    2.0523 C   0  0  0  0  0  0  0  0  0  0  0  0
   -3.8047    1.7484    4.0260 H   0  0  0  0  0  0  0  0  0  0  0  0
   -3.5969    1.3201    1.5466 H   0  0  0  0  0  0  0  0  0  0  0  0
   -1.9850    3.6926    2.6620 H   0  0  0  0  0  0  0  0  0  0  0  0
   -2.6246    3.5776    1.0180 H   0  0  0  0  0  0  0  0  0  0  0  0
   -3.7342    3.6765    2.3981 H   0  0  0  0  0  0  0  0  0  0  0  0
   -1.3352    1.1101    0.3372 N   0  0  0  0  0  0  0  0  0  0  0  0
   -0.1579    0.6093   -0.3265 C   0  0  2  0  0  0  0  0  0  0  0  0
    0.9240    1.6748   -0.1907 C   0  0  0  0  0  0  0  0  0  0  0  0
    2.1248    1.4122   -0.1852 O   0  0  0  0  0  0  0  0  0  0  0  0
   -0.4155    0.2968   -1.8051 C   0  0  0  0  0  0  0  0  0  0  0  0
   -1.3644   -0.8604   -2.0003 C   0  0  0  0  0  0  0  0  0  0  0  0
   -2.7157   -0.7599   -2.2384 C   0  0  0  0  0  0  0  0  0  0  0  0
   -1.0309   -2.2435   -1.9743 C   0  0  0  0  0  0  0  0  0  0  0  0
   -3.2180   -2.0279   -2.3579 N   0  0  0  0  0  0  0  0  0  0  0  0
   -2.2116   -2.9541   -2.2012 C   0  0  0  0  0  0  0  0  0  0  0  0
    0.1657   -2.9613   -1.7789 C   0  0  0  0  0  0  0  0  0  0  0  0
   -2.2556   -4.3522   -2.2427 C   0  0  0  0  0  0  0  0  0  0  0  0
    0.1369   -4.3601   -1.8177 C   0  0  0  0  0  0  0  0  0  0  0  0
   -1.0562   -5.0428   -2.0462 C   0  0  0  0  0  0  0  0  0  0  0  0
   -2.1183    1.4068   -0.2401 H   0  0  0  0  0  0  0  0  0  0  0  0
    0.1517   -0.2884    0.2216 H   0  0  0  0  0  0  0  0  0  0  0  0
    0.5319    0.0887   -2.3205 H   0  0  0  0  0  0  0  0  0  0  0  0
   -0.8340    1.1744   -2.3153 H   0  0  0  0  0  0  0  0  0  0  0  0
   -3.3658    0.0991   -2.3321 H   0  0  0  0  0  0  0  0  0  0  0  0
   -4.1873   -2.2525   -2.5355 H   0  0  0  0  0  0  0  0  0  0  0  0
    1.1038   -2.4439   -1.5988 H   0  0  0  0  0  0  0  0  0  0  0  0
   -3.1836   -4.8844   -2.4216 H   0  0  0  0  0  0  0  0  0  0  0  0
    1.0565   -4.9192   -1.6673 H   0  0  0  0  0  0  0  0  0  0  0  0
   -1.0557   -6.1294   -2.0724 H   0  0  0  0  0  0  0  0  0  0  0  0
    0.3886    2.9537   -0.1270 N   0  0  0  0  0  0  0  0  0  0  0  0
    1.1960    4.1476   -0.0194 C   0  0  2  0  0  0  0  0  0  0  0  0
    2.1887    3.9430    1.1174 C   0  0  0  0  0  0  0  0  0  0  0  0
    2.0090    3.1370    2.0279 O   0  0  0  0  0  0  0  0  0  0  0  0
    0.3355    5.3774    0.2252 C   0  0  0  0  0  0  0  0  0  0  0  0
   -0.6215    3.0558   -0.1577 H   0  0  0  0  0  0  0  0  0  0  0  0
    1.7390    4.2485   -0.9654 H   0  0  0  0  0  0  0  0  0  0  0  0
   -0.2162    5.2945    1.1687 H   0  0  0  0  0  0  0  0  0  0  0  0
    0.9461    6.2848    0.2780 H   0  0  0  0  0  0  0  0  0  0  0  0
   -0.3977    5.5061   -0.5784 H   0  0  0  0  0  0  0  0  0  0  0  0
    3.2783    4.7970    1.0188 N   0  0  0  0  0  0  0  0  0  0  0  0
    4.3523    4.8052    1.9844 C   0  0  0  0  0  0  0  0  0  0  0  0
    3.3544    5.4197    0.2199 H   0  0  0  0  0  0  0  0  0  0  0  0
    4.1396    5.5517    2.7639 H   0  0  0  0  0  0  0  0  0  0  0  0
    4.4394    3.8097    2.4443 H   0  0  0  0  0  0  0  0  0  0  0  0
    5.2963    5.0602    1.4805 H   0  0  0  0  0  0  0  0  0  0  0  0
 29 30  2  0  0  0  0
 27 29  1  0  0  0  0
 28 30  1  0  0  0  0
 24 27  2  0  0  0  0
 26 28  2  0  0  0  0
 22 23  2  0  0  0  0
 23 25  1  0  0  0  0
 22 24  1  0  0  0  0
 24 26  1  0  0  0  0
 21 22  1  0  0  0  0
 25 26  1  0  0  0  0
  1  3  1  0  0  0  0
  1  7  1  0  0  0  0
  1  2  2  0  0  0  0
 42 43  1  0  0  0  0
 43 51  1  0  0  0  0
 43 44  2  0  0  0  0
  8  9  1  0  0  0  0
  9 17  1  0  0  0  0
  9 10  2  0  0  0  0
 18 19  1  0  0  0  0
 19 41  1  0  0  0  0
 19 20  2  0  0  0  0
 42 45  1  0  0  0  0
  8 11  1  0  0  0  0
 51 52  1  0  0  0  0
 18 21  1  0  0  0  0
 41 42  1  0  0  0  0
  7  8  1  0  0  0  0
 17 18  1  0  0  0  0
 29 39  1  0  0  0  0
 30 40  1  0  0  0  0
 27 37  1  0  0  0  0
 28 38  1  0  0  0  0
 23 35  1  0  0  0  0
  3  4  1  0  0  0  0
  3  5  1  0  0  0  0
  3  6  1  0  0  0  0
 45 48  1  0  0  0  0
 45 49  1  0  0  0  0
 45 50  1  0  0  0  0
 11 14  1  0  0  0  0
 11 15  1  0  0  0  0
 11 16  1  0  0  0  0
 52 54  1  0  0  0  0
 52 55  1  0  0  0  0
 52 56  1  0  0  0  0
 21 33  1  0  0  0  0
 21 34  1  0  0  0  0
 42 47  1  0  0  0  0
  8 13  1  0  0  0  0
 18 32  1  0  0  0  0
 25 36  1  0  0  0  0
 51 53  1  0  0  0  0
  7 12  1  0  0  0  0
 41 46  1  0  0  0  0
 17 31  1  0  0  0  0
M  END
$$$$

  -OEChem-05262214473D

 56 57  0     1  0  0  0  0  0999 V2000
   -2.2900    0.3401    4.1553 C   0  0  0  0  0  0  0  0  0  0  0  0
   -1.3426   -0.2746    3.6796 O   0  0  0  0  0  0  0  0  0  0  0  0
   -2.7219    0.0577    5.5560 C   0  0  0  0  0  0  0  0  0  0  0  0
   -3.4815   -0.7386    5.6094 H   0  0  0  0  0  0  0  0  0  0  0  0
   -1.8906   -0.2899    6.1903 H   0  0  0  0  0  0  0  0  0  0  0  0
   -3.1599    0.9126    6.0956 H   0  0  0  0  0  0  0  0  0  0  0  0
   -3.0397    1.3125    3.5142 N   0  0  0  0  0  0  0  0  0  0  0  0
   -2.7928    1.7385    2.1618 C   0  0  2  0  0  0  0  0  0  0  0  0
   -1.4579    1.1532    1.7206 C   0  0  0  0  0  0  0  0  0  0  0  0
   -0.5858    0.8004    2.5118 O   0  0  0  0  0  0  0  0  0  0  0  0
   -2.7841    3.2553    2.0523 C   0  0  0  0  0  0  0  0  0  0  0  0
   -3.8047    1.7484    4.0260 H   0  0  0  0  0  0  0  0  0  0  0  0
   -3.5969    1.3201    1.5466 H   0  0  0  0  0  0  0  0  0  0  0  0
   -1.9850    3.6926    2.6620 H   0  0  0  0  0  0  0  0  0  0  0  0
   -2.6246    3.5776    1.0180 H   0  0  0  0  0  0  0  0  0  0  0  0
   -3.7342    3.6765    2.3981 H   0  0  0  0  0  0  0  0  0  0  0  0
   -1.3352    1.1101    0.3372 N   0  0  0  0  0  0  0  0  0  0  0  0
   -0.1579    0.6093   -0.3265 C   0  0  2  0  0  0  0  0  0  0  0  0
    0.9240    1.6748   -0.1907 C   0  0  0  0  0  0  0  0  0  0  0  0
    2.1071    1.4637   -0.4488 O   0  0  0  0  0  0  0  0  0  0  0  0
   -0.4155    0.2968   -1.8051 C   0  0  0  0  0  0  0  0  0  0  0  0
   -1.3644   -0.8604   -2.0003 C   0  0  0  0  0  0  0  0  0  0  0  0
   -2.7157   -0.7599   -2.2384 C   0  0  0  0  0  0  0  0  0  0  0  0
   -1.0309   -2.2435   -1.9743 C   0  0  0  0  0  0  0  0  0  0  0  0
   -3.2180   -2.0279   -2.3579 N   0  0  0  0  0  0  0  0  0  0  0  0
   -2.2116   -2.9541   -2.2012 C   0  0  0  0  0  0  0  0  0  0  0  0
    0.1657   -2.9613   -1.7789 C   0  0  0  0  0  0  0  0  0  0  0  0
   -2.2556   -4.3522   -2.2427 C   0  0  0  0  0  0  0  0  0  0  0  0
    0.1369   -4.3601   -1.8177 C   0  0  0  0  0  0  0  0  0  0  0  0
   -1.0562   -5.0428   -2.0462 C   0  0  0  0  0  0  0  0  0  0  0  0
   -2.1183    1.4068   -0.2401 H   0  0  0  0  0  0  0  0  0  0  0  0
    0.1517   -0.2884    0.2216 H   0  0  0  0  0  0  0  0  0  0  0  0
    0.5319    0.0887   -2.3205 H   0  0  0  0  0  0  0  0  0  0  0  0
   -0.8340    1.1744   -2.3153 H   0  0  0  0  0  0  0  0  0  0  0  0
   -3.3658    0.0991   -2.3321 H   0  0  0  0  0  0  0  0  0  0  0  0
   -4.1873   -2.2525   -2.5355 H   0  0  0  0  0  0  0  0  0  0  0  0
    1.1038   -2.4439   -1.5988 H   0  0  0  0  0  0  0  0  0  0  0  0
   -3.1836   -4.8844   -2.4216 H   0  0  0  0  0  0  0  0  0  0  0  0
    1.0565   -4.9192   -1.6673 H   0  0  0  0  0  0  0  0  0  0  0  0
   -1.0557   -6.1294   -2.0724 H   0  0  0  0  0  0  0  0  0  0  0  0
    0.4014    2.8985    0.2041 N   0  0  0  0  0  0  0  0  0  0  0  0
    1.2076    4.0842    0.3857 C   0  0  2  0  0  0  0  0  0  0  0  0
    2.3928    3.7165    1.2686 C   0  0  0  0  0  0  0  0  0  0  0  0
    2.3878    2.7520    2.0307 O   0  0  0  0  0  0  0  0  0  0  0  0
    0.3988    5.2138    1.0042 C   0  0  0  0  0  0  0  0  0  0  0  0
   -0.5979    2.9640    0.3740 H   0  0  0  0  0  0  0  0  0  0  0  0
    1.5676    4.3769   -0.6067 H   0  0  0  0  0  0  0  0  0  0  0  0
    0.0296    4.9390    1.9990 H   0  0  0  0  0  0  0  0  0  0  0  0
    1.0032    6.1202    1.1147 H   0  0  0  0  0  0  0  0  0  0  0  0
   -0.4699    5.4568    0.3828 H   0  0  0  0  0  0  0  0  0  0  0  0
    3.4406    4.6171    1.1372 N   0  0  0  0  0  0  0  0  0  0  0  0
    4.6732    4.4927    1.8798 C   0  0  0  0  0  0  0  0  0  0  0  0
    3.3654    5.3770    0.4675 H   0  0  0  0  0  0  0  0  0  0  0  0
    4.6022    5.0762    2.8096 H   0  0  0  0  0  0  0  0  0  0  0  0
    4.8491    3.4346    2.1236 H   0  0  0  0  0  0  0  0  0  0  0  0
    5.5074    4.8724    1.2716 H   0  0  0  0  0  0  0  0  0  0  0  0
 29 30  2  0  0  0  0
 27 29  1  0  0  0  0
 28 30  1  0  0  0  0
 24 27  2  0  0  0  0
 26 28  2  0  0  0  0
 22 23  2  0  0  0  0
 23 25  1  0  0  0  0
 22 24  1  0  0  0  0
 24 26  1  0  0  0  0
 21 22  1  0  0  0  0
 25 26  1  0  0  0  0
  1  3  1  0  0  0  0
  1  7  1  0  0  0  0
  1  2  2  0  0  0  0
 42 43  1  0  0  0  0
 43 51  1  0  0  0  0
 43 44  2  0  0  0  0
  8  9  1  0  0  0  0
  9 17  1  0  0  0  0
  9 10  2  0  0  0  0
 18 19  1  0  0  0  0
 19 41  1  0  0  0  0
 19 20  2  0  0  0  0
 42 45  1  0  0  0  0
  8 11  1  0  0  0  0
 51 52  1  0  0  0  0
 18 21  1  0  0  0  0
 41 42  1  0  0  0  0
  7  8  1  0  0  0  0
 17 18  1  0  0  0  0
 29 39  1  0  0  0  0
 30 40  1  0  0  0  0
 27 37  1  0  0  0  0
 28 38  1  0  0  0  0
 23 35  1  0  0  0  0
  3  4  1  0  0  0  0
  3  5  1  0  0  0  0
  3  6  1  0  0  0  0
 45 48  1  0  0  0  0
 45 49  1  0  0  0  0
 45 50  1  0  0  0  0
 11 14  1  0  0  0  0
 11 15  1  0  0  0  0
 11 16  1  0  0  0  0
 52 54  1  0  0  0  0
 52 55  1  0  0  0  0
 52 56  1  0  0  0  0
 21 33  1  0  0  0  0
 21 34  1  0  0  0  0
 42 47  1  0  0  0  0
  8 13  1  0  0  0  0
 18 32  1  0  0  0  0
 25 36  1  0  0  0  0
 51 53  1  0  0  0  0
  7 12  1  0  0  0  0
 41 46  1  0  0  0  0
 17 31  1  0  0  0  0
M  END
$$$$

  -OEChem-05262214473D

 56 57  0     1  0  0  0  0  0999 V2000
   -2.2900    0.3401    4.1553 C   0  0  0  0  0  0  0  0  0  0  0  0
   -1.3426   -0.2746    3.6796 O   0  0  0  0  0  0  0  0  0  0  0  0
   -2.7219    0.0577    5.5560 C   0  0  0  0  0  0  0  0  0  0  0  0
   -3.4815   -0.7386    5.6094 H   0  0  0  0  0  0  0  0  0  0  0  0
   -1.8906   -0.2899    6.1903 H   0  0  0  0  0  0  0  0  0  0  0  0
   -3.1599    0.9126    6.0956 H   0  0  0  0  0  0  0  0  0  0  0  0
   -3.0397    1.3125    3.5142 N   0  0  0  0  0  0  0  0  0  0  0  0
   -2.7928    1.7385    2.1618 C   0  0  2  0  0  0  0  0  0  0  0  0
   -1.4579    1.1532    1.7206 C   0  0  0  0  0  0  0  0  0  0  0  0
   -0.5858    0.8004    2.5118 O   0  0  0  0  0  0  0  0  0  0  0  0
   -2.7841    3.2553    2.0523 C   0  0  0  0  0  0  0  0  0  0  0  0
   -3.8047    1.7484    4.0260 H   0  0  0  0  0  0  0  0  0  0  0  0
   -3.5969    1.3201    1.5466 H   0  0  0  0  0  0  0  0  0  0  0  0
   -1.9850    3.6926    2.6620 H   0  0  0  0  0  0  0  0  0  0  0  0
   -2.6246    3.5776    1.0180 H   0  0  0  0  0  0  0  0  0  0  0  0
   -3.7342    3.6765    2.3981 H   0  0  0  0  0  0  0  0  0  0  0  0
   -1.3352    1.1101    0.3372 N   0  0  0  0  0  0  0  0  0  0  0  0
   -0.1579    0.6093   -0.3265 C   0  0  2  0  0  0  0  0  0  0  0  0
    0.9240    1.6748   -0.1907 C   0  0  0  0  0  0  0  0  0  0  0  0
    2.0412    1.5616   -0.6907 O   0  0  0  0  0  0  0  0  0  0  0  0
   -0.4155    0.2968   -1.8051 C   0  0  0  0  0  0  0  0  0  0  0  0
   -1.3644   -0.8604   -2.0003 C   0  0  0  0  0  0  0  0  0  0  0  0
   -2.7157   -0.7599   -2.2384 C   0  0  0  0  0  0  0  0  0  0  0  0
   -1.0309   -2.2435   -1.9743 C   0  0  0  0  0  0  0  0  0  0  0  0
   -3.2180   -2.0279   -2.3579 N   0  0  0  0  0  0  0  0  0  0  0  0
   -2.2116   -2.9541   -2.2012 C   0  0  0  0  0  0  0  0  0  0  0  0
    0.1657   -2.9613   -1.7789 C   0  0  0  0  0  0  0  0  0  0  0  0
   -2.2556   -4.3522   -2.2427 C   0  0  0  0  0  0  0  0  0  0  0  0
    0.1369   -4.3601   -1.8177 C   0  0  0  0  0  0  0  0  0  0  0  0
   -1.0562   -5.0428   -2.0462 C   0  0  0  0  0  0  0  0  0  0  0  0
   -2.1183    1.4068   -0.2401 H   0  0  0  0  0  0  0  0  0  0  0  0
    0.1517   -0.2884    0.2216 H   0  0  0  0  0  0  0  0  0  0  0  0
    0.5319    0.0887   -2.3205 H   0  0  0  0  0  0  0  0  0  0  0  0
   -0.8340    1.1744   -2.3153 H   0  0  0  0  0  0  0  0  0  0  0  0
   -3.3658    0.0991   -2.3321 H   0  0  0  0  0  0  0  0  0  0  0  0
   -4.1873   -2.2525   -2.5355 H   0  0  0  0  0  0  0  0  0  0  0  0
    1.1038   -2.4439   -1.5988 H   0  0  0  0  0  0  0  0  0  0  0  0
   -3.1836   -4.8844   -2.4216 H   0  0  0  0  0  0  0  0  0  0  0  0
    1.0565   -4.9192   -1.6673 H   0  0  0  0  0  0  0  0  0  0  0  0
   -1.0557   -6.1294   -2.0724 H   0  0  0  0  0  0  0  0  0  0  0  0
    0.4750    2.7846    0.5115 N   0  0  0  0  0  0  0  0  0  0  0  0
    1.2934    3.9489    0.7632 C   0  0  2  0  0  0  0  0  0  0  0  0
    2.6225    3.4747    1.3361 C   0  0  0  0  0  0  0  0  0  0  0  0
    2.7630    2.3885    1.8941 O   0  0  0  0  0  0  0  0  0  0  0  0
    0.6046    4.9142    1.7152 C   0  0  0  0  0  0  0  0  0  0  0  0
   -0.4767    2.7782    0.8665 H   0  0  0  0  0  0  0  0  0  0  0  0
    1.4639    4.4311   -0.2056 H   0  0  0  0  0  0  0  0  0  0  0  0
    0.4254    4.4488    2.6914 H   0  0  0  0  0  0  0  0  0  0  0  0
    1.2134    5.8089    1.8824 H   0  0  0  0  0  0  0  0  0  0  0  0
   -0.3646    5.2311    1.3152 H   0  0  0  0  0  0  0  0  0  0  0  0
    3.6230    4.4253    1.1892 N   0  0  0  0  0  0  0  0  0  0  0  0
    4.9714    4.2175    1.6632 C   0  0  0  0  0  0  0  0  0  0  0  0
    3.4218    5.2905    0.6967 H   0  0  0  0  0  0  0  0  0  0  0  0
    5.0682    4.6192    2.6827 H   0  0  0  0  0  0  0  0  0  0  0  0
    5.1954    3.1406    1.6708 H   0  0  0  0  0  0  0  0  0  0  0  0
    5.6778    4.7344    0.9970 H   0  0  0  0  0  0  0  0  0  0  0  0
 29 30  2  0  0  0  0
 27 29  1  0  0  0  0
 28 30  1  0  0  0  0
 24 27  2  0  0  0  0
 26 28  2  0  0  0  0
 22 23  2  0  0  0  0
 23 25  1  0  0  0  0
 22 24  1  0  0  0  0
 24 26  1  0  0  0  0
 21 22  1  0  0  0  0
 25 26  1  0  0  0  0
  1  3  1  0  0  0  0
  1  7  1  0  0  0  0
  1  2  2  0  0  0  0
 42 43  1  0  0  0  0
 43 51  1  0  0  0  0
 43 44  2  0  0  0  0
  8  9  1  0  0  0  0
  9 17  1  0  0  0  0
  9 10  2  0  0  0  0
 18 19  1  0  0  0  0
 19 41  1  0  0  0  0
 19 20  2  0  0  0  0
 42 45  1  0  0  0  0
  8 11  1  0  0  0  0
 51 52  1  0  0  0  0
 18 21  1  0  0  0  0
 41 42  1  0  0  0  0
  7  8  1  0  0  0  0
 17 18  1  0  0  0  0
 29 39  1  0  0  0  0
 30 40  1  0  0  0  0
 27 37  1  0  0  0  0
 28 38  1  0  0  0  0
 23 35  1  0  0  0  0
  3  4  1  0  0  0  0
  3  5  1  0  0  0  0
  3  6  1  0  0  0  0
 45 48  1  0  0  0  0
 45 49  1  0  0  0  0
 45 50  1  0  0  0  0
 11 14  1  0  0  0  0
 11 15  1  0  0  0  0
 11 16  1  0  0  0  0
 52 54  1  0  0  0  0
 52 55  1  0  0  0  0
 52 56  1  0  0  0  0
 21 33  1  0  0  0  0
 21 34  1  0  0  0  0
 42 47  1  0  0  0  0
  8 13  1  0  0  0  0
 18 32  1  0  0  0  0
 25 36  1  0  0  0  0
 51 53  1  0  0  0  0
  7 12  1  0  0  0  0
 41 46  1  0  0  0  0
 17 31  1  0  0  0  0
M  END
$$$$

  -OEChem-05262214473D

 56 57  0     1  0  0  0  0  0999 V2000
   -2.2900    0.3401    4.1553 C   0  0  0  0  0  0  0  0  0  0  0  0
   -1.3426   -0.2746    3.6796 O   0  0  0  0  0  0  0  0  0  0  0  0
   -2.7219    0.0577    5.5560 C   0  0  0  0  0  0  0  0  0  0  0  0
   -3.4815   -0.7386    5.6094 H   0  0  0  0  0  0  0  0  0  0  0  0
   -1.8906   -0.2899    6.1903 H   0  0  0  0  0  0  0  0  0  0  0  0
   -3.1599    0.9126    6.0956 H   0  0  0  0  0  0  0  0  0  0  0  0
   -3.0397    1.3125    3.5142 N   0  0  0  0  0  0  0  0  0  0  0  0
   -2.7928    1.7385    2.1618 C   0  0  2  0  0  0  0  0  0  0  0  0
   -1.4579    1.1532    1.7206 C   0  0  0  0  0  0  0  0  0  0  0  0
   -0.5858    0.8004    2.5118 O   0  0  0  0  0  0  0  0  0  0  0  0
   -2.7841    3.2553    2.0523 C   0  0  0  0  0  0  0  0  0  0  0  0
   -3.8047    1.7484    4.0260 H   0  0  0  0  0  0  0  0  0  0  0  0
   -3.5969    1.3201    1.5466 H   0  0  0  0  0  0  0  0  0  0  0  0
   -1.9850    3.6926    2.6620 H   0  0  0  0  0  0  0  0  0  0  0  0
   -2.6246    3.5776    1.0180 H   0  0  0  0  0  0  0  0  0  0  0  0
   -3.7342    3.6765    2.3981 H   0  0  0  0  0  0  0  0  0  0  0  0
   -1.3352    1.1101    0.3372 N   0  0  0  0  0  0  0  0  0  0  0  0
   -0.1579    0.6093   -0.3265 C   0  0  2  0  0  0  0  0  0  0  0  0
    0.9240    1.6748   -0.1907 C   0  0  0  0  0  0  0  0  0  0  0  0
    1.9314    1.6990   -0.8945 O   0  0  0  0  0  0  0  0  0  0  0  0
   -0.4155    0.2968   -1.8051 C   0  0  0  0  0  0  0  0  0  0  0  0
   -1.3644   -0.8604   -2.0003 C   0  0  0  0  0  0  0  0  0  0  0  0
   -2.7157   -0.7599   -2.2384 C   0  0  0  0  0  0  0  0  0  0  0  0
   -1.0309   -2.2435   -1.9743 C   0  0  0  0  0  0  0  0  0  0  0  0
   -3.2180   -2.0279   -2.3579 N   0  0  0  0  0  0  0  0  0  0  0  0
   -2.2116   -2.9541   -2.2012 C   0  0  0  0  0  0  0  0  0  0  0  0
    0.1657   -2.9613   -1.7789 C   0  0  0  0  0  0  0  0  0  0  0  0
   -2.2556   -4.3522   -2.2427 C   0  0  0  0  0  0  0  0  0  0  0  0
    0.1369   -4.3601   -1.8177 C   0  0  0  0  0  0  0  0  0  0  0  0
   -1.0562   -5.0428   -2.0462 C   0  0  0  0  0  0  0  0  0  0  0  0
   -2.1183    1.4068   -0.2401 H   0  0  0  0  0  0  0  0  0  0  0  0
    0.1517   -0.2884    0.2216 H   0  0  0  0  0  0  0  0  0  0  0  0
    0.5319    0.0887   -2.3205 H   0  0  0  0  0  0  0  0  0  0  0  0
   -0.8340    1.1744   -2.3153 H   0  0  0  0  0  0  0  0  0  0  0  0
   -3.3658    0.0991   -2.3321 H   0  0  0  0  0  0  0  0  0  0  0  0
   -4.1873   -2.2525   -2.5355 H   0  0  0  0  0  0  0  0  0  0  0  0
    1.1038   -2.4439   -1.5988 H   0  0  0  0  0  0  0  0  0  0  0  0
   -3.1836   -4.8844   -2.4216 H   0  0  0  0  0  0  0  0  0  0  0  0
    1.0565   -4.9192   -1.6673 H   0  0  0  0  0  0  0  0  0  0  0  0
   -1.0557   -6.1294   -2.0724 H   0  0  0  0  0  0  0  0  0  0  0  0
    0.6043    2.6198    0.7743 N   0  0  0  0  0  0  0  0  0  0  0  0
    1.4478    3.7509    1.0874 C   0  0  2  0  0  0  0  0  0  0  0  0
    2.8621    3.2340    1.3153 C   0  0  0  0  0  0  0  0  0  0  0  0
    3.1091    2.0710    1.6276 O   0  0  0  0  0  0  0  0  0  0  0  0
    0.9389    4.4990    2.3098 C   0  0  0  0  0  0  0  0  0  0  0  0
   -0.2663    2.5111    1.2861 H   0  0  0  0  0  0  0  0  0  0  0  0
    1.4351    4.4073    0.2105 H   0  0  0  0  0  0  0  0  0  0  0  0
    0.9443    3.8573    3.1984 H   0  0  0  0  0  0  0  0  0  0  0  0
    1.5625    5.3720    2.5287 H   0  0  0  0  0  0  0  0  0  0  0  0
   -0.0891    4.8442    2.1554 H   0  0  0  0  0  0  0  0  0  0  0  0
    3.8130    4.2346    1.1712 N   0  0  0  0  0  0  0  0  0  0  0  0
    5.2266    3.9983    1.3496 C   0  0  0  0  0  0  0  0  0  0  0  0
    3.5197    5.1662    0.8921 H   0  0  0  0  0  0  0  0  0  0  0  0
    5.5059    4.2118    2.3919 H   0  0  0  0  0  0  0  0  0  0  0  0
    5.4549    2.9478    1.1168 H   0  0  0  0  0  0  0  0  0  0  0  0
    5.7960    4.6554    0.6757 H   0  0  0  0  0  0  0  0  0  0  0  0
 29 30  2  0  0  0  0
 27 29  1  0  0  0  0
 28 30  1  0  0  0  0
 24 27  2  0  0  0  0
 26 28  2  0  0  0  0
 22 23  2  0  0  0  0
 23 25  1  0  0  0  0
 22 24  1  0  0  0  0
 24 26  1  0  0  0  0
 21 22  1  0  0  0  0
 25 26  1  0  0  0  0
  1  3  1  0  0  0  0
  1  7  1  0  0  0  0
  1  2  2  0  0  0  0
 42 43  1  0  0  0  0
 43 51  1  0  0  0  0
 43 44  2  0  0  0  0
  8  9  1  0  0  0  0
  9 17  1  0  0  0  0
  9 10  2  0  0  0  0
 18 19  1  0  0  0  0
 19 41  1  0  0  0  0
 19 20  2  0  0  0  0
 42 45  1  0  0  0  0
  8 11  1  0  0  0  0
 51 52  1  0  0  0  0
 18 21  1  0  0  0  0
 41 42  1  0  0  0  0
  7  8  1  0  0  0  0
 17 18  1  0  0  0  0
 29 39  1  0  0  0  0
 30 40  1  0  0  0  0
 27 37  1  0  0  0  0
 28 38  1  0  0  0  0
 23 35  1  0  0  0  0
  3  4  1  0  0  0  0
  3  5  1  0  0  0  0
  3  6  1  0  0  0  0
 45 48  1  0  0  0  0
 45 49  1  0  0  0  0
 45 50  1  0  0  0  0
 11 14  1  0  0  0  0
 11 15  1  0  0  0  0
 11 16  1  0  0  0  0
 52 54  1  0  0  0  0
 52 55  1  0  0  0  0
 52 56  1  0  0  0  0
 21 33  1  0  0  0  0
 21 34  1  0  0  0  0
 42 47  1  0  0  0  0
  8 13  1  0  0  0  0
 18 32  1  0  0  0  0
 25 36  1  0  0  0  0
 51 53  1  0  0  0  0
  7 12  1  0  0  0  0
 41 46  1  0  0  0  0
 17 31  1  0  0  0  0
M  END
$$$$

  -OEChem-05262214473D

 56 57  0     1  0  0  0  0  0999 V2000
   -2.2900    0.3401    4.1553 C   0  0  0  0  0  0  0  0  0  0  0  0
   -1.3426   -0.2746    3.6796 O   0  0  0  0  0  0  0  0  0  0  0  0
   -2.7219    0.0577    5.5560 C   0  0  0  0  0  0  0  0  0  0  0  0
   -3.4815   -0.7386    5.6094 H   0  0  0  0  0  0  0  0  0  0  0  0
   -1.8906   -0.2899    6.1903 H   0  0  0  0  0  0  0  0  0  0  0  0
   -3.1599    0.9126    6.0956 H   0  0  0  0  0  0  0  0  0  0  0  0
   -3.0397    1.3125    3.5142 N   0  0  0  0  0  0  0  0  0  0  0  0
   -2.7928    1.7385    2.1618 C   0  0  2  0  0  0  0  0  0  0  0  0
   -1.4579    1.1532    1.7206 C   0  0  0  0  0  0  0  0  0  0  0  0
   -0.5858    0.8004    2.5118 O   0  0  0  0  0  0  0  0  0  0  0  0
   -2.7841    3.2553    2.0523 C   0  0  0  0  0  0  0  0  0  0  0  0
   -3.8047    1.7484    4.0260 H   0  0  0  0  0  0  0  0  0  0  0  0
   -3.5969    1.3201    1.5466 H   0  0  0  0  0  0  0  0  0  0  0  0
   -1.9850    3.6926    2.6620 H   0  0  0  0  0  0  0  0  0  0  0  0
   -2.6246    3.5776    1.0180 H   0  0  0  0  0  0  0  0  0  0  0  0
   -3.7342    3.6765    2.3981 H   0  0  0  0  0  0  0  0  0  0  0  0
   -1.3352    1.1101    0.3372 N   0  0  0  0  0  0  0  0  0  0  0  0
   -0.1579    0.6093   -0.3265 C   0  0  2  0  0  0  0  0  0  0  0  0
    0.9240    1.6748   -0.1907 C   0  0  0  0  0  0  0  0  0  0  0  0
    1.7854    1.8666   -1.0463 O   0  0  0  0  0  0  0  0  0  0  0  0
   -0.4155    0.2968   -1.8051 C   0  0  0  0  0  0  0  0  0  0  0  0
   -1.3644   -0.8604   -2.0003 C   0  0  0  0  0  0  0  0  0  0  0  0
   -2.7157   -0.7599   -2.2384 C   0  0  0  0  0  0  0  0  0  0  0  0
   -1.0309   -2.2435   -1.9743 C   0  0  0  0  0  0  0  0  0  0  0  0
   -3.2180   -2.0279   -2.3579 N   0  0  0  0  0  0  0  0  0  0  0  0
   -2.2116   -2.9541   -2.2012 C   0  0  0  0  0  0  0  0  0  0  0  0
    0.1657   -2.9613   -1.7789 C   0  0  0  0  0  0  0  0  0  0  0  0
   -2.2556   -4.3522   -2.2427 C   0  0  0  0  0  0  0  0  0  0  0  0
    0.1369   -4.3601   -1.8177 C   0  0  0  0  0  0  0  0  0  0  0  0
   -1.0562   -5.0428   -2.0462 C   0  0  0  0  0  0  0  0  0  0  0  0
   -2.1183    1.4068   -0.2401 H   0  0  0  0  0  0  0  0  0  0  0  0
    0.1517   -0.2884    0.2216 H   0  0  0  0  0  0  0  0  0  0  0  0
    0.5319    0.0887   -2.3205 H   0  0  0  0  0  0  0  0  0  0  0  0
   -0.8340    1.1744   -2.3153 H   0  0  0  0  0  0  0  0  0  0  0  0
   -3.3658    0.0991   -2.3321 H   0  0  0  0  0  0  0  0  0  0  0  0
   -4.1873   -2.2525   -2.5355 H   0  0  0  0  0  0  0  0  0  0  0  0
    1.1038   -2.4439   -1.5988 H   0  0  0  0  0  0  0  0  0  0  0  0
   -3.1836   -4.8844   -2.4216 H   0  0  0  0  0  0  0  0  0  0  0  0
    1.0565   -4.9192   -1.6673 H   0  0  0  0  0  0  0  0  0  0  0  0
   -1.0557   -6.1294   -2.0724 H   0  0  0  0  0  0  0  0  0  0  0  0
    0.7805    2.4154    0.9744 N   0  0  0  0  0  0  0  0  0  0  0  0
    1.6601    3.5036    1.3363 C   0  0  2  0  0  0  0  0  0  0  0  0
    3.0954    3.0109    1.2077 C   0  0  0  0  0  0  0  0  0  0  0  0
    3.4025    1.8213    1.2492 O   0  0  0  0  0  0  0  0  0  0  0  0
    1.3789    3.9964    2.7473 C   0  0  0  0  0  0  0  0  0  0  0  0
    0.0190    2.1808    1.6043 H   0  0  0  0  0  0  0  0  0  0  0  0
    1.4830    4.3073    0.6133 H   0  0  0  0  0  0  0  0  0  0  0  0
    1.5509    3.2048    3.4858 H   0  0  0  0  0  0  0  0  0  0  0  0
    2.0267    4.8394    3.0096 H   0  0  0  0  0  0  0  0  0  0  0  0
    0.3380    4.3226    2.8460 H   0  0  0  0  0  0  0  0  0  0  0  0
    3.9976    4.0582    1.0844 N   0  0  0  0  0  0  0  0  0  0  0  0
    5.4215    3.8501    0.9602 C   0  0  0  0  0  0  0  0  0  0  0  0
    3.6525    5.0125    1.0402 H   0  0  0  0  0  0  0  0  0  0  0  0
    5.8855    3.8818    1.9571 H   0  0  0  0  0  0  0  0  0  0  0  0
    5.6097    2.8693    0.4993 H   0  0  0  0  0  0  0  0  0  0  0  0
    5.8538    4.6408    0.3294 H   0  0  0  0  0  0  0  0  0  0  0  0
 29 30  2  0  0  0  0
 27 29  1  0  0  0  0
 28 30  1  0  0  0  0
 24 27  2  0  0  0  0
 26 28  2  0  0  0  0
 22 23  2  0  0  0  0
 23 25  1  0  0  0  0
 22 24  1  0  0  0  0
 24 26  1  0  0  0  0
 21 22  1  0  0  0  0
 25 26  1  0  0  0  0
  1  3  1  0  0  0  0
  1  7  1  0  0  0  0
  1  2  2  0  0  0  0
 42 43  1  0  0  0  0
 43 51  1  0  0  0  0
 43 44  2  0  0  0  0
  8  9  1  0  0  0  0
  9 17  1  0  0  0  0
  9 10  2  0  0  0  0
 18 19  1  0  0  0  0
 19 41  1  0  0  0  0
 19 20  2  0  0  0  0
 42 45  1  0  0  0  0
  8 11  1  0  0  0  0
 51 52  1  0  0  0  0
 18 21  1  0  0  0  0
 41 42  1  0  0  0  0
  7  8  1  0  0  0  0
 17 18  1  0  0  0  0
 29 39  1  0  0  0  0
 30 40  1  0  0  0  0
 27 37  1  0  0  0  0
 28 38  1  0  0  0  0
 23 35  1  0  0  0  0
  3  4  1  0  0  0  0
  3  5  1  0  0  0  0
  3  6  1  0  0  0  0
 45 48  1  0  0  0  0
 45 49  1  0  0  0  0
 45 50  1  0  0  0  0
 11 14  1  0  0  0  0
 11 15  1  0  0  0  0
 11 16  1  0  0  0  0
 52 54  1  0  0  0  0
 52 55  1  0  0  0  0
 52 56  1  0  0  0  0
 21 33  1  0  0  0  0
 21 34  1  0  0  0  0
 42 47  1  0  0  0  0
  8 13  1  0  0  0  0
 18 32  1  0  0  0  0
 25 36  1  0  0  0  0
 51 53  1  0  0  0  0
  7 12  1  0  0  0  0
 41 46  1  0  0  0  0
 17 31  1  0  0  0  0
M  END
$$$$

  -OEChem-05262214473D

 56 57  0     1  0  0  0  0  0999 V2000
   -2.2900    0.3401    4.1553 C   0  0  0  0  0  0  0  0  0  0  0  0
   -1.3426   -0.2746    3.6796 O   0  0  0  0  0  0  0  0  0  0  0  0
   -2.7219    0.0577    5.5560 C   0  0  0  0  0  0  0  0  0  0  0  0
   -3.4815   -0.7386    5.6094 H   0  0  0  0  0  0  0  0  0  0  0  0
   -1.8906   -0.2899    6.1903 H   0  0  0  0  0  0  0  0  0  0  0  0
   -3.1599    0.9126    6.0956 H   0  0  0  0  0  0  0  0  0  0  0  0
   -3.0397    1.3125    3.5142 N   0  0  0  0  0  0  0  0  0  0  0  0
   -2.7928    1.7385    2.1618 C   0  0  2  0  0  0  0  0  0  0  0  0
   -1.4579    1.1532    1.7206 C   0  0  0  0  0  0  0  0  0  0  0  0
   -0.5858    0.8004    2.5118 O   0  0  0  0  0  0  0  0  0  0  0  0
   -2.7841    3.2553    2.0523 C   0  0  0  0  0  0  0  0  0  0  0  0
   -3.8047    1.7484    4.0260 H   0  0  0  0  0  0  0  0  0  0  0  0
   -3.5969    1.3201    1.5466 H   0  0  0  0  0  0  0  0  0  0  0  0
   -1.9850    3.6926    2.6620 H   0  0  0  0  0  0  0  0  0  0  0  0
   -2.6246    3.5776    1.0180 H   0  0  0  0  0  0  0  0  0  0  0  0
   -3.7342    3.6765    2.3981 H   0  0  0  0  0  0  0  0  0  0  0  0
   -1.3352    1.1101    0.3372 N   0  0  0  0  0  0  0  0  0  0  0  0
   -0.1579    0.6093   -0.3265 C   0  0  2  0  0  0  0  0  0  0  0  0
    0.9240    1.6748   -0.1907 C   0  0  0  0  0  0  0  0  0  0  0  0
    1.6130    2.0530   -1.1357 O   0  0  0  0  0  0  0  0  0  0  0  0
   -0.4155    0.2968   -1.8051 C   0  0  0  0  0  0  0  0  0  0  0  0
   -1.3644   -0.8604   -2.0003 C   0  0  0  0  0  0  0  0  0  0  0  0
   -2.7157   -0.7599   -2.2384 C   0  0  0  0  0  0  0  0  0  0  0  0
   -1.0309   -2.2435   -1.9743 C   0  0  0  0  0  0  0  0  0  0  0  0
   -3.2180   -2.0279   -2.3579 N   0  0  0  0  0  0  0  0  0  0  0  0
   -2.2116   -2.9541   -2.2012 C   0  0  0  0  0  0  0  0  0  0  0  0
    0.1657   -2.9613   -1.7789 C   0  0  0  0  0  0  0  0  0  0  0  0
   -2.2556   -4.3522   -2.2427 C   0  0  0  0  0  0  0  0  0  0  0  0
    0.1369   -4.3601   -1.8177 C   0  0  0  0  0  0  0  0  0  0  0  0
   -1.0562   -5.0428   -2.0462 C   0  0  0  0  0  0  0  0  0  0  0  0
   -2.1183    1.4068   -0.2401 H   0  0  0  0  0  0  0  0  0  0  0  0
    0.1517   -0.2884    0.2216 H   0  0  0  0  0  0  0  0  0  0  0  0
    0.5319    0.0887   -2.3205 H   0  0  0  0  0  0  0  0  0  0  0  0
   -0.8340    1.1744   -2.3153 H   0  0  0  0  0  0  0  0  0  0  0  0
   -3.3658    0.0991   -2.3321 H   0  0  0  0  0  0  0  0  0  0  0  0
   -4.1873   -2.2525   -2.5355 H   0  0  0  0  0  0  0  0  0  0  0  0
    1.1038   -2.4439   -1.5988 H   0  0  0  0  0  0  0  0  0  0  0  0
   -3.1836   -4.8844   -2.4216 H   0  0  0  0  0  0  0  0  0  0  0  0
    1.0565   -4.9192   -1.6673 H   0  0  0  0  0  0  0  0  0  0  0  0
   -1.0557   -6.1294   -2.0724 H   0  0  0  0  0  0  0  0  0  0  0  0
    0.9916    2.1853    1.0982 N   0  0  0  0  0  0  0  0  0  0  0  0
    1.9159    3.2239    1.4929 C   0  0  2  0  0  0  0  0  0  0  0  0
    3.3064    2.8205    1.0206 C   0  0  0  0  0  0  0  0  0  0  0  0
    3.6232    1.6564    0.7847 O   0  0  0  0  0  0  0  0  0  0  0  0
    1.8947    3.4407    2.9980 C   0  0  0  0  0  0  0  0  0  0  0  0
    0.3597    1.8100    1.7994 H   0  0  0  0  0  0  0  0  0  0  0  0
    1.6045    4.1377    0.9753 H   0  0  0  0  0  0  0  0  0  0  0  0
    2.2038    2.5357    3.5337 H   0  0  0  0  0  0  0  0  0  0  0  0
    2.5743    4.2473    3.2923 H   0  0  0  0  0  0  0  0  0  0  0  0
    0.8874    3.7017    3.3401 H   0  0  0  0  0  0  0  0  0  0  0  0
    4.1644    3.9080    0.9348 N   0  0  0  0  0  0  0  0  0  0  0  0
    5.5427    3.7830    0.5217 C   0  0  0  0  0  0  0  0  0  0  0  0
    3.8111    4.8399    1.1311 H   0  0  0  0  0  0  0  0  0  0  0  0
    6.1811    3.6516    1.4077 H   0  0  0  0  0  0  0  0  0  0  0  0
    5.6494    2.9104   -0.1396 H   0  0  0  0  0  0  0  0  0  0  0  0
    5.8474    4.6916   -0.0182 H   0  0  0  0  0  0  0  0  0  0  0  0
 29 30  2  0  0  0  0
 27 29  1  0  0  0  0
 28 30  1  0  0  0  0
 24 27  2  0  0  0  0
 26 28  2  0  0  0  0
 22 23  2  0  0  0  0
 23 25  1  0  0  0  0
 22 24  1  0  0  0  0
 24 26  1  0  0  0  0
 21 22  1  0  0  0  0
 25 26  1  0  0  0  0
  1  3  1  0  0  0  0
  1  7  1  0  0  0  0
  1  2  2  0  0  0  0
 42 43  1  0  0  0  0
 43 51  1  0  0  0  0
 43 44  2  0  0  0  0
  8  9  1  0  0  0  0
  9 17  1  0  0  0  0
  9 10  2  0  0  0  0
 18 19  1  0  0  0  0
 19 41  1  0  0  0  0
 19 20  2  0  0  0  0
 42 45  1  0  0  0  0
  8 11  1  0  0  0  0
 51 52  1  0  0  0  0
 18 21  1  0  0  0  0
 41 42  1  0  0  0  0
  7  8  1  0  0  0  0
 17 18  1  0  0  0  0
 29 39  1  0  0  0  0
 30 40  1  0  0  0  0
 27 37  1  0  0  0  0
 28 38  1  0  0  0  0
 23 35  1  0  0  0  0
  3  4  1  0  0  0  0
  3  5  1  0  0  0  0
  3  6  1  0  0  0  0
 45 48  1  0  0  0  0
 45 49  1  0  0  0  0
 45 50  1  0  0  0  0
 11 14  1  0  0  0  0
 11 15  1  0  0  0  0
 11 16  1  0  0  0  0
 52 54  1  0  0  0  0
 52 55  1  0  0  0  0
 52 56  1  0  0  0  0
 21 33  1  0  0  0  0
 21 34  1  0  0  0  0
 42 47  1  0  0  0  0
  8 13  1  0  0  0  0
 18 32  1  0  0  0  0
 25 36  1  0  0  0  0
 51 53  1  0  0  0  0
  7 12  1  0  0  0  0
 41 46  1  0  0  0  0
 17 31  1  0  0  0  0
M  END
$$$$

  -OEChem-05262214473D

 56 57  0     1  0  0  0  0  0999 V2000
   -2.2900    0.3401    4.1553 C   0  0  0  0  0  0  0  0  0  0  0  0
   -1.3426   -0.2746    3.6796 O   0  0  0  0  0  0  0  0  0  0  0  0
   -2.7219    0.0577    5.5560 C   0  0  0  0  0  0  0  0  0  0  0  0
   -3.4815   -0.7386    5.6094 H   0  0  0  0  0  0  0  0  0  0  0  0
   -1.8906   -0.2899    6.1903 H   0  0  0  0  0  0  0  0  0  0  0  0
   -3.1599    0.9126    6.0956 H   0  0  0  0  0  0  0  0  0  0  0  0
   -3.0397    1.3125    3.5142 N   0  0  0  0  0  0  0  0  0  0  0  0
   -2.7928    1.7385    2.1618 C   0  0  2  0  0  0  0  0  0  0  0  0
   -1.4579    1.1532    1.7206 C   0  0  0  0  0  0  0  0  0  0  0  0
   -0.5858    0.8004    2.5118 O   0  0  0  0  0  0  0  0  0  0  0  0
   -2.7841    3.2553    2.0523 C   0  0  0  0  0  0  0  0  0  0  0  0
   -3.8047    1.7484    4.0260 H   0  0  0  0  0  0  0  0  0  0  0  0
   -3.5969    1.3201    1.5466 H   0  0  0  0  0  0  0  0  0  0  0  0
   -1.9850    3.6926    2.6620 H   0  0  0  0  0  0  0  0  0  0  0  0
   -2.6246    3.5776    1.0180 H   0  0  0  0  0  0  0  0  0  0  0  0
   -3.7342    3.6765    2.3981 H   0  0  0  0  0  0  0  0  0  0  0  0
   -1.3352    1.1101    0.3372 N   0  0  0  0  0  0  0  0  0  0  0  0
   -0.1579    0.6093   -0.3265 C   0  0  2  0  0  0  0  0  0  0  0  0
    0.9240    1.6748   -0.1907 C   0  0  0  0  0  0  0  0  0  0  0  0
    1.4261    2.2455   -1.1566 O   0  0  0  0  0  0  0  0  0  0  0  0
   -0.4155    0.2968   -1.8051 C   0  0  0  0  0  0  0  0  0  0  0  0
   -1.3644   -0.8604   -2.0003 C   0  0  0  0  0  0  0  0  0  0  0  0
   -2.7157   -0.7599   -2.2384 C   0  0  0  0  0  0  0  0  0  0  0  0
   -1.0309   -2.2435   -1.9743 C   0  0  0  0  0  0  0  0  0  0  0  0
   -3.2180   -2.0279   -2.3579 N   0  0  0  0  0  0  0  0  0  0  0  0
   -2.2116   -2.9541   -2.2012 C   0  0  0  0  0  0  0  0  0  0  0  0
    0.1657   -2.9613   -1.7789 C   0  0  0  0  0  0  0  0  0  0  0  0
   -2.2556   -4.3522   -2.2427 C   0  0  0  0  0  0  0  0  0  0  0  0
    0.1369   -4.3601   -1.8177 C   0  0  0  0  0  0  0  0  0  0  0  0
   -1.0562   -5.0428   -2.0462 C   0  0  0  0  0  0  0  0  0  0  0  0
   -2.1183    1.4068   -0.2401 H   0  0  0  0  0  0  0  0  0  0  0  0
    0.1517   -0.2884    0.2216 H   0  0  0  0  0  0  0  0  0  0  0  0
    0.5319    0.0887   -2.3205 H   0  0  0  0  0  0  0  0  0  0  0  0
   -0.8340    1.1744   -2.3153 H   0  0  0  0  0  0  0  0  0  0  0  0
   -3.3658    0.0991   -2.3321 H   0  0  0  0  0  0  0  0  0  0  0  0
   -4.1873   -2.2525   -2.5355 H   0  0  0  0  0  0  0  0  0  0  0  0
    1.1038   -2.4439   -1.5988 H   0  0  0  0  0  0  0  0  0  0  0  0
   -3.1836   -4.8844   -2.4216 H   0  0  0  0  0  0  0  0  0  0  0  0
    1.0565   -4.9192   -1.6673 H   0  0  0  0  0  0  0  0  0  0  0  0
   -1.0557   -6.1294   -2.0724 H   0  0  0  0  0  0  0  0  0  0  0  0
    1.2233    1.9451    1.1374 N   0  0  0  0  0  0  0  0  0  0  0  0
    2.1977    2.9309    1.5466 C   0  0  2  0  0  0  0  0  0  0  0  0
    3.4807    2.6758    0.7667 C   0  0  0  0  0  0  0  0  0  0  0  0
    3.7562    1.5875    0.2659 O   0  0  0  0  0  0  0  0  0  0  0  0
    2.4511    2.8698    3.0448 C   0  0  0  0  0  0  0  0  0  0  0  0
    0.7327    1.4238    1.8581 H   0  0  0  0  0  0  0  0  0  0  0  0
    1.7912    3.9103    1.2719 H   0  0  0  0  0  0  0  0  0  0  0  0
    2.8586    1.8957    3.3390 H   0  0  0  0  0  0  0  0  0  0  0  0
    3.1681    3.6360    3.3575 H   0  0  0  0  0  0  0  0  0  0  0  0
    1.5218    3.0239    3.6039 H   0  0  0  0  0  0  0  0  0  0  0  0
    4.3018    3.7942    0.7325 N   0  0  0  0  0  0  0  0  0  0  0  0
    5.5819    3.8014    0.0638 C   0  0  0  0  0  0  0  0  0  0  0  0
    3.9847    4.6601    1.1584 H   0  0  0  0  0  0  0  0  0  0  0  0
    6.3726    3.5370    0.7814 H   0  0  0  0  0  0  0  0  0  0  0  0
    5.5712    3.0684   -0.7563 H   0  0  0  0  0  0  0  0  0  0  0  0
    5.7771    4.8045   -0.3435 H   0  0  0  0  0  0  0  0  0  0  0  0
 29 30  2  0  0  0  0
 27 29  1  0  0  0  0
 28 30  1  0  0  0  0
 24 27  2  0  0  0  0
 26 28  2  0  0  0  0
 22 23  2  0  0  0  0
 23 25  1  0  0  0  0
 22 24  1  0  0  0  0
 24 26  1  0  0  0  0
 21 22  1  0  0  0  0
 25 26  1  0  0  0  0
  1  3  1  0  0  0  0
  1  7  1  0  0  0  0
  1  2  2  0  0  0  0
 42 43  1  0  0  0  0
 43 51  1  0  0  0  0
 43 44  2  0  0  0  0
  8  9  1  0  0  0  0
  9 17  1  0  0  0  0
  9 10  2  0  0  0  0
 18 19  1  0  0  0  0
 19 41  1  0  0  0  0
 19 20  2  0  0  0  0
 42 45  1  0  0  0  0
  8 11  1  0  0  0  0
 51 52  1  0  0  0  0
 18 21  1  0  0  0  0
 41 42  1  0  0  0  0
  7  8  1  0  0  0  0
 17 18  1  0  0  0  0
 29 39  1  0  0  0  0
 30 40  1  0  0  0  0
 27 37  1  0  0  0  0
 28 38  1  0  0  0  0
 23 35  1  0  0  0  0
  3  4  1  0  0  0  0
  3  5  1  0  0  0  0
  3  6  1  0  0  0  0
 45 48  1  0  0  0  0
 45 49  1  0  0  0  0
 45 50  1  0  0  0  0
 11 14  1  0  0  0  0
 11 15  1  0  0  0  0
 11 16  1  0  0  0  0
 52 54  1  0  0  0  0
 52 55  1  0  0  0  0
 52 56  1  0  0  0  0
 21 33  1  0  0  0  0
 21 34  1  0  0  0  0
 42 47  1  0  0  0  0
  8 13  1  0  0  0  0
 18 32  1  0  0  0  0
 25 36  1  0  0  0  0
 51 53  1  0  0  0  0
  7 12  1  0  0  0  0
 41 46  1  0  0  0  0
 17 31  1  0  0  0  0
M  END
$$$$

  -OEChem-05262214473D

 56 57  0     1  0  0  0  0  0999 V2000
   -2.2900    0.3401    4.1553 C   0  0  0  0  0  0  0  0  0  0  0  0
   -1.3426   -0.2746    3.6796 O   0  0  0  0  0  0  0  0  0  0  0  0
   -2.7219    0.0577    5.5560 C   0  0  0  0  0  0  0  0  0  0  0  0
   -3.4815   -0.7386    5.6094 H   0  0  0  0  0  0  0  0  0  0  0  0
   -1.8906   -0.2899    6.1903 H   0  0  0  0  0  0  0  0  0  0  0  0
   -3.1599    0.9126    6.0956 H   0  0  0  0  0  0  0  0  0  0  0  0
   -3.0397    1.3125    3.5142 N   0  0  0  0  0  0  0  0  0  0  0  0
   -2.7928    1.7385    2.1618 C   0  0  2  0  0  0  0  0  0  0  0  0
   -1.4579    1.1532    1.7206 C   0  0  0  0  0  0  0  0  0  0  0  0
   -0.5858    0.8004    2.5118 O   0  0  0  0  0  0  0  0  0  0  0  0
   -2.7841    3.2553    2.0523 C   0  0  0  0  0  0  0  0  0  0  0  0
   -3.8047    1.7484    4.0260 H   0  0  0  0  0  0  0  0  0  0  0  0
   -3.5969    1.3201    1.5466 H   0  0  0  0  0  0  0  0  0  0  0  0
   -1.9850    3.6926    2.6620 H   0  0  0  0  0  0  0  0  0  0  0  0
   -2.6246    3.5776    1.0180 H   0  0  0  0  0  0  0  0  0  0  0  0
   -3.7342    3.6765    2.3981 H   0  0  0  0  0  0  0  0  0  0  0  0
   -1.3352    1.1101    0.3372 N   0  0  0  0  0  0  0  0  0  0  0  0
   -0.1579    0.6093   -0.3265 C   0  0  2  0  0  0  0  0  0  0  0  0
    0.9240    1.6748   -0.1907 C   0  0  0  0  0  0  0  0  0  0  0  0
    1.2373    2.4310   -1.1077 O   0  0  0  0  0  0  0  0  0  0  0  0
   -0.4155    0.2968   -1.8051 C   0  0  0  0  0  0  0  0  0  0  0  0
   -1.3644   -0.8604   -2.0003 C   0  0  0  0  0  0  0  0  0  0  0  0
   -2.7157   -0.7599   -2.2384 C   0  0  0  0  0  0  0  0  0  0  0  0
   -1.0309   -2.2435   -1.9743 C   0  0  0  0  0  0  0  0  0  0  0  0
   -3.2180   -2.0279   -2.3579 N   0  0  0  0  0  0  0  0  0  0  0  0
   -2.2116   -2.9541   -2.2012 C   0  0  0  0  0  0  0  0  0  0  0  0
    0.1657   -2.9613   -1.7789 C   0  0  0  0  0  0  0  0  0  0  0  0
   -2.2556   -4.3522   -2.2427 C   0  0  0  0  0  0  0  0  0  0  0  0
    0.1369   -4.3601   -1.8177 C   0  0  0  0  0  0  0  0  0  0  0  0
   -1.0562   -5.0428   -2.0462 C   0  0  0  0  0  0  0  0  0  0  0  0
   -2.1183    1.4068   -0.2401 H   0  0  0  0  0  0  0  0  0  0  0  0
    0.1517   -0.2884    0.2216 H   0  0  0  0  0  0  0  0  0  0  0  0
    0.5319    0.0887   -2.3205 H   0  0  0  0  0  0  0  0  0  0  0  0
   -0.8340    1.1744   -2.3153 H   0  0  0  0  0  0  0  0  0  0  0  0
   -3.3658    0.0991   -2.3321 H   0  0  0  0  0  0  0  0  0  0  0  0
   -4.1873   -2.2525   -2.5355 H   0  0  0  0  0  0  0  0  0  0  0  0
    1.1038   -2.4439   -1.5988 H   0  0  0  0  0  0  0  0  0  0  0  0
   -3.1836   -4.8844   -2.4216 H   0  0  0  0  0  0  0  0  0  0  0  0
    1.0565   -4.9192   -1.6673 H   0  0  0  0  0  0  0  0  0  0  0  0
   -1.0557   -6.1294   -2.0724 H   0  0  0  0  0  0  0  0  0  0  0  0
    1.4596    1.7112    1.0893 N   0  0  0  0  0  0  0  0  0  0  0  0
    2.4864    2.6445    1.4936 C   0  0  2  0  0  0  0  0  0  0  0  0
    3.6066    2.5867    0.4633 C   0  0  0  0  0  0  0  0  0  0  0  0
    3.7924    1.6193   -0.2720 O   0  0  0  0  0  0  0  0  0  0  0  0
    3.0101    2.3226    2.8846 C   0  0  0  0  0  0  0  0  0  0  0  0
    1.1125    1.0485    1.7764 H   0  0  0  0  0  0  0  0  0  0  0  0
    2.0305    3.6405    1.4828 H   0  0  0  0  0  0  0  0  0  0  0  0
    3.4706    1.3283    2.9150 H   0  0  0  0  0  0  0  0  0  0  0  0
    3.7675    3.0473    3.2009 H   0  0  0  0  0  0  0  0  0  0  0  0
    2.1979    2.3353    3.6194 H   0  0  0  0  0  0  0  0  0  0  0  0
    4.4006    3.7246    0.4913 N   0  0  0  0  0  0  0  0  0  0  0  0
    5.5366    3.9043   -0.3822 C   0  0  0  0  0  0  0  0  0  0  0  0
    4.1615    4.4854    1.1204 H   0  0  0  0  0  0  0  0  0  0  0  0
    6.4469    3.5458    0.1207 H   0  0  0  0  0  0  0  0  0  0  0  0
    5.3805    3.3325   -1.3089 H   0  0  0  0  0  0  0  0  0  0  0  0
    5.6477    4.9716   -0.6242 H   0  0  0  0  0  0  0  0  0  0  0  0
 29 30  2  0  0  0  0
 27 29  1  0  0  0  0
 28 30  1  0  0  0  0
 24 27  2  0  0  0  0
 26 28  2  0  0  0  0
 22 23  2  0  0  0  0
 23 25  1  0  0  0  0
 22 24  1  0  0  0  0
 24 26  1  0  0  0  0
 21 22  1  0  0  0  0
 25 26  1  0  0  0  0
  1  3  1  0  0  0  0
  1  7  1  0  0  0  0
  1  2  2  0  0  0  0
 42 43  1  0  0  0  0
 43 51  1  0  0  0  0
 43 44  2  0  0  0  0
  8  9  1  0  0  0  0
  9 17  1  0  0  0  0
  9 10  2  0  0  0  0
 18 19  1  0  0  0  0
 19 41  1  0  0  0  0
 19 20  2  0  0  0  0
 42 45  1  0  0  0  0
  8 11  1  0  0  0  0
 51 52  1  0  0  0  0
 18 21  1  0  0  0  0
 41 42  1  0  0  0  0
  7  8  1  0  0  0  0
 17 18  1  0  0  0  0
 29 39  1  0  0  0  0
 30 40  1  0  0  0  0
 27 37  1  0  0  0  0
 28 38  1  0  0  0  0
 23 35  1  0  0  0  0
  3  4  1  0  0  0  0
  3  5  1  0  0  0  0
  3  6  1  0  0  0  0
 45 48  1  0  0  0  0
 45 49  1  0  0  0  0
 45 50  1  0  0  0  0
 11 14  1  0  0  0  0
 11 15  1  0  0  0  0
 11 16  1  0  0  0  0
 52 54  1  0  0  0  0
 52 55  1  0  0  0  0
 52 56  1  0  0  0  0
 21 33  1  0  0  0  0
 21 34  1  0  0  0  0
 42 47  1  0  0  0  0
  8 13  1  0  0  0  0
 18 32  1  0  0  0  0
 25 36  1  0  0  0  0
 51 53  1  0  0  0  0
  7 12  1  0  0  0  0
 41 46  1  0  0  0  0
 17 31  1  0  0  0  0
M  END
$$$$

  -OEChem-05262214473D

 56 57  0     1  0  0  0  0  0999 V2000
   -2.2900    0.3401    4.1553 C   0  0  0  0  0  0  0  0  0  0  0  0
   -1.3426   -0.2746    3.6796 O   0  0  0  0  0  0  0  0  0  0  0  0
   -2.7219    0.0577    5.5560 C   0  0  0  0  0  0  0  0  0  0  0  0
   -3.4815   -0.7386    5.6094 H   0  0  0  0  0  0  0  0  0  0  0  0
   -1.8906   -0.2899    6.1903 H   0  0  0  0  0  0  0  0  0  0  0  0
   -3.1599    0.9126    6.0956 H   0  0  0  0  0  0  0  0  0  0  0  0
   -3.0397    1.3125    3.5142 N   0  0  0  0  0  0  0  0  0  0  0  0
   -2.7928    1.7385    2.1618 C   0  0  2  0  0  0  0  0  0  0  0  0
   -1.4579    1.1532    1.7206 C   0  0  0  0  0  0  0  0  0  0  0  0
   -0.5858    0.8004    2.5118 O   0  0  0  0  0  0  0  0  0  0  0  0
   -2.7841    3.2553    2.0523 C   0  0  0  0  0  0  0  0  0  0  0  0
   -3.8047    1.7484    4.0260 H   0  0  0  0  0  0  0  0  0  0  0  0
   -3.5969    1.3201    1.5466 H   0  0  0  0  0  0  0  0  0  0  0  0
   -1.9850    3.6926    2.6620 H   0  0  0  0  0  0  0  0  0  0  0  0
   -2.6246    3.5776    1.0180 H   0  0  0  0  0  0  0  0  0  0  0  0
   -3.7342    3.6765    2.3981 H   0  0  0  0  0  0  0  0  0  0  0  0
   -1.3352    1.1101    0.3372 N   0  0  0  0  0  0  0  0  0  0  0  0
   -0.1579    0.6093   -0.3265 C   0  0  2  0  0  0  0  0  0  0  0  0
    0.9240    1.6748   -0.1907 C   0  0  0  0  0  0  0  0  0  0  0  0
    1.0594    2.5968   -0.9922 O   0  0  0  0  0  0  0  0  0  0  0  0
   -0.4155    0.2968   -1.8051 C   0  0  0  0  0  0  0  0  0  0  0  0
   -1.3644   -0.8604   -2.0003 C   0  0  0  0  0  0  0  0  0  0  0  0
   -2.7157   -0.7599   -2.2384 C   0  0  0  0  0  0  0  0  0  0  0  0
   -1.0309   -2.2435   -1.9743 C   0  0  0  0  0  0  0  0  0  0  0  0
   -3.2180   -2.0279   -2.3579 N   0  0  0  0  0  0  0  0  0  0  0  0
   -2.2116   -2.9541   -2.2012 C   0  0  0  0  0  0  0  0  0  0  0  0
    0.1657   -2.9613   -1.7789 C   0  0  0  0  0  0  0  0  0  0  0  0
   -2.2556   -4.3522   -2.2427 C   0  0  0  0  0  0  0  0  0  0  0  0
    0.1369   -4.3601   -1.8177 C   0  0  0  0  0  0  0  0  0  0  0  0
   -1.0562   -5.0428   -2.0462 C   0  0  0  0  0  0  0  0  0  0  0  0
   -2.1183    1.4068   -0.2401 H   0  0  0  0  0  0  0  0  0  0  0  0
    0.1517   -0.2884    0.2216 H   0  0  0  0  0  0  0  0  0  0  0  0
    0.5319    0.0887   -2.3205 H   0  0  0  0  0  0  0  0  0  0  0  0
   -0.8340    1.1744   -2.3153 H   0  0  0  0  0  0  0  0  0  0  0  0
   -3.3658    0.0991   -2.3321 H   0  0  0  0  0  0  0  0  0  0  0  0
   -4.1873   -2.2525   -2.5355 H   0  0  0  0  0  0  0  0  0  0  0  0
    1.1038   -2.4439   -1.5988 H   0  0  0  0  0  0  0  0  0  0  0  0
   -3.1836   -4.8844   -2.4216 H   0  0  0  0  0  0  0  0  0  0  0  0
    1.0565   -4.9192   -1.6673 H   0  0  0  0  0  0  0  0  0  0  0  0
   -1.0557   -6.1294   -2.0724 H   0  0  0  0  0  0  0  0  0  0  0  0
    1.6846    1.4996    0.9570 N   0  0  0  0  0  0  0  0  0  0  0  0
    2.7623    2.3842    1.3376 C   0  0  2  0  0  0  0  0  0  0  0  0
    3.6753    2.5592    0.1312 C   0  0  0  0  0  0  0  0  0  0  0  0
    3.7294    1.7496   -0.7922 O   0  0  0  0  0  0  0  0  0  0  0  0
    3.5337    1.8363    2.5281 C   0  0  0  0  0  0  0  0  0  0  0  0
    1.4732    0.7099    1.5599 H   0  0  0  0  0  0  0  0  0  0  0  0
    2.3060    3.3466    1.5936 H   0  0  0  0  0  0  0  0  0  0  0  0
    3.9981    0.8723    2.2905 H   0  0  0  0  0  0  0  0  0  0  0  0
    4.3318    2.5213    2.8330 H   0  0  0  0  0  0  0  0  0  0  0  0
    2.8697    1.6830    3.3856 H   0  0  0  0  0  0  0  0  0  0  0  0
    4.4540    3.7040    0.2278 N   0  0  0  0  0  0  0  0  0  0  0  0
    5.4098    4.0845   -0.7859 C   0  0  0  0  0  0  0  0  0  0  0  0
    4.3294    4.3277    1.0197 H   0  0  0  0  0  0  0  0  0  0  0  0
    6.3990    3.6773   -0.5293 H   0  0  0  0  0  0  0  0  0  0  0  0
    5.0902    3.6847   -1.7596 H   0  0  0  0  0  0  0  0  0  0  0  0
    5.4682    5.1816   -0.8413 H   0  0  0  0  0  0  0  0  0  0  0  0
 29 30  2  0  0  0  0
 27 29  1  0  0  0  0
 28 30  1  0  0  0  0
 24 27  2  0  0  0  0
 26 28  2  0  0  0  0
 22 23  2  0  0  0  0
 23 25  1  0  0  0  0
 22 24  1  0  0  0  0
 24 26  1  0  0  0  0
 21 22  1  0  0  0  0
 25 26  1  0  0  0  0
  1  3  1  0  0  0  0
  1  7  1  0  0  0  0
  1  2  2  0  0  0  0
 42 43  1  0  0  0  0
 43 51  1  0  0  0  0
 43 44  2  0  0  0  0
  8  9  1  0  0  0  0
  9 17  1  0  0  0  0
  9 10  2  0  0  0  0
 18 19  1  0  0  0  0
 19 41  1  0  0  0  0
 19 20  2  0  0  0  0
 42 45  1  0  0  0  0
  8 11  1  0  0  0  0
 51 52  1  0  0  0  0
 18 21  1  0  0  0  0
 41 42  1  0  0  0  0
  7  8  1  0  0  0  0
 17 18  1  0  0  0  0
 29 39  1  0  0  0  0
 30 40  1  0  0  0  0
 27 37  1  0  0  0  0
 28 38  1  0  0  0  0
 23 35  1  0  0  0  0
  3  4  1  0  0  0  0
  3  5  1  0  0  0  0
  3  6  1  0  0  0  0
 45 48  1  0  0  0  0
 45 49  1  0  0  0  0
 45 50  1  0  0  0  0
 11 14  1  0  0  0  0
 11 15  1  0  0  0  0
 11 16  1  0  0  0  0
 52 54  1  0  0  0  0
 52 55  1  0  0  0  0
 52 56  1  0  0  0  0
 21 33  1  0  0  0  0
 21 34  1  0  0  0  0
 42 47  1  0  0  0  0
  8 13  1  0  0  0  0
 18 32  1  0  0  0  0
 25 36  1  0  0  0  0
 51 53  1  0  0  0  0
  7 12  1  0  0  0  0
 41 46  1  0  0  0  0
 17 31  1  0  0  0  0
M  END
$$$$

  -OEChem-05262214473D

 56 57  0     1  0  0  0  0  0999 V2000
   -2.2900    0.3401    4.1553 C   0  0  0  0  0  0  0  0  0  0  0  0
   -1.3426   -0.2746    3.6796 O   0  0  0  0  0  0  0  0  0  0  0  0
   -2.7219    0.0577    5.5560 C   0  0  0  0  0  0  0  0  0  0  0  0
   -3.4815   -0.7386    5.6094 H   0  0  0  0  0  0  0  0  0  0  0  0
   -1.8906   -0.2899    6.1903 H   0  0  0  0  0  0  0  0  0  0  0  0
   -3.1599    0.9126    6.0956 H   0  0  0  0  0  0  0  0  0  0  0  0
   -3.0397    1.3125    3.5142 N   0  0  0  0  0  0  0  0  0  0  0  0
   -2.7928    1.7385    2.1618 C   0  0  2  0  0  0  0  0  0  0  0  0
   -1.4579    1.1532    1.7206 C   0  0  0  0  0  0  0  0  0  0  0  0
   -0.5858    0.8004    2.5118 O   0  0  0  0  0  0  0  0  0  0  0  0
   -2.7841    3.2553    2.0523 C   0  0  0  0  0  0  0  0  0  0  0  0
   -3.8047    1.7484    4.0260 H   0  0  0  0  0  0  0  0  0  0  0  0
   -3.5969    1.3201    1.5466 H   0  0  0  0  0  0  0  0  0  0  0  0
   -1.9850    3.6926    2.6620 H   0  0  0  0  0  0  0  0  0  0  0  0
   -2.6246    3.5776    1.0180 H   0  0  0  0  0  0  0  0  0  0  0  0
   -3.7342    3.6765    2.3981 H   0  0  0  0  0  0  0  0  0  0  0  0
   -1.3352    1.1101    0.3372 N   0  0  0  0  0  0  0  0  0  0  0  0
   -0.1579    0.6093   -0.3265 C   0  0  2  0  0  0  0  0  0  0  0  0
    0.9240    1.6748   -0.1907 C   0  0  0  0  0  0  0  0  0  0  0  0
    0.9048    2.7317   -0.8180 O   0  0  0  0  0  0  0  0  0  0  0  0
   -0.4155    0.2968   -1.8051 C   0  0  0  0  0  0  0  0  0  0  0  0
   -1.3644   -0.8604   -2.0003 C   0  0  0  0  0  0  0  0  0  0  0  0
   -2.7157   -0.7599   -2.2384 C   0  0  0  0  0  0  0  0  0  0  0  0
   -1.0309   -2.2435   -1.9743 C   0  0  0  0  0  0  0  0  0  0  0  0
   -3.2180   -2.0279   -2.3579 N   0  0  0  0  0  0  0  0  0  0  0  0
   -2.2116   -2.9541   -2.2012 C   0  0  0  0  0  0  0  0  0  0  0  0
    0.1657   -2.9613   -1.7789 C   0  0  0  0  0  0  0  0  0  0  0  0
   -2.2556   -4.3522   -2.2427 C   0  0  0  0  0  0  0  0  0  0  0  0
    0.1369   -4.3601   -1.8177 C   0  0  0  0  0  0  0  0  0  0  0  0
   -1.0562   -5.0428   -2.0462 C   0  0  0  0  0  0  0  0  0  0  0  0
   -2.1183    1.4068   -0.2401 H   0  0  0  0  0  0  0  0  0  0  0  0
    0.1517   -0.2884    0.2216 H   0  0  0  0  0  0  0  0  0  0  0  0
    0.5319    0.0887   -2.3205 H   0  0  0  0  0  0  0  0  0  0  0  0
   -0.8340    1.1744   -2.3153 H   0  0  0  0  0  0  0  0  0  0  0  0
   -3.3658    0.0991   -2.3321 H   0  0  0  0  0  0  0  0  0  0  0  0
   -4.1873   -2.2525   -2.5355 H   0  0  0  0  0  0  0  0  0  0  0  0
    1.1038   -2.4439   -1.5988 H   0  0  0  0  0  0  0  0  0  0  0  0
   -3.1836   -4.8844   -2.4216 H   0  0  0  0  0  0  0  0  0  0  0  0
    1.0565   -4.9192   -1.6673 H   0  0  0  0  0  0  0  0  0  0  0  0
   -1.0557   -6.1294   -2.0724 H   0  0  0  0  0  0  0  0  0  0  0  0
    1.8829    1.3247    0.7497 N   0  0  0  0  0  0  0  0  0  0  0  0
    3.0066    2.1678    1.0891 C   0  0  2  0  0  0  0  0  0  0  0  0
    3.6822    2.5953   -0.2071 C   0  0  0  0  0  0  0  0  0  0  0  0
    3.5714    1.9696   -1.2594 O   0  0  0  0  0  0  0  0  0  0  0  0
    3.9863    1.4442    1.9998 C   0  0  0  0  0  0  0  0  0  0  0  0
    1.7903    0.4308    1.2232 H   0  0  0  0  0  0  0  0  0  0  0  0
    2.5989    3.0488    1.5969 H   0  0  0  0  0  0  0  0  0  0  0  0
    4.4052    0.5586    1.5081 H   0  0  0  0  0  0  0  0  0  0  0  0
    4.8224    2.0937    2.2790 H   0  0  0  0  0  0  0  0  0  0  0  0
    3.4914    1.1113    2.9185 H   0  0  0  0  0  0  0  0  0  0  0  0
    4.4584    3.7337   -0.0403 N   0  0  0  0  0  0  0  0  0  0  0  0
    5.2102    4.3298   -1.1199 C   0  0  0  0  0  0  0  0  0  0  0  0
    4.4770    4.1978    0.8630 H   0  0  0  0  0  0  0  0  0  0  0  0
    6.2320    3.9227   -1.1244 H   0  0  0  0  0  0  0  0  0  0  0  0
    4.7202    4.1010   -2.0778 H   0  0  0  0  0  0  0  0  0  0  0  0
    5.2506    5.4201   -0.9800 H   0  0  0  0  0  0  0  0  0  0  0  0
 29 30  2  0  0  0  0
 27 29  1  0  0  0  0
 28 30  1  0  0  0  0
 24 27  2  0  0  0  0
 26 28  2  0  0  0  0
 22 23  2  0  0  0  0
 23 25  1  0  0  0  0
 22 24  1  0  0  0  0
 24 26  1  0  0  0  0
 21 22  1  0  0  0  0
 25 26  1  0  0  0  0
  1  3  1  0  0  0  0
  1  7  1  0  0  0  0
  1  2  2  0  0  0  0
 42 43  1  0  0  0  0
 43 51  1  0  0  0  0
 43 44  2  0  0  0  0
  8  9  1  0  0  0  0
  9 17  1  0  0  0  0
  9 10  2  0  0  0  0
 18 19  1  0  0  0  0
 19 41  1  0  0  0  0
 19 20  2  0  0  0  0
 42 45  1  0  0  0  0
  8 11  1  0  0  0  0
 51 52  1  0  0  0  0
 18 21  1  0  0  0  0
 41 42  1  0  0  0  0
  7  8  1  0  0  0  0
 17 18  1  0  0  0  0
 29 39  1  0  0  0  0
 30 40  1  0  0  0  0
 27 37  1  0  0  0  0
 28 38  1  0  0  0  0
 23 35  1  0  0  0  0
  3  4  1  0  0  0  0
  3  5  1  0  0  0  0
  3  6  1  0  0  0  0
 45 48  1  0  0  0  0
 45 49  1  0  0  0  0
 45 50  1  0  0  0  0
 11 14  1  0  0  0  0
 11 15  1  0  0  0  0
 11 16  1  0  0  0  0
 52 54  1  0  0  0  0
 52 55  1  0  0  0  0
 52 56  1  0  0  0  0
 21 33  1  0  0  0  0
 21 34  1  0  0  0  0
 42 47  1  0  0  0  0
  8 13  1  0  0  0  0
 18 32  1  0  0  0  0
 25 36  1  0  0  0  0
 51 53  1  0  0  0  0
  7 12  1  0  0  0  0
 41 46  1  0  0  0  0
 17 31  1  0  0  0  0
M  END
$$$$

  -OEChem-05262214473D

 56 57  0     1  0  0  0  0  0999 V2000
   -2.2900    0.3401    4.1553 C   0  0  0  0  0  0  0  0  0  0  0  0
   -1.3426   -0.2746    3.6796 O   0  0  0  0  0  0  0  0  0  0  0  0
   -2.7219    0.0577    5.5560 C   0  0  0  0  0  0  0  0  0  0  0  0
   -3.4815   -0.7386    5.6094 H   0  0  0  0  0  0  0  0  0  0  0  0
   -1.8906   -0.2899    6.1903 H   0  0  0  0  0  0  0  0  0  0  0  0
   -3.1599    0.9126    6.0956 H   0  0  0  0  0  0  0  0  0  0  0  0
   -3.0397    1.3125    3.5142 N   0  0  0  0  0  0  0  0  0  0  0  0
   -2.7928    1.7385    2.1618 C   0  0  2  0  0  0  0  0  0  0  0  0
   -1.4579    1.1532    1.7206 C   0  0  0  0  0  0  0  0  0  0  0  0
   -0.5858    0.8004    2.5118 O   0  0  0  0  0  0  0  0  0  0  0  0
   -2.7841    3.2553    2.0523 C   0  0  0  0  0  0  0  0  0  0  0  0
   -3.8047    1.7484    4.0260 H   0  0  0  0  0  0  0  0  0  0  0  0
   -3.5969    1.3201    1.5466 H   0  0  0  0  0  0  0  0  0  0  0  0
   -1.9850    3.6926    2.6620 H   0  0  0  0  0  0  0  0  0  0  0  0
   -2.6246    3.5776    1.0180 H   0  0  0  0  0  0  0  0  0  0  0  0
   -3.7342    3.6765    2.3981 H   0  0  0  0  0  0  0  0  0  0  0  0
   -1.3352    1.1101    0.3372 N   0  0  0  0  0  0  0  0  0  0  0  0
   -0.1579    0.6093   -0.3265 C   0  0  2  0  0  0  0  0  0  0  0  0
    0.9240    1.6748   -0.1907 C   0  0  0  0  0  0  0  0  0  0  0  0
    0.7838    2.8264   -0.5970 O   0  0  0  0  0  0  0  0  0  0  0  0
   -0.4155    0.2968   -1.8051 C   0  0  0  0  0  0  0  0  0  0  0  0
   -1.3644   -0.8604   -2.0003 C   0  0  0  0  0  0  0  0  0  0  0  0
   -2.7157   -0.7599   -2.2384 C   0  0  0  0  0  0  0  0  0  0  0  0
   -1.0309   -2.2435   -1.9743 C   0  0  0  0  0  0  0  0  0  0  0  0
   -3.2180   -2.0279   -2.3579 N   0  0  0  0  0  0  0  0  0  0  0  0
   -2.2116   -2.9541   -2.2012 C   0  0  0  0  0  0  0  0  0  0  0  0
    0.1657   -2.9613   -1.7789 C   0  0  0  0  0  0  0  0  0  0  0  0
   -2.2556   -4.3522   -2.2427 C   0  0  0  0  0  0  0  0  0  0  0  0
    0.1369   -4.3601   -1.8177 C   0  0  0  0  0  0  0  0  0  0  0  0
   -1.0562   -5.0428   -2.0462 C   0  0  0  0  0  0  0  0  0  0  0  0
   -2.1183    1.4068   -0.2401 H   0  0  0  0  0  0  0  0  0  0  0  0
    0.1517   -0.2884    0.2216 H   0  0  0  0  0  0  0  0  0  0  0  0
    0.5319    0.0887   -2.3205 H   0  0  0  0  0  0  0  0  0  0  0  0
   -0.8340    1.1744   -2.3153 H   0  0  0  0  0  0  0  0  0  0  0  0
   -3.3658    0.0991   -2.3321 H   0  0  0  0  0  0  0  0  0  0  0  0
   -4.1873   -2.2525   -2.5355 H   0  0  0  0  0  0  0  0  0  0  0  0
    1.1038   -2.4439   -1.5988 H   0  0  0  0  0  0  0  0  0  0  0  0
   -3.1836   -4.8844   -2.4216 H   0  0  0  0  0  0  0  0  0  0  0  0
    1.0565   -4.9192   -1.6673 H   0  0  0  0  0  0  0  0  0  0  0  0
   -1.0557   -6.1294   -2.0724 H   0  0  0  0  0  0  0  0  0  0  0  0
    2.0410    1.1983    0.4815 N   0  0  0  0  0  0  0  0  0  0  0  0
    3.2026    2.0101    0.7653 C   0  0  2  0  0  0  0  0  0  0  0  0
    3.6269    2.6925   -0.5285 C   0  0  0  0  0  0  0  0  0  0  0  0
    3.3292    2.2643   -1.6416 O   0  0  0  0  0  0  0  0  0  0  0  0
    4.3368    1.1729    1.3356 C   0  0  0  0  0  0  0  0  0  0  0  0
    2.0421    0.2304    0.7895 H   0  0  0  0  0  0  0  0  0  0  0  0
    2.8894    2.7672    1.4924 H   0  0  0  0  0  0  0  0  0  0  0  0
    4.6641    0.4088    0.6211 H   0  0  0  0  0  0  0  0  0  0  0  0
    5.2059    1.7938    1.5766 H   0  0  0  0  0  0  0  0  0  0  0  0
    4.0205    0.6593    2.2499 H   0  0  0  0  0  0  0  0  0  0  0  0
    4.4135    3.8117   -0.2945 N   0  0  0  0  0  0  0  0  0  0  0  0
    4.9512    4.6235   -1.3612 C   0  0  0  0  0  0  0  0  0  0  0  0
    4.5943    4.1045    0.6611 H   0  0  0  0  0  0  0  0  0  0  0  0
    5.9575    4.2651   -1.6239 H   0  0  0  0  0  0  0  0  0  0  0  0
    4.2956    4.5530   -2.2417 H   0  0  0  0  0  0  0  0  0  0  0  0
    5.0099    5.6710   -1.0307 H   0  0  0  0  0  0  0  0  0  0  0  0
 29 30  2  0  0  0  0
 27 29  1  0  0  0  0
 28 30  1  0  0  0  0
 24 27  2  0  0  0  0
 26 28  2  0  0  0  0
 22 23  2  0  0  0  0
 23 25  1  0  0  0  0
 22 24  1  0  0  0  0
 24 26  1  0  0  0  0
 21 22  1  0  0  0  0
 25 26  1  0  0  0  0
  1  3  1  0  0  0  0
  1  7  1  0  0  0  0
  1  2  2  0  0  0  0
 42 43  1  0  0  0  0
 43 51  1  0  0  0  0
 43 44  2  0  0  0  0
  8  9  1  0  0  0  0
  9 17  1  0  0  0  0
  9 10  2  0  0  0  0
 18 19  1  0  0  0  0
 19 41  1  0  0  0  0
 19 20  2  0  0  0  0
 42 45  1  0  0  0  0
  8 11  1  0  0  0  0
 51 52  1  0  0  0  0
 18 21  1  0  0  0  0
 41 42  1  0  0  0  0
  7  8  1  0  0  0  0
 17 18  1  0  0  0  0
 29 39  1  0  0  0  0
 30 40  1  0  0  0  0
 27 37  1  0  0  0  0
 28 38  1  0  0  0  0
 23 35  1  0  0  0  0
  3  4  1  0  0  0  0
  3  5  1  0  0  0  0
  3  6  1  0  0  0  0
 45 48  1  0  0  0  0
 45 49  1  0  0  0  0
 45 50  1  0  0  0  0
 11 14  1  0  0  0  0
 11 15  1  0  0  0  0
 11 16  1  0  0  0  0
 52 54  1  0  0  0  0
 52 55  1  0  0  0  0
 52 56  1  0  0  0  0
 21 33  1  0  0  0  0
 21 34  1  0  0  0  0
 42 47  1  0  0  0  0
  8 13  1  0  0  0  0
 18 32  1  0  0  0  0
 25 36  1  0  0  0  0
 51 53  1  0  0  0  0
  7 12  1  0  0  0  0
 41 46  1  0  0  0  0
 17 31  1  0  0  0  0
M  END
$$$$

  -OEChem-05262214473D

 56 57  0     1  0  0  0  0  0999 V2000
   -2.2900    0.3401    4.1553 C   0  0  0  0  0  0  0  0  0  0  0  0
   -1.3426   -0.2746    3.6796 O   0  0  0  0  0  0  0  0  0  0  0  0
   -2.7219    0.0577    5.5560 C   0  0  0  0  0  0  0  0  0  0  0  0
   -3.4815   -0.7386    5.6094 H   0  0  0  0  0  0  0  0  0  0  0  0
   -1.8906   -0.2899    6.1903 H   0  0  0  0  0  0  0  0  0  0  0  0
   -3.1599    0.9126    6.0956 H   0  0  0  0  0  0  0  0  0  0  0  0
   -3.0397    1.3125    3.5142 N   0  0  0  0  0  0  0  0  0  0  0  0
   -2.7928    1.7385    2.1618 C   0  0  2  0  0  0  0  0  0  0  0  0
   -1.4579    1.1532    1.7206 C   0  0  0  0  0  0  0  0  0  0  0  0
   -0.5858    0.8004    2.5118 O   0  0  0  0  0  0  0  0  0  0  0  0
   -2.7841    3.2553    2.0523 C   0  0  0  0  0  0  0  0  0  0  0  0
   -3.8047    1.7484    4.0260 H   0  0  0  0  0  0  0  0  0  0  0  0
   -3.5969    1.3201    1.5466 H   0  0  0  0  0  0  0  0  0  0  0  0
   -1.9850    3.6926    2.6620 H   0  0  0  0  0  0  0  0  0  0  0  0
   -2.6246    3.5776    1.0180 H   0  0  0  0  0  0  0  0  0  0  0  0
   -3.7342    3.6765    2.3981 H   0  0  0  0  0  0  0  0  0  0  0  0
   -1.3352    1.1101    0.3372 N   0  0  0  0  0  0  0  0  0  0  0  0
   -0.1579    0.6093   -0.3265 C   0  0  2  0  0  0  0  0  0  0  0  0
    0.9240    1.6748   -0.1907 C   0  0  0  0  0  0  0  0  0  0  0  0
    0.7047    2.8744   -0.3442 O   0  0  0  0  0  0  0  0  0  0  0  0
   -0.4155    0.2968   -1.8051 C   0  0  0  0  0  0  0  0  0  0  0  0
   -1.3644   -0.8604   -2.0003 C   0  0  0  0  0  0  0  0  0  0  0  0
   -2.7157   -0.7599   -2.2384 C   0  0  0  0  0  0  0  0  0  0  0  0
   -1.0309   -2.2435   -1.9743 C   0  0  0  0  0  0  0  0  0  0  0  0
   -3.2180   -2.0279   -2.3579 N   0  0  0  0  0  0  0  0  0  0  0  0
   -2.2116   -2.9541   -2.2012 C   0  0  0  0  0  0  0  0  0  0  0  0
    0.1657   -2.9613   -1.7789 C   0  0  0  0  0  0  0  0  0  0  0  0
   -2.2556   -4.3522   -2.2427 C   0  0  0  0  0  0  0  0  0  0  0  0
    0.1369   -4.3601   -1.8177 C   0  0  0  0  0  0  0  0  0  0  0  0
   -1.0562   -5.0428   -2.0462 C   0  0  0  0  0  0  0  0  0  0  0  0
   -2.1183    1.4068   -0.2401 H   0  0  0  0  0  0  0  0  0  0  0  0
    0.1517   -0.2884    0.2216 H   0  0  0  0  0  0  0  0  0  0  0  0
    0.5319    0.0887   -2.3205 H   0  0  0  0  0  0  0  0  0  0  0  0
   -0.8340    1.1744   -2.3153 H   0  0  0  0  0  0  0  0  0  0  0  0
   -3.3658    0.0991   -2.3321 H   0  0  0  0  0  0  0  0  0  0  0  0
   -4.1873   -2.2525   -2.5355 H   0  0  0  0  0  0  0  0  0  0  0  0
    1.1038   -2.4439   -1.5988 H   0  0  0  0  0  0  0  0  0  0  0  0
   -3.1836   -4.8844   -2.4216 H   0  0  0  0  0  0  0  0  0  0  0  0
    1.0565   -4.9192   -1.6673 H   0  0  0  0  0  0  0  0  0  0  0  0
   -1.0557   -6.1294   -2.0724 H   0  0  0  0  0  0  0  0  0  0  0  0
    2.1481    1.1292    0.1706 N   0  0  0  0  0  0  0  0  0  0  0  0
    3.3369    1.9218    0.3880 C   0  0  2  0  0  0  0  0  0  0  0  0
    3.5131    2.8441   -0.8111 C   0  0  0  0  0  0  0  0  0  0  0  0
    3.0193    2.6135   -1.9129 O   0  0  0  0  0  0  0  0  0  0  0  0
    4.5615    1.0409    0.5807 C   0  0  0  0  0  0  0  0  0  0  0  0
    2.2115    0.1223    0.2882 H   0  0  0  0  0  0  0  0  0  0  0  0
    3.1575    2.5211    1.2872 H   0  0  0  0  0  0  0  0  0  0  0  0
    4.7572    0.4329   -0.3101 H   0  0  0  0  0  0  0  0  0  0  0  0
    5.4563    1.6420    0.7737 H   0  0  0  0  0  0  0  0  0  0  0  0
    4.4211    0.3576    1.4252 H   0  0  0  0  0  0  0  0  0  0  0  0
    4.3223    3.9328   -0.5177 N   0  0  0  0  0  0  0  0  0  0  0  0
    4.6507    4.9455   -1.4936 C   0  0  0  0  0  0  0  0  0  0  0  0
    4.6731    4.0542    0.4278 H   0  0  0  0  0  0  0  0  0  0  0  0
    5.5941    4.6813   -1.9938 H   0  0  0  0  0  0  0  0  0  0  0  0
    3.8455    5.0099   -2.2402 H   0  0  0  0  0  0  0  0  0  0  0  0
    4.7624    5.9172   -0.9901 H   0  0  0  0  0  0  0  0  0  0  0  0
 29 30  2  0  0  0  0
 27 29  1  0  0  0  0
 28 30  1  0  0  0  0
 24 27  2  0  0  0  0
 26 28  2  0  0  0  0
 22 23  2  0  0  0  0
 23 25  1  0  0  0  0
 22 24  1  0  0  0  0
 24 26  1  0  0  0  0
 21 22  1  0  0  0  0
 25 26  1  0  0  0  0
  1  3  1  0  0  0  0
  1  7  1  0  0  0  0
  1  2  2  0  0  0  0
 42 43  1  0  0  0  0
 43 51  1  0  0  0  0
 43 44  2  0  0  0  0
  8  9  1  0  0  0  0
  9 17  1  0  0  0  0
  9 10  2  0  0  0  0
 18 19  1  0  0  0  0
 19 41  1  0  0  0  0
 19 20  2  0  0  0  0
 42 45  1  0  0  0  0
  8 11  1  0  0  0  0
 51 52  1  0  0  0  0
 18 21  1  0  0  0  0
 41 42  1  0  0  0  0
  7  8  1  0  0  0  0
 17 18  1  0  0  0  0
 29 39  1  0  0  0  0
 30 40  1  0  0  0  0
 27 37  1  0  0  0  0
 28 38  1  0  0  0  0
 23 35  1  0  0  0  0
  3  4  1  0  0  0  0
  3  5  1  0  0  0  0
  3  6  1  0  0  0  0
 45 48  1  0  0  0  0
 45 49  1  0  0  0  0
 45 50  1  0  0  0  0
 11 14  1  0  0  0  0
 11 15  1  0  0  0  0
 11 16  1  0  0  0  0
 52 54  1  0  0  0  0
 52 55  1  0  0  0  0
 52 56  1  0  0  0  0
 21 33  1  0  0  0  0
 21 34  1  0  0  0  0
 42 47  1  0  0  0  0
  8 13  1  0  0  0  0
 18 32  1  0  0  0  0
 25 36  1  0  0  0  0
 51 53  1  0  0  0  0
  7 12  1  0  0  0  0
 41 46  1  0  0  0  0
 17 31  1  0  0  0  0
M  END
$$$$

  -OEChem-05262214473D

 56 57  0     1  0  0  0  0  0999 V2000
   -2.2900    0.3401    4.1553 C   0  0  0  0  0  0  0  0  0  0  0  0
   -1.3426   -0.2746    3.6796 O   0  0  0  0  0  0  0  0  0  0  0  0
   -2.7219    0.0577    5.5560 C   0  0  0  0  0  0  0  0  0  0  0  0
   -3.4815   -0.7386    5.6094 H   0  0  0  0  0  0  0  0  0  0  0  0
   -1.8906   -0.2899    6.1903 H   0  0  0  0  0  0  0  0  0  0  0  0
   -3.1599    0.9126    6.0956 H   0  0  0  0  0  0  0  0  0  0  0  0
   -3.0397    1.3125    3.5142 N   0  0  0  0  0  0  0  0  0  0  0  0
   -2.7928    1.7385    2.1618 C   0  0  2  0  0  0  0  0  0  0  0  0
   -1.4579    1.1532    1.7206 C   0  0  0  0  0  0  0  0  0  0  0  0
   -0.5858    0.8004    2.5118 O   0  0  0  0  0  0  0  0  0  0  0  0
   -2.7841    3.2553    2.0523 C   0  0  0  0  0  0  0  0  0  0  0  0
   -3.8047    1.7484    4.0260 H   0  0  0  0  0  0  0  0  0  0  0  0
   -3.5969    1.3201    1.5466 H   0  0  0  0  0  0  0  0  0  0  0  0
   -1.9850    3.6926    2.6620 H   0  0  0  0  0  0  0  0  0  0  0  0
   -2.6246    3.5776    1.0180 H   0  0  0  0  0  0  0  0  0  0  0  0
   -3.7342    3.6765    2.3981 H   0  0  0  0  0  0  0  0  0  0  0  0
   -1.3352    1.1101    0.3372 N   0  0  0  0  0  0  0  0  0  0  0  0
   -0.1579    0.6093   -0.3265 C   0  0  2  0  0  0  0  0  0  0  0  0
    0.9240    1.6748   -0.1907 C   0  0  0  0  0  0  0  0  0  0  0  0
    0.6729    2.8726   -0.0769 O   0  0  0  0  0  0  0  0  0  0  0  0
   -0.4155    0.2968   -1.8051 C   0  0  0  0  0  0  0  0  0  0  0  0
   -1.3644   -0.8604   -2.0003 C   0  0  0  0  0  0  0  0  0  0  0  0
   -2.7157   -0.7599   -2.2384 C   0  0  0  0  0  0  0  0  0  0  0  0
   -1.0309   -2.2435   -1.9743 C   0  0  0  0  0  0  0  0  0  0  0  0
   -3.2180   -2.0279   -2.3579 N   0  0  0  0  0  0  0  0  0  0  0  0
   -2.2116   -2.9541   -2.2012 C   0  0  0  0  0  0  0  0  0  0  0  0
    0.1657   -2.9613   -1.7789 C   0  0  0  0  0  0  0  0  0  0  0  0
   -2.2556   -4.3522   -2.2427 C   0  0  0  0  0  0  0  0  0  0  0  0
    0.1369   -4.3601   -1.8177 C   0  0  0  0  0  0  0  0  0  0  0  0
   -1.0562   -5.0428   -2.0462 C   0  0  0  0  0  0  0  0  0  0  0  0
   -2.1183    1.4068   -0.2401 H   0  0  0  0  0  0  0  0  0  0  0  0
    0.1517   -0.2884    0.2216 H   0  0  0  0  0  0  0  0  0  0  0  0
    0.5319    0.0887   -2.3205 H   0  0  0  0  0  0  0  0  0  0  0  0
   -0.8340    1.1744   -2.3153 H   0  0  0  0  0  0  0  0  0  0  0  0
   -3.3658    0.0991   -2.3321 H   0  0  0  0  0  0  0  0  0  0  0  0
   -4.1873   -2.2525   -2.5355 H   0  0  0  0  0  0  0  0  0  0  0  0
    1.1038   -2.4439   -1.5988 H   0  0  0  0  0  0  0  0  0  0  0  0
   -3.1836   -4.8844   -2.4216 H   0  0  0  0  0  0  0  0  0  0  0  0
    1.0565   -4.9192   -1.6673 H   0  0  0  0  0  0  0  0  0  0  0  0
   -1.0557   -6.1294   -2.0724 H   0  0  0  0  0  0  0  0  0  0  0  0
    2.1968    1.1221   -0.1617 N   0  0  0  0  0  0  0  0  0  0  0  0
    3.4005    1.9088   -0.0169 C   0  0  2  0  0  0  0  0  0  0  0  0
    3.3485    3.0398   -1.0356 C   0  0  0  0  0  0  0  0  0  0  0  0
    2.6628    2.9936   -2.0548 O   0  0  0  0  0  0  0  0  0  0  0  0
    4.6451    1.0573   -0.2133 C   0  0  0  0  0  0  0  0  0  0  0  0
    2.2869    0.1139   -0.2466 H   0  0  0  0  0  0  0  0  0  0  0  0
    3.3850    2.3273    0.9953 H   0  0  0  0  0  0  0  0  0  0  0  0
    4.6782    0.6294   -1.2219 H   0  0  0  0  0  0  0  0  0  0  0  0
    5.5563    1.6486   -0.0751 H   0  0  0  0  0  0  0  0  0  0  0  0
    4.6659    0.2269    0.5008 H   0  0  0  0  0  0  0  0  0  0  0  0
    4.1910    4.0886   -0.6945 N   0  0  0  0  0  0  0  0  0  0  0  0
    4.3290    5.2740   -1.5079 C   0  0  0  0  0  0  0  0  0  0  0  0
    4.7083    4.0502    0.1789 H   0  0  0  0  0  0  0  0  0  0  0  0
    5.1665    5.1428   -2.2089 H   0  0  0  0  0  0  0  0  0  0  0  0
    3.4004    5.4406   -2.0735 H   0  0  0  0  0  0  0  0  0  0  0  0
    4.5251    6.1417   -0.8610 H   0  0  0  0  0  0  0  0  0  0  0  0
 29 30  2  0  0  0  0
 27 29  1  0  0  0  0
 28 30  1  0  0  0  0
 24 27  2  0  0  0  0
 26 28  2  0  0  0  0
 22 23  2  0  0  0  0
 23 25  1  0  0  0  0
 22 24  1  0  0  0  0
 24 26  1  0  0  0  0
 21 22  1  0  0  0  0
 25 26  1  0  0  0  0
  1  3  1  0  0  0  0
  1  7  1  0  0  0  0
  1  2  2  0  0  0  0
 42 43  1  0  0  0  0
 43 51  1  0  0  0  0
 43 44  2  0  0  0  0
  8  9  1  0  0  0  0
  9 17  1  0  0  0  0
  9 10  2  0  0  0  0
 18 19  1  0  0  0  0
 19 41  1  0  0  0  0
 19 20  2  0  0  0  0
 42 45  1  0  0  0  0
  8 11  1  0  0  0  0
 51 52  1  0  0  0  0
 18 21  1  0  0  0  0
 41 42  1  0  0  0  0
  7  8  1  0  0  0  0
 17 18  1  0  0  0  0
 29 39  1  0  0  0  0
 30 40  1  0  0  0  0
 27 37  1  0  0  0  0
 28 38  1  0  0  0  0
 23 35  1  0  0  0  0
  3  4  1  0  0  0  0
  3  5  1  0  0  0  0
  3  6  1  0  0  0  0
 45 48  1  0  0  0  0
 45 49  1  0  0  0  0
 45 50  1  0  0  0  0
 11 14  1  0  0  0  0
 11 15  1  0  0  0  0
 11 16  1  0  0  0  0
 52 54  1  0  0  0  0
 52 55  1  0  0  0  0
 52 56  1  0  0  0  0
 21 33  1  0  0  0  0
 21 34  1  0  0  0  0
 42 47  1  0  0  0  0
  8 13  1  0  0  0  0
 18 32  1  0  0  0  0
 25 36  1  0  0  0  0
 51 53  1  0  0  0  0
  7 12  1  0  0  0  0
 41 46  1  0  0  0  0
 17 31  1  0  0  0  0
M  END
$$$$

  -OEChem-05262214473D

 56 57  0     1  0  0  0  0  0999 V2000
   -2.2900    0.3401    4.1553 C   0  0  0  0  0  0  0  0  0  0  0  0
   -1.3426   -0.2746    3.6796 O   0  0  0  0  0  0  0  0  0  0  0  0
   -2.7219    0.0577    5.5560 C   0  0  0  0  0  0  0  0  0  0  0  0
   -3.4815   -0.7386    5.6094 H   0  0  0  0  0  0  0  0  0  0  0  0
   -1.8906   -0.2899    6.1903 H   0  0  0  0  0  0  0  0  0  0  0  0
   -3.1599    0.9126    6.0956 H   0  0  0  0  0  0  0  0  0  0  0  0
   -3.0397    1.3125    3.5142 N   0  0  0  0  0  0  0  0  0  0  0  0
   -2.7928    1.7385    2.1618 C   0  0  2  0  0  0  0  0  0  0  0  0
   -1.4579    1.1532    1.7206 C   0  0  0  0  0  0  0  0  0  0  0  0
   -0.5858    0.8004    2.5118 O   0  0  0  0  0  0  0  0  0  0  0  0
   -2.7841    3.2553    2.0523 C   0  0  0  0  0  0  0  0  0  0  0  0
   -3.8047    1.7484    4.0260 H   0  0  0  0  0  0  0  0  0  0  0  0
   -3.5969    1.3201    1.5466 H   0  0  0  0  0  0  0  0  0  0  0  0
   -1.9850    3.6926    2.6620 H   0  0  0  0  0  0  0  0  0  0  0  0
   -2.6246    3.5776    1.0180 H   0  0  0  0  0  0  0  0  0  0  0  0
   -3.7342    3.6765    2.3981 H   0  0  0  0  0  0  0  0  0  0  0  0
   -1.3352    1.1101    0.3372 N   0  0  0  0  0  0  0  0  0  0  0  0
   -0.1579    0.6093   -0.3265 C   0  0  2  0  0  0  0  0  0  0  0  0
    0.9240    1.6748   -0.1907 C   0  0  0  0  0  0  0  0  0  0  0  0
    0.6906    2.8211    0.1867 O   0  0  0  0  0  0  0  0  0  0  0  0
   -0.4155    0.2968   -1.8051 C   0  0  0  0  0  0  0  0  0  0  0  0
   -1.3644   -0.8604   -2.0003 C   0  0  0  0  0  0  0  0  0  0  0  0
   -2.7157   -0.7599   -2.2384 C   0  0  0  0  0  0  0  0  0  0  0  0
   -1.0309   -2.2435   -1.9743 C   0  0  0  0  0  0  0  0  0  0  0  0
   -3.2180   -2.0279   -2.3579 N   0  0  0  0  0  0  0  0  0  0  0  0
   -2.2116   -2.9541   -2.2012 C   0  0  0  0  0  0  0  0  0  0  0  0
    0.1657   -2.9613   -1.7789 C   0  0  0  0  0  0  0  0  0  0  0  0
   -2.2556   -4.3522   -2.2427 C   0  0  0  0  0  0  0  0  0  0  0  0
    0.1369   -4.3601   -1.8177 C   0  0  0  0  0  0  0  0  0  0  0  0
   -1.0562   -5.0428   -2.0462 C   0  0  0  0  0  0  0  0  0  0  0  0
   -2.1183    1.4068   -0.2401 H   0  0  0  0  0  0  0  0  0  0  0  0
    0.1517   -0.2884    0.2216 H   0  0  0  0  0  0  0  0  0  0  0  0
    0.5319    0.0887   -2.3205 H   0  0  0  0  0  0  0  0  0  0  0  0
   -0.8340    1.1744   -2.3153 H   0  0  0  0  0  0  0  0  0  0  0  0
   -3.3658    0.0991   -2.3321 H   0  0  0  0  0  0  0  0  0  0  0  0
   -4.1873   -2.2525   -2.5355 H   0  0  0  0  0  0  0  0  0  0  0  0
    1.1038   -2.4439   -1.5988 H   0  0  0  0  0  0  0  0  0  0  0  0
   -3.1836   -4.8844   -2.4216 H   0  0  0  0  0  0  0  0  0  0  0  0
    1.0565   -4.9192   -1.6673 H   0  0  0  0  0  0  0  0  0  0  0  0
   -1.0557   -6.1294   -2.0724 H   0  0  0  0  0  0  0  0  0  0  0  0
    2.1840    1.1773   -0.4929 N   0  0  0  0  0  0  0  0  0  0  0  0
    3.3890    1.9721   -0.4220 C   0  0  2  0  0  0  0  0  0  0  0  0
    3.1445    3.2663   -1.1868 C   0  0  0  0  0  0  0  0  0  0  0  0
    2.2841    3.3785   -2.0575 O   0  0  0  0  0  0  0  0  0  0  0  0
    4.5819    1.2208   -0.9923 C   0  0  0  0  0  0  0  0  0  0  0  0
    2.2632    0.2057   -0.7783 H   0  0  0  0  0  0  0  0  0  0  0  0
    3.5564    2.1989    0.6366 H   0  0  0  0  0  0  0  0  0  0  0  0
    4.4324    0.9848   -2.0522 H   0  0  0  0  0  0  0  0  0  0  0  0
    5.4993    1.8131   -0.9118 H   0  0  0  0  0  0  0  0  0  0  0  0
    4.7381    0.2761   -0.4603 H   0  0  0  0  0  0  0  0  0  0  0  0
    4.0287    4.2685   -0.8129 N   0  0  0  0  0  0  0  0  0  0  0  0
    4.0082    5.5865   -1.4033 C   0  0  0  0  0  0  0  0  0  0  0  0
    4.6973    4.0929   -0.0686 H   0  0  0  0  0  0  0  0  0  0  0  0
    4.7040    5.6183   -2.2547 H   0  0  0  0  0  0  0  0  0  0  0  0
    2.9907    5.8157   -1.7527 H   0  0  0  0  0  0  0  0  0  0  0  0
    4.3140    6.3294   -0.6520 H   0  0  0  0  0  0  0  0  0  0  0  0
 29 30  2  0  0  0  0
 27 29  1  0  0  0  0
 28 30  1  0  0  0  0
 24 27  2  0  0  0  0
 26 28  2  0  0  0  0
 22 23  2  0  0  0  0
 23 25  1  0  0  0  0
 22 24  1  0  0  0  0
 24 26  1  0  0  0  0
 21 22  1  0  0  0  0
 25 26  1  0  0  0  0
  1  3  1  0  0  0  0
  1  7  1  0  0  0  0
  1  2  2  0  0  0  0
 42 43  1  0  0  0  0
 43 51  1  0  0  0  0
 43 44  2  0  0  0  0
  8  9  1  0  0  0  0
  9 17  1  0  0  0  0
  9 10  2  0  0  0  0
 18 19  1  0  0  0  0
 19 41  1  0  0  0  0
 19 20  2  0  0  0  0
 42 45  1  0  0  0  0
  8 11  1  0  0  0  0
 51 52  1  0  0  0  0
 18 21  1  0  0  0  0
 41 42  1  0  0  0  0
  7  8  1  0  0  0  0
 17 18  1  0  0  0  0
 29 39  1  0  0  0  0
 30 40  1  0  0  0  0
 27 37  1  0  0  0  0
 28 38  1  0  0  0  0
 23 35  1  0  0  0  0
  3  4  1  0  0  0  0
  3  5  1  0  0  0  0
  3  6  1  0  0  0  0
 45 48  1  0  0  0  0
 45 49  1  0  0  0  0
 45 50  1  0  0  0  0
 11 14  1  0  0  0  0
 11 15  1  0  0  0  0
 11 16  1  0  0  0  0
 52 54  1  0  0  0  0
 52 55  1  0  0  0  0
 52 56  1  0  0  0  0
 21 33  1  0  0  0  0
 21 34  1  0  0  0  0
 42 47  1  0  0  0  0
  8 13  1  0  0  0  0
 18 32  1  0  0  0  0
 25 36  1  0  0  0  0
 51 53  1  0  0  0  0
  7 12  1  0  0  0  0
 41 46  1  0  0  0  0
 17 31  1  0  0  0  0
M  END
$$$$

  -OEChem-05262214473D

 56 57  0     1  0  0  0  0  0999 V2000
   -2.2900    0.3401    4.1553 C   0  0  0  0  0  0  0  0  0  0  0  0
   -1.3426   -0.2746    3.6796 O   0  0  0  0  0  0  0  0  0  0  0  0
   -2.7219    0.0577    5.5560 C   0  0  0  0  0  0  0  0  0  0  0  0
   -3.4815   -0.7386    5.6094 H   0  0  0  0  0  0  0  0  0  0  0  0
   -1.8906   -0.2899    6.1903 H   0  0  0  0  0  0  0  0  0  0  0  0
   -3.1599    0.9126    6.0956 H   0  0  0  0  0  0  0  0  0  0  0  0
   -3.0397    1.3125    3.5142 N   0  0  0  0  0  0  0  0  0  0  0  0
   -2.7928    1.7385    2.1618 C   0  0  2  0  0  0  0  0  0  0  0  0
   -1.4579    1.1532    1.7206 C   0  0  0  0  0  0  0  0  0  0  0  0
   -0.5858    0.8004    2.5118 O   0  0  0  0  0  0  0  0  0  0  0  0
   -2.7841    3.2553    2.0523 C   0  0  0  0  0  0  0  0  0  0  0  0
   -3.8047    1.7484    4.0260 H   0  0  0  0  0  0  0  0  0  0  0  0
   -3.5969    1.3201    1.5466 H   0  0  0  0  0  0  0  0  0  0  0  0
   -1.9850    3.6926    2.6620 H   0  0  0  0  0  0  0  0  0  0  0  0
   -2.6246    3.5776    1.0180 H   0  0  0  0  0  0  0  0  0  0  0  0
   -3.7342    3.6765    2.3981 H   0  0  0  0  0  0  0  0  0  0  0  0
   -1.3352    1.1101    0.3372 N   0  0  0  0  0  0  0  0  0  0  0  0
   -0.1579    0.6093   -0.3265 C   0  0  2  0  0  0  0  0  0  0  0  0
    1.0145    1.4755    0.1202 C   0  0  0  0  0  0  0  0  0  0  0  0
    0.9001    2.3866    0.9373 O   0  0  0  0  0  0  0  0  0  0  0  0
   -0.2949    0.6439   -1.8530 C   0  0  0  0  0  0  0  0  0  0  0  0
   -1.3397   -0.3162   -2.3671 C   0  0  0  0  0  0  0  0  0  0  0  0
   -2.6402    0.0045   -2.6812 C   0  0  0  0  0  0  0  0  0  0  0  0
   -1.1641   -1.7062   -2.6161 C   0  0  0  0  0  0  0  0  0  0  0  0
   -3.2634   -1.1362   -3.1112 N   0  0  0  0  0  0  0  0  0  0  0  0
   -2.3859   -2.1966   -3.0820 C   0  0  0  0  0  0  0  0  0  0  0  0
   -0.0797   -2.5969   -2.4893 C   0  0  0  0  0  0  0  0  0  0  0  0
   -2.5782   -3.5386   -3.4290 C   0  0  0  0  0  0  0  0  0  0  0  0
   -0.2574   -3.9421   -2.8327 C   0  0  0  0  0  0  0  0  0  0  0  0
   -1.4883   -4.4035   -3.2951 C   0  0  0  0  0  0  0  0  0  0  0  0
   -2.1183    1.4068   -0.2401 H   0  0  0  0  0  0  0  0  0  0  0  0
   -0.0065   -0.4142    0.0361 H   0  0  0  0  0  0  0  0  0  0  0  0
    0.6720    0.4261   -2.3267 H   0  0  0  0  0  0  0  0  0  0  0  0
   -0.5601    1.6542   -2.1915 H   0  0  0  0  0  0  0  0  0  0  0  0
   -3.1792    0.9408   -2.6362 H   0  0  0  0  0  0  0  0  0  0  0  0
   -4.2280   -1.1925   -3.4076 H   0  0  0  0  0  0  0  0  0  0  0  0
    0.8858   -2.2530   -2.1295 H   0  0  0  0  0  0  0  0  0  0  0  0
   -3.5357   -3.8984   -3.7900 H   0  0  0  0  0  0  0  0  0  0  0  0
    0.5751   -4.6339   -2.7366 H   0  0  0  0  0  0  0  0  0  0  0  0
   -1.6041   -5.4523   -3.5562 H   0  0  0  0  0  0  0  0  0  0  0  0
    2.2081    1.0761   -0.4648 N   0  0  0  0  0  0  0  0  0  0  0  0
    3.4766    1.7140   -0.1950 C   0  0  2  0  0  0  0  0  0  0  0  0
    3.2927    3.2164   -0.3638 C   0  0  0  0  0  0  0  0  0  0  0  0
    2.3923    3.7103   -1.0394 O   0  0  0  0  0  0  0  0  0  0  0  0
    4.5659    1.1925   -1.1191 C   0  0  0  0  0  0  0  0  0  0  0  0
    2.1892    0.2961   -1.1153 H   0  0  0  0  0  0  0  0  0  0  0  0
    3.7272    1.4911    0.8479 H   0  0  0  0  0  0  0  0  0  0  0  0
    4.3322    1.4067   -2.1684 H   0  0  0  0  0  0  0  0  0  0  0  0
    5.5322    1.6559   -0.8945 H   0  0  0  0  0  0  0  0  0  0  0  0
    4.6763    0.1074   -1.0180 H   0  0  0  0  0  0  0  0  0  0  0  0
    4.2780    3.9399    0.2935 N   0  0  0  0  0  0  0  0  0  0  0  0
    4.3297    5.3831    0.2737 C   0  0  0  0  0  0  0  0  0  0  0  0
    4.9745    3.4482    0.8456 H   0  0  0  0  0  0  0  0  0  0  0  0
    4.9718    5.7162   -0.5550 H   0  0  0  0  0  0  0  0  0  0  0  0
    3.3149    5.7844    0.1351 H   0  0  0  0  0  0  0  0  0  0  0  0
    4.7415    5.7483    1.2261 H   0  0  0  0  0  0  0  0  0  0  0  0
 29 30  2  0  0  0  0
 27 29  1  0  0  0  0
 28 30  1  0  0  0  0
 24 27  2  0  0  0  0
 26 28  2  0  0  0  0
 22 23  2  0  0  0  0
 23 25  1  0  0  0  0
 22 24  1  0  0  0  0
 24 26  1  0  0  0  0
 21 22  1  0  0  0  0
 25 26  1  0  0  0  0
  1  3  1  0  0  0  0
  1  7  1  0  0  0  0
  1  2  2  0  0  0  0
 42 43  1  0  0  0  0
 43 51  1  0  0  0  0
 43 44  2  0  0  0  0
  8  9  1  0  0  0  0
  9 17  1  0  0  0  0
  9 10  2  0  0  0  0
 18 19  1  0  0  0  0
 19 41  1  0  0  0  0
 19 20  2  0  0  0  0
 42 45  1  0  0  0  0
  8 11  1  0  0  0  0
 51 52  1  0  0  0  0
 18 21  1  0  0  0  0
 41 42  1  0  0  0  0
  7  8  1  0  0  0  0
 17 18  1  0  0  0  0
 29 39  1  0  0  0  0
 30 40  1  0  0  0  0
 27 37  1  0  0  0  0
 28 38  1  0  0  0  0
 23 35  1  0  0  0  0
  3  4  1  0  0  0  0
  3  5  1  0  0  0  0
  3  6  1  0  0  0  0
 45 48  1  0  0  0  0
 45 49  1  0  0  0  0
 45 50  1  0  0  0  0
 11 14  1  0  0  0  0
 11 15  1  0  0  0  0
 11 16  1  0  0  0  0
 52 54  1  0  0  0  0
 52 55  1  0  0  0  0
 52 56  1  0  0  0  0
 21 33  1  0  0  0  0
 21 34  1  0  0  0  0
 42 47  1  0  0  0  0
  8 13  1  0  0  0  0
 18 32  1  0  0  0  0
 25 36  1  0  0  0  0
 51 53  1  0  0  0  0
  7 12  1  0  0  0  0
 41 46  1  0  0  0  0
 17 31  1  0  0  0  0
M  END
$$$$

  -OEChem-05262214473D

 56 57  0     1  0  0  0  0  0999 V2000
   -2.2900    0.3401    4.1553 C   0  0  0  0  0  0  0  0  0  0  0  0
   -1.3426   -0.2746    3.6796 O   0  0  0  0  0  0  0  0  0  0  0  0
   -2.7219    0.0577    5.5560 C   0  0  0  0  0  0  0  0  0  0  0  0
   -3.4815   -0.7386    5.6094 H   0  0  0  0  0  0  0  0  0  0  0  0
   -1.8906   -0.2899    6.1903 H   0  0  0  0  0  0  0  0  0  0  0  0
   -3.1599    0.9126    6.0956 H   0  0  0  0  0  0  0  0  0  0  0  0
   -3.0397    1.3125    3.5142 N   0  0  0  0  0  0  0  0  0  0  0  0
   -2.7928    1.7385    2.1618 C   0  0  2  0  0  0  0  0  0  0  0  0
   -1.4579    1.1532    1.7206 C   0  0  0  0  0  0  0  0  0  0  0  0
   -0.5858    0.8004    2.5118 O   0  0  0  0  0  0  0  0  0  0  0  0
   -2.7841    3.2553    2.0523 C   0  0  0  0  0  0  0  0  0  0  0  0
   -3.8047    1.7484    4.0260 H   0  0  0  0  0  0  0  0  0  0  0  0
   -3.5969    1.3201    1.5466 H   0  0  0  0  0  0  0  0  0  0  0  0
   -1.9850    3.6926    2.6620 H   0  0  0  0  0  0  0  0  0  0  0  0
   -2.6246    3.5776    1.0180 H   0  0  0  0  0  0  0  0  0  0  0  0
   -3.7342    3.6765    2.3981 H   0  0  0  0  0  0  0  0  0  0  0  0
   -1.3352    1.1101    0.3372 N   0  0  0  0  0  0  0  0  0  0  0  0
   -0.1579    0.6093   -0.3265 C   0  0  2  0  0  0  0  0  0  0  0  0
    1.0145    1.4755    0.1202 C   0  0  0  0  0  0  0  0  0  0  0  0
    0.9726    2.1972    1.1143 O   0  0  0  0  0  0  0  0  0  0  0  0
   -0.2949    0.6439   -1.8530 C   0  0  0  0  0  0  0  0  0  0  0  0
   -1.3397   -0.3162   -2.3671 C   0  0  0  0  0  0  0  0  0  0  0  0
   -2.6402    0.0045   -2.6812 C   0  0  0  0  0  0  0  0  0  0  0  0
   -1.1641   -1.7062   -2.6161 C   0  0  0  0  0  0  0  0  0  0  0  0
   -3.2634   -1.1362   -3.1112 N   0  0  0  0  0  0  0  0  0  0  0  0
   -2.3859   -2.1966   -3.0820 C   0  0  0  0  0  0  0  0  0  0  0  0
   -0.0797   -2.5969   -2.4893 C   0  0  0  0  0  0  0  0  0  0  0  0
   -2.5782   -3.5386   -3.4290 C   0  0  0  0  0  0  0  0  0  0  0  0
   -0.2574   -3.9421   -2.8327 C   0  0  0  0  0  0  0  0  0  0  0  0
   -1.4883   -4.4035   -3.2951 C   0  0  0  0  0  0  0  0  0  0  0  0
   -2.1183    1.4068   -0.2401 H   0  0  0  0  0  0  0  0  0  0  0  0
   -0.0065   -0.4142    0.0361 H   0  0  0  0  0  0  0  0  0  0  0  0
    0.6720    0.4261   -2.3267 H   0  0  0  0  0  0  0  0  0  0  0  0
   -0.5601    1.6542   -2.1915 H   0  0  0  0  0  0  0  0  0  0  0  0
   -3.1792    0.9408   -2.6362 H   0  0  0  0  0  0  0  0  0  0  0  0
   -4.2280   -1.1925   -3.4076 H   0  0  0  0  0  0  0  0  0  0  0  0
    0.8858   -2.2530   -2.1295 H   0  0  0  0  0  0  0  0  0  0  0  0
   -3.5357   -3.8984   -3.7900 H   0  0  0  0  0  0  0  0  0  0  0  0
    0.5751   -4.6339   -2.7366 H   0  0  0  0  0  0  0  0  0  0  0  0
   -1.6041   -5.4523   -3.5562 H   0  0  0  0  0  0  0  0  0  0  0  0
    2.1253    1.3067   -0.6947 N   0  0  0  0  0  0  0  0  0  0  0  0
    3.3790    1.9928   -0.4795 C   0  0  2  0  0  0  0  0  0  0  0  0
    3.0800    3.4765   -0.3099 C   0  0  0  0  0  0  0  0  0  0  0  0
    2.0575    4.0079   -0.7378 O   0  0  0  0  0  0  0  0  0  0  0  0
    4.3419    1.7608   -1.6334 C   0  0  0  0  0  0  0  0  0  0  0  0
    2.0535    0.6688   -1.4819 H   0  0  0  0  0  0  0  0  0  0  0  0
    3.8011    1.5961    0.4503 H   0  0  0  0  0  0  0  0  0  0  0  0
    3.9361    2.1517   -2.5736 H   0  0  0  0  0  0  0  0  0  0  0  0
    5.3013    2.2578   -1.4556 H   0  0  0  0  0  0  0  0  0  0  0  0
    4.5325    0.6913   -1.7730 H   0  0  0  0  0  0  0  0  0  0  0  0
    4.1092    4.1456    0.3377 N   0  0  0  0  0  0  0  0  0  0  0  0
    4.0691    5.5640    0.6067 C   0  0  0  0  0  0  0  0  0  0  0  0
    4.9114    3.6217    0.6749 H   0  0  0  0  0  0  0  0  0  0  0  0
    4.5538    6.1079   -0.2175 H   0  0  0  0  0  0  0  0  0  0  0  0
    3.0226    5.8907    0.6961 H   0  0  0  0  0  0  0  0  0  0  0  0
    4.6003    5.7739    1.5468 H   0  0  0  0  0  0  0  0  0  0  0  0
 29 30  2  0  0  0  0
 27 29  1  0  0  0  0
 28 30  1  0  0  0  0
 24 27  2  0  0  0  0
 26 28  2  0  0  0  0
 22 23  2  0  0  0  0
 23 25  1  0  0  0  0
 22 24  1  0  0  0  0
 24 26  1  0  0  0  0
 21 22  1  0  0  0  0
 25 26  1  0  0  0  0
  1  3  1  0  0  0  0
  1  7  1  0  0  0  0
  1  2  2  0  0  0  0
 42 43  1  0  0  0  0
 43 51  1  0  0  0  0
 43 44  2  0  0  0  0
  8  9  1  0  0  0  0
  9 17  1  0  0  0  0
  9 10  2  0  0  0  0
 18 19  1  0  0  0  0
 19 41  1  0  0  0  0
 19 20  2  0  0  0  0
 42 45  1  0  0  0  0
  8 11  1  0  0  0  0
 51 52  1  0  0  0  0
 18 21  1  0  0  0  0
 41 42  1  0  0  0  0
  7  8  1  0  0  0  0
 17 18  1  0  0  0  0
 29 39  1  0  0  0  0
 30 40  1  0  0  0  0
 27 37  1  0  0  0  0
 28 38  1  0  0  0  0
 23 35  1  0  0  0  0
  3  4  1  0  0  0  0
  3  5  1  0  0  0  0
  3  6  1  0  0  0  0
 45 48  1  0  0  0  0
 45 49  1  0  0  0  0
 45 50  1  0  0  0  0
 11 14  1  0  0  0  0
 11 15  1  0  0  0  0
 11 16  1  0  0  0  0
 52 54  1  0  0  0  0
 52 55  1  0  0  0  0
 52 56  1  0  0  0  0
 21 33  1  0  0  0  0
 21 34  1  0  0  0  0
 42 47  1  0  0  0  0
  8 13  1  0  0  0  0
 18 32  1  0  0  0  0
 25 36  1  0  0  0  0
 51 53  1  0  0  0  0
  7 12  1  0  0  0  0
 41 46  1  0  0  0  0
 17 31  1  0  0  0  0
M  END
$$$$

  -OEChem-05262214473D

 56 57  0     1  0  0  0  0  0999 V2000
   -2.2900    0.3401    4.1553 C   0  0  0  0  0  0  0  0  0  0  0  0
   -1.3426   -0.2746    3.6796 O   0  0  0  0  0  0  0  0  0  0  0  0
   -2.7219    0.0577    5.5560 C   0  0  0  0  0  0  0  0  0  0  0  0
   -3.4815   -0.7386    5.6094 H   0  0  0  0  0  0  0  0  0  0  0  0
   -1.8906   -0.2899    6.1903 H   0  0  0  0  0  0  0  0  0  0  0  0
   -3.1599    0.9126    6.0956 H   0  0  0  0  0  0  0  0  0  0  0  0
   -3.0397    1.3125    3.5142 N   0  0  0  0  0  0  0  0  0  0  0  0
   -2.7928    1.7385    2.1618 C   0  0  2  0  0  0  0  0  0  0  0  0
   -1.4579    1.1532    1.7206 C   0  0  0  0  0  0  0  0  0  0  0  0
   -0.5858    0.8004    2.5118 O   0  0  0  0  0  0  0  0  0  0  0  0
   -2.7841    3.2553    2.0523 C   0  0  0  0  0  0  0  0  0  0  0  0
   -3.8047    1.7484    4.0260 H   0  0  0  0  0  0  0  0  0  0  0  0
   -3.5969    1.3201    1.5466 H   0  0  0  0  0  0  0  0  0  0  0  0
   -1.9850    3.6926    2.6620 H   0  0  0  0  0  0  0  0  0  0  0  0
   -2.6246    3.5776    1.0180 H   0  0  0  0  0  0  0  0  0  0  0  0
   -3.7342    3.6765    2.3981 H   0  0  0  0  0  0  0  0  0  0  0  0
   -1.3352    1.1101    0.3372 N   0  0  0  0  0  0  0  0  0  0  0  0
   -0.1579    0.6093   -0.3265 C   0  0  2  0  0  0  0  0  0  0  0  0
    1.0145    1.4755    0.1202 C   0  0  0  0  0  0  0  0  0  0  0  0
    1.0830    1.9845    1.2369 O   0  0  0  0  0  0  0  0  0  0  0  0
   -0.2949    0.6439   -1.8530 C   0  0  0  0  0  0  0  0  0  0  0  0
   -1.3397   -0.3162   -2.3671 C   0  0  0  0  0  0  0  0  0  0  0  0
   -2.6402    0.0045   -2.6812 C   0  0  0  0  0  0  0  0  0  0  0  0
   -1.1641   -1.7062   -2.6161 C   0  0  0  0  0  0  0  0  0  0  0  0
   -3.2634   -1.1362   -3.1112 N   0  0  0  0  0  0  0  0  0  0  0  0
   -2.3859   -2.1966   -3.0820 C   0  0  0  0  0  0  0  0  0  0  0  0
   -0.0797   -2.5969   -2.4893 C   0  0  0  0  0  0  0  0  0  0  0  0
   -2.5782   -3.5386   -3.4290 C   0  0  0  0  0  0  0  0  0  0  0  0
   -0.2574   -3.9421   -2.8327 C   0  0  0  0  0  0  0  0  0  0  0  0
   -1.4883   -4.4035   -3.2951 C   0  0  0  0  0  0  0  0  0  0  0  0
   -2.1183    1.4068   -0.2401 H   0  0  0  0  0  0  0  0  0  0  0  0
   -0.0065   -0.4142    0.0361 H   0  0  0  0  0  0  0  0  0  0  0  0
    0.6720    0.4261   -2.3267 H   0  0  0  0  0  0  0  0  0  0  0  0
   -0.5601    1.6542   -2.1915 H   0  0  0  0  0  0  0  0  0  0  0  0
   -3.1792    0.9408   -2.6362 H   0  0  0  0  0  0  0  0  0  0  0  0
   -4.2280   -1.1925   -3.4076 H   0  0  0  0  0  0  0  0  0  0  0  0
    0.8858   -2.2530   -2.1295 H   0  0  0  0  0  0  0  0  0  0  0  0
   -3.5357   -3.8984   -3.7900 H   0  0  0  0  0  0  0  0  0  0  0  0
    0.5751   -4.6339   -2.7366 H   0  0  0  0  0  0  0  0  0  0  0  0
   -1.6041   -5.4523   -3.5562 H   0  0  0  0  0  0  0  0  0  0  0  0
    1.9940    1.5689   -0.8587 N   0  0  0  0  0  0  0  0  0  0  0  0
    3.2217    2.3113   -0.6845 C   0  0  2  0  0  0  0  0  0  0  0  0
    2.8627    3.7009   -0.1747 C   0  0  0  0  0  0  0  0  0  0  0  0
    1.7559    4.2100   -0.3381 O   0  0  0  0  0  0  0  0  0  0  0  0
    4.0069    2.3952   -1.9842 C   0  0  0  0  0  0  0  0  0  0  0  0
    1.8403    1.0915   -1.7420 H   0  0  0  0  0  0  0  0  0  0  0  0
    3.8060    1.7823    0.0763 H   0  0  0  0  0  0  0  0  0  0  0  0
    3.4374    2.9221   -2.7585 H   0  0  0  0  0  0  0  0  0  0  0  0
    4.9501    2.9333   -1.8439 H   0  0  0  0  0  0  0  0  0  0  0  0
    4.2384    1.3946   -2.3649 H   0  0  0  0  0  0  0  0  0  0  0  0
    3.9370    4.3226    0.4462 N   0  0  0  0  0  0  0  0  0  0  0  0
    3.8527    5.6527    1.0028 C   0  0  0  0  0  0  0  0  0  0  0  0
    4.8122    3.8184    0.5538 H   0  0  0  0  0  0  0  0  0  0  0  0
    4.1699    6.3874    0.2480 H   0  0  0  0  0  0  0  0  0  0  0  0
    2.8146    5.8597    1.3021 H   0  0  0  0  0  0  0  0  0  0  0  0
    4.5092    5.7242    1.8825 H   0  0  0  0  0  0  0  0  0  0  0  0
 29 30  2  0  0  0  0
 27 29  1  0  0  0  0
 28 30  1  0  0  0  0
 24 27  2  0  0  0  0
 26 28  2  0  0  0  0
 22 23  2  0  0  0  0
 23 25  1  0  0  0  0
 22 24  1  0  0  0  0
 24 26  1  0  0  0  0
 21 22  1  0  0  0  0
 25 26  1  0  0  0  0
  1  3  1  0  0  0  0
  1  7  1  0  0  0  0
  1  2  2  0  0  0  0
 42 43  1  0  0  0  0
 43 51  1  0  0  0  0
 43 44  2  0  0  0  0
  8  9  1  0  0  0  0
  9 17  1  0  0  0  0
  9 10  2  0  0  0  0
 18 19  1  0  0  0  0
 19 41  1  0  0  0  0
 19 20  2  0  0  0  0
 42 45  1  0  0  0  0
  8 11  1  0  0  0  0
 51 52  1  0  0  0  0
 18 21  1  0  0  0  0
 41 42  1  0  0  0  0
  7  8  1  0  0  0  0
 17 18  1  0  0  0  0
 29 39  1  0  0  0  0
 30 40  1  0  0  0  0
 27 37  1  0  0  0  0
 28 38  1  0  0  0  0
 23 35  1  0  0  0  0
  3  4  1  0  0  0  0
  3  5  1  0  0  0  0
  3  6  1  0  0  0  0
 45 48  1  0  0  0  0
 45 49  1  0  0  0  0
 45 50  1  0  0  0  0
 11 14  1  0  0  0  0
 11 15  1  0  0  0  0
 11 16  1  0  0  0  0
 52 54  1  0  0  0  0
 52 55  1  0  0  0  0
 52 56  1  0  0  0  0
 21 33  1  0  0  0  0
 21 34  1  0  0  0  0
 42 47  1  0  0  0  0
  8 13  1  0  0  0  0
 18 32  1  0  0  0  0
 25 36  1  0  0  0  0
 51 53  1  0  0  0  0
  7 12  1  0  0  0  0
 41 46  1  0  0  0  0
 17 31  1  0  0  0  0
M  END
$$$$

  -OEChem-05262214473D

 56 57  0     1  0  0  0  0  0999 V2000
   -2.2900    0.3401    4.1553 C   0  0  0  0  0  0  0  0  0  0  0  0
   -1.3426   -0.2746    3.6796 O   0  0  0  0  0  0  0  0  0  0  0  0
   -2.7219    0.0577    5.5560 C   0  0  0  0  0  0  0  0  0  0  0  0
   -3.4815   -0.7386    5.6094 H   0  0  0  0  0  0  0  0  0  0  0  0
   -1.8906   -0.2899    6.1903 H   0  0  0  0  0  0  0  0  0  0  0  0
   -3.1599    0.9126    6.0956 H   0  0  0  0  0  0  0  0  0  0  0  0
   -3.0397    1.3125    3.5142 N   0  0  0  0  0  0  0  0  0  0  0  0
   -2.7928    1.7385    2.1618 C   0  0  2  0  0  0  0  0  0  0  0  0
   -1.4579    1.1532    1.7206 C   0  0  0  0  0  0  0  0  0  0  0  0
   -0.5858    0.8004    2.5118 O   0  0  0  0  0  0  0  0  0  0  0  0
   -2.7841    3.2553    2.0523 C   0  0  0  0  0  0  0  0  0  0  0  0
   -3.8047    1.7484    4.0260 H   0  0  0  0  0  0  0  0  0  0  0  0
   -3.5969    1.3201    1.5466 H   0  0  0  0  0  0  0  0  0  0  0  0
   -1.9850    3.6926    2.6620 H   0  0  0  0  0  0  0  0  0  0  0  0
   -2.6246    3.5776    1.0180 H   0  0  0  0  0  0  0  0  0  0  0  0
   -3.7342    3.6765    2.3981 H   0  0  0  0  0  0  0  0  0  0  0  0
   -1.3352    1.1101    0.3372 N   0  0  0  0  0  0  0  0  0  0  0  0
   -0.1579    0.6093   -0.3265 C   0  0  2  0  0  0  0  0  0  0  0  0
    1.0145    1.4755    0.1202 C   0  0  0  0  0  0  0  0  0  0  0  0
    1.2238    1.7631    1.2968 O   0  0  0  0  0  0  0  0  0  0  0  0
   -0.2949    0.6439   -1.8530 C   0  0  0  0  0  0  0  0  0  0  0  0
   -1.3397   -0.3162   -2.3671 C   0  0  0  0  0  0  0  0  0  0  0  0
   -2.6402    0.0045   -2.6812 C   0  0  0  0  0  0  0  0  0  0  0  0
   -1.1641   -1.7062   -2.6161 C   0  0  0  0  0  0  0  0  0  0  0  0
   -3.2634   -1.1362   -3.1112 N   0  0  0  0  0  0  0  0  0  0  0  0
   -2.3859   -2.1966   -3.0820 C   0  0  0  0  0  0  0  0  0  0  0  0
   -0.0797   -2.5969   -2.4893 C   0  0  0  0  0  0  0  0  0  0  0  0
   -2.5782   -3.5386   -3.4290 C   0  0  0  0  0  0  0  0  0  0  0  0
   -0.2574   -3.9421   -2.8327 C   0  0  0  0  0  0  0  0  0  0  0  0
   -1.4883   -4.4035   -3.2951 C   0  0  0  0  0  0  0  0  0  0  0  0
   -2.1183    1.4068   -0.2401 H   0  0  0  0  0  0  0  0  0  0  0  0
   -0.0065   -0.4142    0.0361 H   0  0  0  0  0  0  0  0  0  0  0  0
    0.6720    0.4261   -2.3267 H   0  0  0  0  0  0  0  0  0  0  0  0
   -0.5601    1.6542   -2.1915 H   0  0  0  0  0  0  0  0  0  0  0  0
   -3.1792    0.9408   -2.6362 H   0  0  0  0  0  0  0  0  0  0  0  0
   -4.2280   -1.1925   -3.4076 H   0  0  0  0  0  0  0  0  0  0  0  0
    0.8858   -2.2530   -2.1295 H   0  0  0  0  0  0  0  0  0  0  0  0
   -3.5357   -3.8984   -3.7900 H   0  0  0  0  0  0  0  0  0  0  0  0
    0.5751   -4.6339   -2.7366 H   0  0  0  0  0  0  0  0  0  0  0  0
   -1.6041   -5.4523   -3.5562 H   0  0  0  0  0  0  0  0  0  0  0  0
    1.8232    1.8449   -0.9456 N   0  0  0  0  0  0  0  0  0  0  0  0
    3.0156    2.6479   -0.7959 C   0  0  2  0  0  0  0  0  0  0  0  0
    2.6558    3.8742    0.0324 C   0  0  0  0  0  0  0  0  0  0  0  0
    1.5080    4.3028    0.1326 O   0  0  0  0  0  0  0  0  0  0  0  0
    3.5835    3.0523   -2.1474 C   0  0  0  0  0  0  0  0  0  0  0  0
    1.5641    1.5353   -1.8777 H   0  0  0  0  0  0  0  0  0  0  0  0
    3.7417    2.0369   -0.2486 H   0  0  0  0  0  0  0  0  0  0  0  0
    2.8701    3.6651   -2.7104 H   0  0  0  0  0  0  0  0  0  0  0  0
    4.5026    3.6365   -2.0328 H   0  0  0  0  0  0  0  0  0  0  0  0
    3.8140    2.1694   -2.7534 H   0  0  0  0  0  0  0  0  0  0  0  0
    3.7732    4.4590    0.6115 N   0  0  0  0  0  0  0  0  0  0  0  0
    3.6952    5.6431    1.4348 C   0  0  0  0  0  0  0  0  0  0  0  0
    4.6836    4.0250    0.4906 H   0  0  0  0  0  0  0  0  0  0  0  0
    3.8464    6.5356    0.8097 H   0  0  0  0  0  0  0  0  0  0  0  0
    2.7053    5.6933    1.9118 H   0  0  0  0  0  0  0  0  0  0  0  0
    4.4743    5.6025    2.2102 H   0  0  0  0  0  0  0  0  0  0  0  0
 29 30  2  0  0  0  0
 27 29  1  0  0  0  0
 28 30  1  0  0  0  0
 24 27  2  0  0  0  0
 26 28  2  0  0  0  0
 22 23  2  0  0  0  0
 23 25  1  0  0  0  0
 22 24  1  0  0  0  0
 24 26  1  0  0  0  0
 21 22  1  0  0  0  0
 25 26  1  0  0  0  0
  1  3  1  0  0  0  0
  1  7  1  0  0  0  0
  1  2  2  0  0  0  0
 42 43  1  0  0  0  0
 43 51  1  0  0  0  0
 43 44  2  0  0  0  0
  8  9  1  0  0  0  0
  9 17  1  0  0  0  0
  9 10  2  0  0  0  0
 18 19  1  0  0  0  0
 19 41  1  0  0  0  0
 19 20  2  0  0  0  0
 42 45  1  0  0  0  0
  8 11  1  0  0  0  0
 51 52  1  0  0  0  0
 18 21  1  0  0  0  0
 41 42  1  0  0  0  0
  7  8  1  0  0  0  0
 17 18  1  0  0  0  0
 29 39  1  0  0  0  0
 30 40  1  0  0  0  0
 27 37  1  0  0  0  0
 28 38  1  0  0  0  0
 23 35  1  0  0  0  0
  3  4  1  0  0  0  0
  3  5  1  0  0  0  0
  3  6  1  0  0  0  0
 45 48  1  0  0  0  0
 45 49  1  0  0  0  0
 45 50  1  0  0  0  0
 11 14  1  0  0  0  0
 11 15  1  0  0  0  0
 11 16  1  0  0  0  0
 52 54  1  0  0  0  0
 52 55  1  0  0  0  0
 52 56  1  0  0  0  0
 21 33  1  0  0  0  0
 21 34  1  0  0  0  0
 42 47  1  0  0  0  0
  8 13  1  0  0  0  0
 18 32  1  0  0  0  0
 25 36  1  0  0  0  0
 51 53  1  0  0  0  0
  7 12  1  0  0  0  0
 41 46  1  0  0  0  0
 17 31  1  0  0  0  0
M  END
$$$$

  -OEChem-05262214473D

 56 57  0     1  0  0  0  0  0999 V2000
   -2.2900    0.3401    4.1553 C   0  0  0  0  0  0  0  0  0  0  0  0
   -1.3426   -0.2746    3.6796 O   0  0  0  0  0  0  0  0  0  0  0  0
   -2.7219    0.0577    5.5560 C   0  0  0  0  0  0  0  0  0  0  0  0
   -3.4815   -0.7386    5.6094 H   0  0  0  0  0  0  0  0  0  0  0  0
   -1.8906   -0.2899    6.1903 H   0  0  0  0  0  0  0  0  0  0  0  0
   -3.1599    0.9126    6.0956 H   0  0  0  0  0  0  0  0  0  0  0  0
   -3.0397    1.3125    3.5142 N   0  0  0  0  0  0  0  0  0  0  0  0
   -2.7928    1.7385    2.1618 C   0  0  2  0  0  0  0  0  0  0  0  0
   -1.4579    1.1532    1.7206 C   0  0  0  0  0  0  0  0  0  0  0  0
   -0.5858    0.8004    2.5118 O   0  0  0  0  0  0  0  0  0  0  0  0
   -2.7841    3.2553    2.0523 C   0  0  0  0  0  0  0  0  0  0  0  0
   -3.8047    1.7484    4.0260 H   0  0  0  0  0  0  0  0  0  0  0  0
   -3.5969    1.3201    1.5466 H   0  0  0  0  0  0  0  0  0  0  0  0
   -1.9850    3.6926    2.6620 H   0  0  0  0  0  0  0  0  0  0  0  0
   -2.6246    3.5776    1.0180 H   0  0  0  0  0  0  0  0  0  0  0  0
   -3.7342    3.6765    2.3981 H   0  0  0  0  0  0  0  0  0  0  0  0
   -1.3352    1.1101    0.3372 N   0  0  0  0  0  0  0  0  0  0  0  0
   -0.1579    0.6093   -0.3265 C   0  0  2  0  0  0  0  0  0  0  0  0
    1.0145    1.4755    0.1202 C   0  0  0  0  0  0  0  0  0  0  0  0
    1.3854    1.5479    1.2898 O   0  0  0  0  0  0  0  0  0  0  0  0
   -0.2949    0.6439   -1.8530 C   0  0  0  0  0  0  0  0  0  0  0  0
   -1.3397   -0.3162   -2.3671 C   0  0  0  0  0  0  0  0  0  0  0  0
   -2.6402    0.0045   -2.6812 C   0  0  0  0  0  0  0  0  0  0  0  0
   -1.1641   -1.7062   -2.6161 C   0  0  0  0  0  0  0  0  0  0  0  0
   -3.2634   -1.1362   -3.1112 N   0  0  0  0  0  0  0  0  0  0  0  0
   -2.3859   -2.1966   -3.0820 C   0  0  0  0  0  0  0  0  0  0  0  0
   -0.0797   -2.5969   -2.4893 C   0  0  0  0  0  0  0  0  0  0  0  0
   -2.5782   -3.5386   -3.4290 C   0  0  0  0  0  0  0  0  0  0  0  0
   -0.2574   -3.9421   -2.8327 C   0  0  0  0  0  0  0  0  0  0  0  0
   -1.4883   -4.4035   -3.2951 C   0  0  0  0  0  0  0  0  0  0  0  0
   -2.1183    1.4068   -0.2401 H   0  0  0  0  0  0  0  0  0  0  0  0
   -0.0065   -0.4142    0.0361 H   0  0  0  0  0  0  0  0  0  0  0  0
    0.6720    0.4261   -2.3267 H   0  0  0  0  0  0  0  0  0  0  0  0
   -0.5601    1.6542   -2.1915 H   0  0  0  0  0  0  0  0  0  0  0  0
   -3.1792    0.9408   -2.6362 H   0  0  0  0  0  0  0  0  0  0  0  0
   -4.2280   -1.1925   -3.4076 H   0  0  0  0  0  0  0  0  0  0  0  0
    0.8858   -2.2530   -2.1295 H   0  0  0  0  0  0  0  0  0  0  0  0
   -3.5357   -3.8984   -3.7900 H   0  0  0  0  0  0  0  0  0  0  0  0
    0.5751   -4.6339   -2.7366 H   0  0  0  0  0  0  0  0  0  0  0  0
   -1.6041   -5.4523   -3.5562 H   0  0  0  0  0  0  0  0  0  0  0  0
    1.6246    2.1158   -0.9495 N   0  0  0  0  0  0  0  0  0  0  0  0
    2.7745    2.9795   -0.8063 C   0  0  2  0  0  0  0  0  0  0  0  0
    2.4731    3.9847    0.2974 C   0  0  0  0  0  0  0  0  0  0  0  0
    1.3308    4.2799    0.6422 O   0  0  0  0  0  0  0  0  0  0  0  0
    3.1008    3.6874   -2.1121 C   0  0  0  0  0  0  0  0  0  0  0  0
    1.2437    1.9701   -1.8798 H   0  0  0  0  0  0  0  0  0  0  0  0
    3.6124    2.3427   -0.5023 H   0  0  0  0  0  0  0  0  0  0  0  0
    2.2728    4.3302   -2.4327 H   0  0  0  0  0  0  0  0  0  0  0  0
    3.9892    4.3193   -2.0096 H   0  0  0  0  0  0  0  0  0  0  0  0
    3.2881    2.9630   -2.9120 H   0  0  0  0  0  0  0  0  0  0  0  0
    3.6290    4.5454    0.8225 N   0  0  0  0  0  0  0  0  0  0  0  0
    3.6073    5.5360    1.8733 C   0  0  0  0  0  0  0  0  0  0  0  0
    4.5345    4.2274    0.4896 H   0  0  0  0  0  0  0  0  0  0  0  0
    3.6053    6.5424    1.4293 H   0  0  0  0  0  0  0  0  0  0  0  0
    2.7019    5.4029    2.4838 H   0  0  0  0  0  0  0  0  0  0  0  0
    4.4980    5.4170    2.5077 H   0  0  0  0  0  0  0  0  0  0  0  0
 29 30  2  0  0  0  0
 27 29  1  0  0  0  0
 28 30  1  0  0  0  0
 24 27  2  0  0  0  0
 26 28  2  0  0  0  0
 22 23  2  0  0  0  0
 23 25  1  0  0  0  0
 22 24  1  0  0  0  0
 24 26  1  0  0  0  0
 21 22  1  0  0  0  0
 25 26  1  0  0  0  0
  1  3  1  0  0  0  0
  1  7  1  0  0  0  0
  1  2  2  0  0  0  0
 42 43  1  0  0  0  0
 43 51  1  0  0  0  0
 43 44  2  0  0  0  0
  8  9  1  0  0  0  0
  9 17  1  0  0  0  0
  9 10  2  0  0  0  0
 18 19  1  0  0  0  0
 19 41  1  0  0  0  0
 19 20  2  0  0  0  0
 42 45  1  0  0  0  0
  8 11  1  0  0  0  0
 51 52  1  0  0  0  0
 18 21  1  0  0  0  0
 41 42  1  0  0  0  0
  7  8  1  0  0  0  0
 17 18  1  0  0  0  0
 29 39  1  0  0  0  0
 30 40  1  0  0  0  0
 27 37  1  0  0  0  0
 28 38  1  0  0  0  0
 23 35  1  0  0  0  0
  3  4  1  0  0  0  0
  3  5  1  0  0  0  0
  3  6  1  0  0  0  0
 45 48  1  0  0  0  0
 45 49  1  0  0  0  0
 45 50  1  0  0  0  0
 11 14  1  0  0  0  0
 11 15  1  0  0  0  0
 11 16  1  0  0  0  0
 52 54  1  0  0  0  0
 52 55  1  0  0  0  0
 52 56  1  0  0  0  0
 21 33  1  0  0  0  0
 21 34  1  0  0  0  0
 42 47  1  0  0  0  0
  8 13  1  0  0  0  0
 18 32  1  0  0  0  0
 25 36  1  0  0  0  0
 51 53  1  0  0  0  0
  7 12  1  0  0  0  0
 41 46  1  0  0  0  0
 17 31  1  0  0  0  0
M  END
$$$$

  -OEChem-05262214473D

 56 57  0     1  0  0  0  0  0999 V2000
   -2.2900    0.3401    4.1553 C   0  0  0  0  0  0  0  0  0  0  0  0
   -1.3426   -0.2746    3.6796 O   0  0  0  0  0  0  0  0  0  0  0  0
   -2.7219    0.0577    5.5560 C   0  0  0  0  0  0  0  0  0  0  0  0
   -3.4815   -0.7386    5.6094 H   0  0  0  0  0  0  0  0  0  0  0  0
   -1.8906   -0.2899    6.1903 H   0  0  0  0  0  0  0  0  0  0  0  0
   -3.1599    0.9126    6.0956 H   0  0  0  0  0  0  0  0  0  0  0  0
   -3.0397    1.3125    3.5142 N   0  0  0  0  0  0  0  0  0  0  0  0
   -2.7928    1.7385    2.1618 C   0  0  2  0  0  0  0  0  0  0  0  0
   -1.4579    1.1532    1.7206 C   0  0  0  0  0  0  0  0  0  0  0  0
   -0.5858    0.8004    2.5118 O   0  0  0  0  0  0  0  0  0  0  0  0
   -2.7841    3.2553    2.0523 C   0  0  0  0  0  0  0  0  0  0  0  0
   -3.8047    1.7484    4.0260 H   0  0  0  0  0  0  0  0  0  0  0  0
   -3.5969    1.3201    1.5466 H   0  0  0  0  0  0  0  0  0  0  0  0
   -1.9850    3.6926    2.6620 H   0  0  0  0  0  0  0  0  0  0  0  0
   -2.6246    3.5776    1.0180 H   0  0  0  0  0  0  0  0  0  0  0  0
   -3.7342    3.6765    2.3981 H   0  0  0  0  0  0  0  0  0  0  0  0
   -1.3352    1.1101    0.3372 N   0  0  0  0  0  0  0  0  0  0  0  0
   -0.1579    0.6093   -0.3265 C   0  0  2  0  0  0  0  0  0  0  0  0
    1.0145    1.4755    0.1202 C   0  0  0  0  0  0  0  0  0  0  0  0
    1.5568    1.3537    1.2165 O   0  0  0  0  0  0  0  0  0  0  0  0
   -0.2949    0.6439   -1.8530 C   0  0  0  0  0  0  0  0  0  0  0  0
   -1.3397   -0.3162   -2.3671 C   0  0  0  0  0  0  0  0  0  0  0  0
   -2.6402    0.0045   -2.6812 C   0  0  0  0  0  0  0  0  0  0  0  0
   -1.1641   -1.7062   -2.6161 C   0  0  0  0  0  0  0  0  0  0  0  0
   -3.2634   -1.1362   -3.1112 N   0  0  0  0  0  0  0  0  0  0  0  0
   -2.3859   -2.1966   -3.0820 C   0  0  0  0  0  0  0  0  0  0  0  0
   -0.0797   -2.5969   -2.4893 C   0  0  0  0  0  0  0  0  0  0  0  0
   -2.5782   -3.5386   -3.4290 C   0  0  0  0  0  0  0  0  0  0  0  0
   -0.2574   -3.9421   -2.8327 C   0  0  0  0  0  0  0  0  0  0  0  0
   -1.4883   -4.4035   -3.2951 C   0  0  0  0  0  0  0  0  0  0  0  0
   -2.1183    1.4068   -0.2401 H   0  0  0  0  0  0  0  0  0  0  0  0
   -0.0065   -0.4142    0.0361 H   0  0  0  0  0  0  0  0  0  0  0  0
    0.6720    0.4261   -2.3267 H   0  0  0  0  0  0  0  0  0  0  0  0
   -0.5601    1.6542   -2.1915 H   0  0  0  0  0  0  0  0  0  0  0  0
   -3.1792    0.9408   -2.6362 H   0  0  0  0  0  0  0  0  0  0  0  0
   -4.2280   -1.1925   -3.4076 H   0  0  0  0  0  0  0  0  0  0  0  0
    0.8858   -2.2530   -2.1295 H   0  0  0  0  0  0  0  0  0  0  0  0
   -3.5357   -3.8984   -3.7900 H   0  0  0  0  0  0  0  0  0  0  0  0
    0.5751   -4.6339   -2.7366 H   0  0  0  0  0  0  0  0  0  0  0  0
   -1.6041   -5.4523   -3.5562 H   0  0  0  0  0  0  0  0  0  0  0  0
    1.4115    2.3632   -0.8701 N   0  0  0  0  0  0  0  0  0  0  0  0
    2.5150    3.2836   -0.7149 C   0  0  2  0  0  0  0  0  0  0  0  0
    2.3273    4.0249    0.6022 C   0  0  0  0  0  0  0  0  0  0  0  0
    1.2362    4.1430    1.1559 O   0  0  0  0  0  0  0  0  0  0  0  0
    2.5916    4.2573   -1.8805 C   0  0  0  0  0  0  0  0  0  0  0  0
    0.9009    2.3662   -1.7482 H   0  0  0  0  0  0  0  0  0  0  0  0
    3.4271    2.6787   -0.6674 H   0  0  0  0  0  0  0  0  0  0  0  0
    1.6864    4.8721   -1.9441 H   0  0  0  0  0  0  0  0  0  0  0  0
    3.4449    4.9354   -1.7757 H   0  0  0  0  0  0  0  0  0  0  0  0
    2.6966    3.7212   -2.8299 H   0  0  0  0  0  0  0  0  0  0  0  0
    3.5142    4.5760    1.0646 N   0  0  0  0  0  0  0  0  0  0  0  0
    3.5950    5.3385    2.2886 C   0  0  0  0  0  0  0  0  0  0  0  0
    4.3749    4.4118    0.5508 H   0  0  0  0  0  0  0  0  0  0  0  0
    3.4630    6.4074    2.0647 H   0  0  0  0  0  0  0  0  0  0  0  0
    2.8048    5.0084    2.9789 H   0  0  0  0  0  0  0  0  0  0  0  0
    4.5787    5.1804    2.7547 H   0  0  0  0  0  0  0  0  0  0  0  0
 29 30  2  0  0  0  0
 27 29  1  0  0  0  0
 28 30  1  0  0  0  0
 24 27  2  0  0  0  0
 26 28  2  0  0  0  0
 22 23  2  0  0  0  0
 23 25  1  0  0  0  0
 22 24  1  0  0  0  0
 24 26  1  0  0  0  0
 21 22  1  0  0  0  0
 25 26  1  0  0  0  0
  1  3  1  0  0  0  0
  1  7  1  0  0  0  0
  1  2  2  0  0  0  0
 42 43  1  0  0  0  0
 43 51  1  0  0  0  0
 43 44  2  0  0  0  0
  8  9  1  0  0  0  0
  9 17  1  0  0  0  0
  9 10  2  0  0  0  0
 18 19  1  0  0  0  0
 19 41  1  0  0  0  0
 19 20  2  0  0  0  0
 42 45  1  0  0  0  0
  8 11  1  0  0  0  0
 51 52  1  0  0  0  0
 18 21  1  0  0  0  0
 41 42  1  0  0  0  0
  7  8  1  0  0  0  0
 17 18  1  0  0  0  0
 29 39  1  0  0  0  0
 30 40  1  0  0  0  0
 27 37  1  0  0  0  0
 28 38  1  0  0  0  0
 23 35  1  0  0  0  0
  3  4  1  0  0  0  0
  3  5  1  0  0  0  0
  3  6  1  0  0  0  0
 45 48  1  0  0  0  0
 45 49  1  0  0  0  0
 45 50  1  0  0  0  0
 11 14  1  0  0  0  0
 11 15  1  0  0  0  0
 11 16  1  0  0  0  0
 52 54  1  0  0  0  0
 52 55  1  0  0  0  0
 52 56  1  0  0  0  0
 21 33  1  0  0  0  0
 21 34  1  0  0  0  0
 42 47  1  0  0  0  0
  8 13  1  0  0  0  0
 18 32  1  0  0  0  0
 25 36  1  0  0  0  0
 51 53  1  0  0  0  0
  7 12  1  0  0  0  0
 41 46  1  0  0  0  0
 17 31  1  0  0  0  0
M  END
$$$$

  -OEChem-05262214473D

 56 57  0     1  0  0  0  0  0999 V2000
   -2.2900    0.3401    4.1553 C   0  0  0  0  0  0  0  0  0  0  0  0
   -1.3426   -0.2746    3.6796 O   0  0  0  0  0  0  0  0  0  0  0  0
   -2.7219    0.0577    5.5560 C   0  0  0  0  0  0  0  0  0  0  0  0
   -3.4815   -0.7386    5.6094 H   0  0  0  0  0  0  0  0  0  0  0  0
   -1.8906   -0.2899    6.1903 H   0  0  0  0  0  0  0  0  0  0  0  0
   -3.1599    0.9126    6.0956 H   0  0  0  0  0  0  0  0  0  0  0  0
   -3.0397    1.3125    3.5142 N   0  0  0  0  0  0  0  0  0  0  0  0
   -2.7928    1.7385    2.1618 C   0  0  2  0  0  0  0  0  0  0  0  0
   -1.4579    1.1532    1.7206 C   0  0  0  0  0  0  0  0  0  0  0  0
   -0.5858    0.8004    2.5118 O   0  0  0  0  0  0  0  0  0  0  0  0
   -2.7841    3.2553    2.0523 C   0  0  0  0  0  0  0  0  0  0  0  0
   -3.8047    1.7484    4.0260 H   0  0  0  0  0  0  0  0  0  0  0  0
   -3.5969    1.3201    1.5466 H   0  0  0  0  0  0  0  0  0  0  0  0
   -1.9850    3.6926    2.6620 H   0  0  0  0  0  0  0  0  0  0  0  0
   -2.6246    3.5776    1.0180 H   0  0  0  0  0  0  0  0  0  0  0  0
   -3.7342    3.6765    2.3981 H   0  0  0  0  0  0  0  0  0  0  0  0
   -1.3352    1.1101    0.3372 N   0  0  0  0  0  0  0  0  0  0  0  0
   -0.1579    0.6093   -0.3265 C   0  0  2  0  0  0  0  0  0  0  0  0
    1.0145    1.4755    0.1202 C   0  0  0  0  0  0  0  0  0  0  0  0
    1.7263    1.1938    1.0818 O   0  0  0  0  0  0  0  0  0  0  0  0
   -0.2949    0.6439   -1.8530 C   0  0  0  0  0  0  0  0  0  0  0  0
   -1.3397   -0.3162   -2.3671 C   0  0  0  0  0  0  0  0  0  0  0  0
   -2.6402    0.0045   -2.6812 C   0  0  0  0  0  0  0  0  0  0  0  0
   -1.1641   -1.7062   -2.6161 C   0  0  0  0  0  0  0  0  0  0  0  0
   -3.2634   -1.1362   -3.1112 N   0  0  0  0  0  0  0  0  0  0  0  0
   -2.3859   -2.1966   -3.0820 C   0  0  0  0  0  0  0  0  0  0  0  0
   -0.0797   -2.5969   -2.4893 C   0  0  0  0  0  0  0  0  0  0  0  0
   -2.5782   -3.5386   -3.4290 C   0  0  0  0  0  0  0  0  0  0  0  0
   -0.2574   -3.9421   -2.8327 C   0  0  0  0  0  0  0  0  0  0  0  0
   -1.4883   -4.4035   -3.2951 C   0  0  0  0  0  0  0  0  0  0  0  0
   -2.1183    1.4068   -0.2401 H   0  0  0  0  0  0  0  0  0  0  0  0
   -0.0065   -0.4142    0.0361 H   0  0  0  0  0  0  0  0  0  0  0  0
    0.6720    0.4261   -2.3267 H   0  0  0  0  0  0  0  0  0  0  0  0
   -0.5601    1.6542   -2.1915 H   0  0  0  0  0  0  0  0  0  0  0  0
   -3.1792    0.9408   -2.6362 H   0  0  0  0  0  0  0  0  0  0  0  0
   -4.2280   -1.1925   -3.4076 H   0  0  0  0  0  0  0  0  0  0  0  0
    0.8858   -2.2530   -2.1295 H   0  0  0  0  0  0  0  0  0  0  0  0
   -3.5357   -3.8984   -3.7900 H   0  0  0  0  0  0  0  0  0  0  0  0
    0.5751   -4.6339   -2.7366 H   0  0  0  0  0  0  0  0  0  0  0  0
   -1.6041   -5.4523   -3.5562 H   0  0  0  0  0  0  0  0  0  0  0  0
    1.1987    2.5702   -0.7129 N   0  0  0  0  0  0  0  0  0  0  0  0
    2.2547    3.5394   -0.5279 C   0  0  2  0  0  0  0  0  0  0  0  0
    2.2283    3.9919    0.9261 C   0  0  0  0  0  0  0  0  0  0  0  0
    1.2308    3.9013    1.6388 O   0  0  0  0  0  0  0  0  0  0  0  0
    2.0905    4.7230   -1.4686 C   0  0  0  0  0  0  0  0  0  0  0  0
    0.5591    2.6966   -1.4918 H   0  0  0  0  0  0  0  0  0  0  0  0
    3.1983    3.0221   -0.7329 H   0  0  0  0  0  0  0  0  0  0  0  0
    1.1506    5.2539   -1.2782 H   0  0  0  0  0  0  0  0  0  0  0  0
    2.9069    5.4426   -1.3471 H   0  0  0  0  0  0  0  0  0  0  0  0
    2.0799    4.3924   -2.5128 H   0  0  0  0  0  0  0  0  0  0  0  0
    3.4366    4.5486    1.3215 N   0  0  0  0  0  0  0  0  0  0  0  0
    3.6591    5.0642    2.6521 C   0  0  0  0  0  0  0  0  0  0  0  0
    4.2158    4.5656    0.6701 H   0  0  0  0  0  0  0  0  0  0  0  0
    3.4292    6.1397    2.6724 H   0  0  0  0  0  0  0  0  0  0  0  0
    3.0069    4.5365    3.3635 H   0  0  0  0  0  0  0  0  0  0  0  0
    4.7109    4.9088    2.9343 H   0  0  0  0  0  0  0  0  0  0  0  0
 29 30  2  0  0  0  0
 27 29  1  0  0  0  0
 28 30  1  0  0  0  0
 24 27  2  0  0  0  0
 26 28  2  0  0  0  0
 22 23  2  0  0  0  0
 23 25  1  0  0  0  0
 22 24  1  0  0  0  0
 24 26  1  0  0  0  0
 21 22  1  0  0  0  0
 25 26  1  0  0  0  0
  1  3  1  0  0  0  0
  1  7  1  0  0  0  0
  1  2  2  0  0  0  0
 42 43  1  0  0  0  0
 43 51  1  0  0  0  0
 43 44  2  0  0  0  0
  8  9  1  0  0  0  0
  9 17  1  0  0  0  0
  9 10  2  0  0  0  0
 18 19  1  0  0  0  0
 19 41  1  0  0  0  0
 19 20  2  0  0  0  0
 42 45  1  0  0  0  0
  8 11  1  0  0  0  0
 51 52  1  0  0  0  0
 18 21  1  0  0  0  0
 41 42  1  0  0  0  0
  7  8  1  0  0  0  0
 17 18  1  0  0  0  0
 29 39  1  0  0  0  0
 30 40  1  0  0  0  0
 27 37  1  0  0  0  0
 28 38  1  0  0  0  0
 23 35  1  0  0  0  0
  3  4  1  0  0  0  0
  3  5  1  0  0  0  0
  3  6  1  0  0  0  0
 45 48  1  0  0  0  0
 45 49  1  0  0  0  0
 45 50  1  0  0  0  0
 11 14  1  0  0  0  0
 11 15  1  0  0  0  0
 11 16  1  0  0  0  0
 52 54  1  0  0  0  0
 52 55  1  0  0  0  0
 52 56  1  0  0  0  0
 21 33  1  0  0  0  0
 21 34  1  0  0  0  0
 42 47  1  0  0  0  0
  8 13  1  0  0  0  0
 18 32  1  0  0  0  0
 25 36  1  0  0  0  0
 51 53  1  0  0  0  0
  7 12  1  0  0  0  0
 41 46  1  0  0  0  0
 17 31  1  0  0  0  0
M  END
$$$$

  -OEChem-05262214473D

 56 57  0     1  0  0  0  0  0999 V2000
   -2.2900    0.3401    4.1553 C   0  0  0  0  0  0  0  0  0  0  0  0
   -1.3426   -0.2746    3.6796 O   0  0  0  0  0  0  0  0  0  0  0  0
   -2.7219    0.0577    5.5560 C   0  0  0  0  0  0  0  0  0  0  0  0
   -3.4815   -0.7386    5.6094 H   0  0  0  0  0  0  0  0  0  0  0  0
   -1.8906   -0.2899    6.1903 H   0  0  0  0  0  0  0  0  0  0  0  0
   -3.1599    0.9126    6.0956 H   0  0  0  0  0  0  0  0  0  0  0  0
   -3.0397    1.3125    3.5142 N   0  0  0  0  0  0  0  0  0  0  0  0
   -2.7928    1.7385    2.1618 C   0  0  2  0  0  0  0  0  0  0  0  0
   -1.4579    1.1532    1.7206 C   0  0  0  0  0  0  0  0  0  0  0  0
   -0.5858    0.8004    2.5118 O   0  0  0  0  0  0  0  0  0  0  0  0
   -2.7841    3.2553    2.0523 C   0  0  0  0  0  0  0  0  0  0  0  0
   -3.8047    1.7484    4.0260 H   0  0  0  0  0  0  0  0  0  0  0  0
   -3.5969    1.3201    1.5466 H   0  0  0  0  0  0  0  0  0  0  0  0
   -1.9850    3.6926    2.6620 H   0  0  0  0  0  0  0  0  0  0  0  0
   -2.6246    3.5776    1.0180 H   0  0  0  0  0  0  0  0  0  0  0  0
   -3.7342    3.6765    2.3981 H   0  0  0  0  0  0  0  0  0  0  0  0
   -1.3352    1.1101    0.3372 N   0  0  0  0  0  0  0  0  0  0  0  0
   -0.1579    0.6093   -0.3265 C   0  0  2  0  0  0  0  0  0  0  0  0
    1.0145    1.4755    0.1202 C   0  0  0  0  0  0  0  0  0  0  0  0
    1.8824    1.0789    0.8950 O   0  0  0  0  0  0  0  0  0  0  0  0
   -0.2949    0.6439   -1.8530 C   0  0  0  0  0  0  0  0  0  0  0  0
   -1.3397   -0.3162   -2.3671 C   0  0  0  0  0  0  0  0  0  0  0  0
   -2.6402    0.0045   -2.6812 C   0  0  0  0  0  0  0  0  0  0  0  0
   -1.1641   -1.7062   -2.6161 C   0  0  0  0  0  0  0  0  0  0  0  0
   -3.2634   -1.1362   -3.1112 N   0  0  0  0  0  0  0  0  0  0  0  0
   -2.3859   -2.1966   -3.0820 C   0  0  0  0  0  0  0  0  0  0  0  0
   -0.0797   -2.5969   -2.4893 C   0  0  0  0  0  0  0  0  0  0  0  0
   -2.5782   -3.5386   -3.4290 C   0  0  0  0  0  0  0  0  0  0  0  0
   -0.2574   -3.9421   -2.8327 C   0  0  0  0  0  0  0  0  0  0  0  0
   -1.4883   -4.4035   -3.2951 C   0  0  0  0  0  0  0  0  0  0  0  0
   -2.1183    1.4068   -0.2401 H   0  0  0  0  0  0  0  0  0  0  0  0
   -0.0065   -0.4142    0.0361 H   0  0  0  0  0  0  0  0  0  0  0  0
    0.6720    0.4261   -2.3267 H   0  0  0  0  0  0  0  0  0  0  0  0
   -0.5601    1.6542   -2.1915 H   0  0  0  0  0  0  0  0  0  0  0  0
   -3.1792    0.9408   -2.6362 H   0  0  0  0  0  0  0  0  0  0  0  0
   -4.2280   -1.1925   -3.4076 H   0  0  0  0  0  0  0  0  0  0  0  0
    0.8858   -2.2530   -2.1295 H   0  0  0  0  0  0  0  0  0  0  0  0
   -3.5357   -3.8984   -3.7900 H   0  0  0  0  0  0  0  0  0  0  0  0
    0.5751   -4.6339   -2.7366 H   0  0  0  0  0  0  0  0  0  0  0  0
   -1.6041   -5.4523   -3.5562 H   0  0  0  0  0  0  0  0  0  0  0  0
    1.0005    2.7228   -0.4885 N   0  0  0  0  0  0  0  0  0  0  0  0
    2.0114    3.7296   -0.2580 C   0  0  2  0  0  0  0  0  0  0  0  0
    2.1827    3.8882    1.2469 C   0  0  0  0  0  0  0  0  0  0  0  0
    1.3150    3.5713    2.0579 O   0  0  0  0  0  0  0  0  0  0  0  0
    1.6318    5.0529   -0.9043 C   0  0  0  0  0  0  0  0  0  0  0  0
    0.2416    2.9388   -1.1282 H   0  0  0  0  0  0  0  0  0  0  0  0
    2.9416    3.3495   -0.6941 H   0  0  0  0  0  0  0  0  0  0  0  0
    0.7021    5.4494   -0.4802 H   0  0  0  0  0  0  0  0  0  0  0  0
    2.4117    5.8065   -0.7531 H   0  0  0  0  0  0  0  0  0  0  0  0
    1.4799    4.9308   -1.9821 H   0  0  0  0  0  0  0  0  0  0  0  0
    3.4014    4.4651    1.5756 N   0  0  0  0  0  0  0  0  0  0  0  0
    3.7953    4.7317    2.9393 C   0  0  0  0  0  0  0  0  0  0  0  0
    4.0680    4.6784    0.8394 H   0  0  0  0  0  0  0  0  0  0  0  0
    3.5062    5.7577    3.2111 H   0  0  0  0  0  0  0  0  0  0  0  0
    3.2944    4.0195    3.6114 H   0  0  0  0  0  0  0  0  0  0  0  0
    4.8856    4.6208    3.0342 H   0  0  0  0  0  0  0  0  0  0  0  0
 29 30  2  0  0  0  0
 27 29  1  0  0  0  0
 28 30  1  0  0  0  0
 24 27  2  0  0  0  0
 26 28  2  0  0  0  0
 22 23  2  0  0  0  0
 23 25  1  0  0  0  0
 22 24  1  0  0  0  0
 24 26  1  0  0  0  0
 21 22  1  0  0  0  0
 25 26  1  0  0  0  0
  1  3  1  0  0  0  0
  1  7  1  0  0  0  0
  1  2  2  0  0  0  0
 42 43  1  0  0  0  0
 43 51  1  0  0  0  0
 43 44  2  0  0  0  0
  8  9  1  0  0  0  0
  9 17  1  0  0  0  0
  9 10  2  0  0  0  0
 18 19  1  0  0  0  0
 19 41  1  0  0  0  0
 19 20  2  0  0  0  0
 42 45  1  0  0  0  0
  8 11  1  0  0  0  0
 51 52  1  0  0  0  0
 18 21  1  0  0  0  0
 41 42  1  0  0  0  0
  7  8  1  0  0  0  0
 17 18  1  0  0  0  0
 29 39  1  0  0  0  0
 30 40  1  0  0  0  0
 27 37  1  0  0  0  0
 28 38  1  0  0  0  0
 23 35  1  0  0  0  0
  3  4  1  0  0  0  0
  3  5  1  0  0  0  0
  3  6  1  0  0  0  0
 45 48  1  0  0  0  0
 45 49  1  0  0  0  0
 45 50  1  0  0  0  0
 11 14  1  0  0  0  0
 11 15  1  0  0  0  0
 11 16  1  0  0  0  0
 52 54  1  0  0  0  0
 52 55  1  0  0  0  0
 52 56  1  0  0  0  0
 21 33  1  0  0  0  0
 21 34  1  0  0  0  0
 42 47  1  0  0  0  0
  8 13  1  0  0  0  0
 18 32  1  0  0  0  0
 25 36  1  0  0  0  0
 51 53  1  0  0  0  0
  7 12  1  0  0  0  0
 41 46  1  0  0  0  0
 17 31  1  0  0  0  0
M  END
$$$$

  -OEChem-05262214473D

 56 57  0     1  0  0  0  0  0999 V2000
   -2.2900    0.3401    4.1553 C   0  0  0  0  0  0  0  0  0  0  0  0
   -1.3426   -0.2746    3.6796 O   0  0  0  0  0  0  0  0  0  0  0  0
   -2.7219    0.0577    5.5560 C   0  0  0  0  0  0  0  0  0  0  0  0
   -3.4815   -0.7386    5.6094 H   0  0  0  0  0  0  0  0  0  0  0  0
   -1.8906   -0.2899    6.1903 H   0  0  0  0  0  0  0  0  0  0  0  0
   -3.1599    0.9126    6.0956 H   0  0  0  0  0  0  0  0  0  0  0  0
   -3.0397    1.3125    3.5142 N   0  0  0  0  0  0  0  0  0  0  0  0
   -2.7928    1.7385    2.1618 C   0  0  2  0  0  0  0  0  0  0  0  0
   -1.4579    1.1532    1.7206 C   0  0  0  0  0  0  0  0  0  0  0  0
   -0.5858    0.8004    2.5118 O   0  0  0  0  0  0  0  0  0  0  0  0
   -2.7841    3.2553    2.0523 C   0  0  0  0  0  0  0  0  0  0  0  0
   -3.8047    1.7484    4.0260 H   0  0  0  0  0  0  0  0  0  0  0  0
   -3.5969    1.3201    1.5466 H   0  0  0  0  0  0  0  0  0  0  0  0
   -1.9850    3.6926    2.6620 H   0  0  0  0  0  0  0  0  0  0  0  0
   -2.6246    3.5776    1.0180 H   0  0  0  0  0  0  0  0  0  0  0  0
   -3.7342    3.6765    2.3981 H   0  0  0  0  0  0  0  0  0  0  0  0
   -1.3352    1.1101    0.3372 N   0  0  0  0  0  0  0  0  0  0  0  0
   -0.1579    0.6093   -0.3265 C   0  0  2  0  0  0  0  0  0  0  0  0
    1.0145    1.4755    0.1202 C   0  0  0  0  0  0  0  0  0  0  0  0
    2.0143    1.0170    0.6687 O   0  0  0  0  0  0  0  0  0  0  0  0
   -0.2949    0.6439   -1.8530 C   0  0  0  0  0  0  0  0  0  0  0  0
   -1.3397   -0.3162   -2.3671 C   0  0  0  0  0  0  0  0  0  0  0  0
   -2.6402    0.0045   -2.6812 C   0  0  0  0  0  0  0  0  0  0  0  0
   -1.1641   -1.7062   -2.6161 C   0  0  0  0  0  0  0  0  0  0  0  0
   -3.2634   -1.1362   -3.1112 N   0  0  0  0  0  0  0  0  0  0  0  0
   -2.3859   -2.1966   -3.0820 C   0  0  0  0  0  0  0  0  0  0  0  0
   -0.0797   -2.5969   -2.4893 C   0  0  0  0  0  0  0  0  0  0  0  0
   -2.5782   -3.5386   -3.4290 C   0  0  0  0  0  0  0  0  0  0  0  0
   -0.2574   -3.9421   -2.8327 C   0  0  0  0  0  0  0  0  0  0  0  0
   -1.4883   -4.4035   -3.2951 C   0  0  0  0  0  0  0  0  0  0  0  0
   -2.1183    1.4068   -0.2401 H   0  0  0  0  0  0  0  0  0  0  0  0
   -0.0065   -0.4142    0.0361 H   0  0  0  0  0  0  0  0  0  0  0  0
    0.6720    0.4261   -2.3267 H   0  0  0  0  0  0  0  0  0  0  0  0
   -0.5601    1.6542   -2.1915 H   0  0  0  0  0  0  0  0  0  0  0  0
   -3.1792    0.9408   -2.6362 H   0  0  0  0  0  0  0  0  0  0  0  0
   -4.2280   -1.1925   -3.4076 H   0  0  0  0  0  0  0  0  0  0  0  0
    0.8858   -2.2530   -2.1295 H   0  0  0  0  0  0  0  0  0  0  0  0
   -3.5357   -3.8984   -3.7900 H   0  0  0  0  0  0  0  0  0  0  0  0
    0.5751   -4.6339   -2.7366 H   0  0  0  0  0  0  0  0  0  0  0  0
   -1.6041   -5.4523   -3.5562 H   0  0  0  0  0  0  0  0  0  0  0  0
    0.8305    2.8104   -0.2123 N   0  0  0  0  0  0  0  0  0  0  0  0
    1.8016    3.8412    0.0762 C   0  0  2  0  0  0  0  0  0  0  0  0
    2.1937    3.7206    1.5429 C   0  0  0  0  0  0  0  0  0  0  0  0
    1.4829    3.1755    2.3847 O   0  0  0  0  0  0  0  0  0  0  0  0
    1.2467    5.2244   -0.2261 C   0  0  0  0  0  0  0  0  0  0  0  0
   -0.0300    3.0763   -0.6821 H   0  0  0  0  0  0  0  0  0  0  0  0
    2.6746    3.6385   -0.5537 H   0  0  0  0  0  0  0  0  0  0  0  0
    0.3713    5.4454    0.3956 H   0  0  0  0  0  0  0  0  0  0  0  0
    1.9932    6.0021   -0.0341 H   0  0  0  0  0  0  0  0  0  0  0  0
    0.9375    5.2998   -1.2742 H   0  0  0  0  0  0  0  0  0  0  0  0
    3.4112    4.3313    1.8095 N   0  0  0  0  0  0  0  0  0  0  0  0
    3.9944    4.3638    3.1304 C   0  0  0  0  0  0  0  0  0  0  0  0
    3.9416    4.7424    1.0470 H   0  0  0  0  0  0  0  0  0  0  0  0
    3.6888    5.2872    3.6441 H   0  0  0  0  0  0  0  0  0  0  0  0
    3.6478    3.4925    3.7057 H   0  0  0  0  0  0  0  0  0  0  0  0
    5.0909    4.3359    3.0478 H   0  0  0  0  0  0  0  0  0  0  0  0
 29 30  2  0  0  0  0
 27 29  1  0  0  0  0
 28 30  1  0  0  0  0
 24 27  2  0  0  0  0
 26 28  2  0  0  0  0
 22 23  2  0  0  0  0
 23 25  1  0  0  0  0
 22 24  1  0  0  0  0
 24 26  1  0  0  0  0
 21 22  1  0  0  0  0
 25 26  1  0  0  0  0
  1  3  1  0  0  0  0
  1  7  1  0  0  0  0
  1  2  2  0  0  0  0
 42 43  1  0  0  0  0
 43 51  1  0  0  0  0
 43 44  2  0  0  0  0
  8  9  1  0  0  0  0
  9 17  1  0  0  0  0
  9 10  2  0  0  0  0
 18 19  1  0  0  0  0
 19 41  1  0  0  0  0
 19 20  2  0  0  0  0
 42 45  1  0  0  0  0
  8 11  1  0  0  0  0
 51 52  1  0  0  0  0
 18 21  1  0  0  0  0
 41 42  1  0  0  0  0
  7  8  1  0  0  0  0
 17 18  1  0  0  0  0
 29 39  1  0  0  0  0
 30 40  1  0  0  0  0
 27 37  1  0  0  0  0
 28 38  1  0  0  0  0
 23 35  1  0  0  0  0
  3  4  1  0  0  0  0
  3  5  1  0  0  0  0
  3  6  1  0  0  0  0
 45 48  1  0  0  0  0
 45 49  1  0  0  0  0
 45 50  1  0  0  0  0
 11 14  1  0  0  0  0
 11 15  1  0  0  0  0
 11 16  1  0  0  0  0
 52 54  1  0  0  0  0
 52 55  1  0  0  0  0
 52 56  1  0  0  0  0
 21 33  1  0  0  0  0
 21 34  1  0  0  0  0
 42 47  1  0  0  0  0
  8 13  1  0  0  0  0
 18 32  1  0  0  0  0
 25 36  1  0  0  0  0
 51 53  1  0  0  0  0
  7 12  1  0  0  0  0
 41 46  1  0  0  0  0
 17 31  1  0  0  0  0
M  END
$$$$

  -OEChem-05262214473D

 56 57  0     1  0  0  0  0  0999 V2000
   -2.2900    0.3401    4.1553 C   0  0  0  0  0  0  0  0  0  0  0  0
   -1.3426   -0.2746    3.6796 O   0  0  0  0  0  0  0  0  0  0  0  0
   -2.7219    0.0577    5.5560 C   0  0  0  0  0  0  0  0  0  0  0  0
   -3.4815   -0.7386    5.6094 H   0  0  0  0  0  0  0  0  0  0  0  0
   -1.8906   -0.2899    6.1903 H   0  0  0  0  0  0  0  0  0  0  0  0
   -3.1599    0.9126    6.0956 H   0  0  0  0  0  0  0  0  0  0  0  0
   -3.0397    1.3125    3.5142 N   0  0  0  0  0  0  0  0  0  0  0  0
   -2.7928    1.7385    2.1618 C   0  0  2  0  0  0  0  0  0  0  0  0
   -1.4579    1.1532    1.7206 C   0  0  0  0  0  0  0  0  0  0  0  0
   -0.5858    0.8004    2.5118 O   0  0  0  0  0  0  0  0  0  0  0  0
   -2.7841    3.2553    2.0523 C   0  0  0  0  0  0  0  0  0  0  0  0
   -3.8047    1.7484    4.0260 H   0  0  0  0  0  0  0  0  0  0  0  0
   -3.5969    1.3201    1.5466 H   0  0  0  0  0  0  0  0  0  0  0  0
   -1.9850    3.6926    2.6620 H   0  0  0  0  0  0  0  0  0  0  0  0
   -2.6246    3.5776    1.0180 H   0  0  0  0  0  0  0  0  0  0  0  0
   -3.7342    3.6765    2.3981 H   0  0  0  0  0  0  0  0  0  0  0  0
   -1.3352    1.1101    0.3372 N   0  0  0  0  0  0  0  0  0  0  0  0
   -0.1579    0.6093   -0.3265 C   0  0  2  0  0  0  0  0  0  0  0  0
    1.0145    1.4755    0.1202 C   0  0  0  0  0  0  0  0  0  0  0  0
    2.1132    1.0122    0.4184 O   0  0  0  0  0  0  0  0  0  0  0  0
   -0.2949    0.6439   -1.8530 C   0  0  0  0  0  0  0  0  0  0  0  0
   -1.3397   -0.3162   -2.3671 C   0  0  0  0  0  0  0  0  0  0  0  0
   -2.6402    0.0045   -2.6812 C   0  0  0  0  0  0  0  0  0  0  0  0
   -1.1641   -1.7062   -2.6161 C   0  0  0  0  0  0  0  0  0  0  0  0
   -3.2634   -1.1362   -3.1112 N   0  0  0  0  0  0  0  0  0  0  0  0
   -2.3859   -2.1966   -3.0820 C   0  0  0  0  0  0  0  0  0  0  0  0
   -0.0797   -2.5969   -2.4893 C   0  0  0  0  0  0  0  0  0  0  0  0
   -2.5782   -3.5386   -3.4290 C   0  0  0  0  0  0  0  0  0  0  0  0
   -0.2574   -3.9421   -2.8327 C   0  0  0  0  0  0  0  0  0  0  0  0
   -1.4883   -4.4035   -3.2951 C   0  0  0  0  0  0  0  0  0  0  0  0
   -2.1183    1.4068   -0.2401 H   0  0  0  0  0  0  0  0  0  0  0  0
   -0.0065   -0.4142    0.0361 H   0  0  0  0  0  0  0  0  0  0  0  0
    0.6720    0.4261   -2.3267 H   0  0  0  0  0  0  0  0  0  0  0  0
   -0.5601    1.6542   -2.1915 H   0  0  0  0  0  0  0  0  0  0  0  0
   -3.1792    0.9408   -2.6362 H   0  0  0  0  0  0  0  0  0  0  0  0
   -4.2280   -1.1925   -3.4076 H   0  0  0  0  0  0  0  0  0  0  0  0
    0.8858   -2.2530   -2.1295 H   0  0  0  0  0  0  0  0  0  0  0  0
   -3.5357   -3.8984   -3.7900 H   0  0  0  0  0  0  0  0  0  0  0  0
    0.5751   -4.6339   -2.7366 H   0  0  0  0  0  0  0  0  0  0  0  0
   -1.6041   -5.4523   -3.5562 H   0  0  0  0  0  0  0  0  0  0  0  0
    0.7003    2.8272    0.0970 N   0  0  0  0  0  0  0  0  0  0  0  0
    1.6397    3.8665    0.4522 C   0  0  2  0  0  0  0  0  0  0  0  0
    2.2606    3.5007    1.7938 C   0  0  0  0  0  0  0  0  0  0  0  0
    1.7231    2.7409    2.5969 O   0  0  0  0  0  0  0  0  0  0  0  0
    0.9614    5.2260    0.5198 C   0  0  0  0  0  0  0  0  0  0  0  0
   -0.2371    3.0997   -0.1838 H   0  0  0  0  0  0  0  0  0  0  0  0
    2.4154    3.8695   -0.3213 H   0  0  0  0  0  0  0  0  0  0  0  0
    0.1810    5.2423    1.2893 H   0  0  0  0  0  0  0  0  0  0  0  0
    1.6799    6.0163    0.7609 H   0  0  0  0  0  0  0  0  0  0  0  0
    0.4898    5.4742   -0.4372 H   0  0  0  0  0  0  0  0  0  0  0  0
    3.4652    4.1562    2.0075 N   0  0  0  0  0  0  0  0  0  0  0  0
    4.2426    3.9854    3.2126 C   0  0  0  0  0  0  0  0  0  0  0  0
    3.8451    4.7534    1.2790 H   0  0  0  0  0  0  0  0  0  0  0  0
    3.9646    4.7605    3.9419 H   0  0  0  0  0  0  0  0  0  0  0  0
    4.0430    2.9916    3.6398 H   0  0  0  0  0  0  0  0  0  0  0  0
    5.3128    4.0737    2.9740 H   0  0  0  0  0  0  0  0  0  0  0  0
 29 30  2  0  0  0  0
 27 29  1  0  0  0  0
 28 30  1  0  0  0  0
 24 27  2  0  0  0  0
 26 28  2  0  0  0  0
 22 23  2  0  0  0  0
 23 25  1  0  0  0  0
 22 24  1  0  0  0  0
 24 26  1  0  0  0  0
 21 22  1  0  0  0  0
 25 26  1  0  0  0  0
  1  3  1  0  0  0  0
  1  7  1  0  0  0  0
  1  2  2  0  0  0  0
 42 43  1  0  0  0  0
 43 51  1  0  0  0  0
 43 44  2  0  0  0  0
  8  9  1  0  0  0  0
  9 17  1  0  0  0  0
  9 10  2  0  0  0  0
 18 19  1  0  0  0  0
 19 41  1  0  0  0  0
 19 20  2  0  0  0  0
 42 45  1  0  0  0  0
  8 11  1  0  0  0  0
 51 52  1  0  0  0  0
 18 21  1  0  0  0  0
 41 42  1  0  0  0  0
  7  8  1  0  0  0  0
 17 18  1  0  0  0  0
 29 39  1  0  0  0  0
 30 40  1  0  0  0  0
 27 37  1  0  0  0  0
 28 38  1  0  0  0  0
 23 35  1  0  0  0  0
  3  4  1  0  0  0  0
  3  5  1  0  0  0  0
  3  6  1  0  0  0  0
 45 48  1  0  0  0  0
 45 49  1  0  0  0  0
 45 50  1  0  0  0  0
 11 14  1  0  0  0  0
 11 15  1  0  0  0  0
 11 16  1  0  0  0  0
 52 54  1  0  0  0  0
 52 55  1  0  0  0  0
 52 56  1  0  0  0  0
 21 33  1  0  0  0  0
 21 34  1  0  0  0  0
 42 47  1  0  0  0  0
  8 13  1  0  0  0  0
 18 32  1  0  0  0  0
 25 36  1  0  0  0  0
 51 53  1  0  0  0  0
  7 12  1  0  0  0  0
 41 46  1  0  0  0  0
 17 31  1  0  0  0  0
M  END
$$$$

  -OEChem-05262214473D

 56 57  0     1  0  0  0  0  0999 V2000
   -2.2900    0.3401    4.1553 C   0  0  0  0  0  0  0  0  0  0  0  0
   -1.3426   -0.2746    3.6796 O   0  0  0  0  0  0  0  0  0  0  0  0
   -2.7219    0.0577    5.5560 C   0  0  0  0  0  0  0  0  0  0  0  0
   -3.4815   -0.7386    5.6094 H   0  0  0  0  0  0  0  0  0  0  0  0
   -1.8906   -0.2899    6.1903 H   0  0  0  0  0  0  0  0  0  0  0  0
   -3.1599    0.9126    6.0956 H   0  0  0  0  0  0  0  0  0  0  0  0
   -3.0397    1.3125    3.5142 N   0  0  0  0  0  0  0  0  0  0  0  0
   -2.7928    1.7385    2.1618 C   0  0  2  0  0  0  0  0  0  0  0  0
   -1.4579    1.1532    1.7206 C   0  0  0  0  0  0  0  0  0  0  0  0
   -0.5858    0.8004    2.5118 O   0  0  0  0  0  0  0  0  0  0  0  0
   -2.7841    3.2553    2.0523 C   0  0  0  0  0  0  0  0  0  0  0  0
   -3.8047    1.7484    4.0260 H   0  0  0  0  0  0  0  0  0  0  0  0
   -3.5969    1.3201    1.5466 H   0  0  0  0  0  0  0  0  0  0  0  0
   -1.9850    3.6926    2.6620 H   0  0  0  0  0  0  0  0  0  0  0  0
   -2.6246    3.5776    1.0180 H   0  0  0  0  0  0  0  0  0  0  0  0
   -3.7342    3.6765    2.3981 H   0  0  0  0  0  0  0  0  0  0  0  0
   -1.3352    1.1101    0.3372 N   0  0  0  0  0  0  0  0  0  0  0  0
   -0.1579    0.6093   -0.3265 C   0  0  2  0  0  0  0  0  0  0  0  0
    1.0145    1.4755    0.1202 C   0  0  0  0  0  0  0  0  0  0  0  0
    2.1723    1.0649    0.1612 O   0  0  0  0  0  0  0  0  0  0  0  0
   -0.2949    0.6439   -1.8530 C   0  0  0  0  0  0  0  0  0  0  0  0
   -1.3397   -0.3162   -2.3671 C   0  0  0  0  0  0  0  0  0  0  0  0
   -2.6402    0.0045   -2.6812 C   0  0  0  0  0  0  0  0  0  0  0  0
   -1.1641   -1.7062   -2.6161 C   0  0  0  0  0  0  0  0  0  0  0  0
   -3.2634   -1.1362   -3.1112 N   0  0  0  0  0  0  0  0  0  0  0  0
   -2.3859   -2.1966   -3.0820 C   0  0  0  0  0  0  0  0  0  0  0  0
   -0.0797   -2.5969   -2.4893 C   0  0  0  0  0  0  0  0  0  0  0  0
   -2.5782   -3.5386   -3.4290 C   0  0  0  0  0  0  0  0  0  0  0  0
   -0.2574   -3.9421   -2.8327 C   0  0  0  0  0  0  0  0  0  0  0  0
   -1.4883   -4.4035   -3.2951 C   0  0  0  0  0  0  0  0  0  0  0  0
   -2.1183    1.4068   -0.2401 H   0  0  0  0  0  0  0  0  0  0  0  0
   -0.0065   -0.4142    0.0361 H   0  0  0  0  0  0  0  0  0  0  0  0
    0.6720    0.4261   -2.3267 H   0  0  0  0  0  0  0  0  0  0  0  0
   -0.5601    1.6542   -2.1915 H   0  0  0  0  0  0  0  0  0  0  0  0
   -3.1792    0.9408   -2.6362 H   0  0  0  0  0  0  0  0  0  0  0  0
   -4.2280   -1.1925   -3.4076 H   0  0  0  0  0  0  0  0  0  0  0  0
    0.8858   -2.2530   -2.1295 H   0  0  0  0  0  0  0  0  0  0  0  0
   -3.5357   -3.8984   -3.7900 H   0  0  0  0  0  0  0  0  0  0  0  0
    0.5751   -4.6339   -2.7366 H   0  0  0  0  0  0  0  0  0  0  0  0
   -1.6041   -5.4523   -3.5562 H   0  0  0  0  0  0  0  0  0  0  0  0
    0.6187    2.7720    0.4182 N   0  0  0  0  0  0  0  0  0  0  0  0
    1.5366    3.8039    0.8441 C   0  0  2  0  0  0  0  0  0  0  0  0
    2.3788    3.2434    1.9826 C   0  0  0  0  0  0  0  0  0  0  0  0
    2.0194    2.2971    2.6800 O   0  0  0  0  0  0  0  0  0  0  0  0
    0.7954    5.0573    1.2824 C   0  0  0  0  0  0  0  0  0  0  0  0
   -0.3657    3.0075    0.3326 H   0  0  0  0  0  0  0  0  0  0  0  0
    2.1817    4.0267   -0.0128 H   0  0  0  0  0  0  0  0  0  0  0  0
    0.1439    4.8537    2.1401 H   0  0  0  0  0  0  0  0  0  0  0  0
    1.4930    5.8480    1.5777 H   0  0  0  0  0  0  0  0  0  0  0  0
    0.1671    5.4421    0.4718 H   0  0  0  0  0  0  0  0  0  0  0  0
    3.5597    3.9517    2.1558 N   0  0  0  0  0  0  0  0  0  0  0  0
    4.5232    3.6224    3.1801 C   0  0  0  0  0  0  0  0  0  0  0  0
    3.7852    4.7105    1.5193 H   0  0  0  0  0  0  0  0  0  0  0  0
    4.3146    4.2134    4.0841 H   0  0  0  0  0  0  0  0  0  0  0  0
    4.4530    2.5508    3.4185 H   0  0  0  0  0  0  0  0  0  0  0  0
    5.5362    3.8519    2.8179 H   0  0  0  0  0  0  0  0  0  0  0  0
 29 30  2  0  0  0  0
 27 29  1  0  0  0  0
 28 30  1  0  0  0  0
 24 27  2  0  0  0  0
 26 28  2  0  0  0  0
 22 23  2  0  0  0  0
 23 25  1  0  0  0  0
 22 24  1  0  0  0  0
 24 26  1  0  0  0  0
 21 22  1  0  0  0  0
 25 26  1  0  0  0  0
  1  3  1  0  0  0  0
  1  7  1  0  0  0  0
  1  2  2  0  0  0  0
 42 43  1  0  0  0  0
 43 51  1  0  0  0  0
 43 44  2  0  0  0  0
  8  9  1  0  0  0  0
  9 17  1  0  0  0  0
  9 10  2  0  0  0  0
 18 19  1  0  0  0  0
 19 41  1  0  0  0  0
 19 20  2  0  0  0  0
 42 45  1  0  0  0  0
  8 11  1  0  0  0  0
 51 52  1  0  0  0  0
 18 21  1  0  0  0  0
 41 42  1  0  0  0  0
  7  8  1  0  0  0  0
 17 18  1  0  0  0  0
 29 39  1  0  0  0  0
 30 40  1  0  0  0  0
 27 37  1  0  0  0  0
 28 38  1  0  0  0  0
 23 35  1  0  0  0  0
  3  4  1  0  0  0  0
  3  5  1  0  0  0  0
  3  6  1  0  0  0  0
 45 48  1  0  0  0  0
 45 49  1  0  0  0  0
 45 50  1  0  0  0  0
 11 14  1  0  0  0  0
 11 15  1  0  0  0  0
 11 16  1  0  0  0  0
 52 54  1  0  0  0  0
 52 55  1  0  0  0  0
 52 56  1  0  0  0  0
 21 33  1  0  0  0  0
 21 34  1  0  0  0  0
 42 47  1  0  0  0  0
  8 13  1  0  0  0  0
 18 32  1  0  0  0  0
 25 36  1  0  0  0  0
 51 53  1  0  0  0  0
  7 12  1  0  0  0  0
 41 46  1  0  0  0  0
 17 31  1  0  0  0  0
M  END
$$$$

  -OEChem-05262214473D

 56 57  0     1  0  0  0  0  0999 V2000
   -2.2900    0.3401    4.1553 C   0  0  0  0  0  0  0  0  0  0  0  0
   -1.3426   -0.2746    3.6796 O   0  0  0  0  0  0  0  0  0  0  0  0
   -2.7219    0.0577    5.5560 C   0  0  0  0  0  0  0  0  0  0  0  0
   -3.4815   -0.7386    5.6094 H   0  0  0  0  0  0  0  0  0  0  0  0
   -1.8906   -0.2899    6.1903 H   0  0  0  0  0  0  0  0  0  0  0  0
   -3.1599    0.9126    6.0956 H   0  0  0  0  0  0  0  0  0  0  0  0
   -3.0397    1.3125    3.5142 N   0  0  0  0  0  0  0  0  0  0  0  0
   -2.7928    1.7385    2.1618 C   0  0  2  0  0  0  0  0  0  0  0  0
   -1.4579    1.1532    1.7206 C   0  0  0  0  0  0  0  0  0  0  0  0
   -0.5858    0.8004    2.5118 O   0  0  0  0  0  0  0  0  0  0  0  0
   -2.7841    3.2553    2.0523 C   0  0  0  0  0  0  0  0  0  0  0  0
   -3.8047    1.7484    4.0260 H   0  0  0  0  0  0  0  0  0  0  0  0
   -3.5969    1.3201    1.5466 H   0  0  0  0  0  0  0  0  0  0  0  0
   -1.9850    3.6926    2.6620 H   0  0  0  0  0  0  0  0  0  0  0  0
   -2.6246    3.5776    1.0180 H   0  0  0  0  0  0  0  0  0  0  0  0
   -3.7342    3.6765    2.3981 H   0  0  0  0  0  0  0  0  0  0  0  0
   -1.3352    1.1101    0.3372 N   0  0  0  0  0  0  0  0  0  0  0  0
   -0.1579    0.6093   -0.3265 C   0  0  2  0  0  0  0  0  0  0  0  0
    1.0145    1.4755    0.1202 C   0  0  0  0  0  0  0  0  0  0  0  0
    2.1876    1.1715   -0.0855 O   0  0  0  0  0  0  0  0  0  0  0  0
   -0.2949    0.6439   -1.8530 C   0  0  0  0  0  0  0  0  0  0  0  0
   -1.3397   -0.3162   -2.3671 C   0  0  0  0  0  0  0  0  0  0  0  0
   -2.6402    0.0045   -2.6812 C   0  0  0  0  0  0  0  0  0  0  0  0
   -1.1641   -1.7062   -2.6161 C   0  0  0  0  0  0  0  0  0  0  0  0
   -3.2634   -1.1362   -3.1112 N   0  0  0  0  0  0  0  0  0  0  0  0
   -2.3859   -2.1966   -3.0820 C   0  0  0  0  0  0  0  0  0  0  0  0
   -0.0797   -2.5969   -2.4893 C   0  0  0  0  0  0  0  0  0  0  0  0
   -2.5782   -3.5386   -3.4290 C   0  0  0  0  0  0  0  0  0  0  0  0
   -0.2574   -3.9421   -2.8327 C   0  0  0  0  0  0  0  0  0  0  0  0
   -1.4883   -4.4035   -3.2951 C   0  0  0  0  0  0  0  0  0  0  0  0
   -2.1183    1.4068   -0.2401 H   0  0  0  0  0  0  0  0  0  0  0  0
   -0.0065   -0.4142    0.0361 H   0  0  0  0  0  0  0  0  0  0  0  0
    0.6720    0.4261   -2.3267 H   0  0  0  0  0  0  0  0  0  0  0  0
   -0.5601    1.6542   -2.1915 H   0  0  0  0  0  0  0  0  0  0  0  0
   -3.1792    0.9408   -2.6362 H   0  0  0  0  0  0  0  0  0  0  0  0
   -4.2280   -1.1925   -3.4076 H   0  0  0  0  0  0  0  0  0  0  0  0
    0.8858   -2.2530   -2.1295 H   0  0  0  0  0  0  0  0  0  0  0  0
   -3.5357   -3.8984   -3.7900 H   0  0  0  0  0  0  0  0  0  0  0  0
    0.5751   -4.6339   -2.7366 H   0  0  0  0  0  0  0  0  0  0  0  0
   -1.6041   -5.4523   -3.5562 H   0  0  0  0  0  0  0  0  0  0  0  0
    0.5913    2.6486    0.7295 N   0  0  0  0  0  0  0  0  0  0  0  0
    1.4994    3.6575    1.2254 C   0  0  2  0  0  0  0  0  0  0  0  0
    2.5402    2.9663    2.0963 C   0  0  0  0  0  0  0  0  0  0  0  0
    2.3514    1.8743    2.6284 O   0  0  0  0  0  0  0  0  0  0  0  0
    0.7600    4.7301    2.0100 C   0  0  0  0  0  0  0  0  0  0  0  0
   -0.4070    2.8059    0.8319 H   0  0  0  0  0  0  0  0  0  0  0  0
    1.9894    4.0994    0.3509 H   0  0  0  0  0  0  0  0  0  0  0  0
    0.2627    4.3062    2.8900 H   0  0  0  0  0  0  0  0  0  0  0  0
    1.4454    5.5087    2.3607 H   0  0  0  0  0  0  0  0  0  0  0  0
   -0.0084    5.2057    1.3910 H   0  0  0  0  0  0  0  0  0  0  0  0
    3.6883    3.7319    2.2446 N   0  0  0  0  0  0  0  0  0  0  0  0
    4.8170    3.2995    3.0353 C   0  0  0  0  0  0  0  0  0  0  0  0
    3.7660    4.6166    1.7518 H   0  0  0  0  0  0  0  0  0  0  0  0
    4.7151    3.6831    4.0612 H   0  0  0  0  0  0  0  0  0  0  0  0
    4.8499    2.2002    3.0566 H   0  0  0  0  0  0  0  0  0  0  0  0
    5.7458    3.6856    2.5901 H   0  0  0  0  0  0  0  0  0  0  0  0
 29 30  2  0  0  0  0
 27 29  1  0  0  0  0
 28 30  1  0  0  0  0
 24 27  2  0  0  0  0
 26 28  2  0  0  0  0
 22 23  2  0  0  0  0
 23 25  1  0  0  0  0
 22 24  1  0  0  0  0
 24 26  1  0  0  0  0
 21 22  1  0  0  0  0
 25 26  1  0  0  0  0
  1  3  1  0  0  0  0
  1  7  1  0  0  0  0
  1  2  2  0  0  0  0
 42 43  1  0  0  0  0
 43 51  1  0  0  0  0
 43 44  2  0  0  0  0
  8  9  1  0  0  0  0
  9 17  1  0  0  0  0
  9 10  2  0  0  0  0
 18 19  1  0  0  0  0
 19 41  1  0  0  0  0
 19 20  2  0  0  0  0
 42 45  1  0  0  0  0
  8 11  1  0  0  0  0
 51 52  1  0  0  0  0
 18 21  1  0  0  0  0
 41 42  1  0  0  0  0
  7  8  1  0  0  0  0
 17 18  1  0  0  0  0
 29 39  1  0  0  0  0
 30 40  1  0  0  0  0
 27 37  1  0  0  0  0
 28 38  1  0  0  0  0
 23 35  1  0  0  0  0
  3  4  1  0  0  0  0
  3  5  1  0  0  0  0
  3  6  1  0  0  0  0
 45 48  1  0  0  0  0
 45 49  1  0  0  0  0
 45 50  1  0  0  0  0
 11 14  1  0  0  0  0
 11 15  1  0  0  0  0
 11 16  1  0  0  0  0
 52 54  1  0  0  0  0
 52 55  1  0  0  0  0
 52 56  1  0  0  0  0
 21 33  1  0  0  0  0
 21 34  1  0  0  0  0
 42 47  1  0  0  0  0
  8 13  1  0  0  0  0
 18 32  1  0  0  0  0
 25 36  1  0  0  0  0
 51 53  1  0  0  0  0
  7 12  1  0  0  0  0
 41 46  1  0  0  0  0
 17 31  1  0  0  0  0
M  END
$$$$

  -OEChem-05262214473D

 56 57  0     1  0  0  0  0  0999 V2000
   -2.2900    0.3401    4.1553 C   0  0  0  0  0  0  0  0  0  0  0  0
   -1.3426   -0.2746    3.6796 O   0  0  0  0  0  0  0  0  0  0  0  0
   -2.7219    0.0577    5.5560 C   0  0  0  0  0  0  0  0  0  0  0  0
   -3.4815   -0.7386    5.6094 H   0  0  0  0  0  0  0  0  0  0  0  0
   -1.8906   -0.2899    6.1903 H   0  0  0  0  0  0  0  0  0  0  0  0
   -3.1599    0.9126    6.0956 H   0  0  0  0  0  0  0  0  0  0  0  0
   -3.0397    1.3125    3.5142 N   0  0  0  0  0  0  0  0  0  0  0  0
   -2.7928    1.7385    2.1618 C   0  0  2  0  0  0  0  0  0  0  0  0
   -1.4579    1.1532    1.7206 C   0  0  0  0  0  0  0  0  0  0  0  0
   -0.5858    0.8004    2.5118 O   0  0  0  0  0  0  0  0  0  0  0  0
   -2.7841    3.2553    2.0523 C   0  0  0  0  0  0  0  0  0  0  0  0
   -3.8047    1.7484    4.0260 H   0  0  0  0  0  0  0  0  0  0  0  0
   -3.5969    1.3201    1.5466 H   0  0  0  0  0  0  0  0  0  0  0  0
   -1.9850    3.6926    2.6620 H   0  0  0  0  0  0  0  0  0  0  0  0
   -2.6246    3.5776    1.0180 H   0  0  0  0  0  0  0  0  0  0  0  0
   -3.7342    3.6765    2.3981 H   0  0  0  0  0  0  0  0  0  0  0  0
   -1.3352    1.1101    0.3372 N   0  0  0  0  0  0  0  0  0  0  0  0
   -0.1579    0.6093   -0.3265 C   0  0  2  0  0  0  0  0  0  0  0  0
    1.0145    1.4755    0.1202 C   0  0  0  0  0  0  0  0  0  0  0  0
    2.1579    1.3247   -0.3049 O   0  0  0  0  0  0  0  0  0  0  0  0
   -0.2949    0.6439   -1.8530 C   0  0  0  0  0  0  0  0  0  0  0  0
   -1.3397   -0.3162   -2.3671 C   0  0  0  0  0  0  0  0  0  0  0  0
   -2.6402    0.0045   -2.6812 C   0  0  0  0  0  0  0  0  0  0  0  0
   -1.1641   -1.7062   -2.6161 C   0  0  0  0  0  0  0  0  0  0  0  0
   -3.2634   -1.1362   -3.1112 N   0  0  0  0  0  0  0  0  0  0  0  0
   -2.3859   -2.1966   -3.0820 C   0  0  0  0  0  0  0  0  0  0  0  0
   -0.0797   -2.5969   -2.4893 C   0  0  0  0  0  0  0  0  0  0  0  0
   -2.5782   -3.5386   -3.4290 C   0  0  0  0  0  0  0  0  0  0  0  0
   -0.2574   -3.9421   -2.8327 C   0  0  0  0  0  0  0  0  0  0  0  0
   -1.4883   -4.4035   -3.2951 C   0  0  0  0  0  0  0  0  0  0  0  0
   -2.1183    1.4068   -0.2401 H   0  0  0  0  0  0  0  0  0  0  0  0
   -0.0065   -0.4142    0.0361 H   0  0  0  0  0  0  0  0  0  0  0  0
    0.6720    0.4261   -2.3267 H   0  0  0  0  0  0  0  0  0  0  0  0
   -0.5601    1.6542   -2.1915 H   0  0  0  0  0  0  0  0  0  0  0  0
   -3.1792    0.9408   -2.6362 H   0  0  0  0  0  0  0  0  0  0  0  0
   -4.2280   -1.1925   -3.4076 H   0  0  0  0  0  0  0  0  0  0  0  0
    0.8858   -2.2530   -2.1295 H   0  0  0  0  0  0  0  0  0  0  0  0
   -3.5357   -3.8984   -3.7900 H   0  0  0  0  0  0  0  0  0  0  0  0
    0.5751   -4.6339   -2.7366 H   0  0  0  0  0  0  0  0  0  0  0  0
   -1.6041   -5.4523   -3.5562 H   0  0  0  0  0  0  0  0  0  0  0  0
    0.6199    2.4653    1.0096 N   0  0  0  0  0  0  0  0  0  0  0  0
    1.5307    3.4375    1.5701 C   0  0  2  0  0  0  0  0  0  0  0  0
    2.7339    2.6882    2.1272 C   0  0  0  0  0  0  0  0  0  0  0  0
    2.6965    1.5014    2.4456 O   0  0  0  0  0  0  0  0  0  0  0  0
    0.8576    4.2665    2.6528 C   0  0  0  0  0  0  0  0  0  0  0  0
   -0.3581    2.5086    1.2802 H   0  0  0  0  0  0  0  0  0  0  0  0
    1.8516    4.0827    0.7450 H   0  0  0  0  0  0  0  0  0  0  0  0
    0.5292    3.6371    3.4880 H   0  0  0  0  0  0  0  0  0  0  0  0
    1.5403    5.0215    3.0565 H   0  0  0  0  0  0  0  0  0  0  0  0
   -0.0248    4.7811    2.2575 H   0  0  0  0  0  0  0  0  0  0  0  0
    3.8423    3.5116    2.2676 N   0  0  0  0  0  0  0  0  0  0  0  0
    5.1039    3.0387    2.7879 C   0  0  0  0  0  0  0  0  0  0  0  0
    3.7887    4.4783    1.9605 H   0  0  0  0  0  0  0  0  0  0  0  0
    5.1388    3.2059    3.8745 H   0  0  0  0  0  0  0  0  0  0  0  0
    5.2067    1.9636    2.5789 H   0  0  0  0  0  0  0  0  0  0  0  0
    5.9274    3.5863    2.3061 H   0  0  0  0  0  0  0  0  0  0  0  0
 29 30  2  0  0  0  0
 27 29  1  0  0  0  0
 28 30  1  0  0  0  0
 24 27  2  0  0  0  0
 26 28  2  0  0  0  0
 22 23  2  0  0  0  0
 23 25  1  0  0  0  0
 22 24  1  0  0  0  0
 24 26  1  0  0  0  0
 21 22  1  0  0  0  0
 25 26  1  0  0  0  0
  1  3  1  0  0  0  0
  1  7  1  0  0  0  0
  1  2  2  0  0  0  0
 42 43  1  0  0  0  0
 43 51  1  0  0  0  0
 43 44  2  0  0  0  0
  8  9  1  0  0  0  0
  9 17  1  0  0  0  0
  9 10  2  0  0  0  0
 18 19  1  0  0  0  0
 19 41  1  0  0  0  0
 19 20  2  0  0  0  0
 42 45  1  0  0  0  0
  8 11  1  0  0  0  0
 51 52  1  0  0  0  0
 18 21  1  0  0  0  0
 41 42  1  0  0  0  0
  7  8  1  0  0  0  0
 17 18  1  0  0  0  0
 29 39  1  0  0  0  0
 30 40  1  0  0  0  0
 27 37  1  0  0  0  0
 28 38  1  0  0  0  0
 23 35  1  0  0  0  0
  3  4  1  0  0  0  0
  3  5  1  0  0  0  0
  3  6  1  0  0  0  0
 45 48  1  0  0  0  0
 45 49  1  0  0  0  0
 45 50  1  0  0  0  0
 11 14  1  0  0  0  0
 11 15  1  0  0  0  0
 11 16  1  0  0  0  0
 52 54  1  0  0  0  0
 52 55  1  0  0  0  0
 52 56  1  0  0  0  0
 21 33  1  0  0  0  0
 21 34  1  0  0  0  0
 42 47  1  0  0  0  0
  8 13  1  0  0  0  0
 18 32  1  0  0  0  0
 25 36  1  0  0  0  0
 51 53  1  0  0  0  0
  7 12  1  0  0  0  0
 41 46  1  0  0  0  0
 17 31  1  0  0  0  0
M  END
$$$$

  -OEChem-05262214473D

 56 57  0     1  0  0  0  0  0999 V2000
   -2.2900    0.3401    4.1553 C   0  0  0  0  0  0  0  0  0  0  0  0
   -1.3426   -0.2746    3.6796 O   0  0  0  0  0  0  0  0  0  0  0  0
   -2.7219    0.0577    5.5560 C   0  0  0  0  0  0  0  0  0  0  0  0
   -3.4815   -0.7386    5.6094 H   0  0  0  0  0  0  0  0  0  0  0  0
   -1.8906   -0.2899    6.1903 H   0  0  0  0  0  0  0  0  0  0  0  0
   -3.1599    0.9126    6.0956 H   0  0  0  0  0  0  0  0  0  0  0  0
   -3.0397    1.3125    3.5142 N   0  0  0  0  0  0  0  0  0  0  0  0
   -2.7928    1.7385    2.1618 C   0  0  2  0  0  0  0  0  0  0  0  0
   -1.4579    1.1532    1.7206 C   0  0  0  0  0  0  0  0  0  0  0  0
   -0.5858    0.8004    2.5118 O   0  0  0  0  0  0  0  0  0  0  0  0
   -2.7841    3.2553    2.0523 C   0  0  0  0  0  0  0  0  0  0  0  0
   -3.8047    1.7484    4.0260 H   0  0  0  0  0  0  0  0  0  0  0  0
   -3.5969    1.3201    1.5466 H   0  0  0  0  0  0  0  0  0  0  0  0
   -1.9850    3.6926    2.6620 H   0  0  0  0  0  0  0  0  0  0  0  0
   -2.6246    3.5776    1.0180 H   0  0  0  0  0  0  0  0  0  0  0  0
   -3.7342    3.6765    2.3981 H   0  0  0  0  0  0  0  0  0  0  0  0
   -1.3352    1.1101    0.3372 N   0  0  0  0  0  0  0  0  0  0  0  0
   -0.1579    0.6093   -0.3265 C   0  0  2  0  0  0  0  0  0  0  0  0
    1.0145    1.4755    0.1202 C   0  0  0  0  0  0  0  0  0  0  0  0
    2.0854    1.5141   -0.4819 O   0  0  0  0  0  0  0  0  0  0  0  0
   -0.2949    0.6439   -1.8530 C   0  0  0  0  0  0  0  0  0  0  0  0
   -1.3397   -0.3162   -2.3671 C   0  0  0  0  0  0  0  0  0  0  0  0
   -2.6402    0.0045   -2.6812 C   0  0  0  0  0  0  0  0  0  0  0  0
   -1.1641   -1.7062   -2.6161 C   0  0  0  0  0  0  0  0  0  0  0  0
   -3.2634   -1.1362   -3.1112 N   0  0  0  0  0  0  0  0  0  0  0  0
   -2.3859   -2.1966   -3.0820 C   0  0  0  0  0  0  0  0  0  0  0  0
   -0.0797   -2.5969   -2.4893 C   0  0  0  0  0  0  0  0  0  0  0  0
   -2.5782   -3.5386   -3.4290 C   0  0  0  0  0  0  0  0  0  0  0  0
   -0.2574   -3.9421   -2.8327 C   0  0  0  0  0  0  0  0  0  0  0  0
   -1.4883   -4.4035   -3.2951 C   0  0  0  0  0  0  0  0  0  0  0  0
   -2.1183    1.4068   -0.2401 H   0  0  0  0  0  0  0  0  0  0  0  0
   -0.0065   -0.4142    0.0361 H   0  0  0  0  0  0  0  0  0  0  0  0
    0.6720    0.4261   -2.3267 H   0  0  0  0  0  0  0  0  0  0  0  0
   -0.5601    1.6542   -2.1915 H   0  0  0  0  0  0  0  0  0  0  0  0
   -3.1792    0.9408   -2.6362 H   0  0  0  0  0  0  0  0  0  0  0  0
   -4.2280   -1.1925   -3.4076 H   0  0  0  0  0  0  0  0  0  0  0  0
    0.8858   -2.2530   -2.1295 H   0  0  0  0  0  0  0  0  0  0  0  0
   -3.5357   -3.8984   -3.7900 H   0  0  0  0  0  0  0  0  0  0  0  0
    0.5751   -4.6339   -2.7366 H   0  0  0  0  0  0  0  0  0  0  0  0
   -1.6041   -5.4523   -3.5562 H   0  0  0  0  0  0  0  0  0  0  0  0
    0.7027    2.2347    1.2395 N   0  0  0  0  0  0  0  0  0  0  0  0
    1.6283    3.1587    1.8546 C   0  0  2  0  0  0  0  0  0  0  0  0
    2.9466    2.4281    2.0733 C   0  0  0  0  0  0  0  0  0  0  0  0
    3.0313    1.2038    2.1440 O   0  0  0  0  0  0  0  0  0  0  0  0
    1.0815    3.6981    3.1671 C   0  0  0  0  0  0  0  0  0  0  0  0
   -0.2225    2.1359    1.6469 H   0  0  0  0  0  0  0  0  0  0  0  0
    1.7777    3.9777    1.1426 H   0  0  0  0  0  0  0  0  0  0  0  0
    0.9253    2.8920    3.8932 H   0  0  0  0  0  0  0  0  0  0  0  0
    1.7712    4.4196    3.6176 H   0  0  0  0  0  0  0  0  0  0  0  0
    0.1189    4.1973    3.0125 H   0  0  0  0  0  0  0  0  0  0  0  0
    4.0111    3.3059    2.2234 N   0  0  0  0  0  0  0  0  0  0  0  0
    5.3645    2.8578    2.4548 C   0  0  0  0  0  0  0  0  0  0  0  0
    3.8518    4.3048    2.1312 H   0  0  0  0  0  0  0  0  0  0  0  0
    5.5569    2.8142    3.5370 H   0  0  0  0  0  0  0  0  0  0  0  0
    5.4990    1.8573    2.0180 H   0  0  0  0  0  0  0  0  0  0  0  0
    6.0686    3.5606    1.9854 H   0  0  0  0  0  0  0  0  0  0  0  0
 29 30  2  0  0  0  0
 27 29  1  0  0  0  0
 28 30  1  0  0  0  0
 24 27  2  0  0  0  0
 26 28  2  0  0  0  0
 22 23  2  0  0  0  0
 23 25  1  0  0  0  0
 22 24  1  0  0  0  0
 24 26  1  0  0  0  0
 21 22  1  0  0  0  0
 25 26  1  0  0  0  0
  1  3  1  0  0  0  0
  1  7  1  0  0  0  0
  1  2  2  0  0  0  0
 42 43  1  0  0  0  0
 43 51  1  0  0  0  0
 43 44  2  0  0  0  0
  8  9  1  0  0  0  0
  9 17  1  0  0  0  0
  9 10  2  0  0  0  0
 18 19  1  0  0  0  0
 19 41  1  0  0  0  0
 19 20  2  0  0  0  0
 42 45  1  0  0  0  0
  8 11  1  0  0  0  0
 51 52  1  0  0  0  0
 18 21  1  0  0  0  0
 41 42  1  0  0  0  0
  7  8  1  0  0  0  0
 17 18  1  0  0  0  0
 29 39  1  0  0  0  0
 30 40  1  0  0  0  0
 27 37  1  0  0  0  0
 28 38  1  0  0  0  0
 23 35  1  0  0  0  0
  3  4  1  0  0  0  0
  3  5  1  0  0  0  0
  3  6  1  0  0  0  0
 45 48  1  0  0  0  0
 45 49  1  0  0  0  0
 45 50  1  0  0  0  0
 11 14  1  0  0  0  0
 11 15  1  0  0  0  0
 11 16  1  0  0  0  0
 52 54  1  0  0  0  0
 52 55  1  0  0  0  0
 52 56  1  0  0  0  0
 21 33  1  0  0  0  0
 21 34  1  0  0  0  0
 42 47  1  0  0  0  0
  8 13  1  0  0  0  0
 18 32  1  0  0  0  0
 25 36  1  0  0  0  0
 51 53  1  0  0  0  0
  7 12  1  0  0  0  0
 41 46  1  0  0  0  0
 17 31  1  0  0  0  0
M  END
$$$$

  -OEChem-05262214473D

 56 57  0     1  0  0  0  0  0999 V2000
   -2.2900    0.3401    4.1553 C   0  0  0  0  0  0  0  0  0  0  0  0
   -1.3426   -0.2746    3.6796 O   0  0  0  0  0  0  0  0  0  0  0  0
   -2.7219    0.0577    5.5560 C   0  0  0  0  0  0  0  0  0  0  0  0
   -3.4815   -0.7386    5.6094 H   0  0  0  0  0  0  0  0  0  0  0  0
   -1.8906   -0.2899    6.1903 H   0  0  0  0  0  0  0  0  0  0  0  0
   -3.1599    0.9126    6.0956 H   0  0  0  0  0  0  0  0  0  0  0  0
   -3.0397    1.3125    3.5142 N   0  0  0  0  0  0  0  0  0  0  0  0
   -2.7928    1.7385    2.1618 C   0  0  2  0  0  0  0  0  0  0  0  0
   -1.4579    1.1532    1.7206 C   0  0  0  0  0  0  0  0  0  0  0  0
   -0.5858    0.8004    2.5118 O   0  0  0  0  0  0  0  0  0  0  0  0
   -2.7841    3.2553    2.0523 C   0  0  0  0  0  0  0  0  0  0  0  0
   -3.8047    1.7484    4.0260 H   0  0  0  0  0  0  0  0  0  0  0  0
   -3.5969    1.3201    1.5466 H   0  0  0  0  0  0  0  0  0  0  0  0
   -1.9850    3.6926    2.6620 H   0  0  0  0  0  0  0  0  0  0  0  0
   -2.6246    3.5776    1.0180 H   0  0  0  0  0  0  0  0  0  0  0  0
   -3.7342    3.6765    2.3981 H   0  0  0  0  0  0  0  0  0  0  0  0
   -1.3352    1.1101    0.3372 N   0  0  0  0  0  0  0  0  0  0  0  0
   -0.1579    0.6093   -0.3265 C   0  0  2  0  0  0  0  0  0  0  0  0
    1.0145    1.4755    0.1202 C   0  0  0  0  0  0  0  0  0  0  0  0
    1.9750    1.7268   -0.6045 O   0  0  0  0  0  0  0  0  0  0  0  0
   -0.2949    0.6439   -1.8530 C   0  0  0  0  0  0  0  0  0  0  0  0
   -1.3397   -0.3162   -2.3671 C   0  0  0  0  0  0  0  0  0  0  0  0
   -2.6402    0.0045   -2.6812 C   0  0  0  0  0  0  0  0  0  0  0  0
   -1.1641   -1.7062   -2.6161 C   0  0  0  0  0  0  0  0  0  0  0  0
   -3.2634   -1.1362   -3.1112 N   0  0  0  0  0  0  0  0  0  0  0  0
   -2.3859   -2.1966   -3.0820 C   0  0  0  0  0  0  0  0  0  0  0  0
   -0.0797   -2.5969   -2.4893 C   0  0  0  0  0  0  0  0  0  0  0  0
   -2.5782   -3.5386   -3.4290 C   0  0  0  0  0  0  0  0  0  0  0  0
   -0.2574   -3.9421   -2.8327 C   0  0  0  0  0  0  0  0  0  0  0  0
   -1.4883   -4.4035   -3.2951 C   0  0  0  0  0  0  0  0  0  0  0  0
   -2.1183    1.4068   -0.2401 H   0  0  0  0  0  0  0  0  0  0  0  0
   -0.0065   -0.4142    0.0361 H   0  0  0  0  0  0  0  0  0  0  0  0
    0.6720    0.4261   -2.3267 H   0  0  0  0  0  0  0  0  0  0  0  0
   -0.5601    1.6542   -2.1915 H   0  0  0  0  0  0  0  0  0  0  0  0
   -3.1792    0.9408   -2.6362 H   0  0  0  0  0  0  0  0  0  0  0  0
   -4.2280   -1.1925   -3.4076 H   0  0  0  0  0  0  0  0  0  0  0  0
    0.8858   -2.2530   -2.1295 H   0  0  0  0  0  0  0  0  0  0  0  0
   -3.5357   -3.8984   -3.7900 H   0  0  0  0  0  0  0  0  0  0  0  0
    0.5751   -4.6339   -2.7366 H   0  0  0  0  0  0  0  0  0  0  0  0
   -1.6041   -5.4523   -3.5562 H   0  0  0  0  0  0  0  0  0  0  0  0
    0.8340    1.9725    1.4035 N   0  0  0  0  0  0  0  0  0  0  0  0
    1.7855    2.8402    2.0596 C   0  0  2  0  0  0  0  0  0  0  0  0
    3.1639    2.2037    1.9382 C   0  0  0  0  0  0  0  0  0  0  0  0
    3.3330    1.0017    1.7443 O   0  0  0  0  0  0  0  0  0  0  0  0
    1.4166    3.0638    3.5178 C   0  0  0  0  0  0  0  0  0  0  0  0
   -0.0093    1.7133    1.9069 H   0  0  0  0  0  0  0  0  0  0  0  0
    1.7728    3.7915    1.5165 H   0  0  0  0  0  0  0  0  0  0  0  0
    1.4240    2.1217    4.0781 H   0  0  0  0  0  0  0  0  0  0  0  0
    2.1224    3.7441    4.0058 H   0  0  0  0  0  0  0  0  0  0  0  0
    0.4130    3.4940    3.6044 H   0  0  0  0  0  0  0  0  0  0  0  0
    4.1832    3.1288    2.1149 N   0  0  0  0  0  0  0  0  0  0  0  0
    5.5809    2.7691    2.0588 C   0  0  0  0  0  0  0  0  0  0  0  0
    3.9510    4.1081    2.2523 H   0  0  0  0  0  0  0  0  0  0  0  0
    5.9407    2.5347    3.0715 H   0  0  0  0  0  0  0  0  0  0  0  0
    5.7070    1.8883    1.4120 H   0  0  0  0  0  0  0  0  0  0  0  0
    6.1597    3.6103    1.6497 H   0  0  0  0  0  0  0  0  0  0  0  0
 29 30  2  0  0  0  0
 27 29  1  0  0  0  0
 28 30  1  0  0  0  0
 24 27  2  0  0  0  0
 26 28  2  0  0  0  0
 22 23  2  0  0  0  0
 23 25  1  0  0  0  0
 22 24  1  0  0  0  0
 24 26  1  0  0  0  0
 21 22  1  0  0  0  0
 25 26  1  0  0  0  0
  1  3  1  0  0  0  0
  1  7  1  0  0  0  0
  1  2  2  0  0  0  0
 42 43  1  0  0  0  0
 43 51  1  0  0  0  0
 43 44  2  0  0  0  0
  8  9  1  0  0  0  0
  9 17  1  0  0  0  0
  9 10  2  0  0  0  0
 18 19  1  0  0  0  0
 19 41  1  0  0  0  0
 19 20  2  0  0  0  0
 42 45  1  0  0  0  0
  8 11  1  0  0  0  0
 51 52  1  0  0  0  0
 18 21  1  0  0  0  0
 41 42  1  0  0  0  0
  7  8  1  0  0  0  0
 17 18  1  0  0  0  0
 29 39  1  0  0  0  0
 30 40  1  0  0  0  0
 27 37  1  0  0  0  0
 28 38  1  0  0  0  0
 23 35  1  0  0  0  0
  3  4  1  0  0  0  0
  3  5  1  0  0  0  0
  3  6  1  0  0  0  0
 45 48  1  0  0  0  0
 45 49  1  0  0  0  0
 45 50  1  0  0  0  0
 11 14  1  0  0  0  0
 11 15  1  0  0  0  0
 11 16  1  0  0  0  0
 52 54  1  0  0  0  0
 52 55  1  0  0  0  0
 52 56  1  0  0  0  0
 21 33  1  0  0  0  0
 21 34  1  0  0  0  0
 42 47  1  0  0  0  0
  8 13  1  0  0  0  0
 18 32  1  0  0  0  0
 25 36  1  0  0  0  0
 51 53  1  0  0  0  0
  7 12  1  0  0  0  0
 41 46  1  0  0  0  0
 17 31  1  0  0  0  0
M  END
$$$$

  -OEChem-05262214473D

 56 57  0     1  0  0  0  0  0999 V2000
   -2.2900    0.3401    4.1553 C   0  0  0  0  0  0  0  0  0  0  0  0
   -1.3426   -0.2746    3.6796 O   0  0  0  0  0  0  0  0  0  0  0  0
   -2.7219    0.0577    5.5560 C   0  0  0  0  0  0  0  0  0  0  0  0
   -3.4815   -0.7386    5.6094 H   0  0  0  0  0  0  0  0  0  0  0  0
   -1.8906   -0.2899    6.1903 H   0  0  0  0  0  0  0  0  0  0  0  0
   -3.1599    0.9126    6.0956 H   0  0  0  0  0  0  0  0  0  0  0  0
   -3.0397    1.3125    3.5142 N   0  0  0  0  0  0  0  0  0  0  0  0
   -2.7928    1.7385    2.1618 C   0  0  2  0  0  0  0  0  0  0  0  0
   -1.4579    1.1532    1.7206 C   0  0  0  0  0  0  0  0  0  0  0  0
   -0.5858    0.8004    2.5118 O   0  0  0  0  0  0  0  0  0  0  0  0
   -2.7841    3.2553    2.0523 C   0  0  0  0  0  0  0  0  0  0  0  0
   -3.8047    1.7484    4.0260 H   0  0  0  0  0  0  0  0  0  0  0  0
   -3.5969    1.3201    1.5466 H   0  0  0  0  0  0  0  0  0  0  0  0
   -1.9850    3.6926    2.6620 H   0  0  0  0  0  0  0  0  0  0  0  0
   -2.6246    3.5776    1.0180 H   0  0  0  0  0  0  0  0  0  0  0  0
   -3.7342    3.6765    2.3981 H   0  0  0  0  0  0  0  0  0  0  0  0
   -1.3352    1.1101    0.3372 N   0  0  0  0  0  0  0  0  0  0  0  0
   -0.1579    0.6093   -0.3265 C   0  0  2  0  0  0  0  0  0  0  0  0
    1.0145    1.4755    0.1202 C   0  0  0  0  0  0  0  0  0  0  0  0
    1.8342    1.9482   -0.6643 O   0  0  0  0  0  0  0  0  0  0  0  0
   -0.2949    0.6439   -1.8530 C   0  0  0  0  0  0  0  0  0  0  0  0
   -1.3397   -0.3162   -2.3671 C   0  0  0  0  0  0  0  0  0  0  0  0
   -2.6402    0.0045   -2.6812 C   0  0  0  0  0  0  0  0  0  0  0  0
   -1.1641   -1.7062   -2.6161 C   0  0  0  0  0  0  0  0  0  0  0  0
   -3.2634   -1.1362   -3.1112 N   0  0  0  0  0  0  0  0  0  0  0  0
   -2.3859   -2.1966   -3.0820 C   0  0  0  0  0  0  0  0  0  0  0  0
   -0.0797   -2.5969   -2.4893 C   0  0  0  0  0  0  0  0  0  0  0  0
   -2.5782   -3.5386   -3.4290 C   0  0  0  0  0  0  0  0  0  0  0  0
   -0.2574   -3.9421   -2.8327 C   0  0  0  0  0  0  0  0  0  0  0  0
   -1.4883   -4.4035   -3.2951 C   0  0  0  0  0  0  0  0  0  0  0  0
   -2.1183    1.4068   -0.2401 H   0  0  0  0  0  0  0  0  0  0  0  0
   -0.0065   -0.4142    0.0361 H   0  0  0  0  0  0  0  0  0  0  0  0
    0.6720    0.4261   -2.3267 H   0  0  0  0  0  0  0  0  0  0  0  0
   -0.5601    1.6542   -2.1915 H   0  0  0  0  0  0  0  0  0  0  0  0
   -3.1792    0.9408   -2.6362 H   0  0  0  0  0  0  0  0  0  0  0  0
   -4.2280   -1.1925   -3.4076 H   0  0  0  0  0  0  0  0  0  0  0  0
    0.8858   -2.2530   -2.1295 H   0  0  0  0  0  0  0  0  0  0  0  0
   -3.5357   -3.8984   -3.7900 H   0  0  0  0  0  0  0  0  0  0  0  0
    0.5751   -4.6339   -2.7366 H   0  0  0  0  0  0  0  0  0  0  0  0
   -1.6041   -5.4523   -3.5562 H   0  0  0  0  0  0  0  0  0  0  0  0
    1.0048    1.6965    1.4904 N   0  0  0  0  0  0  0  0  0  0  0  0
    1.9917    2.5036    2.1710 C   0  0  2  0  0  0  0  0  0  0  0  0
    3.3708    2.0304    1.7311 C   0  0  0  0  0  0  0  0  0  0  0  0
    3.5808    0.9089    1.2736 O   0  0  0  0  0  0  0  0  0  0  0  0
    1.8399    2.4067    3.6811 C   0  0  0  0  0  0  0  0  0  0  0  0
    0.2669    1.2694    2.0426 H   0  0  0  0  0  0  0  0  0  0  0  0
    1.8372    3.5368    1.8414 H   0  0  0  0  0  0  0  0  0  0  0  0
    1.9913    1.3786    4.0300 H   0  0  0  0  0  0  0  0  0  0  0  0
    2.5699    3.0409    4.1948 H   0  0  0  0  0  0  0  0  0  0  0  0
    0.8375    2.7192    3.9929 H   0  0  0  0  0  0  0  0  0  0  0  0
    4.3470    2.9924    1.9496 N   0  0  0  0  0  0  0  0  0  0  0  0
    5.7384    2.7787    1.6267 C   0  0  0  0  0  0  0  0  0  0  0  0
    4.0796    3.9015    2.3155 H   0  0  0  0  0  0  0  0  0  0  0  0
    6.2642    2.3865    2.5098 H   0  0  0  0  0  0  0  0  0  0  0  0
    5.8163    2.0547    0.8022 H   0  0  0  0  0  0  0  0  0  0  0  0
    6.1946    3.7321    1.3219 H   0  0  0  0  0  0  0  0  0  0  0  0
 29 30  2  0  0  0  0
 27 29  1  0  0  0  0
 28 30  1  0  0  0  0
 24 27  2  0  0  0  0
 26 28  2  0  0  0  0
 22 23  2  0  0  0  0
 23 25  1  0  0  0  0
 22 24  1  0  0  0  0
 24 26  1  0  0  0  0
 21 22  1  0  0  0  0
 25 26  1  0  0  0  0
  1  3  1  0  0  0  0
  1  7  1  0  0  0  0
  1  2  2  0  0  0  0
 42 43  1  0  0  0  0
 43 51  1  0  0  0  0
 43 44  2  0  0  0  0
  8  9  1  0  0  0  0
  9 17  1  0  0  0  0
  9 10  2  0  0  0  0
 18 19  1  0  0  0  0
 19 41  1  0  0  0  0
 19 20  2  0  0  0  0
 42 45  1  0  0  0  0
  8 11  1  0  0  0  0
 51 52  1  0  0  0  0
 18 21  1  0  0  0  0
 41 42  1  0  0  0  0
  7  8  1  0  0  0  0
 17 18  1  0  0  0  0
 29 39  1  0  0  0  0
 30 40  1  0  0  0  0
 27 37  1  0  0  0  0
 28 38  1  0  0  0  0
 23 35  1  0  0  0  0
  3  4  1  0  0  0  0
  3  5  1  0  0  0  0
  3  6  1  0  0  0  0
 45 48  1  0  0  0  0
 45 49  1  0  0  0  0
 45 50  1  0  0  0  0
 11 14  1  0  0  0  0
 11 15  1  0  0  0  0
 11 16  1  0  0  0  0
 52 54  1  0  0  0  0
 52 55  1  0  0  0  0
 52 56  1  0  0  0  0
 21 33  1  0  0  0  0
 21 34  1  0  0  0  0
 42 47  1  0  0  0  0
  8 13  1  0  0  0  0
 18 32  1  0  0  0  0
 25 36  1  0  0  0  0
 51 53  1  0  0  0  0
  7 12  1  0  0  0  0
 41 46  1  0  0  0  0
 17 31  1  0  0  0  0
M  END
$$$$

  -OEChem-05262214473D

 56 57  0     1  0  0  0  0  0999 V2000
   -2.2900    0.3401    4.1553 C   0  0  0  0  0  0  0  0  0  0  0  0
   -1.3426   -0.2746    3.6796 O   0  0  0  0  0  0  0  0  0  0  0  0
   -2.7219    0.0577    5.5560 C   0  0  0  0  0  0  0  0  0  0  0  0
   -3.4815   -0.7386    5.6094 H   0  0  0  0  0  0  0  0  0  0  0  0
   -1.8906   -0.2899    6.1903 H   0  0  0  0  0  0  0  0  0  0  0  0
   -3.1599    0.9126    6.0956 H   0  0  0  0  0  0  0  0  0  0  0  0
   -3.0397    1.3125    3.5142 N   0  0  0  0  0  0  0  0  0  0  0  0
   -2.7928    1.7385    2.1618 C   0  0  2  0  0  0  0  0  0  0  0  0
   -1.4579    1.1532    1.7206 C   0  0  0  0  0  0  0  0  0  0  0  0
   -0.5858    0.8004    2.5118 O   0  0  0  0  0  0  0  0  0  0  0  0
   -2.7841    3.2553    2.0523 C   0  0  0  0  0  0  0  0  0  0  0  0
   -3.8047    1.7484    4.0260 H   0  0  0  0  0  0  0  0  0  0  0  0
   -3.5969    1.3201    1.5466 H   0  0  0  0  0  0  0  0  0  0  0  0
   -1.9850    3.6926    2.6620 H   0  0  0  0  0  0  0  0  0  0  0  0
   -2.6246    3.5776    1.0180 H   0  0  0  0  0  0  0  0  0  0  0  0
   -3.7342    3.6765    2.3981 H   0  0  0  0  0  0  0  0  0  0  0  0
   -1.3352    1.1101    0.3372 N   0  0  0  0  0  0  0  0  0  0  0  0
   -0.1579    0.6093   -0.3265 C   0  0  2  0  0  0  0  0  0  0  0  0
    1.0145    1.4755    0.1202 C   0  0  0  0  0  0  0  0  0  0  0  0
    1.6726    2.1634   -0.6574 O   0  0  0  0  0  0  0  0  0  0  0  0
   -0.2949    0.6439   -1.8530 C   0  0  0  0  0  0  0  0  0  0  0  0
   -1.3397   -0.3162   -2.3671 C   0  0  0  0  0  0  0  0  0  0  0  0
   -2.6402    0.0045   -2.6812 C   0  0  0  0  0  0  0  0  0  0  0  0
   -1.1641   -1.7062   -2.6161 C   0  0  0  0  0  0  0  0  0  0  0  0
   -3.2634   -1.1362   -3.1112 N   0  0  0  0  0  0  0  0  0  0  0  0
   -2.3859   -2.1966   -3.0820 C   0  0  0  0  0  0  0  0  0  0  0  0
   -0.0797   -2.5969   -2.4893 C   0  0  0  0  0  0  0  0  0  0  0  0
   -2.5782   -3.5386   -3.4290 C   0  0  0  0  0  0  0  0  0  0  0  0
   -0.2574   -3.9421   -2.8327 C   0  0  0  0  0  0  0  0  0  0  0  0
   -1.4883   -4.4035   -3.2951 C   0  0  0  0  0  0  0  0  0  0  0  0
   -2.1183    1.4068   -0.2401 H   0  0  0  0  0  0  0  0  0  0  0  0
   -0.0065   -0.4142    0.0361 H   0  0  0  0  0  0  0  0  0  0  0  0
    0.6720    0.4261   -2.3267 H   0  0  0  0  0  0  0  0  0  0  0  0
   -0.5601    1.6542   -2.1915 H   0  0  0  0  0  0  0  0  0  0  0  0
   -3.1792    0.9408   -2.6362 H   0  0  0  0  0  0  0  0  0  0  0  0
   -4.2280   -1.1925   -3.4076 H   0  0  0  0  0  0  0  0  0  0  0  0
    0.8858   -2.2530   -2.1295 H   0  0  0  0  0  0  0  0  0  0  0  0
   -3.5357   -3.8984   -3.7900 H   0  0  0  0  0  0  0  0  0  0  0  0
    0.5751   -4.6339   -2.7366 H   0  0  0  0  0  0  0  0  0  0  0  0
   -1.6041   -5.4523   -3.5562 H   0  0  0  0  0  0  0  0  0  0  0  0
    1.2035    1.4256    1.4943 N   0  0  0  0  0  0  0  0  0  0  0  0
    2.2328    2.1720    2.1814 C   0  0  2  0  0  0  0  0  0  0  0  0
    3.5535    1.9199    1.4661 C   0  0  0  0  0  0  0  0  0  0  0  0
    3.7581    0.9318    0.7640 O   0  0  0  0  0  0  0  0  0  0  0  0
    2.3227    1.7715    3.6457 C   0  0  0  0  0  0  0  0  0  0  0  0
    0.5873    0.8347    2.0447 H   0  0  0  0  0  0  0  0  0  0  0  0
    1.9664    3.2311    2.0951 H   0  0  0  0  0  0  0  0  0  0  0  0
    2.5886    0.7135    3.7522 H   0  0  0  0  0  0  0  0  0  0  0  0
    3.0833    2.3580    4.1715 H   0  0  0  0  0  0  0  0  0  0  0  0
    1.3633    1.9256    4.1515 H   0  0  0  0  0  0  0  0  0  0  0  0
    4.4912    2.9060    1.7387 N   0  0  0  0  0  0  0  0  0  0  0  0
    5.8263    2.8858    1.1882 C   0  0  0  0  0  0  0  0  0  0  0  0
    4.2287    3.6991    2.3165 H   0  0  0  0  0  0  0  0  0  0  0  0
    6.5053    2.3797    1.8902 H   0  0  0  0  0  0  0  0  0  0  0  0
    5.8197    2.3451    0.2303 H   0  0  0  0  0  0  0  0  0  0  0  0
    6.1709    3.9176    1.0244 H   0  0  0  0  0  0  0  0  0  0  0  0
 29 30  2  0  0  0  0
 27 29  1  0  0  0  0
 28 30  1  0  0  0  0
 24 27  2  0  0  0  0
 26 28  2  0  0  0  0
 22 23  2  0  0  0  0
 23 25  1  0  0  0  0
 22 24  1  0  0  0  0
 24 26  1  0  0  0  0
 21 22  1  0  0  0  0
 25 26  1  0  0  0  0
  1  3  1  0  0  0  0
  1  7  1  0  0  0  0
  1  2  2  0  0  0  0
 42 43  1  0  0  0  0
 43 51  1  0  0  0  0
 43 44  2  0  0  0  0
  8  9  1  0  0  0  0
  9 17  1  0  0  0  0
  9 10  2  0  0  0  0
 18 19  1  0  0  0  0
 19 41  1  0  0  0  0
 19 20  2  0  0  0  0
 42 45  1  0  0  0  0
  8 11  1  0  0  0  0
 51 52  1  0  0  0  0
 18 21  1  0  0  0  0
 41 42  1  0  0  0  0
  7  8  1  0  0  0  0
 17 18  1  0  0  0  0
 29 39  1  0  0  0  0
 30 40  1  0  0  0  0
 27 37  1  0  0  0  0
 28 38  1  0  0  0  0
 23 35  1  0  0  0  0
  3  4  1  0  0  0  0
  3  5  1  0  0  0  0
  3  6  1  0  0  0  0
 45 48  1  0  0  0  0
 45 49  1  0  0  0  0
 45 50  1  0  0  0  0
 11 14  1  0  0  0  0
 11 15  1  0  0  0  0
 11 16  1  0  0  0  0
 52 54  1  0  0  0  0
 52 55  1  0  0  0  0
 52 56  1  0  0  0  0
 21 33  1  0  0  0  0
 21 34  1  0  0  0  0
 42 47  1  0  0  0  0
  8 13  1  0  0  0  0
 18 32  1  0  0  0  0
 25 36  1  0  0  0  0
 51 53  1  0  0  0  0
  7 12  1  0  0  0  0
 41 46  1  0  0  0  0
 17 31  1  0  0  0  0
M  END
$$$$

  -OEChem-05262214473D

 56 57  0     1  0  0  0  0  0999 V2000
   -2.2900    0.3401    4.1553 C   0  0  0  0  0  0  0  0  0  0  0  0
   -1.3426   -0.2746    3.6796 O   0  0  0  0  0  0  0  0  0  0  0  0
   -2.7219    0.0577    5.5560 C   0  0  0  0  0  0  0  0  0  0  0  0
   -3.4815   -0.7386    5.6094 H   0  0  0  0  0  0  0  0  0  0  0  0
   -1.8906   -0.2899    6.1903 H   0  0  0  0  0  0  0  0  0  0  0  0
   -3.1599    0.9126    6.0956 H   0  0  0  0  0  0  0  0  0  0  0  0
   -3.0397    1.3125    3.5142 N   0  0  0  0  0  0  0  0  0  0  0  0
   -2.7928    1.7385    2.1618 C   0  0  2  0  0  0  0  0  0  0  0  0
   -1.4579    1.1532    1.7206 C   0  0  0  0  0  0  0  0  0  0  0  0
   -0.5858    0.8004    2.5118 O   0  0  0  0  0  0  0  0  0  0  0  0
   -2.7841    3.2553    2.0523 C   0  0  0  0  0  0  0  0  0  0  0  0
   -3.8047    1.7484    4.0260 H   0  0  0  0  0  0  0  0  0  0  0  0
   -3.5969    1.3201    1.5466 H   0  0  0  0  0  0  0  0  0  0  0  0
   -1.9850    3.6926    2.6620 H   0  0  0  0  0  0  0  0  0  0  0  0
   -2.6246    3.5776    1.0180 H   0  0  0  0  0  0  0  0  0  0  0  0
   -3.7342    3.6765    2.3981 H   0  0  0  0  0  0  0  0  0  0  0  0
   -1.3352    1.1101    0.3372 N   0  0  0  0  0  0  0  0  0  0  0  0
   -0.1579    0.6093   -0.3265 C   0  0  2  0  0  0  0  0  0  0  0  0
    1.0145    1.4755    0.1202 C   0  0  0  0  0  0  0  0  0  0  0  0
    1.5012    2.3575   -0.5841 O   0  0  0  0  0  0  0  0  0  0  0  0
   -0.2949    0.6439   -1.8530 C   0  0  0  0  0  0  0  0  0  0  0  0
   -1.3397   -0.3162   -2.3671 C   0  0  0  0  0  0  0  0  0  0  0  0
   -2.6402    0.0045   -2.6812 C   0  0  0  0  0  0  0  0  0  0  0  0
   -1.1641   -1.7062   -2.6161 C   0  0  0  0  0  0  0  0  0  0  0  0
   -3.2634   -1.1362   -3.1112 N   0  0  0  0  0  0  0  0  0  0  0  0
   -2.3859   -2.1966   -3.0820 C   0  0  0  0  0  0  0  0  0  0  0  0
   -0.0797   -2.5969   -2.4893 C   0  0  0  0  0  0  0  0  0  0  0  0
   -2.5782   -3.5386   -3.4290 C   0  0  0  0  0  0  0  0  0  0  0  0
   -0.2574   -3.9421   -2.8327 C   0  0  0  0  0  0  0  0  0  0  0  0
   -1.4883   -4.4035   -3.2951 C   0  0  0  0  0  0  0  0  0  0  0  0
   -2.1183    1.4068   -0.2401 H   0  0  0  0  0  0  0  0  0  0  0  0
   -0.0065   -0.4142    0.0361 H   0  0  0  0  0  0  0  0  0  0  0  0
    0.6720    0.4261   -2.3267 H   0  0  0  0  0  0  0  0  0  0  0  0
   -0.5601    1.6542   -2.1915 H   0  0  0  0  0  0  0  0  0  0  0  0
   -3.1792    0.9408   -2.6362 H   0  0  0  0  0  0  0  0  0  0  0  0
   -4.2280   -1.1925   -3.4076 H   0  0  0  0  0  0  0  0  0  0  0  0
    0.8858   -2.2530   -2.1295 H   0  0  0  0  0  0  0  0  0  0  0  0
   -3.5357   -3.8984   -3.7900 H   0  0  0  0  0  0  0  0  0  0  0  0
    0.5751   -4.6339   -2.7366 H   0  0  0  0  0  0  0  0  0  0  0  0
   -1.6041   -5.4523   -3.5562 H   0  0  0  0  0  0  0  0  0  0  0  0
    1.4165    1.1782    1.4149 N   0  0  0  0  0  0  0  0  0  0  0  0
    2.4923    1.8679    2.0900 C   0  0  2  0  0  0  0  0  0  0  0  0
    3.6993    1.8797    1.1612 C   0  0  0  0  0  0  0  0  0  0  0  0
    3.8526    1.0688    0.2502 O   0  0  0  0  0  0  0  0  0  0  0  0
    2.8319    1.2017    3.4142 C   0  0  0  0  0  0  0  0  0  0  0  0
    0.9301    0.4386    1.9132 H   0  0  0  0  0  0  0  0  0  0  0  0
    2.1517    2.8951    2.2603 H   0  0  0  0  0  0  0  0  0  0  0  0
    3.1751    0.1716    3.2637 H   0  0  0  0  0  0  0  0  0  0  0  0
    3.6276    1.7420    3.9376 H   0  0  0  0  0  0  0  0  0  0  0  0
    1.9548    1.1674    4.0694 H   0  0  0  0  0  0  0  0  0  0  0  0
    4.6060    2.8755    1.4965 N   0  0  0  0  0  0  0  0  0  0  0  0
    5.8386    3.0833    0.7730 C   0  0  0  0  0  0  0  0  0  0  0  0
    4.3883    3.5147    2.2553 H   0  0  0  0  0  0  0  0  0  0  0  0
    6.6476    2.5147    1.2548 H   0  0  0  0  0  0  0  0  0  0  0  0
    5.7168    2.7397   -0.2649 H   0  0  0  0  0  0  0  0  0  0  0  0
    6.0902    4.1541    0.7775 H   0  0  0  0  0  0  0  0  0  0  0  0
 29 30  2  0  0  0  0
 27 29  1  0  0  0  0
 28 30  1  0  0  0  0
 24 27  2  0  0  0  0
 26 28  2  0  0  0  0
 22 23  2  0  0  0  0
 23 25  1  0  0  0  0
 22 24  1  0  0  0  0
 24 26  1  0  0  0  0
 21 22  1  0  0  0  0
 25 26  1  0  0  0  0
  1  3  1  0  0  0  0
  1  7  1  0  0  0  0
  1  2  2  0  0  0  0
 42 43  1  0  0  0  0
 43 51  1  0  0  0  0
 43 44  2  0  0  0  0
  8  9  1  0  0  0  0
  9 17  1  0  0  0  0
  9 10  2  0  0  0  0
 18 19  1  0  0  0  0
 19 41  1  0  0  0  0
 19 20  2  0  0  0  0
 42 45  1  0  0  0  0
  8 11  1  0  0  0  0
 51 52  1  0  0  0  0
 18 21  1  0  0  0  0
 41 42  1  0  0  0  0
  7  8  1  0  0  0  0
 17 18  1  0  0  0  0
 29 39  1  0  0  0  0
 30 40  1  0  0  0  0
 27 37  1  0  0  0  0
 28 38  1  0  0  0  0
 23 35  1  0  0  0  0
  3  4  1  0  0  0  0
  3  5  1  0  0  0  0
  3  6  1  0  0  0  0
 45 48  1  0  0  0  0
 45 49  1  0  0  0  0
 45 50  1  0  0  0  0
 11 14  1  0  0  0  0
 11 15  1  0  0  0  0
 11 16  1  0  0  0  0
 52 54  1  0  0  0  0
 52 55  1  0  0  0  0
 52 56  1  0  0  0  0
 21 33  1  0  0  0  0
 21 34  1  0  0  0  0
 42 47  1  0  0  0  0
  8 13  1  0  0  0  0
 18 32  1  0  0  0  0
 25 36  1  0  0  0  0
 51 53  1  0  0  0  0
  7 12  1  0  0  0  0
 41 46  1  0  0  0  0
 17 31  1  0  0  0  0
M  END
$$$$

  -OEChem-05262214473D

 56 57  0     1  0  0  0  0  0999 V2000
   -2.2900    0.3401    4.1553 C   0  0  0  0  0  0  0  0  0  0  0  0
   -1.3426   -0.2746    3.6796 O   0  0  0  0  0  0  0  0  0  0  0  0
   -2.7219    0.0577    5.5560 C   0  0  0  0  0  0  0  0  0  0  0  0
   -3.4815   -0.7386    5.6094 H   0  0  0  0  0  0  0  0  0  0  0  0
   -1.8906   -0.2899    6.1903 H   0  0  0  0  0  0  0  0  0  0  0  0
   -3.1599    0.9126    6.0956 H   0  0  0  0  0  0  0  0  0  0  0  0
   -3.0397    1.3125    3.5142 N   0  0  0  0  0  0  0  0  0  0  0  0
   -2.7928    1.7385    2.1618 C   0  0  2  0  0  0  0  0  0  0  0  0
   -1.4579    1.1532    1.7206 C   0  0  0  0  0  0  0  0  0  0  0  0
   -0.5858    0.8004    2.5118 O   0  0  0  0  0  0  0  0  0  0  0  0
   -2.7841    3.2553    2.0523 C   0  0  0  0  0  0  0  0  0  0  0  0
   -3.8047    1.7484    4.0260 H   0  0  0  0  0  0  0  0  0  0  0  0
   -3.5969    1.3201    1.5466 H   0  0  0  0  0  0  0  0  0  0  0  0
   -1.9850    3.6926    2.6620 H   0  0  0  0  0  0  0  0  0  0  0  0
   -2.6246    3.5776    1.0180 H   0  0  0  0  0  0  0  0  0  0  0  0
   -3.7342    3.6765    2.3981 H   0  0  0  0  0  0  0  0  0  0  0  0
   -1.3352    1.1101    0.3372 N   0  0  0  0  0  0  0  0  0  0  0  0
   -0.1579    0.6093   -0.3265 C   0  0  2  0  0  0  0  0  0  0  0  0
    1.0145    1.4755    0.1202 C   0  0  0  0  0  0  0  0  0  0  0  0
    1.3317    2.5175   -0.4494 O   0  0  0  0  0  0  0  0  0  0  0  0
   -0.2949    0.6439   -1.8530 C   0  0  0  0  0  0  0  0  0  0  0  0
   -1.3397   -0.3162   -2.3671 C   0  0  0  0  0  0  0  0  0  0  0  0
   -2.6402    0.0045   -2.6812 C   0  0  0  0  0  0  0  0  0  0  0  0
   -1.1641   -1.7062   -2.6161 C   0  0  0  0  0  0  0  0  0  0  0  0
   -3.2634   -1.1362   -3.1112 N   0  0  0  0  0  0  0  0  0  0  0  0
   -2.3859   -2.1966   -3.0820 C   0  0  0  0  0  0  0  0  0  0  0  0
   -0.0797   -2.5969   -2.4893 C   0  0  0  0  0  0  0  0  0  0  0  0
   -2.5782   -3.5386   -3.4290 C   0  0  0  0  0  0  0  0  0  0  0  0
   -0.2574   -3.9421   -2.8327 C   0  0  0  0  0  0  0  0  0  0  0  0
   -1.4883   -4.4035   -3.2951 C   0  0  0  0  0  0  0  0  0  0  0  0
   -2.1183    1.4068   -0.2401 H   0  0  0  0  0  0  0  0  0  0  0  0
   -0.0065   -0.4142    0.0361 H   0  0  0  0  0  0  0  0  0  0  0  0
    0.6720    0.4261   -2.3267 H   0  0  0  0  0  0  0  0  0  0  0  0
   -0.5601    1.6542   -2.1915 H   0  0  0  0  0  0  0  0  0  0  0  0
   -3.1792    0.9408   -2.6362 H   0  0  0  0  0  0  0  0  0  0  0  0
   -4.2280   -1.1925   -3.4076 H   0  0  0  0  0  0  0  0  0  0  0  0
    0.8858   -2.2530   -2.1295 H   0  0  0  0  0  0  0  0  0  0  0  0
   -3.5357   -3.8984   -3.7900 H   0  0  0  0  0  0  0  0  0  0  0  0
    0.5751   -4.6339   -2.7366 H   0  0  0  0  0  0  0  0  0  0  0  0
   -1.6041   -5.4523   -3.5562 H   0  0  0  0  0  0  0  0  0  0  0  0
    1.6294    0.9711    1.2577 N   0  0  0  0  0  0  0  0  0  0  0  0
    2.7526    1.6120    1.9030 C   0  0  2  0  0  0  0  0  0  0  0  0
    3.7983    1.9127    0.8374 C   0  0  0  0  0  0  0  0  0  0  0  0
    3.8580    1.3105   -0.2326 O   0  0  0  0  0  0  0  0  0  0  0  0
    3.3330    0.7359    3.0022 C   0  0  0  0  0  0  0  0  0  0  0  0
    1.2719    0.1082    1.6568 H   0  0  0  0  0  0  0  0  0  0  0  0
    2.3805    2.5517    2.3257 H   0  0  0  0  0  0  0  0  0  0  0  0
    3.7109   -0.2101    2.5977 H   0  0  0  0  0  0  0  0  0  0  0  0
    4.1656    1.2348    3.5091 H   0  0  0  0  0  0  0  0  0  0  0  0
    2.5716    0.4962    3.7523 H   0  0  0  0  0  0  0  0  0  0  0  0
    4.6837    2.9029    1.2397 N   0  0  0  0  0  0  0  0  0  0  0  0
    5.7745    3.3576    0.4094 C   0  0  0  0  0  0  0  0  0  0  0  0
    4.5474    3.3609    2.1360 H   0  0  0  0  0  0  0  0  0  0  0  0
    6.6814    2.7823    0.6471 H   0  0  0  0  0  0  0  0  0  0  0  0
    5.5147    3.2115   -0.6495 H   0  0  0  0  0  0  0  0  0  0  0  0
    5.9580    4.4257    0.5979 H   0  0  0  0  0  0  0  0  0  0  0  0
 29 30  2  0  0  0  0
 27 29  1  0  0  0  0
 28 30  1  0  0  0  0
 24 27  2  0  0  0  0
 26 28  2  0  0  0  0
 22 23  2  0  0  0  0
 23 25  1  0  0  0  0
 22 24  1  0  0  0  0
 24 26  1  0  0  0  0
 21 22  1  0  0  0  0
 25 26  1  0  0  0  0
  1  3  1  0  0  0  0
  1  7  1  0  0  0  0
  1  2  2  0  0  0  0
 42 43  1  0  0  0  0
 43 51  1  0  0  0  0
 43 44  2  0  0  0  0
  8  9  1  0  0  0  0
  9 17  1  0  0  0  0
  9 10  2  0  0  0  0
 18 19  1  0  0  0  0
 19 41  1  0  0  0  0
 19 20  2  0  0  0  0
 42 45  1  0  0  0  0
  8 11  1  0  0  0  0
 51 52  1  0  0  0  0
 18 21  1  0  0  0  0
 41 42  1  0  0  0  0
  7  8  1  0  0  0  0
 17 18  1  0  0  0  0
 29 39  1  0  0  0  0
 30 40  1  0  0  0  0
 27 37  1  0  0  0  0
 28 38  1  0  0  0  0
 23 35  1  0  0  0  0
  3  4  1  0  0  0  0
  3  5  1  0  0  0  0
  3  6  1  0  0  0  0
 45 48  1  0  0  0  0
 45 49  1  0  0  0  0
 45 50  1  0  0  0  0
 11 14  1  0  0  0  0
 11 15  1  0  0  0  0
 11 16  1  0  0  0  0
 52 54  1  0  0  0  0
 52 55  1  0  0  0  0
 52 56  1  0  0  0  0
 21 33  1  0  0  0  0
 21 34  1  0  0  0  0
 42 47  1  0  0  0  0
  8 13  1  0  0  0  0
 18 32  1  0  0  0  0
 25 36  1  0  0  0  0
 51 53  1  0  0  0  0
  7 12  1  0  0  0  0
 41 46  1  0  0  0  0
 17 31  1  0  0  0  0
M  END
$$$$

  -OEChem-05262214473D

 56 57  0     1  0  0  0  0  0999 V2000
   -2.2900    0.3401    4.1553 C   0  0  0  0  0  0  0  0  0  0  0  0
   -1.3426   -0.2746    3.6796 O   0  0  0  0  0  0  0  0  0  0  0  0
   -2.7219    0.0577    5.5560 C   0  0  0  0  0  0  0  0  0  0  0  0
   -3.4815   -0.7386    5.6094 H   0  0  0  0  0  0  0  0  0  0  0  0
   -1.8906   -0.2899    6.1903 H   0  0  0  0  0  0  0  0  0  0  0  0
   -3.1599    0.9126    6.0956 H   0  0  0  0  0  0  0  0  0  0  0  0
   -3.0397    1.3125    3.5142 N   0  0  0  0  0  0  0  0  0  0  0  0
   -2.7928    1.7385    2.1618 C   0  0  2  0  0  0  0  0  0  0  0  0
   -1.4579    1.1532    1.7206 C   0  0  0  0  0  0  0  0  0  0  0  0
   -0.5858    0.8004    2.5118 O   0  0  0  0  0  0  0  0  0  0  0  0
   -2.7841    3.2553    2.0523 C   0  0  0  0  0  0  0  0  0  0  0  0
   -3.8047    1.7484    4.0260 H   0  0  0  0  0  0  0  0  0  0  0  0
   -3.5969    1.3201    1.5466 H   0  0  0  0  0  0  0  0  0  0  0  0
   -1.9850    3.6926    2.6620 H   0  0  0  0  0  0  0  0  0  0  0  0
   -2.6246    3.5776    1.0180 H   0  0  0  0  0  0  0  0  0  0  0  0
   -3.7342    3.6765    2.3981 H   0  0  0  0  0  0  0  0  0  0  0  0
   -1.3352    1.1101    0.3372 N   0  0  0  0  0  0  0  0  0  0  0  0
   -0.1579    0.6093   -0.3265 C   0  0  2  0  0  0  0  0  0  0  0  0
    1.0145    1.4755    0.1202 C   0  0  0  0  0  0  0  0  0  0  0  0
    1.1756    2.6324   -0.2626 O   0  0  0  0  0  0  0  0  0  0  0  0
   -0.2949    0.6439   -1.8530 C   0  0  0  0  0  0  0  0  0  0  0  0
   -1.3397   -0.3162   -2.3671 C   0  0  0  0  0  0  0  0  0  0  0  0
   -2.6402    0.0045   -2.6812 C   0  0  0  0  0  0  0  0  0  0  0  0
   -1.1641   -1.7062   -2.6161 C   0  0  0  0  0  0  0  0  0  0  0  0
   -3.2634   -1.1362   -3.1112 N   0  0  0  0  0  0  0  0  0  0  0  0
   -2.3859   -2.1966   -3.0820 C   0  0  0  0  0  0  0  0  0  0  0  0
   -0.0797   -2.5969   -2.4893 C   0  0  0  0  0  0  0  0  0  0  0  0
   -2.5782   -3.5386   -3.4290 C   0  0  0  0  0  0  0  0  0  0  0  0
   -0.2574   -3.9421   -2.8327 C   0  0  0  0  0  0  0  0  0  0  0  0
   -1.4883   -4.4035   -3.2951 C   0  0  0  0  0  0  0  0  0  0  0  0
   -2.1183    1.4068   -0.2401 H   0  0  0  0  0  0  0  0  0  0  0  0
   -0.0065   -0.4142    0.0361 H   0  0  0  0  0  0  0  0  0  0  0  0
    0.6720    0.4261   -2.3267 H   0  0  0  0  0  0  0  0  0  0  0  0
   -0.5601    1.6542   -2.1915 H   0  0  0  0  0  0  0  0  0  0  0  0
   -3.1792    0.9408   -2.6362 H   0  0  0  0  0  0  0  0  0  0  0  0
   -4.2280   -1.1925   -3.4076 H   0  0  0  0  0  0  0  0  0  0  0  0
    0.8858   -2.2530   -2.1295 H   0  0  0  0  0  0  0  0  0  0  0  0
   -3.5357   -3.8984   -3.7900 H   0  0  0  0  0  0  0  0  0  0  0  0
    0.5751   -4.6339   -2.7366 H   0  0  0  0  0  0  0  0  0  0  0  0
   -1.6041   -5.4523   -3.5562 H   0  0  0  0  0  0  0  0  0  0  0  0
    1.8275    0.8186    1.0333 N   0  0  0  0  0  0  0  0  0  0  0  0
    2.9959    1.4218    1.6332 C   0  0  2  0  0  0  0  0  0  0  0  0
    3.8439    2.0164    0.5165 C   0  0  0  0  0  0  0  0  0  0  0  0
    3.7739    1.6405   -0.6517 O   0  0  0  0  0  0  0  0  0  0  0  0
    3.7917    0.4061    2.4379 C   0  0  0  0  0  0  0  0  0  0  0  0
    1.5894   -0.1341    1.2932 H   0  0  0  0  0  0  0  0  0  0  0  0
    2.6372    2.2243    2.2869 H   0  0  0  0  0  0  0  0  0  0  0  0
    4.1594   -0.4057    1.7997 H   0  0  0  0  0  0  0  0  0  0  0  0
    4.6608    0.8709    2.9150 H   0  0  0  0  0  0  0  0  0  0  0  0
    3.1716   -0.0423    3.2217 H   0  0  0  0  0  0  0  0  0  0  0  0
    4.7188    2.9863    0.9856 N   0  0  0  0  0  0  0  0  0  0  0  0
    5.6382    3.6901    0.1222 C   0  0  0  0  0  0  0  0  0  0  0  0
    4.6952    3.2481    1.9667 H   0  0  0  0  0  0  0  0  0  0  0  0
    6.6044    3.1644    0.1084 H   0  0  0  0  0  0  0  0  0  0  0  0
    5.2272    3.7285   -0.8974 H   0  0  0  0  0  0  0  0  0  0  0  0
    5.7833    4.7137    0.4979 H   0  0  0  0  0  0  0  0  0  0  0  0
 29 30  2  0  0  0  0
 27 29  1  0  0  0  0
 28 30  1  0  0  0  0
 24 27  2  0  0  0  0
 26 28  2  0  0  0  0
 22 23  2  0  0  0  0
 23 25  1  0  0  0  0
 22 24  1  0  0  0  0
 24 26  1  0  0  0  0
 21 22  1  0  0  0  0
 25 26  1  0  0  0  0
  1  3  1  0  0  0  0
  1  7  1  0  0  0  0
  1  2  2  0  0  0  0
 42 43  1  0  0  0  0
 43 51  1  0  0  0  0
 43 44  2  0  0  0  0
  8  9  1  0  0  0  0
  9 17  1  0  0  0  0
  9 10  2  0  0  0  0
 18 19  1  0  0  0  0
 19 41  1  0  0  0  0
 19 20  2  0  0  0  0
 42 45  1  0  0  0  0
  8 11  1  0  0  0  0
 51 52  1  0  0  0  0
 18 21  1  0  0  0  0
 41 42  1  0  0  0  0
  7  8  1  0  0  0  0
 17 18  1  0  0  0  0
 29 39  1  0  0  0  0
 30 40  1  0  0  0  0
 27 37  1  0  0  0  0
 28 38  1  0  0  0  0
 23 35  1  0  0  0  0
  3  4  1  0  0  0  0
  3  5  1  0  0  0  0
  3  6  1  0  0  0  0
 45 48  1  0  0  0  0
 45 49  1  0  0  0  0
 45 50  1  0  0  0  0
 11 14  1  0  0  0  0
 11 15  1  0  0  0  0
 11 16  1  0  0  0  0
 52 54  1  0  0  0  0
 52 55  1  0  0  0  0
 52 56  1  0  0  0  0
 21 33  1  0  0  0  0
 21 34  1  0  0  0  0
 42 47  1  0  0  0  0
  8 13  1  0  0  0  0
 18 32  1  0  0  0  0
 25 36  1  0  0  0  0
 51 53  1  0  0  0  0
  7 12  1  0  0  0  0
 41 46  1  0  0  0  0
 17 31  1  0  0  0  0
M  END
$$$$

  -OEChem-05262214473D

 56 57  0     1  0  0  0  0  0999 V2000
   -2.2900    0.3401    4.1553 C   0  0  0  0  0  0  0  0  0  0  0  0
   -1.3426   -0.2746    3.6796 O   0  0  0  0  0  0  0  0  0  0  0  0
   -2.7219    0.0577    5.5560 C   0  0  0  0  0  0  0  0  0  0  0  0
   -3.4815   -0.7386    5.6094 H   0  0  0  0  0  0  0  0  0  0  0  0
   -1.8906   -0.2899    6.1903 H   0  0  0  0  0  0  0  0  0  0  0  0
   -3.1599    0.9126    6.0956 H   0  0  0  0  0  0  0  0  0  0  0  0
   -3.0397    1.3125    3.5142 N   0  0  0  0  0  0  0  0  0  0  0  0
   -2.7928    1.7385    2.1618 C   0  0  2  0  0  0  0  0  0  0  0  0
   -1.4579    1.1532    1.7206 C   0  0  0  0  0  0  0  0  0  0  0  0
   -0.5858    0.8004    2.5118 O   0  0  0  0  0  0  0  0  0  0  0  0
   -2.7841    3.2553    2.0523 C   0  0  0  0  0  0  0  0  0  0  0  0
   -3.8047    1.7484    4.0260 H   0  0  0  0  0  0  0  0  0  0  0  0
   -3.5969    1.3201    1.5466 H   0  0  0  0  0  0  0  0  0  0  0  0
   -1.9850    3.6926    2.6620 H   0  0  0  0  0  0  0  0  0  0  0  0
   -2.6246    3.5776    1.0180 H   0  0  0  0  0  0  0  0  0  0  0  0
   -3.7342    3.6765    2.3981 H   0  0  0  0  0  0  0  0  0  0  0  0
   -1.3352    1.1101    0.3372 N   0  0  0  0  0  0  0  0  0  0  0  0
   -0.1579    0.6093   -0.3265 C   0  0  2  0  0  0  0  0  0  0  0  0
    1.0145    1.4755    0.1202 C   0  0  0  0  0  0  0  0  0  0  0  0
    1.0437    2.6943   -0.0363 O   0  0  0  0  0  0  0  0  0  0  0  0
   -0.2949    0.6439   -1.8530 C   0  0  0  0  0  0  0  0  0  0  0  0
   -1.3397   -0.3162   -2.3671 C   0  0  0  0  0  0  0  0  0  0  0  0
   -2.6402    0.0045   -2.6812 C   0  0  0  0  0  0  0  0  0  0  0  0
   -1.1641   -1.7062   -2.6161 C   0  0  0  0  0  0  0  0  0  0  0  0
   -3.2634   -1.1362   -3.1112 N   0  0  0  0  0  0  0  0  0  0  0  0
   -2.3859   -2.1966   -3.0820 C   0  0  0  0  0  0  0  0  0  0  0  0
   -0.0797   -2.5969   -2.4893 C   0  0  0  0  0  0  0  0  0  0  0  0
   -2.5782   -3.5386   -3.4290 C   0  0  0  0  0  0  0  0  0  0  0  0
   -0.2574   -3.9421   -2.8327 C   0  0  0  0  0  0  0  0  0  0  0  0
   -1.4883   -4.4035   -3.2951 C   0  0  0  0  0  0  0  0  0  0  0  0
   -2.1183    1.4068   -0.2401 H   0  0  0  0  0  0  0  0  0  0  0  0
   -0.0065   -0.4142    0.0361 H   0  0  0  0  0  0  0  0  0  0  0  0
    0.6720    0.4261   -2.3267 H   0  0  0  0  0  0  0  0  0  0  0  0
   -0.5601    1.6542   -2.1915 H   0  0  0  0  0  0  0  0  0  0  0  0
   -3.1792    0.9408   -2.6362 H   0  0  0  0  0  0  0  0  0  0  0  0
   -4.2280   -1.1925   -3.4076 H   0  0  0  0  0  0  0  0  0  0  0  0
    0.8858   -2.2530   -2.1295 H   0  0  0  0  0  0  0  0  0  0  0  0
   -3.5357   -3.8984   -3.7900 H   0  0  0  0  0  0  0  0  0  0  0  0
    0.5751   -4.6339   -2.7366 H   0  0  0  0  0  0  0  0  0  0  0  0
   -1.6041   -5.4523   -3.5562 H   0  0  0  0  0  0  0  0  0  0  0  0
    1.9975    0.7310    0.7571 N   0  0  0  0  0  0  0  0  0  0  0  0
    3.2057    1.3103    1.2989 C   0  0  2  0  0  0  0  0  0  0  0  0
    3.8329    2.1840    0.2206 C   0  0  0  0  0  0  0  0  0  0  0  0
    3.6060    2.0363   -0.9785 O   0  0  0  0  0  0  0  0  0  0  0  0
    4.1768    0.2345    1.7598 C   0  0  0  0  0  0  0  0  0  0  0  0
    1.8610   -0.2716    0.8470 H   0  0  0  0  0  0  0  0  0  0  0  0
    2.9042    1.9353    2.1466 H   0  0  0  0  0  0  0  0  0  0  0  0
    4.4901   -0.4017    0.9240 H   0  0  0  0  0  0  0  0  0  0  0  0
    5.0793    0.6752    2.1960 H   0  0  0  0  0  0  0  0  0  0  0  0
    3.7139   -0.4113    2.5137 H   0  0  0  0  0  0  0  0  0  0  0  0
    4.7091    3.1202    0.7516 N   0  0  0  0  0  0  0  0  0  0  0  0
    5.4392    4.0580   -0.0689 C   0  0  0  0  0  0  0  0  0  0  0  0
    4.8216    3.1841    1.7591 H   0  0  0  0  0  0  0  0  0  0  0  0
    6.4218    3.6348   -0.3246 H   0  0  0  0  0  0  0  0  0  0  0  0
    4.8738    4.2555   -0.9916 H   0  0  0  0  0  0  0  0  0  0  0  0
    5.5780    4.9986    0.4844 H   0  0  0  0  0  0  0  0  0  0  0  0
 29 30  2  0  0  0  0
 27 29  1  0  0  0  0
 28 30  1  0  0  0  0
 24 27  2  0  0  0  0
 26 28  2  0  0  0  0
 22 23  2  0  0  0  0
 23 25  1  0  0  0  0
 22 24  1  0  0  0  0
 24 26  1  0  0  0  0
 21 22  1  0  0  0  0
 25 26  1  0  0  0  0
  1  3  1  0  0  0  0
  1  7  1  0  0  0  0
  1  2  2  0  0  0  0
 42 43  1  0  0  0  0
 43 51  1  0  0  0  0
 43 44  2  0  0  0  0
  8  9  1  0  0  0  0
  9 17  1  0  0  0  0
  9 10  2  0  0  0  0
 18 19  1  0  0  0  0
 19 41  1  0  0  0  0
 19 20  2  0  0  0  0
 42 45  1  0  0  0  0
  8 11  1  0  0  0  0
 51 52  1  0  0  0  0
 18 21  1  0  0  0  0
 41 42  1  0  0  0  0
  7  8  1  0  0  0  0
 17 18  1  0  0  0  0
 29 39  1  0  0  0  0
 30 40  1  0  0  0  0
 27 37  1  0  0  0  0
 28 38  1  0  0  0  0
 23 35  1  0  0  0  0
  3  4  1  0  0  0  0
  3  5  1  0  0  0  0
  3  6  1  0  0  0  0
 45 48  1  0  0  0  0
 45 49  1  0  0  0  0
 45 50  1  0  0  0  0
 11 14  1  0  0  0  0
 11 15  1  0  0  0  0
 11 16  1  0  0  0  0
 52 54  1  0  0  0  0
 52 55  1  0  0  0  0
 52 56  1  0  0  0  0
 21 33  1  0  0  0  0
 21 34  1  0  0  0  0
 42 47  1  0  0  0  0
  8 13  1  0  0  0  0
 18 32  1  0  0  0  0
 25 36  1  0  0  0  0
 51 53  1  0  0  0  0
  7 12  1  0  0  0  0
 41 46  1  0  0  0  0
 17 31  1  0  0  0  0
M  END
$$$$

  -OEChem-05262214473D

 56 57  0     1  0  0  0  0  0999 V2000
   -2.2900    0.3401    4.1553 C   0  0  0  0  0  0  0  0  0  0  0  0
   -1.3426   -0.2746    3.6796 O   0  0  0  0  0  0  0  0  0  0  0  0
   -2.7219    0.0577    5.5560 C   0  0  0  0  0  0  0  0  0  0  0  0
   -3.4815   -0.7386    5.6094 H   0  0  0  0  0  0  0  0  0  0  0  0
   -1.8906   -0.2899    6.1903 H   0  0  0  0  0  0  0  0  0  0  0  0
   -3.1599    0.9126    6.0956 H   0  0  0  0  0  0  0  0  0  0  0  0
   -3.0397    1.3125    3.5142 N   0  0  0  0  0  0  0  0  0  0  0  0
   -2.7928    1.7385    2.1618 C   0  0  2  0  0  0  0  0  0  0  0  0
   -1.4579    1.1532    1.7206 C   0  0  0  0  0  0  0  0  0  0  0  0
   -0.5858    0.8004    2.5118 O   0  0  0  0  0  0  0  0  0  0  0  0
   -2.7841    3.2553    2.0523 C   0  0  0  0  0  0  0  0  0  0  0  0
   -3.8047    1.7484    4.0260 H   0  0  0  0  0  0  0  0  0  0  0  0
   -3.5969    1.3201    1.5466 H   0  0  0  0  0  0  0  0  0  0  0  0
   -1.9850    3.6926    2.6620 H   0  0  0  0  0  0  0  0  0  0  0  0
   -2.6246    3.5776    1.0180 H   0  0  0  0  0  0  0  0  0  0  0  0
   -3.7342    3.6765    2.3981 H   0  0  0  0  0  0  0  0  0  0  0  0
   -1.3352    1.1101    0.3372 N   0  0  0  0  0  0  0  0  0  0  0  0
   -0.1579    0.6093   -0.3265 C   0  0  2  0  0  0  0  0  0  0  0  0
    1.0145    1.4755    0.1202 C   0  0  0  0  0  0  0  0  0  0  0  0
    0.9448    2.6991    0.2140 O   0  0  0  0  0  0  0  0  0  0  0  0
   -0.2949    0.6439   -1.8530 C   0  0  0  0  0  0  0  0  0  0  0  0
   -1.3397   -0.3162   -2.3671 C   0  0  0  0  0  0  0  0  0  0  0  0
   -2.6402    0.0045   -2.6812 C   0  0  0  0  0  0  0  0  0  0  0  0
   -1.1641   -1.7062   -2.6161 C   0  0  0  0  0  0  0  0  0  0  0  0
   -3.2634   -1.1362   -3.1112 N   0  0  0  0  0  0  0  0  0  0  0  0
   -2.3859   -2.1966   -3.0820 C   0  0  0  0  0  0  0  0  0  0  0  0
   -0.0797   -2.5969   -2.4893 C   0  0  0  0  0  0  0  0  0  0  0  0
   -2.5782   -3.5386   -3.4290 C   0  0  0  0  0  0  0  0  0  0  0  0
   -0.2574   -3.9421   -2.8327 C   0  0  0  0  0  0  0  0  0  0  0  0
   -1.4883   -4.4035   -3.2951 C   0  0  0  0  0  0  0  0  0  0  0  0
   -2.1183    1.4068   -0.2401 H   0  0  0  0  0  0  0  0  0  0  0  0
   -0.0065   -0.4142    0.0361 H   0  0  0  0  0  0  0  0  0  0  0  0
    0.6720    0.4261   -2.3267 H   0  0  0  0  0  0  0  0  0  0  0  0
   -0.5601    1.6542   -2.1915 H   0  0  0  0  0  0  0  0  0  0  0  0
   -3.1792    0.9408   -2.6362 H   0  0  0  0  0  0  0  0  0  0  0  0
   -4.2280   -1.1925   -3.4076 H   0  0  0  0  0  0  0  0  0  0  0  0
    0.8858   -2.2530   -2.1295 H   0  0  0  0  0  0  0  0  0  0  0  0
   -3.5357   -3.8984   -3.7900 H   0  0  0  0  0  0  0  0  0  0  0  0
    0.5751   -4.6339   -2.7366 H   0  0  0  0  0  0  0  0  0  0  0  0
   -1.6041   -5.4523   -3.5562 H   0  0  0  0  0  0  0  0  0  0  0  0
    2.1278    0.7142    0.4479 N   0  0  0  0  0  0  0  0  0  0  0  0
    3.3676    1.2850    0.9229 C   0  0  2  0  0  0  0  0  0  0  0  0
    3.7660    2.4039   -0.0303 C   0  0  0  0  0  0  0  0  0  0  0  0
    3.3657    2.4708   -1.1907 O   0  0  0  0  0  0  0  0  0  0  0  0
    4.4621    0.2330    1.0139 C   0  0  0  0  0  0  0  0  0  0  0  0
    2.0681   -0.2950    0.3488 H   0  0  0  0  0  0  0  0  0  0  0  0
    3.1634    1.7043    1.9142 H   0  0  0  0  0  0  0  0  0  0  0  0
    4.6805   -0.1985    0.0303 H   0  0  0  0  0  0  0  0  0  0  0  0
    5.3926    0.6611    1.4010 H   0  0  0  0  0  0  0  0  0  0  0  0
    4.1616   -0.5857    1.6767 H   0  0  0  0  0  0  0  0  0  0  0  0
    4.6551    3.2953    0.5537 N   0  0  0  0  0  0  0  0  0  0  0  0
    5.1910    4.4364   -0.1511 C   0  0  0  0  0  0  0  0  0  0  0  0
    4.9181    3.1731    1.5272 H   0  0  0  0  0  0  0  0  0  0  0  0
    6.1461    4.1615   -0.6224 H   0  0  0  0  0  0  0  0  0  0  0  0
    4.4786    4.7564   -0.9258 H   0  0  0  0  0  0  0  0  0  0  0  0
    5.3561    5.2608    0.5582 H   0  0  0  0  0  0  0  0  0  0  0  0
 29 30  2  0  0  0  0
 27 29  1  0  0  0  0
 28 30  1  0  0  0  0
 24 27  2  0  0  0  0
 26 28  2  0  0  0  0
 22 23  2  0  0  0  0
 23 25  1  0  0  0  0
 22 24  1  0  0  0  0
 24 26  1  0  0  0  0
 21 22  1  0  0  0  0
 25 26  1  0  0  0  0
  1  3  1  0  0  0  0
  1  7  1  0  0  0  0
  1  2  2  0  0  0  0
 42 43  1  0  0  0  0
 43 51  1  0  0  0  0
 43 44  2  0  0  0  0
  8  9  1  0  0  0  0
  9 17  1  0  0  0  0
  9 10  2  0  0  0  0
 18 19  1  0  0  0  0
 19 41  1  0  0  0  0
 19 20  2  0  0  0  0
 42 45  1  0  0  0  0
  8 11  1  0  0  0  0
 51 52  1  0  0  0  0
 18 21  1  0  0  0  0
 41 42  1  0  0  0  0
  7  8  1  0  0  0  0
 17 18  1  0  0  0  0
 29 39  1  0  0  0  0
 30 40  1  0  0  0  0
 27 37  1  0  0  0  0
 28 38  1  0  0  0  0
 23 35  1  0  0  0  0
  3  4  1  0  0  0  0
  3  5  1  0  0  0  0
  3  6  1  0  0  0  0
 45 48  1  0  0  0  0
 45 49  1  0  0  0  0
 45 50  1  0  0  0  0
 11 14  1  0  0  0  0
 11 15  1  0  0  0  0
 11 16  1  0  0  0  0
 52 54  1  0  0  0  0
 52 55  1  0  0  0  0
 52 56  1  0  0  0  0
 21 33  1  0  0  0  0
 21 34  1  0  0  0  0
 42 47  1  0  0  0  0
  8 13  1  0  0  0  0
 18 32  1  0  0  0  0
 25 36  1  0  0  0  0
 51 53  1  0  0  0  0
  7 12  1  0  0  0  0
 41 46  1  0  0  0  0
 17 31  1  0  0  0  0
M  END
$$$$

  -OEChem-05262214473D

 56 57  0     1  0  0  0  0  0999 V2000
   -2.2900    0.3401    4.1553 C   0  0  0  0  0  0  0  0  0  0  0  0
   -1.3426   -0.2746    3.6796 O   0  0  0  0  0  0  0  0  0  0  0  0
   -2.7219    0.0577    5.5560 C   0  0  0  0  0  0  0  0  0  0  0  0
   -3.4815   -0.7386    5.6094 H   0  0  0  0  0  0  0  0  0  0  0  0
   -1.8906   -0.2899    6.1903 H   0  0  0  0  0  0  0  0  0  0  0  0
   -3.1599    0.9126    6.0956 H   0  0  0  0  0  0  0  0  0  0  0  0
   -3.0397    1.3125    3.5142 N   0  0  0  0  0  0  0  0  0  0  0  0
   -2.7928    1.7385    2.1618 C   0  0  2  0  0  0  0  0  0  0  0  0
   -1.4579    1.1532    1.7206 C   0  0  0  0  0  0  0  0  0  0  0  0
   -0.5858    0.8004    2.5118 O   0  0  0  0  0  0  0  0  0  0  0  0
   -2.7841    3.2553    2.0523 C   0  0  0  0  0  0  0  0  0  0  0  0
   -3.8047    1.7484    4.0260 H   0  0  0  0  0  0  0  0  0  0  0  0
   -3.5969    1.3201    1.5466 H   0  0  0  0  0  0  0  0  0  0  0  0
   -1.9850    3.6926    2.6620 H   0  0  0  0  0  0  0  0  0  0  0  0
   -2.6246    3.5776    1.0180 H   0  0  0  0  0  0  0  0  0  0  0  0
   -3.7342    3.6765    2.3981 H   0  0  0  0  0  0  0  0  0  0  0  0
   -1.3352    1.1101    0.3372 N   0  0  0  0  0  0  0  0  0  0  0  0
   -0.1579    0.6093   -0.3265 C   0  0  2  0  0  0  0  0  0  0  0  0
    1.0145    1.4755    0.1202 C   0  0  0  0  0  0  0  0  0  0  0  0
    0.8857    2.6464    0.4713 O   0  0  0  0  0  0  0  0  0  0  0  0
   -0.2949    0.6439   -1.8530 C   0  0  0  0  0  0  0  0  0  0  0  0
   -1.3397   -0.3162   -2.3671 C   0  0  0  0  0  0  0  0  0  0  0  0
   -2.6402    0.0045   -2.6812 C   0  0  0  0  0  0  0  0  0  0  0  0
   -1.1641   -1.7062   -2.6161 C   0  0  0  0  0  0  0  0  0  0  0  0
   -3.2634   -1.1362   -3.1112 N   0  0  0  0  0  0  0  0  0  0  0  0
   -2.3859   -2.1966   -3.0820 C   0  0  0  0  0  0  0  0  0  0  0  0
   -0.0797   -2.5969   -2.4893 C   0  0  0  0  0  0  0  0  0  0  0  0
   -2.5782   -3.5386   -3.4290 C   0  0  0  0  0  0  0  0  0  0  0  0
   -0.2574   -3.9421   -2.8327 C   0  0  0  0  0  0  0  0  0  0  0  0
   -1.4883   -4.4035   -3.2951 C   0  0  0  0  0  0  0  0  0  0  0  0
   -2.1183    1.4068   -0.2401 H   0  0  0  0  0  0  0  0  0  0  0  0
   -0.0065   -0.4142    0.0361 H   0  0  0  0  0  0  0  0  0  0  0  0
    0.6720    0.4261   -2.3267 H   0  0  0  0  0  0  0  0  0  0  0  0
   -0.5601    1.6542   -2.1915 H   0  0  0  0  0  0  0  0  0  0  0  0
   -3.1792    0.9408   -2.6362 H   0  0  0  0  0  0  0  0  0  0  0  0
   -4.2280   -1.1925   -3.4076 H   0  0  0  0  0  0  0  0  0  0  0  0
    0.8858   -2.2530   -2.1295 H   0  0  0  0  0  0  0  0  0  0  0  0
   -3.5357   -3.8984   -3.7900 H   0  0  0  0  0  0  0  0  0  0  0  0
    0.5751   -4.6339   -2.7366 H   0  0  0  0  0  0  0  0  0  0  0  0
   -1.6041   -5.4523   -3.5562 H   0  0  0  0  0  0  0  0  0  0  0  0
    2.2094    0.7694    0.1266 N   0  0  0  0  0  0  0  0  0  0  0  0
    3.4707    1.3476    0.5310 C   0  0  2  0  0  0  0  0  0  0  0  0
    3.6478    2.6612   -0.2191 C   0  0  0  0  0  0  0  0  0  0  0  0
    3.0695    2.9146   -1.2738 O   0  0  0  0  0  0  0  0  0  0  0  0
    4.6281    0.4016    0.2512 C   0  0  0  0  0  0  0  0  0  0  0  0
    2.1967   -0.2028   -0.1676 H   0  0  0  0  0  0  0  0  0  0  0  0
    3.3971    1.5471    1.6056 H   0  0  0  0  0  0  0  0  0  0  0  0
    4.7175    0.1901   -0.8205 H   0  0  0  0  0  0  0  0  0  0  0  0
    5.5795    0.8294    0.5842 H   0  0  0  0  0  0  0  0  0  0  0  0
    4.4843   -0.5536    0.7677 H   0  0  0  0  0  0  0  0  0  0  0  0
    4.5606    3.4998    0.4053 N   0  0  0  0  0  0  0  0  0  0  0  0
    4.9104    4.7994   -0.1186 C   0  0  0  0  0  0  0  0  0  0  0  0
    4.9780    3.2160    1.2868 H   0  0  0  0  0  0  0  0  0  0  0  0
    5.7960    4.7087   -0.7646 H   0  0  0  0  0  0  0  0  0  0  0  0
    4.0686    5.1972   -0.7044 H   0  0  0  0  0  0  0  0  0  0  0  0
    5.1327    5.4827    0.7143 H   0  0  0  0  0  0  0  0  0  0  0  0
 29 30  2  0  0  0  0
 27 29  1  0  0  0  0
 28 30  1  0  0  0  0
 24 27  2  0  0  0  0
 26 28  2  0  0  0  0
 22 23  2  0  0  0  0
 23 25  1  0  0  0  0
 22 24  1  0  0  0  0
 24 26  1  0  0  0  0
 21 22  1  0  0  0  0
 25 26  1  0  0  0  0
  1  3  1  0  0  0  0
  1  7  1  0  0  0  0
  1  2  2  0  0  0  0
 42 43  1  0  0  0  0
 43 51  1  0  0  0  0
 43 44  2  0  0  0  0
  8  9  1  0  0  0  0
  9 17  1  0  0  0  0
  9 10  2  0  0  0  0
 18 19  1  0  0  0  0
 19 41  1  0  0  0  0
 19 20  2  0  0  0  0
 42 45  1  0  0  0  0
  8 11  1  0  0  0  0
 51 52  1  0  0  0  0
 18 21  1  0  0  0  0
 41 42  1  0  0  0  0
  7  8  1  0  0  0  0
 17 18  1  0  0  0  0
 29 39  1  0  0  0  0
 30 40  1  0  0  0  0
 27 37  1  0  0  0  0
 28 38  1  0  0  0  0
 23 35  1  0  0  0  0
  3  4  1  0  0  0  0
  3  5  1  0  0  0  0
  3  6  1  0  0  0  0
 45 48  1  0  0  0  0
 45 49  1  0  0  0  0
 45 50  1  0  0  0  0
 11 14  1  0  0  0  0
 11 15  1  0  0  0  0
 11 16  1  0  0  0  0
 52 54  1  0  0  0  0
 52 55  1  0  0  0  0
 52 56  1  0  0  0  0
 21 33  1  0  0  0  0
 21 34  1  0  0  0  0
 42 47  1  0  0  0  0
  8 13  1  0  0  0  0
 18 32  1  0  0  0  0
 25 36  1  0  0  0  0
 51 53  1  0  0  0  0
  7 12  1  0  0  0  0
 41 46  1  0  0  0  0
 17 31  1  0  0  0  0
M  END
$$$$

  -OEChem-05262214473D

 56 57  0     1  0  0  0  0  0999 V2000
   -2.2900    0.3401    4.1553 C   0  0  0  0  0  0  0  0  0  0  0  0
   -1.3426   -0.2746    3.6796 O   0  0  0  0  0  0  0  0  0  0  0  0
   -2.7219    0.0577    5.5560 C   0  0  0  0  0  0  0  0  0  0  0  0
   -3.4815   -0.7386    5.6094 H   0  0  0  0  0  0  0  0  0  0  0  0
   -1.8906   -0.2899    6.1903 H   0  0  0  0  0  0  0  0  0  0  0  0
   -3.1599    0.9126    6.0956 H   0  0  0  0  0  0  0  0  0  0  0  0
   -3.0397    1.3125    3.5142 N   0  0  0  0  0  0  0  0  0  0  0  0
   -2.7928    1.7385    2.1618 C   0  0  2  0  0  0  0  0  0  0  0  0
   -1.4579    1.1532    1.7206 C   0  0  0  0  0  0  0  0  0  0  0  0
   -0.5858    0.8004    2.5118 O   0  0  0  0  0  0  0  0  0  0  0  0
   -2.7841    3.2553    2.0523 C   0  0  0  0  0  0  0  0  0  0  0  0
   -3.8047    1.7484    4.0260 H   0  0  0  0  0  0  0  0  0  0  0  0
   -3.5969    1.3201    1.5466 H   0  0  0  0  0  0  0  0  0  0  0  0
   -1.9850    3.6926    2.6620 H   0  0  0  0  0  0  0  0  0  0  0  0
   -2.6246    3.5776    1.0180 H   0  0  0  0  0  0  0  0  0  0  0  0
   -3.7342    3.6765    2.3981 H   0  0  0  0  0  0  0  0  0  0  0  0
   -1.3352    1.1101    0.3372 N   0  0  0  0  0  0  0  0  0  0  0  0
   -0.1579    0.6093   -0.3265 C   0  0  2  0  0  0  0  0  0  0  0  0
    1.0145    1.4755    0.1202 C   0  0  0  0  0  0  0  0  0  0  0  0
    0.8705    2.5398    0.7180 O   0  0  0  0  0  0  0  0  0  0  0  0
   -0.2949    0.6439   -1.8530 C   0  0  0  0  0  0  0  0  0  0  0  0
   -1.3397   -0.3162   -2.3671 C   0  0  0  0  0  0  0  0  0  0  0  0
   -2.6402    0.0045   -2.6812 C   0  0  0  0  0  0  0  0  0  0  0  0
   -1.1641   -1.7062   -2.6161 C   0  0  0  0  0  0  0  0  0  0  0  0
   -3.2634   -1.1362   -3.1112 N   0  0  0  0  0  0  0  0  0  0  0  0
   -2.3859   -2.1966   -3.0820 C   0  0  0  0  0  0  0  0  0  0  0  0
   -0.0797   -2.5969   -2.4893 C   0  0  0  0  0  0  0  0  0  0  0  0
   -2.5782   -3.5386   -3.4290 C   0  0  0  0  0  0  0  0  0  0  0  0
   -0.2574   -3.9421   -2.8327 C   0  0  0  0  0  0  0  0  0  0  0  0
   -1.4883   -4.4035   -3.2951 C   0  0  0  0  0  0  0  0  0  0  0  0
   -2.1183    1.4068   -0.2401 H   0  0  0  0  0  0  0  0  0  0  0  0
   -0.0065   -0.4142    0.0361 H   0  0  0  0  0  0  0  0  0  0  0  0
    0.6720    0.4261   -2.3267 H   0  0  0  0  0  0  0  0  0  0  0  0
   -0.5601    1.6542   -2.1915 H   0  0  0  0  0  0  0  0  0  0  0  0
   -3.1792    0.9408   -2.6362 H   0  0  0  0  0  0  0  0  0  0  0  0
   -4.2280   -1.1925   -3.4076 H   0  0  0  0  0  0  0  0  0  0  0  0
    0.8858   -2.2530   -2.1295 H   0  0  0  0  0  0  0  0  0  0  0  0
   -3.5357   -3.8984   -3.7900 H   0  0  0  0  0  0  0  0  0  0  0  0
    0.5751   -4.6339   -2.7366 H   0  0  0  0  0  0  0  0  0  0  0  0
   -1.6041   -5.4523   -3.5562 H   0  0  0  0  0  0  0  0  0  0  0  0
    2.2368    0.8928   -0.1846 N   0  0  0  0  0  0  0  0  0  0  0  0
    3.5078    1.4940    0.1497 C   0  0  2  0  0  0  0  0  0  0  0  0
    3.4864    2.9383   -0.3328 C   0  0  0  0  0  0  0  0  0  0  0  0
    2.7375    3.3374   -1.2222 O   0  0  0  0  0  0  0  0  0  0  0  0
    4.6635    0.7289   -0.4763 C   0  0  0  0  0  0  0  0  0  0  0  0
    2.2380   -0.0011   -0.6670 H   0  0  0  0  0  0  0  0  0  0  0  0
    3.5894    1.4743    1.2419 H   0  0  0  0  0  0  0  0  0  0  0  0
    4.5988    0.7376   -1.5705 H   0  0  0  0  0  0  0  0  0  0  0  0
    5.6271    1.1687   -0.1988 H   0  0  0  0  0  0  0  0  0  0  0  0
    4.6598   -0.3172   -0.1514 H   0  0  0  0  0  0  0  0  0  0  0  0
    4.4319    3.7196    0.3166 N   0  0  0  0  0  0  0  0  0  0  0  0
    4.6166    5.1223    0.0263 C   0  0  0  0  0  0  0  0  0  0  0  0
    4.9972    3.3099    1.0543 H   0  0  0  0  0  0  0  0  0  0  0  0
    5.3955    5.2389   -0.7417 H   0  0  0  0  0  0  0  0  0  0  0  0
    3.6717    5.5478   -0.3426 H   0  0  0  0  0  0  0  0  0  0  0  0
    4.9231    5.6489    0.9421 H   0  0  0  0  0  0  0  0  0  0  0  0
 29 30  2  0  0  0  0
 27 29  1  0  0  0  0
 28 30  1  0  0  0  0
 24 27  2  0  0  0  0
 26 28  2  0  0  0  0
 22 23  2  0  0  0  0
 23 25  1  0  0  0  0
 22 24  1  0  0  0  0
 24 26  1  0  0  0  0
 21 22  1  0  0  0  0
 25 26  1  0  0  0  0
  1  3  1  0  0  0  0
  1  7  1  0  0  0  0
  1  2  2  0  0  0  0
 42 43  1  0  0  0  0
 43 51  1  0  0  0  0
 43 44  2  0  0  0  0
  8  9  1  0  0  0  0
  9 17  1  0  0  0  0
  9 10  2  0  0  0  0
 18 19  1  0  0  0  0
 19 41  1  0  0  0  0
 19 20  2  0  0  0  0
 42 45  1  0  0  0  0
  8 11  1  0  0  0  0
 51 52  1  0  0  0  0
 18 21  1  0  0  0  0
 41 42  1  0  0  0  0
  7  8  1  0  0  0  0
 17 18  1  0  0  0  0
 29 39  1  0  0  0  0
 30 40  1  0  0  0  0
 27 37  1  0  0  0  0
 28 38  1  0  0  0  0
 23 35  1  0  0  0  0
  3  4  1  0  0  0  0
  3  5  1  0  0  0  0
  3  6  1  0  0  0  0
 45 48  1  0  0  0  0
 45 49  1  0  0  0  0
 45 50  1  0  0  0  0
 11 14  1  0  0  0  0
 11 15  1  0  0  0  0
 11 16  1  0  0  0  0
 52 54  1  0  0  0  0
 52 55  1  0  0  0  0
 52 56  1  0  0  0  0
 21 33  1  0  0  0  0
 21 34  1  0  0  0  0
 42 47  1  0  0  0  0
  8 13  1  0  0  0  0
 18 32  1  0  0  0  0
 25 36  1  0  0  0  0
 51 53  1  0  0  0  0
  7 12  1  0  0  0  0
 41 46  1  0  0  0  0
 17 31  1  0  0  0  0
M  END
$$$$

  -OEChem-05262214473D

 56 57  0     1  0  0  0  0  0999 V2000
   -2.2900    0.3401    4.1553 C   0  0  0  0  0  0  0  0  0  0  0  0
   -1.3426   -0.2746    3.6796 O   0  0  0  0  0  0  0  0  0  0  0  0
   -2.7219    0.0577    5.5560 C   0  0  0  0  0  0  0  0  0  0  0  0
   -3.4815   -0.7386    5.6094 H   0  0  0  0  0  0  0  0  0  0  0  0
   -1.8906   -0.2899    6.1903 H   0  0  0  0  0  0  0  0  0  0  0  0
   -3.1599    0.9126    6.0956 H   0  0  0  0  0  0  0  0  0  0  0  0
   -3.0397    1.3125    3.5142 N   0  0  0  0  0  0  0  0  0  0  0  0
   -2.7928    1.7385    2.1618 C   0  0  2  0  0  0  0  0  0  0  0  0
   -1.4579    1.1532    1.7206 C   0  0  0  0  0  0  0  0  0  0  0  0
   -0.5858    0.8004    2.5118 O   0  0  0  0  0  0  0  0  0  0  0  0
   -2.7841    3.2553    2.0523 C   0  0  0  0  0  0  0  0  0  0  0  0
   -3.8047    1.7484    4.0260 H   0  0  0  0  0  0  0  0  0  0  0  0
   -3.5969    1.3201    1.5466 H   0  0  0  0  0  0  0  0  0  0  0  0
   -1.9850    3.6926    2.6620 H   0  0  0  0  0  0  0  0  0  0  0  0
   -2.6246    3.5776    1.0180 H   0  0  0  0  0  0  0  0  0  0  0  0
   -3.7342    3.6765    2.3981 H   0  0  0  0  0  0  0  0  0  0  0  0
   -1.3352    1.1101    0.3372 N   0  0  0  0  0  0  0  0  0  0  0  0
   -0.1579    0.6093   -0.3265 C   0  0  2  0  0  0  0  0  0  0  0  0
    1.0501    1.2065    0.3864 C   0  0  0  0  0  0  0  0  0  0  0  0
    0.9529    1.9367    1.3704 O   0  0  0  0  0  0  0  0  0  0  0  0
   -0.1327    0.9749   -1.8151 C   0  0  0  0  0  0  0  0  0  0  0  0
   -1.2180    0.2841   -2.6042 C   0  0  0  0  0  0  0  0  0  0  0  0
   -2.4364    0.8274   -2.9406 C   0  0  0  0  0  0  0  0  0  0  0  0
   -1.1710   -1.0356   -3.1343 C   0  0  0  0  0  0  0  0  0  0  0  0
   -3.1332   -0.1102   -3.6545 N   0  0  0  0  0  0  0  0  0  0  0  0
   -2.3848   -1.2579   -3.7884 C   0  0  0  0  0  0  0  0  0  0  0  0
   -0.2095   -2.0655   -3.1205 C   0  0  0  0  0  0  0  0  0  0  0  0
   -2.6862   -2.4634   -4.4318 C   0  0  0  0  0  0  0  0  0  0  0  0
   -0.4972   -3.2767   -3.7601 C   0  0  0  0  0  0  0  0  0  0  0  0
   -1.7171   -3.4705   -4.4051 C   0  0  0  0  0  0  0  0  0  0  0  0
   -2.1183    1.4068   -0.2401 H   0  0  0  0  0  0  0  0  0  0  0  0
   -0.1575   -0.4778   -0.1840 H   0  0  0  0  0  0  0  0  0  0  0  0
    0.8480    0.7367   -2.2487 H   0  0  0  0  0  0  0  0  0  0  0  0
   -0.2495    2.0589   -1.9458 H   0  0  0  0  0  0  0  0  0  0  0  0
   -2.8714    1.7959   -2.7353 H   0  0  0  0  0  0  0  0  0  0  0  0
   -4.0626    0.0205   -4.0295 H   0  0  0  0  0  0  0  0  0  0  0  0
    0.7458   -1.9304   -2.6213 H   0  0  0  0  0  0  0  0  0  0  0  0
   -3.6351   -2.6148   -4.9351 H   0  0  0  0  0  0  0  0  0  0  0  0
    0.2402   -4.0748   -3.7524 H   0  0  0  0  0  0  0  0  0  0  0  0
   -1.9196   -4.4191   -4.8955 H   0  0  0  0  0  0  0  0  0  0  0  0
    2.2466    0.7857   -0.1774 N   0  0  0  0  0  0  0  0  0  0  0  0
    3.5428    1.1855    0.3213 C   0  0  2  0  0  0  0  0  0  0  0  0
    3.5429    2.7014    0.4687 C   0  0  0  0  0  0  0  0  0  0  0  0
    2.7762    3.4356   -0.1511 O   0  0  0  0  0  0  0  0  0  0  0  0
    4.6576    0.7296   -0.6071 C   0  0  0  0  0  0  0  0  0  0  0  0
    2.2093    0.1656   -0.9810 H   0  0  0  0  0  0  0  0  0  0  0  0
    3.6591    0.7222    1.3071 H   0  0  0  0  0  0  0  0  0  0  0  0
    4.5579    1.1836   -1.5998 H   0  0  0  0  0  0  0  0  0  0  0  0
    5.6407    1.0083   -0.2135 H   0  0  0  0  0  0  0  0  0  0  0  0
    4.6375   -0.3580   -0.7355 H   0  0  0  0  0  0  0  0  0  0  0  0
    4.5287    3.1408    1.3412 N   0  0  0  0  0  0  0  0  0  0  0  0
    4.7399    4.5383    1.6389 C   0  0  0  0  0  0  0  0  0  0  0  0
    5.1068    2.4604    1.8256 H   0  0  0  0  0  0  0  0  0  0  0  0
    5.4964    4.9493    0.9542 H   0  0  0  0  0  0  0  0  0  0  0  0
    3.7948    5.0868    1.5128 H   0  0  0  0  0  0  0  0  0  0  0  0
    5.0892    4.6432    2.6767 H   0  0  0  0  0  0  0  0  0  0  0  0
 29 30  2  0  0  0  0
 27 29  1  0  0  0  0
 28 30  1  0  0  0  0
 24 27  2  0  0  0  0
 26 28  2  0  0  0  0
 22 23  2  0  0  0  0
 23 25  1  0  0  0  0
 22 24  1  0  0  0  0
 24 26  1  0  0  0  0
 21 22  1  0  0  0  0
 25 26  1  0  0  0  0
  1  3  1  0  0  0  0
  1  7  1  0  0  0  0
  1  2  2  0  0  0  0
 42 43  1  0  0  0  0
 43 51  1  0  0  0  0
 43 44  2  0  0  0  0
  8  9  1  0  0  0  0
  9 17  1  0  0  0  0
  9 10  2  0  0  0  0
 18 19  1  0  0  0  0
 19 41  1  0  0  0  0
 19 20  2  0  0  0  0
 42 45  1  0  0  0  0
  8 11  1  0  0  0  0
 51 52  1  0  0  0  0
 18 21  1  0  0  0  0
 41 42  1  0  0  0  0
  7  8  1  0  0  0  0
 17 18  1  0  0  0  0
 29 39  1  0  0  0  0
 30 40  1  0  0  0  0
 27 37  1  0  0  0  0
 28 38  1  0  0  0  0
 23 35  1  0  0  0  0
  3  4  1  0  0  0  0
  3  5  1  0  0  0  0
  3  6  1  0  0  0  0
 45 48  1  0  0  0  0
 45 49  1  0  0  0  0
 45 50  1  0  0  0  0
 11 14  1  0  0  0  0
 11 15  1  0  0  0  0
 11 16  1  0  0  0  0
 52 54  1  0  0  0  0
 52 55  1  0  0  0  0
 52 56  1  0  0  0  0
 21 33  1  0  0  0  0
 21 34  1  0  0  0  0
 42 47  1  0  0  0  0
  8 13  1  0  0  0  0
 18 32  1  0  0  0  0
 25 36  1  0  0  0  0
 51 53  1  0  0  0  0
  7 12  1  0  0  0  0
 41 46  1  0  0  0  0
 17 31  1  0  0  0  0
M  END
$$$$

  -OEChem-05262214473D

 56 57  0     1  0  0  0  0  0999 V2000
   -2.2900    0.3401    4.1553 C   0  0  0  0  0  0  0  0  0  0  0  0
   -1.3426   -0.2746    3.6796 O   0  0  0  0  0  0  0  0  0  0  0  0
   -2.7219    0.0577    5.5560 C   0  0  0  0  0  0  0  0  0  0  0  0
   -3.4815   -0.7386    5.6094 H   0  0  0  0  0  0  0  0  0  0  0  0
   -1.8906   -0.2899    6.1903 H   0  0  0  0  0  0  0  0  0  0  0  0
   -3.1599    0.9126    6.0956 H   0  0  0  0  0  0  0  0  0  0  0  0
   -3.0397    1.3125    3.5142 N   0  0  0  0  0  0  0  0  0  0  0  0
   -2.7928    1.7385    2.1618 C   0  0  2  0  0  0  0  0  0  0  0  0
   -1.4579    1.1532    1.7206 C   0  0  0  0  0  0  0  0  0  0  0  0
   -0.5858    0.8004    2.5118 O   0  0  0  0  0  0  0  0  0  0  0  0
   -2.7841    3.2553    2.0523 C   0  0  0  0  0  0  0  0  0  0  0  0
   -3.8047    1.7484    4.0260 H   0  0  0  0  0  0  0  0  0  0  0  0
   -3.5969    1.3201    1.5466 H   0  0  0  0  0  0  0  0  0  0  0  0
   -1.9850    3.6926    2.6620 H   0  0  0  0  0  0  0  0  0  0  0  0
   -2.6246    3.5776    1.0180 H   0  0  0  0  0  0  0  0  0  0  0  0
   -3.7342    3.6765    2.3981 H   0  0  0  0  0  0  0  0  0  0  0  0
   -1.3352    1.1101    0.3372 N   0  0  0  0  0  0  0  0  0  0  0  0
   -0.1579    0.6093   -0.3265 C   0  0  2  0  0  0  0  0  0  0  0  0
    1.0501    1.2065    0.3864 C   0  0  0  0  0  0  0  0  0  0  0  0
    0.9856    1.7072    1.5071 O   0  0  0  0  0  0  0  0  0  0  0  0
   -0.1327    0.9749   -1.8151 C   0  0  0  0  0  0  0  0  0  0  0  0
   -1.2180    0.2841   -2.6042 C   0  0  0  0  0  0  0  0  0  0  0  0
   -2.4364    0.8274   -2.9406 C   0  0  0  0  0  0  0  0  0  0  0  0
   -1.1710   -1.0356   -3.1343 C   0  0  0  0  0  0  0  0  0  0  0  0
   -3.1332   -0.1102   -3.6545 N   0  0  0  0  0  0  0  0  0  0  0  0
   -2.3848   -1.2579   -3.7884 C   0  0  0  0  0  0  0  0  0  0  0  0
   -0.2095   -2.0655   -3.1205 C   0  0  0  0  0  0  0  0  0  0  0  0
   -2.6862   -2.4634   -4.4318 C   0  0  0  0  0  0  0  0  0  0  0  0
   -0.4972   -3.2767   -3.7601 C   0  0  0  0  0  0  0  0  0  0  0  0
   -1.7171   -3.4705   -4.4051 C   0  0  0  0  0  0  0  0  0  0  0  0
   -2.1183    1.4068   -0.2401 H   0  0  0  0  0  0  0  0  0  0  0  0
   -0.1575   -0.4778   -0.1840 H   0  0  0  0  0  0  0  0  0  0  0  0
    0.8480    0.7367   -2.2487 H   0  0  0  0  0  0  0  0  0  0  0  0
   -0.2495    2.0589   -1.9458 H   0  0  0  0  0  0  0  0  0  0  0  0
   -2.8714    1.7959   -2.7353 H   0  0  0  0  0  0  0  0  0  0  0  0
   -4.0626    0.0205   -4.0295 H   0  0  0  0  0  0  0  0  0  0  0  0
    0.7458   -1.9304   -2.6213 H   0  0  0  0  0  0  0  0  0  0  0  0
   -3.6351   -2.6148   -4.9351 H   0  0  0  0  0  0  0  0  0  0  0  0
    0.2402   -4.0748   -3.7524 H   0  0  0  0  0  0  0  0  0  0  0  0
   -1.9196   -4.4191   -4.8955 H   0  0  0  0  0  0  0  0  0  0  0  0
    2.2136    1.0674   -0.3575 N   0  0  0  0  0  0  0  0  0  0  0  0
    3.5061    1.5271    0.0974 C   0  0  2  0  0  0  0  0  0  0  0  0
    3.3556    2.9700    0.5612 C   0  0  0  0  0  0  0  0  0  0  0  0
    2.4468    3.7054    0.1811 O   0  0  0  0  0  0  0  0  0  0  0  0
    4.5513    1.4157   -1.0016 C   0  0  0  0  0  0  0  0  0  0  0  0
    2.1537    0.6201   -1.2675 H   0  0  0  0  0  0  0  0  0  0  0  0
    3.7844    0.8964    0.9487 H   0  0  0  0  0  0  0  0  0  0  0  0
    4.2895    2.0409   -1.8631 H   0  0  0  0  0  0  0  0  0  0  0  0
    5.5360    1.7375   -0.6468 H   0  0  0  0  0  0  0  0  0  0  0  0
    4.6370    0.3824   -1.3547 H   0  0  0  0  0  0  0  0  0  0  0  0
    4.3798    3.3530    1.4158 N   0  0  0  0  0  0  0  0  0  0  0  0
    4.4679    4.6787    1.9821 C   0  0  0  0  0  0  0  0  0  0  0  0
    5.0809    2.6720    1.6922 H   0  0  0  0  0  0  0  0  0  0  0  0
    5.0913    5.3136    1.3354 H   0  0  0  0  0  0  0  0  0  0  0  0
    3.4598    5.1121    2.0593 H   0  0  0  0  0  0  0  0  0  0  0  0
    4.9195    4.6203    2.9835 H   0  0  0  0  0  0  0  0  0  0  0  0
 29 30  2  0  0  0  0
 27 29  1  0  0  0  0
 28 30  1  0  0  0  0
 24 27  2  0  0  0  0
 26 28  2  0  0  0  0
 22 23  2  0  0  0  0
 23 25  1  0  0  0  0
 22 24  1  0  0  0  0
 24 26  1  0  0  0  0
 21 22  1  0  0  0  0
 25 26  1  0  0  0  0
  1  3  1  0  0  0  0
  1  7  1  0  0  0  0
  1  2  2  0  0  0  0
 42 43  1  0  0  0  0
 43 51  1  0  0  0  0
 43 44  2  0  0  0  0
  8  9  1  0  0  0  0
  9 17  1  0  0  0  0
  9 10  2  0  0  0  0
 18 19  1  0  0  0  0
 19 41  1  0  0  0  0
 19 20  2  0  0  0  0
 42 45  1  0  0  0  0
  8 11  1  0  0  0  0
 51 52  1  0  0  0  0
 18 21  1  0  0  0  0
 41 42  1  0  0  0  0
  7  8  1  0  0  0  0
 17 18  1  0  0  0  0
 29 39  1  0  0  0  0
 30 40  1  0  0  0  0
 27 37  1  0  0  0  0
 28 38  1  0  0  0  0
 23 35  1  0  0  0  0
  3  4  1  0  0  0  0
  3  5  1  0  0  0  0
  3  6  1  0  0  0  0
 45 48  1  0  0  0  0
 45 49  1  0  0  0  0
 45 50  1  0  0  0  0
 11 14  1  0  0  0  0
 11 15  1  0  0  0  0
 11 16  1  0  0  0  0
 52 54  1  0  0  0  0
 52 55  1  0  0  0  0
 52 56  1  0  0  0  0
 21 33  1  0  0  0  0
 21 34  1  0  0  0  0
 42 47  1  0  0  0  0
  8 13  1  0  0  0  0
 18 32  1  0  0  0  0
 25 36  1  0  0  0  0
 51 53  1  0  0  0  0
  7 12  1  0  0  0  0
 41 46  1  0  0  0  0
 17 31  1  0  0  0  0
M  END
$$$$

  -OEChem-05262214473D

 56 57  0     1  0  0  0  0  0999 V2000
   -2.2900    0.3401    4.1553 C   0  0  0  0  0  0  0  0  0  0  0  0
   -1.3426   -0.2746    3.6796 O   0  0  0  0  0  0  0  0  0  0  0  0
   -2.7219    0.0577    5.5560 C   0  0  0  0  0  0  0  0  0  0  0  0
   -3.4815   -0.7386    5.6094 H   0  0  0  0  0  0  0  0  0  0  0  0
   -1.8906   -0.2899    6.1903 H   0  0  0  0  0  0  0  0  0  0  0  0
   -3.1599    0.9126    6.0956 H   0  0  0  0  0  0  0  0  0  0  0  0
   -3.0397    1.3125    3.5142 N   0  0  0  0  0  0  0  0  0  0  0  0
   -2.7928    1.7385    2.1618 C   0  0  2  0  0  0  0  0  0  0  0  0
   -1.4579    1.1532    1.7206 C   0  0  0  0  0  0  0  0  0  0  0  0
   -0.5858    0.8004    2.5118 O   0  0  0  0  0  0  0  0  0  0  0  0
   -2.7841    3.2553    2.0523 C   0  0  0  0  0  0  0  0  0  0  0  0
   -3.8047    1.7484    4.0260 H   0  0  0  0  0  0  0  0  0  0  0  0
   -3.5969    1.3201    1.5466 H   0  0  0  0  0  0  0  0  0  0  0  0
   -1.9850    3.6926    2.6620 H   0  0  0  0  0  0  0  0  0  0  0  0
   -2.6246    3.5776    1.0180 H   0  0  0  0  0  0  0  0  0  0  0  0
   -3.7342    3.6765    2.3981 H   0  0  0  0  0  0  0  0  0  0  0  0
   -1.3352    1.1101    0.3372 N   0  0  0  0  0  0  0  0  0  0  0  0
   -0.1579    0.6093   -0.3265 C   0  0  2  0  0  0  0  0  0  0  0  0
    1.0501    1.2065    0.3864 C   0  0  0  0  0  0  0  0  0  0  0  0
    1.0589    1.4614    1.5889 O   0  0  0  0  0  0  0  0  0  0  0  0
   -0.1327    0.9749   -1.8151 C   0  0  0  0  0  0  0  0  0  0  0  0
   -1.2180    0.2841   -2.6042 C   0  0  0  0  0  0  0  0  0  0  0  0
   -2.4364    0.8274   -2.9406 C   0  0  0  0  0  0  0  0  0  0  0  0
   -1.1710   -1.0356   -3.1343 C   0  0  0  0  0  0  0  0  0  0  0  0
   -3.1332   -0.1102   -3.6545 N   0  0  0  0  0  0  0  0  0  0  0  0
   -2.3848   -1.2579   -3.7884 C   0  0  0  0  0  0  0  0  0  0  0  0
   -0.2095   -2.0655   -3.1205 C   0  0  0  0  0  0  0  0  0  0  0  0
   -2.6862   -2.4634   -4.4318 C   0  0  0  0  0  0  0  0  0  0  0  0
   -0.4972   -3.2767   -3.7601 C   0  0  0  0  0  0  0  0  0  0  0  0
   -1.7171   -3.4705   -4.4051 C   0  0  0  0  0  0  0  0  0  0  0  0
   -2.1183    1.4068   -0.2401 H   0  0  0  0  0  0  0  0  0  0  0  0
   -0.1575   -0.4778   -0.1840 H   0  0  0  0  0  0  0  0  0  0  0  0
    0.8480    0.7367   -2.2487 H   0  0  0  0  0  0  0  0  0  0  0  0
   -0.2495    2.0589   -1.9458 H   0  0  0  0  0  0  0  0  0  0  0  0
   -2.8714    1.7959   -2.7353 H   0  0  0  0  0  0  0  0  0  0  0  0
   -4.0626    0.0205   -4.0295 H   0  0  0  0  0  0  0  0  0  0  0  0
    0.7458   -1.9304   -2.6213 H   0  0  0  0  0  0  0  0  0  0  0  0
   -3.6351   -2.6148   -4.9351 H   0  0  0  0  0  0  0  0  0  0  0  0
    0.2402   -4.0748   -3.7524 H   0  0  0  0  0  0  0  0  0  0  0  0
   -1.9196   -4.4191   -4.8955 H   0  0  0  0  0  0  0  0  0  0  0  0
    2.1294    1.3725   -0.4703 N   0  0  0  0  0  0  0  0  0  0  0  0
    3.4066    1.8986   -0.0451 C   0  0  2  0  0  0  0  0  0  0  0  0
    3.1515    3.1878    0.7246 C   0  0  0  0  0  0  0  0  0  0  0  0
    2.1297    3.8580    0.5907 O   0  0  0  0  0  0  0  0  0  0  0  0
    4.3255    2.1465   -1.2312 C   0  0  0  0  0  0  0  0  0  0  0  0
    2.0159    1.1111   -1.4453 H   0  0  0  0  0  0  0  0  0  0  0  0
    3.8481    1.1534    0.6256 H   0  0  0  0  0  0  0  0  0  0  0  0
    3.8998    2.8904   -1.9144 H   0  0  0  0  0  0  0  0  0  0  0  0
    5.3026    2.5180   -0.9052 H   0  0  0  0  0  0  0  0  0  0  0  0
    4.4840    1.2244   -1.8008 H   0  0  0  0  0  0  0  0  0  0  0  0
    4.2178    3.5246    1.5465 N   0  0  0  0  0  0  0  0  0  0  0  0
    4.2229    4.7111    2.3701 C   0  0  0  0  0  0  0  0  0  0  0  0
    5.0168    2.9005    1.6094 H   0  0  0  0  0  0  0  0  0  0  0  0
    4.6946    5.5383    1.8194 H   0  0  0  0  0  0  0  0  0  0  0  0
    3.1886    4.9839    2.6262 H   0  0  0  0  0  0  0  0  0  0  0  0
    4.7894    4.5147    3.2923 H   0  0  0  0  0  0  0  0  0  0  0  0
 29 30  2  0  0  0  0
 27 29  1  0  0  0  0
 28 30  1  0  0  0  0
 24 27  2  0  0  0  0
 26 28  2  0  0  0  0
 22 23  2  0  0  0  0
 23 25  1  0  0  0  0
 22 24  1  0  0  0  0
 24 26  1  0  0  0  0
 21 22  1  0  0  0  0
 25 26  1  0  0  0  0
  1  3  1  0  0  0  0
  1  7  1  0  0  0  0
  1  2  2  0  0  0  0
 42 43  1  0  0  0  0
 43 51  1  0  0  0  0
 43 44  2  0  0  0  0
  8  9  1  0  0  0  0
  9 17  1  0  0  0  0
  9 10  2  0  0  0  0
 18 19  1  0  0  0  0
 19 41  1  0  0  0  0
 19 20  2  0  0  0  0
 42 45  1  0  0  0  0
  8 11  1  0  0  0  0
 51 52  1  0  0  0  0
 18 21  1  0  0  0  0
 41 42  1  0  0  0  0
  7  8  1  0  0  0  0
 17 18  1  0  0  0  0
 29 39  1  0  0  0  0
 30 40  1  0  0  0  0
 27 37  1  0  0  0  0
 28 38  1  0  0  0  0
 23 35  1  0  0  0  0
  3  4  1  0  0  0  0
  3  5  1  0  0  0  0
  3  6  1  0  0  0  0
 45 48  1  0  0  0  0
 45 49  1  0  0  0  0
 45 50  1  0  0  0  0
 11 14  1  0  0  0  0
 11 15  1  0  0  0  0
 11 16  1  0  0  0  0
 52 54  1  0  0  0  0
 52 55  1  0  0  0  0
 52 56  1  0  0  0  0
 21 33  1  0  0  0  0
 21 34  1  0  0  0  0
 42 47  1  0  0  0  0
  8 13  1  0  0  0  0
 18 32  1  0  0  0  0
 25 36  1  0  0  0  0
 51 53  1  0  0  0  0
  7 12  1  0  0  0  0
 41 46  1  0  0  0  0
 17 31  1  0  0  0  0
M  END
$$$$

  -OEChem-05262214473D

 56 57  0     1  0  0  0  0  0999 V2000
   -2.2900    0.3401    4.1553 C   0  0  0  0  0  0  0  0  0  0  0  0
   -1.3426   -0.2746    3.6796 O   0  0  0  0  0  0  0  0  0  0  0  0
   -2.7219    0.0577    5.5560 C   0  0  0  0  0  0  0  0  0  0  0  0
   -3.4815   -0.7386    5.6094 H   0  0  0  0  0  0  0  0  0  0  0  0
   -1.8906   -0.2899    6.1903 H   0  0  0  0  0  0  0  0  0  0  0  0
   -3.1599    0.9126    6.0956 H   0  0  0  0  0  0  0  0  0  0  0  0
   -3.0397    1.3125    3.5142 N   0  0  0  0  0  0  0  0  0  0  0  0
   -2.7928    1.7385    2.1618 C   0  0  2  0  0  0  0  0  0  0  0  0
   -1.4579    1.1532    1.7206 C   0  0  0  0  0  0  0  0  0  0  0  0
   -0.5858    0.8004    2.5118 O   0  0  0  0  0  0  0  0  0  0  0  0
   -2.7841    3.2553    2.0523 C   0  0  0  0  0  0  0  0  0  0  0  0
   -3.8047    1.7484    4.0260 H   0  0  0  0  0  0  0  0  0  0  0  0
   -3.5969    1.3201    1.5466 H   0  0  0  0  0  0  0  0  0  0  0  0
   -1.9850    3.6926    2.6620 H   0  0  0  0  0  0  0  0  0  0  0  0
   -2.6246    3.5776    1.0180 H   0  0  0  0  0  0  0  0  0  0  0  0
   -3.7342    3.6765    2.3981 H   0  0  0  0  0  0  0  0  0  0  0  0
   -1.3352    1.1101    0.3372 N   0  0  0  0  0  0  0  0  0  0  0  0
   -0.1579    0.6093   -0.3265 C   0  0  2  0  0  0  0  0  0  0  0  0
    1.0501    1.2065    0.3864 C   0  0  0  0  0  0  0  0  0  0  0  0
    1.1677    1.2161    1.6099 O   0  0  0  0  0  0  0  0  0  0  0  0
   -0.1327    0.9749   -1.8151 C   0  0  0  0  0  0  0  0  0  0  0  0
   -1.2180    0.2841   -2.6042 C   0  0  0  0  0  0  0  0  0  0  0  0
   -2.4364    0.8274   -2.9406 C   0  0  0  0  0  0  0  0  0  0  0  0
   -1.1710   -1.0356   -3.1343 C   0  0  0  0  0  0  0  0  0  0  0  0
   -3.1332   -0.1102   -3.6545 N   0  0  0  0  0  0  0  0  0  0  0  0
   -2.3848   -1.2579   -3.7884 C   0  0  0  0  0  0  0  0  0  0  0  0
   -0.2095   -2.0655   -3.1205 C   0  0  0  0  0  0  0  0  0  0  0  0
   -2.6862   -2.4634   -4.4318 C   0  0  0  0  0  0  0  0  0  0  0  0
   -0.4972   -3.2767   -3.7601 C   0  0  0  0  0  0  0  0  0  0  0  0
   -1.7171   -3.4705   -4.4051 C   0  0  0  0  0  0  0  0  0  0  0  0
   -2.1183    1.4068   -0.2401 H   0  0  0  0  0  0  0  0  0  0  0  0
   -0.1575   -0.4778   -0.1840 H   0  0  0  0  0  0  0  0  0  0  0  0
    0.8480    0.7367   -2.2487 H   0  0  0  0  0  0  0  0  0  0  0  0
   -0.2495    2.0589   -1.9458 H   0  0  0  0  0  0  0  0  0  0  0  0
   -2.8714    1.7959   -2.7353 H   0  0  0  0  0  0  0  0  0  0  0  0
   -4.0626    0.0205   -4.0295 H   0  0  0  0  0  0  0  0  0  0  0  0
    0.7458   -1.9304   -2.6213 H   0  0  0  0  0  0  0  0  0  0  0  0
   -3.6351   -2.6148   -4.9351 H   0  0  0  0  0  0  0  0  0  0  0  0
    0.2402   -4.0748   -3.7524 H   0  0  0  0  0  0  0  0  0  0  0  0
   -1.9196   -4.4191   -4.8955 H   0  0  0  0  0  0  0  0  0  0  0  0
    1.9997    1.6801   -0.5082 N   0  0  0  0  0  0  0  0  0  0  0  0
    3.2511    2.2746   -0.0965 C   0  0  2  0  0  0  0  0  0  0  0  0
    2.9445    3.3399    0.9478 C   0  0  0  0  0  0  0  0  0  0  0  0
    1.8464    3.8829    1.0498 O   0  0  0  0  0  0  0  0  0  0  0  0
    3.9957    2.8721   -1.2802 C   0  0  0  0  0  0  0  0  0  0  0  0
    1.8054    1.6052   -1.5024 H   0  0  0  0  0  0  0  0  0  0  0  0
    3.8458    1.4757    0.3596 H   0  0  0  0  0  0  0  0  0  0  0  0
    3.4153    3.6744   -1.7502 H   0  0  0  0  0  0  0  0  0  0  0  0
    4.9566    3.2967   -0.9711 H   0  0  0  0  0  0  0  0  0  0  0  0
    4.1891    2.1107   -2.0436 H   0  0  0  0  0  0  0  0  0  0  0  0
    4.0539    3.6440    1.7244 N   0  0  0  0  0  0  0  0  0  0  0  0
    4.0218    4.6331    2.7763 C   0  0  0  0  0  0  0  0  0  0  0  0
    4.9188    3.1305    1.5828 H   0  0  0  0  0  0  0  0  0  0  0  0
    4.3333    5.6080    2.3732 H   0  0  0  0  0  0  0  0  0  0  0  0
    2.9996    4.7110    3.1751 H   0  0  0  0  0  0  0  0  0  0  0  0
    4.7079    4.3335    3.5822 H   0  0  0  0  0  0  0  0  0  0  0  0
 29 30  2  0  0  0  0
 27 29  1  0  0  0  0
 28 30  1  0  0  0  0
 24 27  2  0  0  0  0
 26 28  2  0  0  0  0
 22 23  2  0  0  0  0
 23 25  1  0  0  0  0
 22 24  1  0  0  0  0
 24 26  1  0  0  0  0
 21 22  1  0  0  0  0
 25 26  1  0  0  0  0
  1  3  1  0  0  0  0
  1  7  1  0  0  0  0
  1  2  2  0  0  0  0
 42 43  1  0  0  0  0
 43 51  1  0  0  0  0
 43 44  2  0  0  0  0
  8  9  1  0  0  0  0
  9 17  1  0  0  0  0
  9 10  2  0  0  0  0
 18 19  1  0  0  0  0
 19 41  1  0  0  0  0
 19 20  2  0  0  0  0
 42 45  1  0  0  0  0
  8 11  1  0  0  0  0
 51 52  1  0  0  0  0
 18 21  1  0  0  0  0
 41 42  1  0  0  0  0
  7  8  1  0  0  0  0
 17 18  1  0  0  0  0
 29 39  1  0  0  0  0
 30 40  1  0  0  0  0
 27 37  1  0  0  0  0
 28 38  1  0  0  0  0
 23 35  1  0  0  0  0
  3  4  1  0  0  0  0
  3  5  1  0  0  0  0
  3  6  1  0  0  0  0
 45 48  1  0  0  0  0
 45 49  1  0  0  0  0
 45 50  1  0  0  0  0
 11 14  1  0  0  0  0
 11 15  1  0  0  0  0
 11 16  1  0  0  0  0
 52 54  1  0  0  0  0
 52 55  1  0  0  0  0
 52 56  1  0  0  0  0
 21 33  1  0  0  0  0
 21 34  1  0  0  0  0
 42 47  1  0  0  0  0
  8 13  1  0  0  0  0
 18 32  1  0  0  0  0
 25 36  1  0  0  0  0
 51 53  1  0  0  0  0
  7 12  1  0  0  0  0
 41 46  1  0  0  0  0
 17 31  1  0  0  0  0
M  END
$$$$

  -OEChem-05262214473D

 56 57  0     1  0  0  0  0  0999 V2000
   -2.2900    0.3401    4.1553 C   0  0  0  0  0  0  0  0  0  0  0  0
   -1.3426   -0.2746    3.6796 O   0  0  0  0  0  0  0  0  0  0  0  0
   -2.7219    0.0577    5.5560 C   0  0  0  0  0  0  0  0  0  0  0  0
   -3.4815   -0.7386    5.6094 H   0  0  0  0  0  0  0  0  0  0  0  0
   -1.8906   -0.2899    6.1903 H   0  0  0  0  0  0  0  0  0  0  0  0
   -3.1599    0.9126    6.0956 H   0  0  0  0  0  0  0  0  0  0  0  0
   -3.0397    1.3125    3.5142 N   0  0  0  0  0  0  0  0  0  0  0  0
   -2.7928    1.7385    2.1618 C   0  0  2  0  0  0  0  0  0  0  0  0
   -1.4579    1.1532    1.7206 C   0  0  0  0  0  0  0  0  0  0  0  0
   -0.5858    0.8004    2.5118 O   0  0  0  0  0  0  0  0  0  0  0  0
   -2.7841    3.2553    2.0523 C   0  0  0  0  0  0  0  0  0  0  0  0
   -3.8047    1.7484    4.0260 H   0  0  0  0  0  0  0  0  0  0  0  0
   -3.5969    1.3201    1.5466 H   0  0  0  0  0  0  0  0  0  0  0  0
   -1.9850    3.6926    2.6620 H   0  0  0  0  0  0  0  0  0  0  0  0
   -2.6246    3.5776    1.0180 H   0  0  0  0  0  0  0  0  0  0  0  0
   -3.7342    3.6765    2.3981 H   0  0  0  0  0  0  0  0  0  0  0  0
   -1.3352    1.1101    0.3372 N   0  0  0  0  0  0  0  0  0  0  0  0
   -0.1579    0.6093   -0.3265 C   0  0  2  0  0  0  0  0  0  0  0  0
    1.0501    1.2065    0.3864 C   0  0  0  0  0  0  0  0  0  0  0  0
    1.3047    0.9880    1.5690 O   0  0  0  0  0  0  0  0  0  0  0  0
   -0.1327    0.9749   -1.8151 C   0  0  0  0  0  0  0  0  0  0  0  0
   -1.2180    0.2841   -2.6042 C   0  0  0  0  0  0  0  0  0  0  0  0
   -2.4364    0.8274   -2.9406 C   0  0  0  0  0  0  0  0  0  0  0  0
   -1.1710   -1.0356   -3.1343 C   0  0  0  0  0  0  0  0  0  0  0  0
   -3.1332   -0.1102   -3.6545 N   0  0  0  0  0  0  0  0  0  0  0  0
   -2.3848   -1.2579   -3.7884 C   0  0  0  0  0  0  0  0  0  0  0  0
   -0.2095   -2.0655   -3.1205 C   0  0  0  0  0  0  0  0  0  0  0  0
   -2.6862   -2.4634   -4.4318 C   0  0  0  0  0  0  0  0  0  0  0  0
   -0.4972   -3.2767   -3.7601 C   0  0  0  0  0  0  0  0  0  0  0  0
   -1.7171   -3.4705   -4.4051 C   0  0  0  0  0  0  0  0  0  0  0  0
   -2.1183    1.4068   -0.2401 H   0  0  0  0  0  0  0  0  0  0  0  0
   -0.1575   -0.4778   -0.1840 H   0  0  0  0  0  0  0  0  0  0  0  0
    0.8480    0.7367   -2.2487 H   0  0  0  0  0  0  0  0  0  0  0  0
   -0.2495    2.0589   -1.9458 H   0  0  0  0  0  0  0  0  0  0  0  0
   -2.8714    1.7959   -2.7353 H   0  0  0  0  0  0  0  0  0  0  0  0
   -4.0626    0.0205   -4.0295 H   0  0  0  0  0  0  0  0  0  0  0  0
    0.7458   -1.9304   -2.6213 H   0  0  0  0  0  0  0  0  0  0  0  0
   -3.6351   -2.6148   -4.9351 H   0  0  0  0  0  0  0  0  0  0  0  0
    0.2402   -4.0748   -3.7524 H   0  0  0  0  0  0  0  0  0  0  0  0
   -1.9196   -4.4191   -4.8955 H   0  0  0  0  0  0  0  0  0  0  0  0
    1.8333    1.9693   -0.4686 N   0  0  0  0  0  0  0  0  0  0  0  0
    3.0501    2.6295   -0.0533 C   0  0  2  0  0  0  0  0  0  0  0  0
    2.7488    3.4161    1.2156 C   0  0  0  0  0  0  0  0  0  0  0  0
    1.6163    3.7786    1.5270 O   0  0  0  0  0  0  0  0  0  0  0  0
    3.5844    3.5431   -1.1453 C   0  0  0  0  0  0  0  0  0  0  0  0
    1.5364    2.0686   -1.4349 H   0  0  0  0  0  0  0  0  0  0  0  0
    3.7775    1.8411    0.1691 H   0  0  0  0  0  0  0  0  0  0  0  0
    2.8692    4.3393   -1.3817 H   0  0  0  0  0  0  0  0  0  0  0  0
    4.5214    4.0205   -0.8400 H   0  0  0  0  0  0  0  0  0  0  0  0
    3.7724    2.9810   -2.0664 H   0  0  0  0  0  0  0  0  0  0  0  0
    3.8991    3.7029    1.9373 N   0  0  0  0  0  0  0  0  0  0  0  0
    3.8781    4.4501    3.1731 C   0  0  0  0  0  0  0  0  0  0  0  0
    4.7936    3.3463    1.6142 H   0  0  0  0  0  0  0  0  0  0  0  0
    4.0320    5.5181    2.9591 H   0  0  0  0  0  0  0  0  0  0  0  0
    2.9057    4.3120    3.6684 H   0  0  0  0  0  0  0  0  0  0  0  0
    4.6805    4.0893    3.8333 H   0  0  0  0  0  0  0  0  0  0  0  0
 29 30  2  0  0  0  0
 27 29  1  0  0  0  0
 28 30  1  0  0  0  0
 24 27  2  0  0  0  0
 26 28  2  0  0  0  0
 22 23  2  0  0  0  0
 23 25  1  0  0  0  0
 22 24  1  0  0  0  0
 24 26  1  0  0  0  0
 21 22  1  0  0  0  0
 25 26  1  0  0  0  0
  1  3  1  0  0  0  0
  1  7  1  0  0  0  0
  1  2  2  0  0  0  0
 42 43  1  0  0  0  0
 43 51  1  0  0  0  0
 43 44  2  0  0  0  0
  8  9  1  0  0  0  0
  9 17  1  0  0  0  0
  9 10  2  0  0  0  0
 18 19  1  0  0  0  0
 19 41  1  0  0  0  0
 19 20  2  0  0  0  0
 42 45  1  0  0  0  0
  8 11  1  0  0  0  0
 51 52  1  0  0  0  0
 18 21  1  0  0  0  0
 41 42  1  0  0  0  0
  7  8  1  0  0  0  0
 17 18  1  0  0  0  0
 29 39  1  0  0  0  0
 30 40  1  0  0  0  0
 27 37  1  0  0  0  0
 28 38  1  0  0  0  0
 23 35  1  0  0  0  0
  3  4  1  0  0  0  0
  3  5  1  0  0  0  0
  3  6  1  0  0  0  0
 45 48  1  0  0  0  0
 45 49  1  0  0  0  0
 45 50  1  0  0  0  0
 11 14  1  0  0  0  0
 11 15  1  0  0  0  0
 11 16  1  0  0  0  0
 52 54  1  0  0  0  0
 52 55  1  0  0  0  0
 52 56  1  0  0  0  0
 21 33  1  0  0  0  0
 21 34  1  0  0  0  0
 42 47  1  0  0  0  0
  8 13  1  0  0  0  0
 18 32  1  0  0  0  0
 25 36  1  0  0  0  0
 51 53  1  0  0  0  0
  7 12  1  0  0  0  0
 41 46  1  0  0  0  0
 17 31  1  0  0  0  0
M  END
$$$$

  -OEChem-05262214473D

 56 57  0     1  0  0  0  0  0999 V2000
   -2.2900    0.3401    4.1553 C   0  0  0  0  0  0  0  0  0  0  0  0
   -1.3426   -0.2746    3.6796 O   0  0  0  0  0  0  0  0  0  0  0  0
   -2.7219    0.0577    5.5560 C   0  0  0  0  0  0  0  0  0  0  0  0
   -3.4815   -0.7386    5.6094 H   0  0  0  0  0  0  0  0  0  0  0  0
   -1.8906   -0.2899    6.1903 H   0  0  0  0  0  0  0  0  0  0  0  0
   -3.1599    0.9126    6.0956 H   0  0  0  0  0  0  0  0  0  0  0  0
   -3.0397    1.3125    3.5142 N   0  0  0  0  0  0  0  0  0  0  0  0
   -2.7928    1.7385    2.1618 C   0  0  2  0  0  0  0  0  0  0  0  0
   -1.4579    1.1532    1.7206 C   0  0  0  0  0  0  0  0  0  0  0  0
   -0.5858    0.8004    2.5118 O   0  0  0  0  0  0  0  0  0  0  0  0
   -2.7841    3.2553    2.0523 C   0  0  0  0  0  0  0  0  0  0  0  0
   -3.8047    1.7484    4.0260 H   0  0  0  0  0  0  0  0  0  0  0  0
   -3.5969    1.3201    1.5466 H   0  0  0  0  0  0  0  0  0  0  0  0
   -1.9850    3.6926    2.6620 H   0  0  0  0  0  0  0  0  0  0  0  0
   -2.6246    3.5776    1.0180 H   0  0  0  0  0  0  0  0  0  0  0  0
   -3.7342    3.6765    2.3981 H   0  0  0  0  0  0  0  0  0  0  0  0
   -1.3352    1.1101    0.3372 N   0  0  0  0  0  0  0  0  0  0  0  0
   -0.1579    0.6093   -0.3265 C   0  0  2  0  0  0  0  0  0  0  0  0
    1.0501    1.2065    0.3864 C   0  0  0  0  0  0  0  0  0  0  0  0
    1.4604    0.7927    1.4687 O   0  0  0  0  0  0  0  0  0  0  0  0
   -0.1327    0.9749   -1.8151 C   0  0  0  0  0  0  0  0  0  0  0  0
   -1.2180    0.2841   -2.6042 C   0  0  0  0  0  0  0  0  0  0  0  0
   -2.4364    0.8274   -2.9406 C   0  0  0  0  0  0  0  0  0  0  0  0
   -1.1710   -1.0356   -3.1343 C   0  0  0  0  0  0  0  0  0  0  0  0
   -3.1332   -0.1102   -3.6545 N   0  0  0  0  0  0  0  0  0  0  0  0
   -2.3848   -1.2579   -3.7884 C   0  0  0  0  0  0  0  0  0  0  0  0
   -0.2095   -2.0655   -3.1205 C   0  0  0  0  0  0  0  0  0  0  0  0
   -2.6862   -2.4634   -4.4318 C   0  0  0  0  0  0  0  0  0  0  0  0
   -0.4972   -3.2767   -3.7601 C   0  0  0  0  0  0  0  0  0  0  0  0
   -1.7171   -3.4705   -4.4051 C   0  0  0  0  0  0  0  0  0  0  0  0
   -2.1183    1.4068   -0.2401 H   0  0  0  0  0  0  0  0  0  0  0  0
   -0.1575   -0.4778   -0.1840 H   0  0  0  0  0  0  0  0  0  0  0  0
    0.8480    0.7367   -2.2487 H   0  0  0  0  0  0  0  0  0  0  0  0
   -0.2495    2.0589   -1.9458 H   0  0  0  0  0  0  0  0  0  0  0  0
   -2.8714    1.7959   -2.7353 H   0  0  0  0  0  0  0  0  0  0  0  0
   -4.0626    0.0205   -4.0295 H   0  0  0  0  0  0  0  0  0  0  0  0
    0.7458   -1.9304   -2.6213 H   0  0  0  0  0  0  0  0  0  0  0  0
   -3.6351   -2.6148   -4.9351 H   0  0  0  0  0  0  0  0  0  0  0  0
    0.2402   -4.0748   -3.7524 H   0  0  0  0  0  0  0  0  0  0  0  0
   -1.9196   -4.4191   -4.8955 H   0  0  0  0  0  0  0  0  0  0  0  0
    1.6417    2.2204   -0.3541 N   0  0  0  0  0  0  0  0  0  0  0  0
    2.8174    2.9391    0.0816 C   0  0  2  0  0  0  0  0  0  0  0  0
    2.5778    3.4111    1.5097 C   0  0  0  0  0  0  0  0  0  0  0  0
    1.4551    3.5521    1.9900 O   0  0  0  0  0  0  0  0  0  0  0  0
    3.1195    4.1138   -0.8356 C   0  0  0  0  0  0  0  0  0  0  0  0
    1.2274    2.4699   -1.2474 H   0  0  0  0  0  0  0  0  0  0  0  0
    3.6481    2.2250    0.0669 H   0  0  0  0  0  0  0  0  0  0  0  0
    2.2985    4.8400   -0.8340 H   0  0  0  0  0  0  0  0  0  0  0  0
    4.0267    4.6400   -0.5208 H   0  0  0  0  0  0  0  0  0  0  0  0
    3.2622    3.7758   -1.8677 H   0  0  0  0  0  0  0  0  0  0  0  0
    3.7640    3.6975    2.1707 N   0  0  0  0  0  0  0  0  0  0  0  0
    3.8016    4.1747    3.5333 C   0  0  0  0  0  0  0  0  0  0  0  0
    4.6498    3.5331    1.7014 H   0  0  0  0  0  0  0  0  0  0  0  0
    3.8112    5.2746    3.5371 H   0  0  0  0  0  0  0  0  0  0  0  0
    2.9133    3.8140    4.0726 H   0  0  0  0  0  0  0  0  0  0  0  0
    4.7090    3.7985    4.0285 H   0  0  0  0  0  0  0  0  0  0  0  0
 29 30  2  0  0  0  0
 27 29  1  0  0  0  0
 28 30  1  0  0  0  0
 24 27  2  0  0  0  0
 26 28  2  0  0  0  0
 22 23  2  0  0  0  0
 23 25  1  0  0  0  0
 22 24  1  0  0  0  0
 24 26  1  0  0  0  0
 21 22  1  0  0  0  0
 25 26  1  0  0  0  0
  1  3  1  0  0  0  0
  1  7  1  0  0  0  0
  1  2  2  0  0  0  0
 42 43  1  0  0  0  0
 43 51  1  0  0  0  0
 43 44  2  0  0  0  0
  8  9  1  0  0  0  0
  9 17  1  0  0  0  0
  9 10  2  0  0  0  0
 18 19  1  0  0  0  0
 19 41  1  0  0  0  0
 19 20  2  0  0  0  0
 42 45  1  0  0  0  0
  8 11  1  0  0  0  0
 51 52  1  0  0  0  0
 18 21  1  0  0  0  0
 41 42  1  0  0  0  0
  7  8  1  0  0  0  0
 17 18  1  0  0  0  0
 29 39  1  0  0  0  0
 30 40  1  0  0  0  0
 27 37  1  0  0  0  0
 28 38  1  0  0  0  0
 23 35  1  0  0  0  0
  3  4  1  0  0  0  0
  3  5  1  0  0  0  0
  3  6  1  0  0  0  0
 45 48  1  0  0  0  0
 45 49  1  0  0  0  0
 45 50  1  0  0  0  0
 11 14  1  0  0  0  0
 11 15  1  0  0  0  0
 11 16  1  0  0  0  0
 52 54  1  0  0  0  0
 52 55  1  0  0  0  0
 52 56  1  0  0  0  0
 21 33  1  0  0  0  0
 21 34  1  0  0  0  0
 42 47  1  0  0  0  0
  8 13  1  0  0  0  0
 18 32  1  0  0  0  0
 25 36  1  0  0  0  0
 51 53  1  0  0  0  0
  7 12  1  0  0  0  0
 41 46  1  0  0  0  0
 17 31  1  0  0  0  0
M  END
$$$$

  -OEChem-05262214473D

 56 57  0     1  0  0  0  0  0999 V2000
   -2.2900    0.3401    4.1553 C   0  0  0  0  0  0  0  0  0  0  0  0
   -1.3426   -0.2746    3.6796 O   0  0  0  0  0  0  0  0  0  0  0  0
   -2.7219    0.0577    5.5560 C   0  0  0  0  0  0  0  0  0  0  0  0
   -3.4815   -0.7386    5.6094 H   0  0  0  0  0  0  0  0  0  0  0  0
   -1.8906   -0.2899    6.1903 H   0  0  0  0  0  0  0  0  0  0  0  0
   -3.1599    0.9126    6.0956 H   0  0  0  0  0  0  0  0  0  0  0  0
   -3.0397    1.3125    3.5142 N   0  0  0  0  0  0  0  0  0  0  0  0
   -2.7928    1.7385    2.1618 C   0  0  2  0  0  0  0  0  0  0  0  0
   -1.4579    1.1532    1.7206 C   0  0  0  0  0  0  0  0  0  0  0  0
   -0.5858    0.8004    2.5118 O   0  0  0  0  0  0  0  0  0  0  0  0
   -2.7841    3.2553    2.0523 C   0  0  0  0  0  0  0  0  0  0  0  0
   -3.8047    1.7484    4.0260 H   0  0  0  0  0  0  0  0  0  0  0  0
   -3.5969    1.3201    1.5466 H   0  0  0  0  0  0  0  0  0  0  0  0
   -1.9850    3.6926    2.6620 H   0  0  0  0  0  0  0  0  0  0  0  0
   -2.6246    3.5776    1.0180 H   0  0  0  0  0  0  0  0  0  0  0  0
   -3.7342    3.6765    2.3981 H   0  0  0  0  0  0  0  0  0  0  0  0
   -1.3352    1.1101    0.3372 N   0  0  0  0  0  0  0  0  0  0  0  0
   -0.1579    0.6093   -0.3265 C   0  0  2  0  0  0  0  0  0  0  0  0
    1.0501    1.2065    0.3864 C   0  0  0  0  0  0  0  0  0  0  0  0
    1.6243    0.6434    1.3161 O   0  0  0  0  0  0  0  0  0  0  0  0
   -0.1327    0.9749   -1.8151 C   0  0  0  0  0  0  0  0  0  0  0  0
   -1.2180    0.2841   -2.6042 C   0  0  0  0  0  0  0  0  0  0  0  0
   -2.4364    0.8274   -2.9406 C   0  0  0  0  0  0  0  0  0  0  0  0
   -1.1710   -1.0356   -3.1343 C   0  0  0  0  0  0  0  0  0  0  0  0
   -3.1332   -0.1102   -3.6545 N   0  0  0  0  0  0  0  0  0  0  0  0
   -2.3848   -1.2579   -3.7884 C   0  0  0  0  0  0  0  0  0  0  0  0
   -0.2095   -2.0655   -3.1205 C   0  0  0  0  0  0  0  0  0  0  0  0
   -2.6862   -2.4634   -4.4318 C   0  0  0  0  0  0  0  0  0  0  0  0
   -0.4972   -3.2767   -3.7601 C   0  0  0  0  0  0  0  0  0  0  0  0
   -1.7171   -3.4705   -4.4051 C   0  0  0  0  0  0  0  0  0  0  0  0
   -2.1183    1.4068   -0.2401 H   0  0  0  0  0  0  0  0  0  0  0  0
   -0.1575   -0.4778   -0.1840 H   0  0  0  0  0  0  0  0  0  0  0  0
    0.8480    0.7367   -2.2487 H   0  0  0  0  0  0  0  0  0  0  0  0
   -0.2495    2.0589   -1.9458 H   0  0  0  0  0  0  0  0  0  0  0  0
   -2.8714    1.7959   -2.7353 H   0  0  0  0  0  0  0  0  0  0  0  0
   -4.0626    0.0205   -4.0295 H   0  0  0  0  0  0  0  0  0  0  0  0
    0.7458   -1.9304   -2.6213 H   0  0  0  0  0  0  0  0  0  0  0  0
   -3.6351   -2.6148   -4.9351 H   0  0  0  0  0  0  0  0  0  0  0  0
    0.2402   -4.0748   -3.7524 H   0  0  0  0  0  0  0  0  0  0  0  0
   -1.9196   -4.4191   -4.8955 H   0  0  0  0  0  0  0  0  0  0  0  0
    1.4377    2.4163   -0.1727 N   0  0  0  0  0  0  0  0  0  0  0  0
    2.5689    3.1823    0.2990 C   0  0  2  0  0  0  0  0  0  0  0  0
    2.4429    3.3252    1.8101 C   0  0  0  0  0  0  0  0  0  0  0  0
    1.3737    3.2189    2.4071 O   0  0  0  0  0  0  0  0  0  0  0  0
    2.6328    4.5453   -0.3724 C   0  0  0  0  0  0  0  0  0  0  0  0
    0.8993    2.7817   -0.9526 H   0  0  0  0  0  0  0  0  0  0  0  0
    3.4662    2.6011    0.0601 H   0  0  0  0  0  0  0  0  0  0  0  0
    1.7421    5.1421   -0.1445 H   0  0  0  0  0  0  0  0  0  0  0  0
    3.5063    5.1131   -0.0352 H   0  0  0  0  0  0  0  0  0  0  0  0
    2.6934    4.4410   -1.4611 H   0  0  0  0  0  0  0  0  0  0  0  0
    3.6579    3.6280    2.4087 N   0  0  0  0  0  0  0  0  0  0  0  0
    3.7976    3.8254    3.8326 C   0  0  0  0  0  0  0  0  0  0  0  0
    4.4971    3.6783    1.8386 H   0  0  0  0  0  0  0  0  0  0  0  0
    3.6860    4.8942    4.0678 H   0  0  0  0  0  0  0  0  0  0  0  0
    3.0219    3.2510    4.3602 H   0  0  0  0  0  0  0  0  0  0  0  0
    4.7915    3.4811    4.1546 H   0  0  0  0  0  0  0  0  0  0  0  0
 29 30  2  0  0  0  0
 27 29  1  0  0  0  0
 28 30  1  0  0  0  0
 24 27  2  0  0  0  0
 26 28  2  0  0  0  0
 22 23  2  0  0  0  0
 23 25  1  0  0  0  0
 22 24  1  0  0  0  0
 24 26  1  0  0  0  0
 21 22  1  0  0  0  0
 25 26  1  0  0  0  0
  1  3  1  0  0  0  0
  1  7  1  0  0  0  0
  1  2  2  0  0  0  0
 42 43  1  0  0  0  0
 43 51  1  0  0  0  0
 43 44  2  0  0  0  0
  8  9  1  0  0  0  0
  9 17  1  0  0  0  0
  9 10  2  0  0  0  0
 18 19  1  0  0  0  0
 19 41  1  0  0  0  0
 19 20  2  0  0  0  0
 42 45  1  0  0  0  0
  8 11  1  0  0  0  0
 51 52  1  0  0  0  0
 18 21  1  0  0  0  0
 41 42  1  0  0  0  0
  7  8  1  0  0  0  0
 17 18  1  0  0  0  0
 29 39  1  0  0  0  0
 30 40  1  0  0  0  0
 27 37  1  0  0  0  0
 28 38  1  0  0  0  0
 23 35  1  0  0  0  0
  3  4  1  0  0  0  0
  3  5  1  0  0  0  0
  3  6  1  0  0  0  0
 45 48  1  0  0  0  0
 45 49  1  0  0  0  0
 45 50  1  0  0  0  0
 11 14  1  0  0  0  0
 11 15  1  0  0  0  0
 11 16  1  0  0  0  0
 52 54  1  0  0  0  0
 52 55  1  0  0  0  0
 52 56  1  0  0  0  0
 21 33  1  0  0  0  0
 21 34  1  0  0  0  0
 42 47  1  0  0  0  0
  8 13  1  0  0  0  0
 18 32  1  0  0  0  0
 25 36  1  0  0  0  0
 51 53  1  0  0  0  0
  7 12  1  0  0  0  0
 41 46  1  0  0  0  0
 17 31  1  0  0  0  0
M  END
$$$$

  -OEChem-05262214473D

 56 57  0     1  0  0  0  0  0999 V2000
   -2.2900    0.3401    4.1553 C   0  0  0  0  0  0  0  0  0  0  0  0
   -1.3426   -0.2746    3.6796 O   0  0  0  0  0  0  0  0  0  0  0  0
   -2.7219    0.0577    5.5560 C   0  0  0  0  0  0  0  0  0  0  0  0
   -3.4815   -0.7386    5.6094 H   0  0  0  0  0  0  0  0  0  0  0  0
   -1.8906   -0.2899    6.1903 H   0  0  0  0  0  0  0  0  0  0  0  0
   -3.1599    0.9126    6.0956 H   0  0  0  0  0  0  0  0  0  0  0  0
   -3.0397    1.3125    3.5142 N   0  0  0  0  0  0  0  0  0  0  0  0
   -2.7928    1.7385    2.1618 C   0  0  2  0  0  0  0  0  0  0  0  0
   -1.4579    1.1532    1.7206 C   0  0  0  0  0  0  0  0  0  0  0  0
   -0.5858    0.8004    2.5118 O   0  0  0  0  0  0  0  0  0  0  0  0
   -2.7841    3.2553    2.0523 C   0  0  0  0  0  0  0  0  0  0  0  0
   -3.8047    1.7484    4.0260 H   0  0  0  0  0  0  0  0  0  0  0  0
   -3.5969    1.3201    1.5466 H   0  0  0  0  0  0  0  0  0  0  0  0
   -1.9850    3.6926    2.6620 H   0  0  0  0  0  0  0  0  0  0  0  0
   -2.6246    3.5776    1.0180 H   0  0  0  0  0  0  0  0  0  0  0  0
   -3.7342    3.6765    2.3981 H   0  0  0  0  0  0  0  0  0  0  0  0
   -1.3352    1.1101    0.3372 N   0  0  0  0  0  0  0  0  0  0  0  0
   -0.1579    0.6093   -0.3265 C   0  0  2  0  0  0  0  0  0  0  0  0
    1.0501    1.2065    0.3864 C   0  0  0  0  0  0  0  0  0  0  0  0
    1.7852    0.5504    1.1214 O   0  0  0  0  0  0  0  0  0  0  0  0
   -0.1327    0.9749   -1.8151 C   0  0  0  0  0  0  0  0  0  0  0  0
   -1.2180    0.2841   -2.6042 C   0  0  0  0  0  0  0  0  0  0  0  0
   -2.4364    0.8274   -2.9406 C   0  0  0  0  0  0  0  0  0  0  0  0
   -1.1710   -1.0356   -3.1343 C   0  0  0  0  0  0  0  0  0  0  0  0
   -3.1332   -0.1102   -3.6545 N   0  0  0  0  0  0  0  0  0  0  0  0
   -2.3848   -1.2579   -3.7884 C   0  0  0  0  0  0  0  0  0  0  0  0
   -0.2095   -2.0655   -3.1205 C   0  0  0  0  0  0  0  0  0  0  0  0
   -2.6862   -2.4634   -4.4318 C   0  0  0  0  0  0  0  0  0  0  0  0
   -0.4972   -3.2767   -3.7601 C   0  0  0  0  0  0  0  0  0  0  0  0
   -1.7171   -3.4705   -4.4051 C   0  0  0  0  0  0  0  0  0  0  0  0
   -2.1183    1.4068   -0.2401 H   0  0  0  0  0  0  0  0  0  0  0  0
   -0.1575   -0.4778   -0.1840 H   0  0  0  0  0  0  0  0  0  0  0  0
    0.8480    0.7367   -2.2487 H   0  0  0  0  0  0  0  0  0  0  0  0
   -0.2495    2.0589   -1.9458 H   0  0  0  0  0  0  0  0  0  0  0  0
   -2.8714    1.7959   -2.7353 H   0  0  0  0  0  0  0  0  0  0  0  0
   -4.0626    0.0205   -4.0295 H   0  0  0  0  0  0  0  0  0  0  0  0
    0.7458   -1.9304   -2.6213 H   0  0  0  0  0  0  0  0  0  0  0  0
   -3.6351   -2.6148   -4.9351 H   0  0  0  0  0  0  0  0  0  0  0  0
    0.2402   -4.0748   -3.7524 H   0  0  0  0  0  0  0  0  0  0  0  0
   -1.9196   -4.4191   -4.8955 H   0  0  0  0  0  0  0  0  0  0  0  0
    1.2355    2.5436    0.0635 N   0  0  0  0  0  0  0  0  0  0  0  0
    2.3214    3.3425    0.5841 C   0  0  2  0  0  0  0  0  0  0  0  0
    2.3536    3.1643    2.0963 C   0  0  0  0  0  0  0  0  0  0  0  0
    1.3776    2.8017    2.7498 O   0  0  0  0  0  0  0  0  0  0  0  0
    2.1575    4.8082    0.2129 C   0  0  0  0  0  0  0  0  0  0  0  0
    0.5745    2.9827   -0.5707 H   0  0  0  0  0  0  0  0  0  0  0  0
    3.2443    2.9437    0.1491 H   0  0  0  0  0  0  0  0  0  0  0  0
    1.2381    5.2252    0.6399 H   0  0  0  0  0  0  0  0  0  0  0  0
    2.9956    5.4075    0.5836 H   0  0  0  0  0  0  0  0  0  0  0  0
    2.1047    4.9313   -0.8742 H   0  0  0  0  0  0  0  0  0  0  0  0
    3.5879    3.4992    2.6352 N   0  0  0  0  0  0  0  0  0  0  0  0
    3.8664    3.4262    4.0505 C   0  0  0  0  0  0  0  0  0  0  0  0
    4.3459    3.7719    2.0164 H   0  0  0  0  0  0  0  0  0  0  0  0
    3.6650    4.4027    4.5152 H   0  0  0  0  0  0  0  0  0  0  0  0
    3.2241    2.6614    4.5115 H   0  0  0  0  0  0  0  0  0  0  0  0
    4.9224    3.1586    4.2029 H   0  0  0  0  0  0  0  0  0  0  0  0
 29 30  2  0  0  0  0
 27 29  1  0  0  0  0
 28 30  1  0  0  0  0
 24 27  2  0  0  0  0
 26 28  2  0  0  0  0
 22 23  2  0  0  0  0
 23 25  1  0  0  0  0
 22 24  1  0  0  0  0
 24 26  1  0  0  0  0
 21 22  1  0  0  0  0
 25 26  1  0  0  0  0
  1  3  1  0  0  0  0
  1  7  1  0  0  0  0
  1  2  2  0  0  0  0
 42 43  1  0  0  0  0
 43 51  1  0  0  0  0
 43 44  2  0  0  0  0
  8  9  1  0  0  0  0
  9 17  1  0  0  0  0
  9 10  2  0  0  0  0
 18 19  1  0  0  0  0
 19 41  1  0  0  0  0
 19 20  2  0  0  0  0
 42 45  1  0  0  0  0
  8 11  1  0  0  0  0
 51 52  1  0  0  0  0
 18 21  1  0  0  0  0
 41 42  1  0  0  0  0
  7  8  1  0  0  0  0
 17 18  1  0  0  0  0
 29 39  1  0  0  0  0
 30 40  1  0  0  0  0
 27 37  1  0  0  0  0
 28 38  1  0  0  0  0
 23 35  1  0  0  0  0
  3  4  1  0  0  0  0
  3  5  1  0  0  0  0
  3  6  1  0  0  0  0
 45 48  1  0  0  0  0
 45 49  1  0  0  0  0
 45 50  1  0  0  0  0
 11 14  1  0  0  0  0
 11 15  1  0  0  0  0
 11 16  1  0  0  0  0
 52 54  1  0  0  0  0
 52 55  1  0  0  0  0
 52 56  1  0  0  0  0
 21 33  1  0  0  0  0
 21 34  1  0  0  0  0
 42 47  1  0  0  0  0
  8 13  1  0  0  0  0
 18 32  1  0  0  0  0
 25 36  1  0  0  0  0
 51 53  1  0  0  0  0
  7 12  1  0  0  0  0
 41 46  1  0  0  0  0
 17 31  1  0  0  0  0
M  END
$$$$

  -OEChem-05262214473D

 56 57  0     1  0  0  0  0  0999 V2000
   -2.2900    0.3401    4.1553 C   0  0  0  0  0  0  0  0  0  0  0  0
   -1.3426   -0.2746    3.6796 O   0  0  0  0  0  0  0  0  0  0  0  0
   -2.7219    0.0577    5.5560 C   0  0  0  0  0  0  0  0  0  0  0  0
   -3.4815   -0.7386    5.6094 H   0  0  0  0  0  0  0  0  0  0  0  0
   -1.8906   -0.2899    6.1903 H   0  0  0  0  0  0  0  0  0  0  0  0
   -3.1599    0.9126    6.0956 H   0  0  0  0  0  0  0  0  0  0  0  0
   -3.0397    1.3125    3.5142 N   0  0  0  0  0  0  0  0  0  0  0  0
   -2.7928    1.7385    2.1618 C   0  0  2  0  0  0  0  0  0  0  0  0
   -1.4579    1.1532    1.7206 C   0  0  0  0  0  0  0  0  0  0  0  0
   -0.5858    0.8004    2.5118 O   0  0  0  0  0  0  0  0  0  0  0  0
   -2.7841    3.2553    2.0523 C   0  0  0  0  0  0  0  0  0  0  0  0
   -3.8047    1.7484    4.0260 H   0  0  0  0  0  0  0  0  0  0  0  0
   -3.5969    1.3201    1.5466 H   0  0  0  0  0  0  0  0  0  0  0  0
   -1.9850    3.6926    2.6620 H   0  0  0  0  0  0  0  0  0  0  0  0
   -2.6246    3.5776    1.0180 H   0  0  0  0  0  0  0  0  0  0  0  0
   -3.7342    3.6765    2.3981 H   0  0  0  0  0  0  0  0  0  0  0  0
   -1.3352    1.1101    0.3372 N   0  0  0  0  0  0  0  0  0  0  0  0
   -0.1579    0.6093   -0.3265 C   0  0  2  0  0  0  0  0  0  0  0  0
    1.0501    1.2065    0.3864 C   0  0  0  0  0  0  0  0  0  0  0  0
    1.9321    0.5199    0.8979 O   0  0  0  0  0  0  0  0  0  0  0  0
   -0.1327    0.9749   -1.8151 C   0  0  0  0  0  0  0  0  0  0  0  0
   -1.2180    0.2841   -2.6042 C   0  0  0  0  0  0  0  0  0  0  0  0
   -2.4364    0.8274   -2.9406 C   0  0  0  0  0  0  0  0  0  0  0  0
   -1.1710   -1.0356   -3.1343 C   0  0  0  0  0  0  0  0  0  0  0  0
   -3.1332   -0.1102   -3.6545 N   0  0  0  0  0  0  0  0  0  0  0  0
   -2.3848   -1.2579   -3.7884 C   0  0  0  0  0  0  0  0  0  0  0  0
   -0.2095   -2.0655   -3.1205 C   0  0  0  0  0  0  0  0  0  0  0  0
   -2.6862   -2.4634   -4.4318 C   0  0  0  0  0  0  0  0  0  0  0  0
   -0.4972   -3.2767   -3.7601 C   0  0  0  0  0  0  0  0  0  0  0  0
   -1.7171   -3.4705   -4.4051 C   0  0  0  0  0  0  0  0  0  0  0  0
   -2.1183    1.4068   -0.2401 H   0  0  0  0  0  0  0  0  0  0  0  0
   -0.1575   -0.4778   -0.1840 H   0  0  0  0  0  0  0  0  0  0  0  0
    0.8480    0.7367   -2.2487 H   0  0  0  0  0  0  0  0  0  0  0  0
   -0.2495    2.0589   -1.9458 H   0  0  0  0  0  0  0  0  0  0  0  0
   -2.8714    1.7959   -2.7353 H   0  0  0  0  0  0  0  0  0  0  0  0
   -4.0626    0.0205   -4.0295 H   0  0  0  0  0  0  0  0  0  0  0  0
    0.7458   -1.9304   -2.6213 H   0  0  0  0  0  0  0  0  0  0  0  0
   -3.6351   -2.6148   -4.9351 H   0  0  0  0  0  0  0  0  0  0  0  0
    0.2402   -4.0748   -3.7524 H   0  0  0  0  0  0  0  0  0  0  0  0
   -1.9196   -4.4191   -4.8955 H   0  0  0  0  0  0  0  0  0  0  0  0
    1.0486    2.5936    0.3382 N   0  0  0  0  0  0  0  0  0  0  0  0
    2.0919    3.4089    0.9174 C   0  0  2  0  0  0  0  0  0  0  0  0
    2.3157    2.9394    2.3488 C   0  0  0  0  0  0  0  0  0  0  0  0
    1.4667    2.3288    2.9949 O   0  0  0  0  0  0  0  0  0  0  0  0
    1.7258    4.8845    0.8804 C   0  0  0  0  0  0  0  0  0  0  0  0
    0.2753    3.0591   -0.1276 H   0  0  0  0  0  0  0  0  0  0  0  0
    2.9975    3.2296    0.3278 H   0  0  0  0  0  0  0  0  0  0  0  0
    0.8207    5.0837    1.4658 H   0  0  0  0  0  0  0  0  0  0  0  0
    2.5294    5.5032    1.2935 H   0  0  0  0  0  0  0  0  0  0  0  0
    1.5361    5.2133   -0.1471 H   0  0  0  0  0  0  0  0  0  0  0  0
    3.5588    3.3200    2.8346 N   0  0  0  0  0  0  0  0  0  0  0  0
    4.0033    3.0043    4.1720 C   0  0  0  0  0  0  0  0  0  0  0  0
    4.2066    3.8075    2.2226 H   0  0  0  0  0  0  0  0  0  0  0  0
    3.7495    3.8336    4.8486 H   0  0  0  0  0  0  0  0  0  0  0  0
    3.5061    2.0853    4.5161 H   0  0  0  0  0  0  0  0  0  0  0  0
    5.0928    2.8530    4.1701 H   0  0  0  0  0  0  0  0  0  0  0  0
 29 30  2  0  0  0  0
 27 29  1  0  0  0  0
 28 30  1  0  0  0  0
 24 27  2  0  0  0  0
 26 28  2  0  0  0  0
 22 23  2  0  0  0  0
 23 25  1  0  0  0  0
 22 24  1  0  0  0  0
 24 26  1  0  0  0  0
 21 22  1  0  0  0  0
 25 26  1  0  0  0  0
  1  3  1  0  0  0  0
  1  7  1  0  0  0  0
  1  2  2  0  0  0  0
 42 43  1  0  0  0  0
 43 51  1  0  0  0  0
 43 44  2  0  0  0  0
  8  9  1  0  0  0  0
  9 17  1  0  0  0  0
  9 10  2  0  0  0  0
 18 19  1  0  0  0  0
 19 41  1  0  0  0  0
 19 20  2  0  0  0  0
 42 45  1  0  0  0  0
  8 11  1  0  0  0  0
 51 52  1  0  0  0  0
 18 21  1  0  0  0  0
 41 42  1  0  0  0  0
  7  8  1  0  0  0  0
 17 18  1  0  0  0  0
 29 39  1  0  0  0  0
 30 40  1  0  0  0  0
 27 37  1  0  0  0  0
 28 38  1  0  0  0  0
 23 35  1  0  0  0  0
  3  4  1  0  0  0  0
  3  5  1  0  0  0  0
  3  6  1  0  0  0  0
 45 48  1  0  0  0  0
 45 49  1  0  0  0  0
 45 50  1  0  0  0  0
 11 14  1  0  0  0  0
 11 15  1  0  0  0  0
 11 16  1  0  0  0  0
 52 54  1  0  0  0  0
 52 55  1  0  0  0  0
 52 56  1  0  0  0  0
 21 33  1  0  0  0  0
 21 34  1  0  0  0  0
 42 47  1  0  0  0  0
  8 13  1  0  0  0  0
 18 32  1  0  0  0  0
 25 36  1  0  0  0  0
 51 53  1  0  0  0  0
  7 12  1  0  0  0  0
 41 46  1  0  0  0  0
 17 31  1  0  0  0  0
M  END
$$$$

  -OEChem-05262214473D

 56 57  0     1  0  0  0  0  0999 V2000
   -2.2900    0.3401    4.1553 C   0  0  0  0  0  0  0  0  0  0  0  0
   -1.3426   -0.2746    3.6796 O   0  0  0  0  0  0  0  0  0  0  0  0
   -2.7219    0.0577    5.5560 C   0  0  0  0  0  0  0  0  0  0  0  0
   -3.4815   -0.7386    5.6094 H   0  0  0  0  0  0  0  0  0  0  0  0
   -1.8906   -0.2899    6.1903 H   0  0  0  0  0  0  0  0  0  0  0  0
   -3.1599    0.9126    6.0956 H   0  0  0  0  0  0  0  0  0  0  0  0
   -3.0397    1.3125    3.5142 N   0  0  0  0  0  0  0  0  0  0  0  0
   -2.7928    1.7385    2.1618 C   0  0  2  0  0  0  0  0  0  0  0  0
   -1.4579    1.1532    1.7206 C   0  0  0  0  0  0  0  0  0  0  0  0
   -0.5858    0.8004    2.5118 O   0  0  0  0  0  0  0  0  0  0  0  0
   -2.7841    3.2553    2.0523 C   0  0  0  0  0  0  0  0  0  0  0  0
   -3.8047    1.7484    4.0260 H   0  0  0  0  0  0  0  0  0  0  0  0
   -3.5969    1.3201    1.5466 H   0  0  0  0  0  0  0  0  0  0  0  0
   -1.9850    3.6926    2.6620 H   0  0  0  0  0  0  0  0  0  0  0  0
   -2.6246    3.5776    1.0180 H   0  0  0  0  0  0  0  0  0  0  0  0
   -3.7342    3.6765    2.3981 H   0  0  0  0  0  0  0  0  0  0  0  0
   -1.3352    1.1101    0.3372 N   0  0  0  0  0  0  0  0  0  0  0  0
   -0.1579    0.6093   -0.3265 C   0  0  2  0  0  0  0  0  0  0  0  0
    1.0501    1.2065    0.3864 C   0  0  0  0  0  0  0  0  0  0  0  0
    2.0551    0.5541    0.6609 O   0  0  0  0  0  0  0  0  0  0  0  0
   -0.1327    0.9749   -1.8151 C   0  0  0  0  0  0  0  0  0  0  0  0
   -1.2180    0.2841   -2.6042 C   0  0  0  0  0  0  0  0  0  0  0  0
   -2.4364    0.8274   -2.9406 C   0  0  0  0  0  0  0  0  0  0  0  0
   -1.1710   -1.0356   -3.1343 C   0  0  0  0  0  0  0  0  0  0  0  0
   -3.1332   -0.1102   -3.6545 N   0  0  0  0  0  0  0  0  0  0  0  0
   -2.3848   -1.2579   -3.7884 C   0  0  0  0  0  0  0  0  0  0  0  0
   -0.2095   -2.0655   -3.1205 C   0  0  0  0  0  0  0  0  0  0  0  0
   -2.6862   -2.4634   -4.4318 C   0  0  0  0  0  0  0  0  0  0  0  0
   -0.4972   -3.2767   -3.7601 C   0  0  0  0  0  0  0  0  0  0  0  0
   -1.7171   -3.4705   -4.4051 C   0  0  0  0  0  0  0  0  0  0  0  0
   -2.1183    1.4068   -0.2401 H   0  0  0  0  0  0  0  0  0  0  0  0
   -0.1575   -0.4778   -0.1840 H   0  0  0  0  0  0  0  0  0  0  0  0
    0.8480    0.7367   -2.2487 H   0  0  0  0  0  0  0  0  0  0  0  0
   -0.2495    2.0589   -1.9458 H   0  0  0  0  0  0  0  0  0  0  0  0
   -2.8714    1.7959   -2.7353 H   0  0  0  0  0  0  0  0  0  0  0  0
   -4.0626    0.0205   -4.0295 H   0  0  0  0  0  0  0  0  0  0  0  0
    0.7458   -1.9304   -2.6213 H   0  0  0  0  0  0  0  0  0  0  0  0
   -3.6351   -2.6148   -4.9351 H   0  0  0  0  0  0  0  0  0  0  0  0
    0.2402   -4.0748   -3.7524 H   0  0  0  0  0  0  0  0  0  0  0  0
   -1.9196   -4.4191   -4.8955 H   0  0  0  0  0  0  0  0  0  0  0  0
    0.8899    2.5630    0.6328 N   0  0  0  0  0  0  0  0  0  0  0  0
    1.8960    3.3769    1.2762 C   0  0  2  0  0  0  0  0  0  0  0  0
    2.3320    2.6657    2.5504 C   0  0  0  0  0  0  0  0  0  0  0  0
    1.6349    1.8326    3.1257 O   0  0  0  0  0  0  0  0  0  0  0  0
    1.3673    4.7691    1.5845 C   0  0  0  0  0  0  0  0  0  0  0  0
    0.0218    3.0059    0.3463 H   0  0  0  0  0  0  0  0  0  0  0  0
    2.7427    3.4392    0.5840 H   0  0  0  0  0  0  0  0  0  0  0  0
    0.5184    4.7270    2.2768 H   0  0  0  0  0  0  0  0  0  0  0  0
    2.1394    5.3935    2.0460 H   0  0  0  0  0  0  0  0  0  0  0  0
    1.0265    5.2678    0.6708 H   0  0  0  0  0  0  0  0  0  0  0  0
    3.5727    3.1024    2.9934 N   0  0  0  0  0  0  0  0  0  0  0  0
    4.1988    2.5883    4.1891 C   0  0  0  0  0  0  0  0  0  0  0  0
    4.0886    3.7828    2.4432 H   0  0  0  0  0  0  0  0  0  0  0  0
    3.9338    3.2258    5.0454 H   0  0  0  0  0  0  0  0  0  0  0  0
    3.8487    1.5620    4.3739 H   0  0  0  0  0  0  0  0  0  0  0  0
    5.2910    2.5852    4.0585 H   0  0  0  0  0  0  0  0  0  0  0  0
 29 30  2  0  0  0  0
 27 29  1  0  0  0  0
 28 30  1  0  0  0  0
 24 27  2  0  0  0  0
 26 28  2  0  0  0  0
 22 23  2  0  0  0  0
 23 25  1  0  0  0  0
 22 24  1  0  0  0  0
 24 26  1  0  0  0  0
 21 22  1  0  0  0  0
 25 26  1  0  0  0  0
  1  3  1  0  0  0  0
  1  7  1  0  0  0  0
  1  2  2  0  0  0  0
 42 43  1  0  0  0  0
 43 51  1  0  0  0  0
 43 44  2  0  0  0  0
  8  9  1  0  0  0  0
  9 17  1  0  0  0  0
  9 10  2  0  0  0  0
 18 19  1  0  0  0  0
 19 41  1  0  0  0  0
 19 20  2  0  0  0  0
 42 45  1  0  0  0  0
  8 11  1  0  0  0  0
 51 52  1  0  0  0  0
 18 21  1  0  0  0  0
 41 42  1  0  0  0  0
  7  8  1  0  0  0  0
 17 18  1  0  0  0  0
 29 39  1  0  0  0  0
 30 40  1  0  0  0  0
 27 37  1  0  0  0  0
 28 38  1  0  0  0  0
 23 35  1  0  0  0  0
  3  4  1  0  0  0  0
  3  5  1  0  0  0  0
  3  6  1  0  0  0  0
 45 48  1  0  0  0  0
 45 49  1  0  0  0  0
 45 50  1  0  0  0  0
 11 14  1  0  0  0  0
 11 15  1  0  0  0  0
 11 16  1  0  0  0  0
 52 54  1  0  0  0  0
 52 55  1  0  0  0  0
 52 56  1  0  0  0  0
 21 33  1  0  0  0  0
 21 34  1  0  0  0  0
 42 47  1  0  0  0  0
  8 13  1  0  0  0  0
 18 32  1  0  0  0  0
 25 36  1  0  0  0  0
 51 53  1  0  0  0  0
  7 12  1  0  0  0  0
 41 46  1  0  0  0  0
 17 31  1  0  0  0  0
M  END
$$$$

  -OEChem-05262214473D

 56 57  0     1  0  0  0  0  0999 V2000
   -2.2900    0.3401    4.1553 C   0  0  0  0  0  0  0  0  0  0  0  0
   -1.3426   -0.2746    3.6796 O   0  0  0  0  0  0  0  0  0  0  0  0
   -2.7219    0.0577    5.5560 C   0  0  0  0  0  0  0  0  0  0  0  0
   -3.4815   -0.7386    5.6094 H   0  0  0  0  0  0  0  0  0  0  0  0
   -1.8906   -0.2899    6.1903 H   0  0  0  0  0  0  0  0  0  0  0  0
   -3.1599    0.9126    6.0956 H   0  0  0  0  0  0  0  0  0  0  0  0
   -3.0397    1.3125    3.5142 N   0  0  0  0  0  0  0  0  0  0  0  0
   -2.7928    1.7385    2.1618 C   0  0  2  0  0  0  0  0  0  0  0  0
   -1.4579    1.1532    1.7206 C   0  0  0  0  0  0  0  0  0  0  0  0
   -0.5858    0.8004    2.5118 O   0  0  0  0  0  0  0  0  0  0  0  0
   -2.7841    3.2553    2.0523 C   0  0  0  0  0  0  0  0  0  0  0  0
   -3.8047    1.7484    4.0260 H   0  0  0  0  0  0  0  0  0  0  0  0
   -3.5969    1.3201    1.5466 H   0  0  0  0  0  0  0  0  0  0  0  0
   -1.9850    3.6926    2.6620 H   0  0  0  0  0  0  0  0  0  0  0  0
   -2.6246    3.5776    1.0180 H   0  0  0  0  0  0  0  0  0  0  0  0
   -3.7342    3.6765    2.3981 H   0  0  0  0  0  0  0  0  0  0  0  0
   -1.3352    1.1101    0.3372 N   0  0  0  0  0  0  0  0  0  0  0  0
   -0.1579    0.6093   -0.3265 C   0  0  2  0  0  0  0  0  0  0  0  0
    1.0501    1.2065    0.3864 C   0  0  0  0  0  0  0  0  0  0  0  0
    2.1457    0.6506    0.4266 O   0  0  0  0  0  0  0  0  0  0  0  0
   -0.1327    0.9749   -1.8151 C   0  0  0  0  0  0  0  0  0  0  0  0
   -1.2180    0.2841   -2.6042 C   0  0  0  0  0  0  0  0  0  0  0  0
   -2.4364    0.8274   -2.9406 C   0  0  0  0  0  0  0  0  0  0  0  0
   -1.1710   -1.0356   -3.1343 C   0  0  0  0  0  0  0  0  0  0  0  0
   -3.1332   -0.1102   -3.6545 N   0  0  0  0  0  0  0  0  0  0  0  0
   -2.3848   -1.2579   -3.7884 C   0  0  0  0  0  0  0  0  0  0  0  0
   -0.2095   -2.0655   -3.1205 C   0  0  0  0  0  0  0  0  0  0  0  0
   -2.6862   -2.4634   -4.4318 C   0  0  0  0  0  0  0  0  0  0  0  0
   -0.4972   -3.2767   -3.7601 C   0  0  0  0  0  0  0  0  0  0  0  0
   -1.7171   -3.4705   -4.4051 C   0  0  0  0  0  0  0  0  0  0  0  0
   -2.1183    1.4068   -0.2401 H   0  0  0  0  0  0  0  0  0  0  0  0
   -0.1575   -0.4778   -0.1840 H   0  0  0  0  0  0  0  0  0  0  0  0
    0.8480    0.7367   -2.2487 H   0  0  0  0  0  0  0  0  0  0  0  0
   -0.2495    2.0589   -1.9458 H   0  0  0  0  0  0  0  0  0  0  0  0
   -2.8714    1.7959   -2.7353 H   0  0  0  0  0  0  0  0  0  0  0  0
   -4.0626    0.0205   -4.0295 H   0  0  0  0  0  0  0  0  0  0  0  0
    0.7458   -1.9304   -2.6213 H   0  0  0  0  0  0  0  0  0  0  0  0
   -3.6351   -2.6148   -4.9351 H   0  0  0  0  0  0  0  0  0  0  0  0
    0.2402   -4.0748   -3.7524 H   0  0  0  0  0  0  0  0  0  0  0  0
   -1.9196   -4.4191   -4.8955 H   0  0  0  0  0  0  0  0  0  0  0  0
    0.7702    2.4538    0.9271 N   0  0  0  0  0  0  0  0  0  0  0  0
    1.7469    3.2487    1.6362 C   0  0  2  0  0  0  0  0  0  0  0  0
    2.4013    2.3620    2.6874 C   0  0  0  0  0  0  0  0  0  0  0  0
    1.8706    1.3468    3.1332 O   0  0  0  0  0  0  0  0  0  0  0  0
    1.1064    4.4699    2.2774 C   0  0  0  0  0  0  0  0  0  0  0  0
   -0.1684    2.8267    0.8190 H   0  0  0  0  0  0  0  0  0  0  0  0
    2.4971    3.5582    0.9004 H   0  0  0  0  0  0  0  0  0  0  0  0
    0.3518    4.1796    3.0176 H   0  0  0  0  0  0  0  0  0  0  0  0
    1.8523    5.0861    2.7900 H   0  0  0  0  0  0  0  0  0  0  0  0
    0.6107    5.0910    1.5236 H   0  0  0  0  0  0  0  0  0  0  0  0
    3.6285    2.8613    3.1007 N   0  0  0  0  0  0  0  0  0  0  0  0
    4.4398    2.2067    4.1004 C   0  0  0  0  0  0  0  0  0  0  0  0
    4.0000    3.6994    2.6632 H   0  0  0  0  0  0  0  0  0  0  0  0
    4.2054    2.6207    5.0922 H   0  0  0  0  0  0  0  0  0  0  0  0
    4.2286    1.1272    4.0945 H   0  0  0  0  0  0  0  0  0  0  0  0
    5.5036    2.3734    3.8757 H   0  0  0  0  0  0  0  0  0  0  0  0
 29 30  2  0  0  0  0
 27 29  1  0  0  0  0
 28 30  1  0  0  0  0
 24 27  2  0  0  0  0
 26 28  2  0  0  0  0
 22 23  2  0  0  0  0
 23 25  1  0  0  0  0
 22 24  1  0  0  0  0
 24 26  1  0  0  0  0
 21 22  1  0  0  0  0
 25 26  1  0  0  0  0
  1  3  1  0  0  0  0
  1  7  1  0  0  0  0
  1  2  2  0  0  0  0
 42 43  1  0  0  0  0
 43 51  1  0  0  0  0
 43 44  2  0  0  0  0
  8  9  1  0  0  0  0
  9 17  1  0  0  0  0
  9 10  2  0  0  0  0
 18 19  1  0  0  0  0
 19 41  1  0  0  0  0
 19 20  2  0  0  0  0
 42 45  1  0  0  0  0
  8 11  1  0  0  0  0
 51 52  1  0  0  0  0
 18 21  1  0  0  0  0
 41 42  1  0  0  0  0
  7  8  1  0  0  0  0
 17 18  1  0  0  0  0
 29 39  1  0  0  0  0
 30 40  1  0  0  0  0
 27 37  1  0  0  0  0
 28 38  1  0  0  0  0
 23 35  1  0  0  0  0
  3  4  1  0  0  0  0
  3  5  1  0  0  0  0
  3  6  1  0  0  0  0
 45 48  1  0  0  0  0
 45 49  1  0  0  0  0
 45 50  1  0  0  0  0
 11 14  1  0  0  0  0
 11 15  1  0  0  0  0
 11 16  1  0  0  0  0
 52 54  1  0  0  0  0
 52 55  1  0  0  0  0
 52 56  1  0  0  0  0
 21 33  1  0  0  0  0
 21 34  1  0  0  0  0
 42 47  1  0  0  0  0
  8 13  1  0  0  0  0
 18 32  1  0  0  0  0
 25 36  1  0  0  0  0
 51 53  1  0  0  0  0
  7 12  1  0  0  0  0
 41 46  1  0  0  0  0
 17 31  1  0  0  0  0
M  END
$$$$

  -OEChem-05262214473D

 56 57  0     1  0  0  0  0  0999 V2000
   -2.2900    0.3401    4.1553 C   0  0  0  0  0  0  0  0  0  0  0  0
   -1.3426   -0.2746    3.6796 O   0  0  0  0  0  0  0  0  0  0  0  0
   -2.7219    0.0577    5.5560 C   0  0  0  0  0  0  0  0  0  0  0  0
   -3.4815   -0.7386    5.6094 H   0  0  0  0  0  0  0  0  0  0  0  0
   -1.8906   -0.2899    6.1903 H   0  0  0  0  0  0  0  0  0  0  0  0
   -3.1599    0.9126    6.0956 H   0  0  0  0  0  0  0  0  0  0  0  0
   -3.0397    1.3125    3.5142 N   0  0  0  0  0  0  0  0  0  0  0  0
   -2.7928    1.7385    2.1618 C   0  0  2  0  0  0  0  0  0  0  0  0
   -1.4579    1.1532    1.7206 C   0  0  0  0  0  0  0  0  0  0  0  0
   -0.5858    0.8004    2.5118 O   0  0  0  0  0  0  0  0  0  0  0  0
   -2.7841    3.2553    2.0523 C   0  0  0  0  0  0  0  0  0  0  0  0
   -3.8047    1.7484    4.0260 H   0  0  0  0  0  0  0  0  0  0  0  0
   -3.5969    1.3201    1.5466 H   0  0  0  0  0  0  0  0  0  0  0  0
   -1.9850    3.6926    2.6620 H   0  0  0  0  0  0  0  0  0  0  0  0
   -2.6246    3.5776    1.0180 H   0  0  0  0  0  0  0  0  0  0  0  0
   -3.7342    3.6765    2.3981 H   0  0  0  0  0  0  0  0  0  0  0  0
   -1.3352    1.1101    0.3372 N   0  0  0  0  0  0  0  0  0  0  0  0
   -0.1579    0.6093   -0.3265 C   0  0  2  0  0  0  0  0  0  0  0  0
    1.0501    1.2065    0.3864 C   0  0  0  0  0  0  0  0  0  0  0  0
    2.1978    0.8028    0.2108 O   0  0  0  0  0  0  0  0  0  0  0  0
   -0.1327    0.9749   -1.8151 C   0  0  0  0  0  0  0  0  0  0  0  0
   -1.2180    0.2841   -2.6042 C   0  0  0  0  0  0  0  0  0  0  0  0
   -2.4364    0.8274   -2.9406 C   0  0  0  0  0  0  0  0  0  0  0  0
   -1.1710   -1.0356   -3.1343 C   0  0  0  0  0  0  0  0  0  0  0  0
   -3.1332   -0.1102   -3.6545 N   0  0  0  0  0  0  0  0  0  0  0  0
   -2.3848   -1.2579   -3.7884 C   0  0  0  0  0  0  0  0  0  0  0  0
   -0.2095   -2.0655   -3.1205 C   0  0  0  0  0  0  0  0  0  0  0  0
   -2.6862   -2.4634   -4.4318 C   0  0  0  0  0  0  0  0  0  0  0  0
   -0.4972   -3.2767   -3.7601 C   0  0  0  0  0  0  0  0  0  0  0  0
   -1.7171   -3.4705   -4.4051 C   0  0  0  0  0  0  0  0  0  0  0  0
   -2.1183    1.4068   -0.2401 H   0  0  0  0  0  0  0  0  0  0  0  0
   -0.1575   -0.4778   -0.1840 H   0  0  0  0  0  0  0  0  0  0  0  0
    0.8480    0.7367   -2.2487 H   0  0  0  0  0  0  0  0  0  0  0  0
   -0.2495    2.0589   -1.9458 H   0  0  0  0  0  0  0  0  0  0  0  0
   -2.8714    1.7959   -2.7353 H   0  0  0  0  0  0  0  0  0  0  0  0
   -4.0626    0.0205   -4.0295 H   0  0  0  0  0  0  0  0  0  0  0  0
    0.7458   -1.9304   -2.6213 H   0  0  0  0  0  0  0  0  0  0  0  0
   -3.6351   -2.6148   -4.9351 H   0  0  0  0  0  0  0  0  0  0  0  0
    0.2402   -4.0748   -3.7524 H   0  0  0  0  0  0  0  0  0  0  0  0
   -1.9196   -4.4191   -4.8955 H   0  0  0  0  0  0  0  0  0  0  0  0
    0.6976    2.2735    1.2011 N   0  0  0  0  0  0  0  0  0  0  0  0
    1.6550    3.0330    1.9726 C   0  0  2  0  0  0  0  0  0  0  0  0
    2.5188    2.0490    2.7504 C   0  0  0  0  0  0  0  0  0  0  0  0
    2.1578    0.9045    3.0169 O   0  0  0  0  0  0  0  0  0  0  0  0
    0.9608    4.0071    2.9117 C   0  0  0  0  0  0  0  0  0  0  0  0
   -0.2826    2.5336    1.2580 H   0  0  0  0  0  0  0  0  0  0  0  0
    2.2776    3.5786    1.2552 H   0  0  0  0  0  0  0  0  0  0  0  0
    0.3323    3.4787    3.6378 H   0  0  0  0  0  0  0  0  0  0  0  0
    1.6876    4.6018    3.4747 H   0  0  0  0  0  0  0  0  0  0  0  0
    0.3168    4.6950    2.3532 H   0  0  0  0  0  0  0  0  0  0  0  0
    3.7225    2.6132    3.1493 N   0  0  0  0  0  0  0  0  0  0  0  0
    4.7098    1.8855    3.9120 C   0  0  0  0  0  0  0  0  0  0  0  0
    3.9468    3.5629    2.8676 H   0  0  0  0  0  0  0  0  0  0  0  0
    4.5457    2.0595    4.9857 H   0  0  0  0  0  0  0  0  0  0  0  0
    4.6198    0.8105    3.6970 H   0  0  0  0  0  0  0  0  0  0  0  0
    5.7161    2.2320    3.6342 H   0  0  0  0  0  0  0  0  0  0  0  0
 29 30  2  0  0  0  0
 27 29  1  0  0  0  0
 28 30  1  0  0  0  0
 24 27  2  0  0  0  0
 26 28  2  0  0  0  0
 22 23  2  0  0  0  0
 23 25  1  0  0  0  0
 22 24  1  0  0  0  0
 24 26  1  0  0  0  0
 21 22  1  0  0  0  0
 25 26  1  0  0  0  0
  1  3  1  0  0  0  0
  1  7  1  0  0  0  0
  1  2  2  0  0  0  0
 42 43  1  0  0  0  0
 43 51  1  0  0  0  0
 43 44  2  0  0  0  0
  8  9  1  0  0  0  0
  9 17  1  0  0  0  0
  9 10  2  0  0  0  0
 18 19  1  0  0  0  0
 19 41  1  0  0  0  0
 19 20  2  0  0  0  0
 42 45  1  0  0  0  0
  8 11  1  0  0  0  0
 51 52  1  0  0  0  0
 18 21  1  0  0  0  0
 41 42  1  0  0  0  0
  7  8  1  0  0  0  0
 17 18  1  0  0  0  0
 29 39  1  0  0  0  0
 30 40  1  0  0  0  0
 27 37  1  0  0  0  0
 28 38  1  0  0  0  0
 23 35  1  0  0  0  0
  3  4  1  0  0  0  0
  3  5  1  0  0  0  0
  3  6  1  0  0  0  0
 45 48  1  0  0  0  0
 45 49  1  0  0  0  0
 45 50  1  0  0  0  0
 11 14  1  0  0  0  0
 11 15  1  0  0  0  0
 11 16  1  0  0  0  0
 52 54  1  0  0  0  0
 52 55  1  0  0  0  0
 52 56  1  0  0  0  0
 21 33  1  0  0  0  0
 21 34  1  0  0  0  0
 42 47  1  0  0  0  0
  8 13  1  0  0  0  0
 18 32  1  0  0  0  0
 25 36  1  0  0  0  0
 51 53  1  0  0  0  0
  7 12  1  0  0  0  0
 41 46  1  0  0  0  0
 17 31  1  0  0  0  0
M  END
$$$$

  -OEChem-05262214473D

 56 57  0     1  0  0  0  0  0999 V2000
   -2.2900    0.3401    4.1553 C   0  0  0  0  0  0  0  0  0  0  0  0
   -1.3426   -0.2746    3.6796 O   0  0  0  0  0  0  0  0  0  0  0  0
   -2.7219    0.0577    5.5560 C   0  0  0  0  0  0  0  0  0  0  0  0
   -3.4815   -0.7386    5.6094 H   0  0  0  0  0  0  0  0  0  0  0  0
   -1.8906   -0.2899    6.1903 H   0  0  0  0  0  0  0  0  0  0  0  0
   -3.1599    0.9126    6.0956 H   0  0  0  0  0  0  0  0  0  0  0  0
   -3.0397    1.3125    3.5142 N   0  0  0  0  0  0  0  0  0  0  0  0
   -2.7928    1.7385    2.1618 C   0  0  2  0  0  0  0  0  0  0  0  0
   -1.4579    1.1532    1.7206 C   0  0  0  0  0  0  0  0  0  0  0  0
   -0.5858    0.8004    2.5118 O   0  0  0  0  0  0  0  0  0  0  0  0
   -2.7841    3.2553    2.0523 C   0  0  0  0  0  0  0  0  0  0  0  0
   -3.8047    1.7484    4.0260 H   0  0  0  0  0  0  0  0  0  0  0  0
   -3.5969    1.3201    1.5466 H   0  0  0  0  0  0  0  0  0  0  0  0
   -1.9850    3.6926    2.6620 H   0  0  0  0  0  0  0  0  0  0  0  0
   -2.6246    3.5776    1.0180 H   0  0  0  0  0  0  0  0  0  0  0  0
   -3.7342    3.6765    2.3981 H   0  0  0  0  0  0  0  0  0  0  0  0
   -1.3352    1.1101    0.3372 N   0  0  0  0  0  0  0  0  0  0  0  0
   -0.1579    0.6093   -0.3265 C   0  0  2  0  0  0  0  0  0  0  0  0
    1.0501    1.2065    0.3864 C   0  0  0  0  0  0  0  0  0  0  0  0
    2.2078    1.0004    0.0283 O   0  0  0  0  0  0  0  0  0  0  0  0
   -0.1327    0.9749   -1.8151 C   0  0  0  0  0  0  0  0  0  0  0  0
   -1.2180    0.2841   -2.6042 C   0  0  0  0  0  0  0  0  0  0  0  0
   -2.4364    0.8274   -2.9406 C   0  0  0  0  0  0  0  0  0  0  0  0
   -1.1710   -1.0356   -3.1343 C   0  0  0  0  0  0  0  0  0  0  0  0
   -3.1332   -0.1102   -3.6545 N   0  0  0  0  0  0  0  0  0  0  0  0
   -2.3848   -1.2579   -3.7884 C   0  0  0  0  0  0  0  0  0  0  0  0
   -0.2095   -2.0655   -3.1205 C   0  0  0  0  0  0  0  0  0  0  0  0
   -2.6862   -2.4634   -4.4318 C   0  0  0  0  0  0  0  0  0  0  0  0
   -0.4972   -3.2767   -3.7601 C   0  0  0  0  0  0  0  0  0  0  0  0
   -1.7171   -3.4705   -4.4051 C   0  0  0  0  0  0  0  0  0  0  0  0
   -2.1183    1.4068   -0.2401 H   0  0  0  0  0  0  0  0  0  0  0  0
   -0.1575   -0.4778   -0.1840 H   0  0  0  0  0  0  0  0  0  0  0  0
    0.8480    0.7367   -2.2487 H   0  0  0  0  0  0  0  0  0  0  0  0
   -0.2495    2.0589   -1.9458 H   0  0  0  0  0  0  0  0  0  0  0  0
   -2.8714    1.7959   -2.7353 H   0  0  0  0  0  0  0  0  0  0  0  0
   -4.0626    0.0205   -4.0295 H   0  0  0  0  0  0  0  0  0  0  0  0
    0.7458   -1.9304   -2.6213 H   0  0  0  0  0  0  0  0  0  0  0  0
   -3.6351   -2.6148   -4.9351 H   0  0  0  0  0  0  0  0  0  0  0  0
    0.2402   -4.0748   -3.7524 H   0  0  0  0  0  0  0  0  0  0  0  0
   -1.9196   -4.4191   -4.8955 H   0  0  0  0  0  0  0  0  0  0  0  0
    0.6771    2.0343    1.4362 N   0  0  0  0  0  0  0  0  0  0  0  0
    1.6264    2.7445    2.2627 C   0  0  2  0  0  0  0  0  0  0  0  0
    2.6767    1.7479    2.7352 C   0  0  0  0  0  0  0  0  0  0  0  0
    2.4770    0.5360    2.7847 O   0  0  0  0  0  0  0  0  0  0  0  0
    0.9404    3.4124    3.4442 C   0  0  0  0  0  0  0  0  0  0  0  0
   -0.3130    2.1466    1.6335 H   0  0  0  0  0  0  0  0  0  0  0  0
    2.0991    3.4990    1.6245 H   0  0  0  0  0  0  0  0  0  0  0  0
    0.4611    2.6722    4.0952 H   0  0  0  0  0  0  0  0  0  0  0  0
    1.6566    3.9737    4.0534 H   0  0  0  0  0  0  0  0  0  0  0  0
    0.1650    4.1068    3.1031 H   0  0  0  0  0  0  0  0  0  0  0  0
    3.8482    2.3749    3.1359 N   0  0  0  0  0  0  0  0  0  0  0  0
    4.9903    1.6465    3.6369 C   0  0  0  0  0  0  0  0  0  0  0  0
    3.9327    3.3828    3.0425 H   0  0  0  0  0  0  0  0  0  0  0  0
    4.9315    1.5804    4.7333 H   0  0  0  0  0  0  0  0  0  0  0  0
    4.9957    0.6334    3.2083 H   0  0  0  0  0  0  0  0  0  0  0  0
    5.9139    2.1708    3.3503 H   0  0  0  0  0  0  0  0  0  0  0  0
 29 30  2  0  0  0  0
 27 29  1  0  0  0  0
 28 30  1  0  0  0  0
 24 27  2  0  0  0  0
 26 28  2  0  0  0  0
 22 23  2  0  0  0  0
 23 25  1  0  0  0  0
 22 24  1  0  0  0  0
 24 26  1  0  0  0  0
 21 22  1  0  0  0  0
 25 26  1  0  0  0  0
  1  3  1  0  0  0  0
  1  7  1  0  0  0  0
  1  2  2  0  0  0  0
 42 43  1  0  0  0  0
 43 51  1  0  0  0  0
 43 44  2  0  0  0  0
  8  9  1  0  0  0  0
  9 17  1  0  0  0  0
  9 10  2  0  0  0  0
 18 19  1  0  0  0  0
 19 41  1  0  0  0  0
 19 20  2  0  0  0  0
 42 45  1  0  0  0  0
  8 11  1  0  0  0  0
 51 52  1  0  0  0  0
 18 21  1  0  0  0  0
 41 42  1  0  0  0  0
  7  8  1  0  0  0  0
 17 18  1  0  0  0  0
 29 39  1  0  0  0  0
 30 40  1  0  0  0  0
 27 37  1  0  0  0  0
 28 38  1  0  0  0  0
 23 35  1  0  0  0  0
  3  4  1  0  0  0  0
  3  5  1  0  0  0  0
  3  6  1  0  0  0  0
 45 48  1  0  0  0  0
 45 49  1  0  0  0  0
 45 50  1  0  0  0  0
 11 14  1  0  0  0  0
 11 15  1  0  0  0  0
 11 16  1  0  0  0  0
 52 54  1  0  0  0  0
 52 55  1  0  0  0  0
 52 56  1  0  0  0  0
 21 33  1  0  0  0  0
 21 34  1  0  0  0  0
 42 47  1  0  0  0  0
  8 13  1  0  0  0  0
 18 32  1  0  0  0  0
 25 36  1  0  0  0  0
 51 53  1  0  0  0  0
  7 12  1  0  0  0  0
 41 46  1  0  0  0  0
 17 31  1  0  0  0  0
M  END
$$$$

  -OEChem-05262214473D

 56 57  0     1  0  0  0  0  0999 V2000
   -2.2900    0.3401    4.1553 C   0  0  0  0  0  0  0  0  0  0  0  0
   -1.3426   -0.2746    3.6796 O   0  0  0  0  0  0  0  0  0  0  0  0
   -2.7219    0.0577    5.5560 C   0  0  0  0  0  0  0  0  0  0  0  0
   -3.4815   -0.7386    5.6094 H   0  0  0  0  0  0  0  0  0  0  0  0
   -1.8906   -0.2899    6.1903 H   0  0  0  0  0  0  0  0  0  0  0  0
   -3.1599    0.9126    6.0956 H   0  0  0  0  0  0  0  0  0  0  0  0
   -3.0397    1.3125    3.5142 N   0  0  0  0  0  0  0  0  0  0  0  0
   -2.7928    1.7385    2.1618 C   0  0  2  0  0  0  0  0  0  0  0  0
   -1.4579    1.1532    1.7206 C   0  0  0  0  0  0  0  0  0  0  0  0
   -0.5858    0.8004    2.5118 O   0  0  0  0  0  0  0  0  0  0  0  0
   -2.7841    3.2553    2.0523 C   0  0  0  0  0  0  0  0  0  0  0  0
   -3.8047    1.7484    4.0260 H   0  0  0  0  0  0  0  0  0  0  0  0
   -3.5969    1.3201    1.5466 H   0  0  0  0  0  0  0  0  0  0  0  0
   -1.9850    3.6926    2.6620 H   0  0  0  0  0  0  0  0  0  0  0  0
   -2.6246    3.5776    1.0180 H   0  0  0  0  0  0  0  0  0  0  0  0
   -3.7342    3.6765    2.3981 H   0  0  0  0  0  0  0  0  0  0  0  0
   -1.3352    1.1101    0.3372 N   0  0  0  0  0  0  0  0  0  0  0  0
   -0.1579    0.6093   -0.3265 C   0  0  2  0  0  0  0  0  0  0  0  0
    1.0501    1.2065    0.3864 C   0  0  0  0  0  0  0  0  0  0  0  0
    2.1750    1.2299   -0.1085 O   0  0  0  0  0  0  0  0  0  0  0  0
   -0.1327    0.9749   -1.8151 C   0  0  0  0  0  0  0  0  0  0  0  0
   -1.2180    0.2841   -2.6042 C   0  0  0  0  0  0  0  0  0  0  0  0
   -2.4364    0.8274   -2.9406 C   0  0  0  0  0  0  0  0  0  0  0  0
   -1.1710   -1.0356   -3.1343 C   0  0  0  0  0  0  0  0  0  0  0  0
   -3.1332   -0.1102   -3.6545 N   0  0  0  0  0  0  0  0  0  0  0  0
   -2.3848   -1.2579   -3.7884 C   0  0  0  0  0  0  0  0  0  0  0  0
   -0.2095   -2.0655   -3.1205 C   0  0  0  0  0  0  0  0  0  0  0  0
   -2.6862   -2.4634   -4.4318 C   0  0  0  0  0  0  0  0  0  0  0  0
   -0.4972   -3.2767   -3.7601 C   0  0  0  0  0  0  0  0  0  0  0  0
   -1.7171   -3.4705   -4.4051 C   0  0  0  0  0  0  0  0  0  0  0  0
   -2.1183    1.4068   -0.2401 H   0  0  0  0  0  0  0  0  0  0  0  0
   -0.1575   -0.4778   -0.1840 H   0  0  0  0  0  0  0  0  0  0  0  0
    0.8480    0.7367   -2.2487 H   0  0  0  0  0  0  0  0  0  0  0  0
   -0.2495    2.0589   -1.9458 H   0  0  0  0  0  0  0  0  0  0  0  0
   -2.8714    1.7959   -2.7353 H   0  0  0  0  0  0  0  0  0  0  0  0
   -4.0626    0.0205   -4.0295 H   0  0  0  0  0  0  0  0  0  0  0  0
    0.7458   -1.9304   -2.6213 H   0  0  0  0  0  0  0  0  0  0  0  0
   -3.6351   -2.6148   -4.9351 H   0  0  0  0  0  0  0  0  0  0  0  0
    0.2402   -4.0748   -3.7524 H   0  0  0  0  0  0  0  0  0  0  0  0
   -1.9196   -4.4191   -4.8955 H   0  0  0  0  0  0  0  0  0  0  0  0
    0.7101    1.7526    1.6163 N   0  0  0  0  0  0  0  0  0  0  0  0
    1.6631    2.4029    2.4866 C   0  0  2  0  0  0  0  0  0  0  0  0
    2.8640    1.4793    2.6427 C   0  0  0  0  0  0  0  0  0  0  0  0
    2.8064    0.2662    2.4525 O   0  0  0  0  0  0  0  0  0  0  0  0
    1.0468    2.7263    3.8388 C   0  0  0  0  0  0  0  0  0  0  0  0
   -0.2573    1.6921    1.9200 H   0  0  0  0  0  0  0  0  0  0  0  0
    1.9737    3.3248    1.9829 H   0  0  0  0  0  0  0  0  0  0  0  0
    0.7295    1.8149    4.3585 H   0  0  0  0  0  0  0  0  0  0  0  0
    1.7613    3.2446    4.4868 H   0  0  0  0  0  0  0  0  0  0  0  0
    0.1656    3.3664    3.7223 H   0  0  0  0  0  0  0  0  0  0  0  0
    3.9971    2.1628    3.0612 N   0  0  0  0  0  0  0  0  0  0  0  0
    5.2623    1.5060    3.2936 C   0  0  0  0  0  0  0  0  0  0  0  0
    3.9585    3.1713    3.1758 H   0  0  0  0  0  0  0  0  0  0  0  0
    5.3366    1.2160    4.3521 H   0  0  0  0  0  0  0  0  0  0  0  0
    5.3307    0.6081    2.6619 H   0  0  0  0  0  0  0  0  0  0  0  0
    6.0836    2.1937    3.0435 H   0  0  0  0  0  0  0  0  0  0  0  0
 29 30  2  0  0  0  0
 27 29  1  0  0  0  0
 28 30  1  0  0  0  0
 24 27  2  0  0  0  0
 26 28  2  0  0  0  0
 22 23  2  0  0  0  0
 23 25  1  0  0  0  0
 22 24  1  0  0  0  0
 24 26  1  0  0  0  0
 21 22  1  0  0  0  0
 25 26  1  0  0  0  0
  1  3  1  0  0  0  0
  1  7  1  0  0  0  0
  1  2  2  0  0  0  0
 42 43  1  0  0  0  0
 43 51  1  0  0  0  0
 43 44  2  0  0  0  0
  8  9  1  0  0  0  0
  9 17  1  0  0  0  0
  9 10  2  0  0  0  0
 18 19  1  0  0  0  0
 19 41  1  0  0  0  0
 19 20  2  0  0  0  0
 42 45  1  0  0  0  0
  8 11  1  0  0  0  0
 51 52  1  0  0  0  0
 18 21  1  0  0  0  0
 41 42  1  0  0  0  0
  7  8  1  0  0  0  0
 17 18  1  0  0  0  0
 29 39  1  0  0  0  0
 30 40  1  0  0  0  0
 27 37  1  0  0  0  0
 28 38  1  0  0  0  0
 23 35  1  0  0  0  0
  3  4  1  0  0  0  0
  3  5  1  0  0  0  0
  3  6  1  0  0  0  0
 45 48  1  0  0  0  0
 45 49  1  0  0  0  0
 45 50  1  0  0  0  0
 11 14  1  0  0  0  0
 11 15  1  0  0  0  0
 11 16  1  0  0  0  0
 52 54  1  0  0  0  0
 52 55  1  0  0  0  0
 52 56  1  0  0  0  0
 21 33  1  0  0  0  0
 21 34  1  0  0  0  0
 42 47  1  0  0  0  0
  8 13  1  0  0  0  0
 18 32  1  0  0  0  0
 25 36  1  0  0  0  0
 51 53  1  0  0  0  0
  7 12  1  0  0  0  0
 41 46  1  0  0  0  0
 17 31  1  0  0  0  0
M  END
$$$$

  -OEChem-05262214473D

 56 57  0     1  0  0  0  0  0999 V2000
   -2.2900    0.3401    4.1553 C   0  0  0  0  0  0  0  0  0  0  0  0
   -1.3426   -0.2746    3.6796 O   0  0  0  0  0  0  0  0  0  0  0  0
   -2.7219    0.0577    5.5560 C   0  0  0  0  0  0  0  0  0  0  0  0
   -3.4815   -0.7386    5.6094 H   0  0  0  0  0  0  0  0  0  0  0  0
   -1.8906   -0.2899    6.1903 H   0  0  0  0  0  0  0  0  0  0  0  0
   -3.1599    0.9126    6.0956 H   0  0  0  0  0  0  0  0  0  0  0  0
   -3.0397    1.3125    3.5142 N   0  0  0  0  0  0  0  0  0  0  0  0
   -2.7928    1.7385    2.1618 C   0  0  2  0  0  0  0  0  0  0  0  0
   -1.4579    1.1532    1.7206 C   0  0  0  0  0  0  0  0  0  0  0  0
   -0.5858    0.8004    2.5118 O   0  0  0  0  0  0  0  0  0  0  0  0
   -2.7841    3.2553    2.0523 C   0  0  0  0  0  0  0  0  0  0  0  0
   -3.8047    1.7484    4.0260 H   0  0  0  0  0  0  0  0  0  0  0  0
   -3.5969    1.3201    1.5466 H   0  0  0  0  0  0  0  0  0  0  0  0
   -1.9850    3.6926    2.6620 H   0  0  0  0  0  0  0  0  0  0  0  0
   -2.6246    3.5776    1.0180 H   0  0  0  0  0  0  0  0  0  0  0  0
   -3.7342    3.6765    2.3981 H   0  0  0  0  0  0  0  0  0  0  0  0
   -1.3352    1.1101    0.3372 N   0  0  0  0  0  0  0  0  0  0  0  0
   -0.1579    0.6093   -0.3265 C   0  0  2  0  0  0  0  0  0  0  0  0
    1.0501    1.2065    0.3864 C   0  0  0  0  0  0  0  0  0  0  0  0
    2.1018    1.4757   -0.1902 O   0  0  0  0  0  0  0  0  0  0  0  0
   -0.1327    0.9749   -1.8151 C   0  0  0  0  0  0  0  0  0  0  0  0
   -1.2180    0.2841   -2.6042 C   0  0  0  0  0  0  0  0  0  0  0  0
   -2.4364    0.8274   -2.9406 C   0  0  0  0  0  0  0  0  0  0  0  0
   -1.1710   -1.0356   -3.1343 C   0  0  0  0  0  0  0  0  0  0  0  0
   -3.1332   -0.1102   -3.6545 N   0  0  0  0  0  0  0  0  0  0  0  0
   -2.3848   -1.2579   -3.7884 C   0  0  0  0  0  0  0  0  0  0  0  0
   -0.2095   -2.0655   -3.1205 C   0  0  0  0  0  0  0  0  0  0  0  0
   -2.6862   -2.4634   -4.4318 C   0  0  0  0  0  0  0  0  0  0  0  0
   -0.4972   -3.2767   -3.7601 C   0  0  0  0  0  0  0  0  0  0  0  0
   -1.7171   -3.4705   -4.4051 C   0  0  0  0  0  0  0  0  0  0  0  0
   -2.1183    1.4068   -0.2401 H   0  0  0  0  0  0  0  0  0  0  0  0
   -0.1575   -0.4778   -0.1840 H   0  0  0  0  0  0  0  0  0  0  0  0
    0.8480    0.7367   -2.2487 H   0  0  0  0  0  0  0  0  0  0  0  0
   -0.2495    2.0589   -1.9458 H   0  0  0  0  0  0  0  0  0  0  0  0
   -2.8714    1.7959   -2.7353 H   0  0  0  0  0  0  0  0  0  0  0  0
   -4.0626    0.0205   -4.0295 H   0  0  0  0  0  0  0  0  0  0  0  0
    0.7458   -1.9304   -2.6213 H   0  0  0  0  0  0  0  0  0  0  0  0
   -3.6351   -2.6148   -4.9351 H   0  0  0  0  0  0  0  0  0  0  0  0
    0.2402   -4.0748   -3.7524 H   0  0  0  0  0  0  0  0  0  0  0  0
   -1.9196   -4.4191   -4.8955 H   0  0  0  0  0  0  0  0  0  0  0  0
    0.7943    1.4475    1.7292 N   0  0  0  0  0  0  0  0  0  0  0  0
    1.7627    2.0315    2.6292 C   0  0  2  0  0  0  0  0  0  0  0  0
    3.0681    1.2615    2.4793 C   0  0  0  0  0  0  0  0  0  0  0  0
    3.1236    0.1137    2.0430 O   0  0  0  0  0  0  0  0  0  0  0  0
    1.2725    1.9956    4.0683 C   0  0  0  0  0  0  0  0  0  0  0  0
   -0.1196    1.2011    2.0978 H   0  0  0  0  0  0  0  0  0  0  0  0
    1.9100    3.0678    2.3061 H   0  0  0  0  0  0  0  0  0  0  0  0
    1.1192    0.9654    4.4098 H   0  0  0  0  0  0  0  0  0  0  0  0
    1.9947    2.4640    4.7452 H   0  0  0  0  0  0  0  0  0  0  0  0
    0.3185    2.5244    4.1685 H   0  0  0  0  0  0  0  0  0  0  0  0
    4.1591    1.9912    2.9305 N   0  0  0  0  0  0  0  0  0  0  0  0
    5.5073    1.4737    2.9056 C   0  0  0  0  0  0  0  0  0  0  0  0
    4.0226    2.9427    3.2586 H   0  0  0  0  0  0  0  0  0  0  0  0
    5.7333    0.9914    3.8681 H   0  0  0  0  0  0  0  0  0  0  0  0
    5.6019    0.7363    2.0949 H   0  0  0  0  0  0  0  0  0  0  0  0
    6.2137    2.2993    2.7346 H   0  0  0  0  0  0  0  0  0  0  0  0
 29 30  2  0  0  0  0
 27 29  1  0  0  0  0
 28 30  1  0  0  0  0
 24 27  2  0  0  0  0
 26 28  2  0  0  0  0
 22 23  2  0  0  0  0
 23 25  1  0  0  0  0
 22 24  1  0  0  0  0
 24 26  1  0  0  0  0
 21 22  1  0  0  0  0
 25 26  1  0  0  0  0
  1  3  1  0  0  0  0
  1  7  1  0  0  0  0
  1  2  2  0  0  0  0
 42 43  1  0  0  0  0
 43 51  1  0  0  0  0
 43 44  2  0  0  0  0
  8  9  1  0  0  0  0
  9 17  1  0  0  0  0
  9 10  2  0  0  0  0
 18 19  1  0  0  0  0
 19 41  1  0  0  0  0
 19 20  2  0  0  0  0
 42 45  1  0  0  0  0
  8 11  1  0  0  0  0
 51 52  1  0  0  0  0
 18 21  1  0  0  0  0
 41 42  1  0  0  0  0
  7  8  1  0  0  0  0
 17 18  1  0  0  0  0
 29 39  1  0  0  0  0
 30 40  1  0  0  0  0
 27 37  1  0  0  0  0
 28 38  1  0  0  0  0
 23 35  1  0  0  0  0
  3  4  1  0  0  0  0
  3  5  1  0  0  0  0
  3  6  1  0  0  0  0
 45 48  1  0  0  0  0
 45 49  1  0  0  0  0
 45 50  1  0  0  0  0
 11 14  1  0  0  0  0
 11 15  1  0  0  0  0
 11 16  1  0  0  0  0
 52 54  1  0  0  0  0
 52 55  1  0  0  0  0
 52 56  1  0  0  0  0
 21 33  1  0  0  0  0
 21 34  1  0  0  0  0
 42 47  1  0  0  0  0
  8 13  1  0  0  0  0
 18 32  1  0  0  0  0
 25 36  1  0  0  0  0
 51 53  1  0  0  0  0
  7 12  1  0  0  0  0
 41 46  1  0  0  0  0
 17 31  1  0  0  0  0
M  END
$$$$

  -OEChem-05262214473D

 56 57  0     1  0  0  0  0  0999 V2000
   -2.2900    0.3401    4.1553 C   0  0  0  0  0  0  0  0  0  0  0  0
   -1.3426   -0.2746    3.6796 O   0  0  0  0  0  0  0  0  0  0  0  0
   -2.7219    0.0577    5.5560 C   0  0  0  0  0  0  0  0  0  0  0  0
   -3.4815   -0.7386    5.6094 H   0  0  0  0  0  0  0  0  0  0  0  0
   -1.8906   -0.2899    6.1903 H   0  0  0  0  0  0  0  0  0  0  0  0
   -3.1599    0.9126    6.0956 H   0  0  0  0  0  0  0  0  0  0  0  0
   -3.0397    1.3125    3.5142 N   0  0  0  0  0  0  0  0  0  0  0  0
   -2.7928    1.7385    2.1618 C   0  0  2  0  0  0  0  0  0  0  0  0
   -1.4579    1.1532    1.7206 C   0  0  0  0  0  0  0  0  0  0  0  0
   -0.5858    0.8004    2.5118 O   0  0  0  0  0  0  0  0  0  0  0  0
   -2.7841    3.2553    2.0523 C   0  0  0  0  0  0  0  0  0  0  0  0
   -3.8047    1.7484    4.0260 H   0  0  0  0  0  0  0  0  0  0  0  0
   -3.5969    1.3201    1.5466 H   0  0  0  0  0  0  0  0  0  0  0  0
   -1.9850    3.6926    2.6620 H   0  0  0  0  0  0  0  0  0  0  0  0
   -2.6246    3.5776    1.0180 H   0  0  0  0  0  0  0  0  0  0  0  0
   -3.7342    3.6765    2.3981 H   0  0  0  0  0  0  0  0  0  0  0  0
   -1.3352    1.1101    0.3372 N   0  0  0  0  0  0  0  0  0  0  0  0
   -0.1579    0.6093   -0.3265 C   0  0  2  0  0  0  0  0  0  0  0  0
    1.0501    1.2065    0.3864 C   0  0  0  0  0  0  0  0  0  0  0  0
    1.9929    1.7210   -0.2113 O   0  0  0  0  0  0  0  0  0  0  0  0
   -0.1327    0.9749   -1.8151 C   0  0  0  0  0  0  0  0  0  0  0  0
   -1.2180    0.2841   -2.6042 C   0  0  0  0  0  0  0  0  0  0  0  0
   -2.4364    0.8274   -2.9406 C   0  0  0  0  0  0  0  0  0  0  0  0
   -1.1710   -1.0356   -3.1343 C   0  0  0  0  0  0  0  0  0  0  0  0
   -3.1332   -0.1102   -3.6545 N   0  0  0  0  0  0  0  0  0  0  0  0
   -2.3848   -1.2579   -3.7884 C   0  0  0  0  0  0  0  0  0  0  0  0
   -0.2095   -2.0655   -3.1205 C   0  0  0  0  0  0  0  0  0  0  0  0
   -2.6862   -2.4634   -4.4318 C   0  0  0  0  0  0  0  0  0  0  0  0
   -0.4972   -3.2767   -3.7601 C   0  0  0  0  0  0  0  0  0  0  0  0
   -1.7171   -3.4705   -4.4051 C   0  0  0  0  0  0  0  0  0  0  0  0
   -2.1183    1.4068   -0.2401 H   0  0  0  0  0  0  0  0  0  0  0  0
   -0.1575   -0.4778   -0.1840 H   0  0  0  0  0  0  0  0  0  0  0  0
    0.8480    0.7367   -2.2487 H   0  0  0  0  0  0  0  0  0  0  0  0
   -0.2495    2.0589   -1.9458 H   0  0  0  0  0  0  0  0  0  0  0  0
   -2.8714    1.7959   -2.7353 H   0  0  0  0  0  0  0  0  0  0  0  0
   -4.0626    0.0205   -4.0295 H   0  0  0  0  0  0  0  0  0  0  0  0
    0.7458   -1.9304   -2.6213 H   0  0  0  0  0  0  0  0  0  0  0  0
   -3.6351   -2.6148   -4.9351 H   0  0  0  0  0  0  0  0  0  0  0  0
    0.2402   -4.0748   -3.7524 H   0  0  0  0  0  0  0  0  0  0  0  0
   -1.9196   -4.4191   -4.8955 H   0  0  0  0  0  0  0  0  0  0  0  0
    0.9240    1.1399    1.7671 N   0  0  0  0  0  0  0  0  0  0  0  0
    1.9182    1.6555    2.6806 C   0  0  2  0  0  0  0  0  0  0  0  0
    3.2750    1.1094    2.2561 C   0  0  0  0  0  0  0  0  0  0  0  0
    3.4069    0.0887    1.5839 O   0  0  0  0  0  0  0  0  0  0  0  0
    1.6023    1.2700    4.1173 C   0  0  0  0  0  0  0  0  0  0  0  0
    0.0910    0.7070    2.1549 H   0  0  0  0  0  0  0  0  0  0  0  0
    1.9124    2.7455    2.5720 H   0  0  0  0  0  0  0  0  0  0  0  0
    1.6036    0.1814    4.2456 H   0  0  0  0  0  0  0  0  0  0  0  0
    2.3407    1.6854    4.8111 H   0  0  0  0  0  0  0  0  0  0  0  0
    0.6134    1.6381    4.4112 H   0  0  0  0  0  0  0  0  0  0  0  0
    4.3230    1.8718    2.7527 N   0  0  0  0  0  0  0  0  0  0  0  0
    5.7084    1.5516    2.4994 C   0  0  0  0  0  0  0  0  0  0  0  0
    4.1206    2.7127    3.2853 H   0  0  0  0  0  0  0  0  0  0  0  0
    6.0946    0.9216    3.3143 H   0  0  0  0  0  0  0  0  0  0  0  0
    5.7909    1.0092    1.5461 H   0  0  0  0  0  0  0  0  0  0  0  0
    6.2952    2.4805    2.4448 H   0  0  0  0  0  0  0  0  0  0  0  0
 29 30  2  0  0  0  0
 27 29  1  0  0  0  0
 28 30  1  0  0  0  0
 24 27  2  0  0  0  0
 26 28  2  0  0  0  0
 22 23  2  0  0  0  0
 23 25  1  0  0  0  0
 22 24  1  0  0  0  0
 24 26  1  0  0  0  0
 21 22  1  0  0  0  0
 25 26  1  0  0  0  0
  1  3  1  0  0  0  0
  1  7  1  0  0  0  0
  1  2  2  0  0  0  0
 42 43  1  0  0  0  0
 43 51  1  0  0  0  0
 43 44  2  0  0  0  0
  8  9  1  0  0  0  0
  9 17  1  0  0  0  0
  9 10  2  0  0  0  0
 18 19  1  0  0  0  0
 19 41  1  0  0  0  0
 19 20  2  0  0  0  0
 42 45  1  0  0  0  0
  8 11  1  0  0  0  0
 51 52  1  0  0  0  0
 18 21  1  0  0  0  0
 41 42  1  0  0  0  0
  7  8  1  0  0  0  0
 17 18  1  0  0  0  0
 29 39  1  0  0  0  0
 30 40  1  0  0  0  0
 27 37  1  0  0  0  0
 28 38  1  0  0  0  0
 23 35  1  0  0  0  0
  3  4  1  0  0  0  0
  3  5  1  0  0  0  0
  3  6  1  0  0  0  0
 45 48  1  0  0  0  0
 45 49  1  0  0  0  0
 45 50  1  0  0  0  0
 11 14  1  0  0  0  0
 11 15  1  0  0  0  0
 11 16  1  0  0  0  0
 52 54  1  0  0  0  0
 52 55  1  0  0  0  0
 52 56  1  0  0  0  0
 21 33  1  0  0  0  0
 21 34  1  0  0  0  0
 42 47  1  0  0  0  0
  8 13  1  0  0  0  0
 18 32  1  0  0  0  0
 25 36  1  0  0  0  0
 51 53  1  0  0  0  0
  7 12  1  0  0  0  0
 41 46  1  0  0  0  0
 17 31  1  0  0  0  0
M  END
$$$$

  -OEChem-05262214473D

 56 57  0     1  0  0  0  0  0999 V2000
   -2.2900    0.3401    4.1553 C   0  0  0  0  0  0  0  0  0  0  0  0
   -1.3426   -0.2746    3.6796 O   0  0  0  0  0  0  0  0  0  0  0  0
   -2.7219    0.0577    5.5560 C   0  0  0  0  0  0  0  0  0  0  0  0
   -3.4815   -0.7386    5.6094 H   0  0  0  0  0  0  0  0  0  0  0  0
   -1.8906   -0.2899    6.1903 H   0  0  0  0  0  0  0  0  0  0  0  0
   -3.1599    0.9126    6.0956 H   0  0  0  0  0  0  0  0  0  0  0  0
   -3.0397    1.3125    3.5142 N   0  0  0  0  0  0  0  0  0  0  0  0
   -2.7928    1.7385    2.1618 C   0  0  2  0  0  0  0  0  0  0  0  0
   -1.4579    1.1532    1.7206 C   0  0  0  0  0  0  0  0  0  0  0  0
   -0.5858    0.8004    2.5118 O   0  0  0  0  0  0  0  0  0  0  0  0
   -2.7841    3.2553    2.0523 C   0  0  0  0  0  0  0  0  0  0  0  0
   -3.8047    1.7484    4.0260 H   0  0  0  0  0  0  0  0  0  0  0  0
   -3.5969    1.3201    1.5466 H   0  0  0  0  0  0  0  0  0  0  0  0
   -1.9850    3.6926    2.6620 H   0  0  0  0  0  0  0  0  0  0  0  0
   -2.6246    3.5776    1.0180 H   0  0  0  0  0  0  0  0  0  0  0  0
   -3.7342    3.6765    2.3981 H   0  0  0  0  0  0  0  0  0  0  0  0
   -1.3352    1.1101    0.3372 N   0  0  0  0  0  0  0  0  0  0  0  0
   -0.1579    0.6093   -0.3265 C   0  0  2  0  0  0  0  0  0  0  0  0
    1.0501    1.2065    0.3864 C   0  0  0  0  0  0  0  0  0  0  0  0
    1.8560    1.9491   -0.1703 O   0  0  0  0  0  0  0  0  0  0  0  0
   -0.1327    0.9749   -1.8151 C   0  0  0  0  0  0  0  0  0  0  0  0
   -1.2180    0.2841   -2.6042 C   0  0  0  0  0  0  0  0  0  0  0  0
   -2.4364    0.8274   -2.9406 C   0  0  0  0  0  0  0  0  0  0  0  0
   -1.1710   -1.0356   -3.1343 C   0  0  0  0  0  0  0  0  0  0  0  0
   -3.1332   -0.1102   -3.6545 N   0  0  0  0  0  0  0  0  0  0  0  0
   -2.3848   -1.2579   -3.7884 C   0  0  0  0  0  0  0  0  0  0  0  0
   -0.2095   -2.0655   -3.1205 C   0  0  0  0  0  0  0  0  0  0  0  0
   -2.6862   -2.4634   -4.4318 C   0  0  0  0  0  0  0  0  0  0  0  0
   -0.4972   -3.2767   -3.7601 C   0  0  0  0  0  0  0  0  0  0  0  0
   -1.7171   -3.4705   -4.4051 C   0  0  0  0  0  0  0  0  0  0  0  0
   -2.1183    1.4068   -0.2401 H   0  0  0  0  0  0  0  0  0  0  0  0
   -0.1575   -0.4778   -0.1840 H   0  0  0  0  0  0  0  0  0  0  0  0
    0.8480    0.7367   -2.2487 H   0  0  0  0  0  0  0  0  0  0  0  0
   -0.2495    2.0589   -1.9458 H   0  0  0  0  0  0  0  0  0  0  0  0
   -2.8714    1.7959   -2.7353 H   0  0  0  0  0  0  0  0  0  0  0  0
   -4.0626    0.0205   -4.0295 H   0  0  0  0  0  0  0  0  0  0  0  0
    0.7458   -1.9304   -2.6213 H   0  0  0  0  0  0  0  0  0  0  0  0
   -3.6351   -2.6148   -4.9351 H   0  0  0  0  0  0  0  0  0  0  0  0
    0.2402   -4.0748   -3.7524 H   0  0  0  0  0  0  0  0  0  0  0  0
   -1.9196   -4.4191   -4.8955 H   0  0  0  0  0  0  0  0  0  0  0  0
    1.0903    0.8507    1.7274 N   0  0  0  0  0  0  0  0  0  0  0  0
    2.1191    1.3006    2.6373 C   0  0  2  0  0  0  0  0  0  0  0  0
    3.4707    1.0332    1.9884 C   0  0  0  0  0  0  0  0  0  0  0  0
    3.6370    0.1930    1.1066 O   0  0  0  0  0  0  0  0  0  0  0  0
    2.0137    0.5990    3.9824 C   0  0  0  0  0  0  0  0  0  0  0  0
    0.3599    0.2435    2.0874 H   0  0  0  0  0  0  0  0  0  0  0  0
    1.9806    2.3801    2.7625 H   0  0  0  0  0  0  0  0  0  0  0  0
    2.1498   -0.4836    3.8771 H   0  0  0  0  0  0  0  0  0  0  0  0
    2.7759    0.9616    4.6799 H   0  0  0  0  0  0  0  0  0  0  0  0
    1.0301    0.7678    4.4340 H   0  0  0  0  0  0  0  0  0  0  0  0
    4.4778    1.8128    2.5398 N   0  0  0  0  0  0  0  0  0  0  0  0
    5.8521    1.7346    2.1027 C   0  0  0  0  0  0  0  0  0  0  0  0
    4.2458    2.4970    3.2539 H   0  0  0  0  0  0  0  0  0  0  0  0
    6.3959    1.0115    2.7284 H   0  0  0  0  0  0  0  0  0  0  0  0
    5.8848    1.4082    1.0527 H   0  0  0  0  0  0  0  0  0  0  0  0
    6.3226    2.7247    2.1937 H   0  0  0  0  0  0  0  0  0  0  0  0
 29 30  2  0  0  0  0
 27 29  1  0  0  0  0
 28 30  1  0  0  0  0
 24 27  2  0  0  0  0
 26 28  2  0  0  0  0
 22 23  2  0  0  0  0
 23 25  1  0  0  0  0
 22 24  1  0  0  0  0
 24 26  1  0  0  0  0
 21 22  1  0  0  0  0
 25 26  1  0  0  0  0
  1  3  1  0  0  0  0
  1  7  1  0  0  0  0
  1  2  2  0  0  0  0
 42 43  1  0  0  0  0
 43 51  1  0  0  0  0
 43 44  2  0  0  0  0
  8  9  1  0  0  0  0
  9 17  1  0  0  0  0
  9 10  2  0  0  0  0
 18 19  1  0  0  0  0
 19 41  1  0  0  0  0
 19 20  2  0  0  0  0
 42 45  1  0  0  0  0
  8 11  1  0  0  0  0
 51 52  1  0  0  0  0
 18 21  1  0  0  0  0
 41 42  1  0  0  0  0
  7  8  1  0  0  0  0
 17 18  1  0  0  0  0
 29 39  1  0  0  0  0
 30 40  1  0  0  0  0
 27 37  1  0  0  0  0
 28 38  1  0  0  0  0
 23 35  1  0  0  0  0
  3  4  1  0  0  0  0
  3  5  1  0  0  0  0
  3  6  1  0  0  0  0
 45 48  1  0  0  0  0
 45 49  1  0  0  0  0
 45 50  1  0  0  0  0
 11 14  1  0  0  0  0
 11 15  1  0  0  0  0
 11 16  1  0  0  0  0
 52 54  1  0  0  0  0
 52 55  1  0  0  0  0
 52 56  1  0  0  0  0
 21 33  1  0  0  0  0
 21 34  1  0  0  0  0
 42 47  1  0  0  0  0
  8 13  1  0  0  0  0
 18 32  1  0  0  0  0
 25 36  1  0  0  0  0
 51 53  1  0  0  0  0
  7 12  1  0  0  0  0
 41 46  1  0  0  0  0
 17 31  1  0  0  0  0
M  END
$$$$

  -OEChem-05262214473D

 56 57  0     1  0  0  0  0  0999 V2000
   -2.2900    0.3401    4.1553 C   0  0  0  0  0  0  0  0  0  0  0  0
   -1.3426   -0.2746    3.6796 O   0  0  0  0  0  0  0  0  0  0  0  0
   -2.7219    0.0577    5.5560 C   0  0  0  0  0  0  0  0  0  0  0  0
   -3.4815   -0.7386    5.6094 H   0  0  0  0  0  0  0  0  0  0  0  0
   -1.8906   -0.2899    6.1903 H   0  0  0  0  0  0  0  0  0  0  0  0
   -3.1599    0.9126    6.0956 H   0  0  0  0  0  0  0  0  0  0  0  0
   -3.0397    1.3125    3.5142 N   0  0  0  0  0  0  0  0  0  0  0  0
   -2.7928    1.7385    2.1618 C   0  0  2  0  0  0  0  0  0  0  0  0
   -1.4579    1.1532    1.7206 C   0  0  0  0  0  0  0  0  0  0  0  0
   -0.5858    0.8004    2.5118 O   0  0  0  0  0  0  0  0  0  0  0  0
   -2.7841    3.2553    2.0523 C   0  0  0  0  0  0  0  0  0  0  0  0
   -3.8047    1.7484    4.0260 H   0  0  0  0  0  0  0  0  0  0  0  0
   -3.5969    1.3201    1.5466 H   0  0  0  0  0  0  0  0  0  0  0  0
   -1.9850    3.6926    2.6620 H   0  0  0  0  0  0  0  0  0  0  0  0
   -2.6246    3.5776    1.0180 H   0  0  0  0  0  0  0  0  0  0  0  0
   -3.7342    3.6765    2.3981 H   0  0  0  0  0  0  0  0  0  0  0  0
   -1.3352    1.1101    0.3372 N   0  0  0  0  0  0  0  0  0  0  0  0
   -0.1579    0.6093   -0.3265 C   0  0  2  0  0  0  0  0  0  0  0  0
    1.0501    1.2065    0.3864 C   0  0  0  0  0  0  0  0  0  0  0  0
    1.7003    2.1444   -0.0701 O   0  0  0  0  0  0  0  0  0  0  0  0
   -0.1327    0.9749   -1.8151 C   0  0  0  0  0  0  0  0  0  0  0  0
   -1.2180    0.2841   -2.6042 C   0  0  0  0  0  0  0  0  0  0  0  0
   -2.4364    0.8274   -2.9406 C   0  0  0  0  0  0  0  0  0  0  0  0
   -1.1710   -1.0356   -3.1343 C   0  0  0  0  0  0  0  0  0  0  0  0
   -3.1332   -0.1102   -3.6545 N   0  0  0  0  0  0  0  0  0  0  0  0
   -2.3848   -1.2579   -3.7884 C   0  0  0  0  0  0  0  0  0  0  0  0
   -0.2095   -2.0655   -3.1205 C   0  0  0  0  0  0  0  0  0  0  0  0
   -2.6862   -2.4634   -4.4318 C   0  0  0  0  0  0  0  0  0  0  0  0
   -0.4972   -3.2767   -3.7601 C   0  0  0  0  0  0  0  0  0  0  0  0
   -1.7171   -3.4705   -4.4051 C   0  0  0  0  0  0  0  0  0  0  0  0
   -2.1183    1.4068   -0.2401 H   0  0  0  0  0  0  0  0  0  0  0  0
   -0.1575   -0.4778   -0.1840 H   0  0  0  0  0  0  0  0  0  0  0  0
    0.8480    0.7367   -2.2487 H   0  0  0  0  0  0  0  0  0  0  0  0
   -0.2495    2.0589   -1.9458 H   0  0  0  0  0  0  0  0  0  0  0  0
   -2.8714    1.7959   -2.7353 H   0  0  0  0  0  0  0  0  0  0  0  0
   -4.0626    0.0205   -4.0295 H   0  0  0  0  0  0  0  0  0  0  0  0
    0.7458   -1.9304   -2.6213 H   0  0  0  0  0  0  0  0  0  0  0  0
   -3.6351   -2.6148   -4.9351 H   0  0  0  0  0  0  0  0  0  0  0  0
    0.2402   -4.0748   -3.7524 H   0  0  0  0  0  0  0  0  0  0  0  0
   -1.9196   -4.4191   -4.8955 H   0  0  0  0  0  0  0  0  0  0  0  0
    1.2820    0.5996    1.6130 N   0  0  0  0  0  0  0  0  0  0  0  0
    2.3518    0.9910    2.5024 C   0  0  2  0  0  0  0  0  0  0  0  0
    3.6418    1.0382    1.6943 C   0  0  0  0  0  0  0  0  0  0  0  0
    3.7982    0.4195    0.6437 O   0  0  0  0  0  0  0  0  0  0  0  0
    2.4785    0.0283    3.6728 C   0  0  0  0  0  0  0  0  0  0  0  0
    0.6690   -0.1578    1.8999 H   0  0  0  0  0  0  0  0  0  0  0  0
    2.1101    1.9962    2.8647 H   0  0  0  0  0  0  0  0  0  0  0  0
    2.7205   -0.9842    3.3294 H   0  0  0  0  0  0  0  0  0  0  0  0
    3.2706    0.3420    4.3607 H   0  0  0  0  0  0  0  0  0  0  0  0
    1.5403   -0.0270    4.2354 H   0  0  0  0  0  0  0  0  0  0  0  0
    4.6129    1.8183    2.3064 N   0  0  0  0  0  0  0  0  0  0  0  0
    5.9286    2.0101    1.7424 C   0  0  0  0  0  0  0  0  0  0  0  0
    4.3897    2.3101    3.1666 H   0  0  0  0  0  0  0  0  0  0  0  0
    6.6166    1.2550    2.1504 H   0  0  0  0  0  0  0  0  0  0  0  0
    5.8772    1.9062    0.6485 H   0  0  0  0  0  0  0  0  0  0  0  0
    6.2941    3.0155    1.9984 H   0  0  0  0  0  0  0  0  0  0  0  0
 29 30  2  0  0  0  0
 27 29  1  0  0  0  0
 28 30  1  0  0  0  0
 24 27  2  0  0  0  0
 26 28  2  0  0  0  0
 22 23  2  0  0  0  0
 23 25  1  0  0  0  0
 22 24  1  0  0  0  0
 24 26  1  0  0  0  0
 21 22  1  0  0  0  0
 25 26  1  0  0  0  0
  1  3  1  0  0  0  0
  1  7  1  0  0  0  0
  1  2  2  0  0  0  0
 42 43  1  0  0  0  0
 43 51  1  0  0  0  0
 43 44  2  0  0  0  0
  8  9  1  0  0  0  0
  9 17  1  0  0  0  0
  9 10  2  0  0  0  0
 18 19  1  0  0  0  0
 19 41  1  0  0  0  0
 19 20  2  0  0  0  0
 42 45  1  0  0  0  0
  8 11  1  0  0  0  0
 51 52  1  0  0  0  0
 18 21  1  0  0  0  0
 41 42  1  0  0  0  0
  7  8  1  0  0  0  0
 17 18  1  0  0  0  0
 29 39  1  0  0  0  0
 30 40  1  0  0  0  0
 27 37  1  0  0  0  0
 28 38  1  0  0  0  0
 23 35  1  0  0  0  0
  3  4  1  0  0  0  0
  3  5  1  0  0  0  0
  3  6  1  0  0  0  0
 45 48  1  0  0  0  0
 45 49  1  0  0  0  0
 45 50  1  0  0  0  0
 11 14  1  0  0  0  0
 11 15  1  0  0  0  0
 11 16  1  0  0  0  0
 52 54  1  0  0  0  0
 52 55  1  0  0  0  0
 52 56  1  0  0  0  0
 21 33  1  0  0  0  0
 21 34  1  0  0  0  0
 42 47  1  0  0  0  0
  8 13  1  0  0  0  0
 18 32  1  0  0  0  0
 25 36  1  0  0  0  0
 51 53  1  0  0  0  0
  7 12  1  0  0  0  0
 41 46  1  0  0  0  0
 17 31  1  0  0  0  0
M  END
$$$$

  -OEChem-05262214473D

 56 57  0     1  0  0  0  0  0999 V2000
   -2.2900    0.3401    4.1553 C   0  0  0  0  0  0  0  0  0  0  0  0
   -1.3426   -0.2746    3.6796 O   0  0  0  0  0  0  0  0  0  0  0  0
   -2.7219    0.0577    5.5560 C   0  0  0  0  0  0  0  0  0  0  0  0
   -3.4815   -0.7386    5.6094 H   0  0  0  0  0  0  0  0  0  0  0  0
   -1.8906   -0.2899    6.1903 H   0  0  0  0  0  0  0  0  0  0  0  0
   -3.1599    0.9126    6.0956 H   0  0  0  0  0  0  0  0  0  0  0  0
   -3.0397    1.3125    3.5142 N   0  0  0  0  0  0  0  0  0  0  0  0
   -2.7928    1.7385    2.1618 C   0  0  2  0  0  0  0  0  0  0  0  0
   -1.4579    1.1532    1.7206 C   0  0  0  0  0  0  0  0  0  0  0  0
   -0.5858    0.8004    2.5118 O   0  0  0  0  0  0  0  0  0  0  0  0
   -2.7841    3.2553    2.0523 C   0  0  0  0  0  0  0  0  0  0  0  0
   -3.8047    1.7484    4.0260 H   0  0  0  0  0  0  0  0  0  0  0  0
   -3.5969    1.3201    1.5466 H   0  0  0  0  0  0  0  0  0  0  0  0
   -1.9850    3.6926    2.6620 H   0  0  0  0  0  0  0  0  0  0  0  0
   -2.6246    3.5776    1.0180 H   0  0  0  0  0  0  0  0  0  0  0  0
   -3.7342    3.6765    2.3981 H   0  0  0  0  0  0  0  0  0  0  0  0
   -1.3352    1.1101    0.3372 N   0  0  0  0  0  0  0  0  0  0  0  0
   -0.1579    0.6093   -0.3265 C   0  0  2  0  0  0  0  0  0  0  0  0
    1.0501    1.2065    0.3864 C   0  0  0  0  0  0  0  0  0  0  0  0
    1.5364    2.2937    0.0826 O   0  0  0  0  0  0  0  0  0  0  0  0
   -0.1327    0.9749   -1.8151 C   0  0  0  0  0  0  0  0  0  0  0  0
   -1.2180    0.2841   -2.6042 C   0  0  0  0  0  0  0  0  0  0  0  0
   -2.4364    0.8274   -2.9406 C   0  0  0  0  0  0  0  0  0  0  0  0
   -1.1710   -1.0356   -3.1343 C   0  0  0  0  0  0  0  0  0  0  0  0
   -3.1332   -0.1102   -3.6545 N   0  0  0  0  0  0  0  0  0  0  0  0
   -2.3848   -1.2579   -3.7884 C   0  0  0  0  0  0  0  0  0  0  0  0
   -0.2095   -2.0655   -3.1205 C   0  0  0  0  0  0  0  0  0  0  0  0
   -2.6862   -2.4634   -4.4318 C   0  0  0  0  0  0  0  0  0  0  0  0
   -0.4972   -3.2767   -3.7601 C   0  0  0  0  0  0  0  0  0  0  0  0
   -1.7171   -3.4705   -4.4051 C   0  0  0  0  0  0  0  0  0  0  0  0
   -2.1183    1.4068   -0.2401 H   0  0  0  0  0  0  0  0  0  0  0  0
   -0.1575   -0.4778   -0.1840 H   0  0  0  0  0  0  0  0  0  0  0  0
    0.8480    0.7367   -2.2487 H   0  0  0  0  0  0  0  0  0  0  0  0
   -0.2495    2.0589   -1.9458 H   0  0  0  0  0  0  0  0  0  0  0  0
   -2.8714    1.7959   -2.7353 H   0  0  0  0  0  0  0  0  0  0  0  0
   -4.0626    0.0205   -4.0295 H   0  0  0  0  0  0  0  0  0  0  0  0
    0.7458   -1.9304   -2.6213 H   0  0  0  0  0  0  0  0  0  0  0  0
   -3.6351   -2.6148   -4.9351 H   0  0  0  0  0  0  0  0  0  0  0  0
    0.2402   -4.0748   -3.7524 H   0  0  0  0  0  0  0  0  0  0  0  0
   -1.9196   -4.4191   -4.8955 H   0  0  0  0  0  0  0  0  0  0  0  0
    1.4859    0.4037    1.4315 N   0  0  0  0  0  0  0  0  0  0  0  0
    2.6003    0.7478    2.2850 C   0  0  2  0  0  0  0  0  0  0  0  0
    3.7766    1.1241    1.3939 C   0  0  0  0  0  0  0  0  0  0  0  0
    3.8796    0.7527    0.2266 O   0  0  0  0  0  0  0  0  0  0  0  0
    2.9652   -0.4032    3.2095 C   0  0  0  0  0  0  0  0  0  0  0  0
    0.9970   -0.4695    1.6051 H   0  0  0  0  0  0  0  0  0  0  0  0
    2.2920    1.6201    2.8715 H   0  0  0  0  0  0  0  0  0  0  0  0
    3.2768   -1.2863    2.6398 H   0  0  0  0  0  0  0  0  0  0  0  0
    3.7910   -0.1310    3.8751 H   0  0  0  0  0  0  0  0  0  0  0  0
    2.1091   -0.6922    3.8287 H   0  0  0  0  0  0  0  0  0  0  0  0
    4.7190    1.8877    2.0684 N   0  0  0  0  0  0  0  0  0  0  0  0
    5.9326    2.3593    1.4431 C   0  0  0  0  0  0  0  0  0  0  0  0
    4.5424    2.1650    3.0294 H   0  0  0  0  0  0  0  0  0  0  0  0
    6.7418    1.6355    1.6196 H   0  0  0  0  0  0  0  0  0  0  0  0
    5.7686    2.4692    0.3610 H   0  0  0  0  0  0  0  0  0  0  0  0
    6.2116    3.3329    1.8724 H   0  0  0  0  0  0  0  0  0  0  0  0
 29 30  2  0  0  0  0
 27 29  1  0  0  0  0
 28 30  1  0  0  0  0
 24 27  2  0  0  0  0
 26 28  2  0  0  0  0
 22 23  2  0  0  0  0
 23 25  1  0  0  0  0
 22 24  1  0  0  0  0
 24 26  1  0  0  0  0
 21 22  1  0  0  0  0
 25 26  1  0  0  0  0
  1  3  1  0  0  0  0
  1  7  1  0  0  0  0
  1  2  2  0  0  0  0
 42 43  1  0  0  0  0
 43 51  1  0  0  0  0
 43 44  2  0  0  0  0
  8  9  1  0  0  0  0
  9 17  1  0  0  0  0
  9 10  2  0  0  0  0
 18 19  1  0  0  0  0
 19 41  1  0  0  0  0
 19 20  2  0  0  0  0
 42 45  1  0  0  0  0
  8 11  1  0  0  0  0
 51 52  1  0  0  0  0
 18 21  1  0  0  0  0
 41 42  1  0  0  0  0
  7  8  1  0  0  0  0
 17 18  1  0  0  0  0
 29 39  1  0  0  0  0
 30 40  1  0  0  0  0
 27 37  1  0  0  0  0
 28 38  1  0  0  0  0
 23 35  1  0  0  0  0
  3  4  1  0  0  0  0
  3  5  1  0  0  0  0
  3  6  1  0  0  0  0
 45 48  1  0  0  0  0
 45 49  1  0  0  0  0
 45 50  1  0  0  0  0
 11 14  1  0  0  0  0
 11 15  1  0  0  0  0
 11 16  1  0  0  0  0
 52 54  1  0  0  0  0
 52 55  1  0  0  0  0
 52 56  1  0  0  0  0
 21 33  1  0  0  0  0
 21 34  1  0  0  0  0
 42 47  1  0  0  0  0
  8 13  1  0  0  0  0
 18 32  1  0  0  0  0
 25 36  1  0  0  0  0
 51 53  1  0  0  0  0
  7 12  1  0  0  0  0
 41 46  1  0  0  0  0
 17 31  1  0  0  0  0
M  END
$$$$

  -OEChem-05262214473D

 56 57  0     1  0  0  0  0  0999 V2000
   -2.2900    0.3401    4.1553 C   0  0  0  0  0  0  0  0  0  0  0  0
   -1.3426   -0.2746    3.6796 O   0  0  0  0  0  0  0  0  0  0  0  0
   -2.7219    0.0577    5.5560 C   0  0  0  0  0  0  0  0  0  0  0  0
   -3.4815   -0.7386    5.6094 H   0  0  0  0  0  0  0  0  0  0  0  0
   -1.8906   -0.2899    6.1903 H   0  0  0  0  0  0  0  0  0  0  0  0
   -3.1599    0.9126    6.0956 H   0  0  0  0  0  0  0  0  0  0  0  0
   -3.0397    1.3125    3.5142 N   0  0  0  0  0  0  0  0  0  0  0  0
   -2.7928    1.7385    2.1618 C   0  0  2  0  0  0  0  0  0  0  0  0
   -1.4579    1.1532    1.7206 C   0  0  0  0  0  0  0  0  0  0  0  0
   -0.5858    0.8004    2.5118 O   0  0  0  0  0  0  0  0  0  0  0  0
   -2.7841    3.2553    2.0523 C   0  0  0  0  0  0  0  0  0  0  0  0
   -3.8047    1.7484    4.0260 H   0  0  0  0  0  0  0  0  0  0  0  0
   -3.5969    1.3201    1.5466 H   0  0  0  0  0  0  0  0  0  0  0  0
   -1.9850    3.6926    2.6620 H   0  0  0  0  0  0  0  0  0  0  0  0
   -2.6246    3.5776    1.0180 H   0  0  0  0  0  0  0  0  0  0  0  0
   -3.7342    3.6765    2.3981 H   0  0  0  0  0  0  0  0  0  0  0  0
   -1.3352    1.1101    0.3372 N   0  0  0  0  0  0  0  0  0  0  0  0
   -0.1579    0.6093   -0.3265 C   0  0  2  0  0  0  0  0  0  0  0  0
    1.0501    1.2065    0.3864 C   0  0  0  0  0  0  0  0  0  0  0  0
    1.3755    2.3868    0.2773 O   0  0  0  0  0  0  0  0  0  0  0  0
   -0.1327    0.9749   -1.8151 C   0  0  0  0  0  0  0  0  0  0  0  0
   -1.2180    0.2841   -2.6042 C   0  0  0  0  0  0  0  0  0  0  0  0
   -2.4364    0.8274   -2.9406 C   0  0  0  0  0  0  0  0  0  0  0  0
   -1.1710   -1.0356   -3.1343 C   0  0  0  0  0  0  0  0  0  0  0  0
   -3.1332   -0.1102   -3.6545 N   0  0  0  0  0  0  0  0  0  0  0  0
   -2.3848   -1.2579   -3.7884 C   0  0  0  0  0  0  0  0  0  0  0  0
   -0.2095   -2.0655   -3.1205 C   0  0  0  0  0  0  0  0  0  0  0  0
   -2.6862   -2.4634   -4.4318 C   0  0  0  0  0  0  0  0  0  0  0  0
   -0.4972   -3.2767   -3.7601 C   0  0  0  0  0  0  0  0  0  0  0  0
   -1.7171   -3.4705   -4.4051 C   0  0  0  0  0  0  0  0  0  0  0  0
   -2.1183    1.4068   -0.2401 H   0  0  0  0  0  0  0  0  0  0  0  0
   -0.1575   -0.4778   -0.1840 H   0  0  0  0  0  0  0  0  0  0  0  0
    0.8480    0.7367   -2.2487 H   0  0  0  0  0  0  0  0  0  0  0  0
   -0.2495    2.0589   -1.9458 H   0  0  0  0  0  0  0  0  0  0  0  0
   -2.8714    1.7959   -2.7353 H   0  0  0  0  0  0  0  0  0  0  0  0
   -4.0626    0.0205   -4.0295 H   0  0  0  0  0  0  0  0  0  0  0  0
    0.7458   -1.9304   -2.6213 H   0  0  0  0  0  0  0  0  0  0  0  0
   -3.6351   -2.6148   -4.9351 H   0  0  0  0  0  0  0  0  0  0  0  0
    0.2402   -4.0748   -3.7524 H   0  0  0  0  0  0  0  0  0  0  0  0
   -1.9196   -4.4191   -4.8955 H   0  0  0  0  0  0  0  0  0  0  0  0
    1.6882    0.2764    1.1953 N   0  0  0  0  0  0  0  0  0  0  0  0
    2.8478    0.5875    2.0000 C   0  0  2  0  0  0  0  0  0  0  0  0
    3.8660    1.2850    1.1076 C   0  0  0  0  0  0  0  0  0  0  0  0
    3.8756    1.1700   -0.1162 O   0  0  0  0  0  0  0  0  0  0  0  0
    3.4406   -0.6661    2.6242 C   0  0  0  0  0  0  0  0  0  0  0  0
    1.3218   -0.6705    1.2232 H   0  0  0  0  0  0  0  0  0  0  0  0
    2.5138    1.2775    2.7825 H   0  0  0  0  0  0  0  0  0  0  0  0
    3.7808   -1.3695    1.8554 H   0  0  0  0  0  0  0  0  0  0  0  0
    4.3017   -0.4254    3.2563 H   0  0  0  0  0  0  0  0  0  0  0  0
    2.6979   -1.1825    3.2418 H   0  0  0  0  0  0  0  0  0  0  0  0
    4.7890    2.0165    1.8419 N   0  0  0  0  0  0  0  0  0  0  0  0
    5.8638    2.7585    1.2253 C   0  0  0  0  0  0  0  0  0  0  0  0
    4.6935    2.0714    2.8517 H   0  0  0  0  0  0  0  0  0  0  0  0
    6.7628    2.1270    1.1723 H   0  0  0  0  0  0  0  0  0  0  0  0
    5.5664    3.0588    0.2097 H   0  0  0  0  0  0  0  0  0  0  0  0
    6.0807    3.6554    1.8241 H   0  0  0  0  0  0  0  0  0  0  0  0
 29 30  2  0  0  0  0
 27 29  1  0  0  0  0
 28 30  1  0  0  0  0
 24 27  2  0  0  0  0
 26 28  2  0  0  0  0
 22 23  2  0  0  0  0
 23 25  1  0  0  0  0
 22 24  1  0  0  0  0
 24 26  1  0  0  0  0
 21 22  1  0  0  0  0
 25 26  1  0  0  0  0
  1  3  1  0  0  0  0
  1  7  1  0  0  0  0
  1  2  2  0  0  0  0
 42 43  1  0  0  0  0
 43 51  1  0  0  0  0
 43 44  2  0  0  0  0
  8  9  1  0  0  0  0
  9 17  1  0  0  0  0
  9 10  2  0  0  0  0
 18 19  1  0  0  0  0
 19 41  1  0  0  0  0
 19 20  2  0  0  0  0
 42 45  1  0  0  0  0
  8 11  1  0  0  0  0
 51 52  1  0  0  0  0
 18 21  1  0  0  0  0
 41 42  1  0  0  0  0
  7  8  1  0  0  0  0
 17 18  1  0  0  0  0
 29 39  1  0  0  0  0
 30 40  1  0  0  0  0
 27 37  1  0  0  0  0
 28 38  1  0  0  0  0
 23 35  1  0  0  0  0
  3  4  1  0  0  0  0
  3  5  1  0  0  0  0
  3  6  1  0  0  0  0
 45 48  1  0  0  0  0
 45 49  1  0  0  0  0
 45 50  1  0  0  0  0
 11 14  1  0  0  0  0
 11 15  1  0  0  0  0
 11 16  1  0  0  0  0
 52 54  1  0  0  0  0
 52 55  1  0  0  0  0
 52 56  1  0  0  0  0
 21 33  1  0  0  0  0
 21 34  1  0  0  0  0
 42 47  1  0  0  0  0
  8 13  1  0  0  0  0
 18 32  1  0  0  0  0
 25 36  1  0  0  0  0
 51 53  1  0  0  0  0
  7 12  1  0  0  0  0
 41 46  1  0  0  0  0
 17 31  1  0  0  0  0
M  END
$$$$

  -OEChem-05262214473D

 56 57  0     1  0  0  0  0  0999 V2000
   -2.2900    0.3401    4.1553 C   0  0  0  0  0  0  0  0  0  0  0  0
   -1.3426   -0.2746    3.6796 O   0  0  0  0  0  0  0  0  0  0  0  0
   -2.7219    0.0577    5.5560 C   0  0  0  0  0  0  0  0  0  0  0  0
   -3.4815   -0.7386    5.6094 H   0  0  0  0  0  0  0  0  0  0  0  0
   -1.8906   -0.2899    6.1903 H   0  0  0  0  0  0  0  0  0  0  0  0
   -3.1599    0.9126    6.0956 H   0  0  0  0  0  0  0  0  0  0  0  0
   -3.0397    1.3125    3.5142 N   0  0  0  0  0  0  0  0  0  0  0  0
   -2.7928    1.7385    2.1618 C   0  0  2  0  0  0  0  0  0  0  0  0
   -1.4579    1.1532    1.7206 C   0  0  0  0  0  0  0  0  0  0  0  0
   -0.5858    0.8004    2.5118 O   0  0  0  0  0  0  0  0  0  0  0  0
   -2.7841    3.2553    2.0523 C   0  0  0  0  0  0  0  0  0  0  0  0
   -3.8047    1.7484    4.0260 H   0  0  0  0  0  0  0  0  0  0  0  0
   -3.5969    1.3201    1.5466 H   0  0  0  0  0  0  0  0  0  0  0  0
   -1.9850    3.6926    2.6620 H   0  0  0  0  0  0  0  0  0  0  0  0
   -2.6246    3.5776    1.0180 H   0  0  0  0  0  0  0  0  0  0  0  0
   -3.7342    3.6765    2.3981 H   0  0  0  0  0  0  0  0  0  0  0  0
   -1.3352    1.1101    0.3372 N   0  0  0  0  0  0  0  0  0  0  0  0
   -0.1579    0.6093   -0.3265 C   0  0  2  0  0  0  0  0  0  0  0  0
    1.0501    1.2065    0.3864 C   0  0  0  0  0  0  0  0  0  0  0  0
    1.2286    2.4173    0.5008 O   0  0  0  0  0  0  0  0  0  0  0  0
   -0.1327    0.9749   -1.8151 C   0  0  0  0  0  0  0  0  0  0  0  0
   -1.2180    0.2841   -2.6042 C   0  0  0  0  0  0  0  0  0  0  0  0
   -2.4364    0.8274   -2.9406 C   0  0  0  0  0  0  0  0  0  0  0  0
   -1.1710   -1.0356   -3.1343 C   0  0  0  0  0  0  0  0  0  0  0  0
   -3.1332   -0.1102   -3.6545 N   0  0  0  0  0  0  0  0  0  0  0  0
   -2.3848   -1.2579   -3.7884 C   0  0  0  0  0  0  0  0  0  0  0  0
   -0.2095   -2.0655   -3.1205 C   0  0  0  0  0  0  0  0  0  0  0  0
   -2.6862   -2.4634   -4.4318 C   0  0  0  0  0  0  0  0  0  0  0  0
   -0.4972   -3.2767   -3.7601 C   0  0  0  0  0  0  0  0  0  0  0  0
   -1.7171   -3.4705   -4.4051 C   0  0  0  0  0  0  0  0  0  0  0  0
   -2.1183    1.4068   -0.2401 H   0  0  0  0  0  0  0  0  0  0  0  0
   -0.1575   -0.4778   -0.1840 H   0  0  0  0  0  0  0  0  0  0  0  0
    0.8480    0.7367   -2.2487 H   0  0  0  0  0  0  0  0  0  0  0  0
   -0.2495    2.0589   -1.9458 H   0  0  0  0  0  0  0  0  0  0  0  0
   -2.8714    1.7959   -2.7353 H   0  0  0  0  0  0  0  0  0  0  0  0
   -4.0626    0.0205   -4.0295 H   0  0  0  0  0  0  0  0  0  0  0  0
    0.7458   -1.9304   -2.6213 H   0  0  0  0  0  0  0  0  0  0  0  0
   -3.6351   -2.6148   -4.9351 H   0  0  0  0  0  0  0  0  0  0  0  0
    0.2402   -4.0748   -3.7524 H   0  0  0  0  0  0  0  0  0  0  0  0
   -1.9196   -4.4191   -4.8955 H   0  0  0  0  0  0  0  0  0  0  0  0
    1.8751    0.2264    0.9206 N   0  0  0  0  0  0  0  0  0  0  0  0
    3.0773    0.5211    1.6666 C   0  0  2  0  0  0  0  0  0  0  0  0
    3.9038    1.5099    0.8551 C   0  0  0  0  0  0  0  0  0  0  0  0
    3.7866    1.6428   -0.3613 O   0  0  0  0  0  0  0  0  0  0  0  0
    3.8723   -0.7425    1.9567 C   0  0  0  0  0  0  0  0  0  0  0  0
    1.6211   -0.7470    0.7802 H   0  0  0  0  0  0  0  0  0  0  0  0
    2.7606    0.9916    2.6038 H   0  0  0  0  0  0  0  0  0  0  0  0
    4.1982   -1.2279    1.0296 H   0  0  0  0  0  0  0  0  0  0  0  0
    4.7679   -0.5211    2.5465 H   0  0  0  0  0  0  0  0  0  0  0  0
    3.2664   -1.4645    2.5147 H   0  0  0  0  0  0  0  0  0  0  0  0
    4.8181    2.1958    1.6425 N   0  0  0  0  0  0  0  0  0  0  0  0
    5.7269    3.1805    1.1037 C   0  0  0  0  0  0  0  0  0  0  0  0
    4.8329    2.0358    2.6455 H   0  0  0  0  0  0  0  0  0  0  0  0
    6.6783    2.6960    0.8388 H   0  0  0  0  0  0  0  0  0  0  0  0
    5.2844    3.6349    0.2050 H   0  0  0  0  0  0  0  0  0  0  0  0
    5.9103    3.9610    1.8568 H   0  0  0  0  0  0  0  0  0  0  0  0
 29 30  2  0  0  0  0
 27 29  1  0  0  0  0
 28 30  1  0  0  0  0
 24 27  2  0  0  0  0
 26 28  2  0  0  0  0
 22 23  2  0  0  0  0
 23 25  1  0  0  0  0
 22 24  1  0  0  0  0
 24 26  1  0  0  0  0
 21 22  1  0  0  0  0
 25 26  1  0  0  0  0
  1  3  1  0  0  0  0
  1  7  1  0  0  0  0
  1  2  2  0  0  0  0
 42 43  1  0  0  0  0
 43 51  1  0  0  0  0
 43 44  2  0  0  0  0
  8  9  1  0  0  0  0
  9 17  1  0  0  0  0
  9 10  2  0  0  0  0
 18 19  1  0  0  0  0
 19 41  1  0  0  0  0
 19 20  2  0  0  0  0
 42 45  1  0  0  0  0
  8 11  1  0  0  0  0
 51 52  1  0  0  0  0
 18 21  1  0  0  0  0
 41 42  1  0  0  0  0
  7  8  1  0  0  0  0
 17 18  1  0  0  0  0
 29 39  1  0  0  0  0
 30 40  1  0  0  0  0
 27 37  1  0  0  0  0
 28 38  1  0  0  0  0
 23 35  1  0  0  0  0
  3  4  1  0  0  0  0
  3  5  1  0  0  0  0
  3  6  1  0  0  0  0
 45 48  1  0  0  0  0
 45 49  1  0  0  0  0
 45 50  1  0  0  0  0
 11 14  1  0  0  0  0
 11 15  1  0  0  0  0
 11 16  1  0  0  0  0
 52 54  1  0  0  0  0
 52 55  1  0  0  0  0
 52 56  1  0  0  0  0
 21 33  1  0  0  0  0
 21 34  1  0  0  0  0
 42 47  1  0  0  0  0
  8 13  1  0  0  0  0
 18 32  1  0  0  0  0
 25 36  1  0  0  0  0
 51 53  1  0  0  0  0
  7 12  1  0  0  0  0
 41 46  1  0  0  0  0
 17 31  1  0  0  0  0
M  END
$$$$

  -OEChem-05262214473D

 56 57  0     1  0  0  0  0  0999 V2000
   -2.2900    0.3401    4.1553 C   0  0  0  0  0  0  0  0  0  0  0  0
   -1.3426   -0.2746    3.6796 O   0  0  0  0  0  0  0  0  0  0  0  0
   -2.7219    0.0577    5.5560 C   0  0  0  0  0  0  0  0  0  0  0  0
   -3.4815   -0.7386    5.6094 H   0  0  0  0  0  0  0  0  0  0  0  0
   -1.8906   -0.2899    6.1903 H   0  0  0  0  0  0  0  0  0  0  0  0
   -3.1599    0.9126    6.0956 H   0  0  0  0  0  0  0  0  0  0  0  0
   -3.0397    1.3125    3.5142 N   0  0  0  0  0  0  0  0  0  0  0  0
   -2.7928    1.7385    2.1618 C   0  0  2  0  0  0  0  0  0  0  0  0
   -1.4579    1.1532    1.7206 C   0  0  0  0  0  0  0  0  0  0  0  0
   -0.5858    0.8004    2.5118 O   0  0  0  0  0  0  0  0  0  0  0  0
   -2.7841    3.2553    2.0523 C   0  0  0  0  0  0  0  0  0  0  0  0
   -3.8047    1.7484    4.0260 H   0  0  0  0  0  0  0  0  0  0  0  0
   -3.5969    1.3201    1.5466 H   0  0  0  0  0  0  0  0  0  0  0  0
   -1.9850    3.6926    2.6620 H   0  0  0  0  0  0  0  0  0  0  0  0
   -2.6246    3.5776    1.0180 H   0  0  0  0  0  0  0  0  0  0  0  0
   -3.7342    3.6765    2.3981 H   0  0  0  0  0  0  0  0  0  0  0  0
   -1.3352    1.1101    0.3372 N   0  0  0  0  0  0  0  0  0  0  0  0
   -0.1579    0.6093   -0.3265 C   0  0  2  0  0  0  0  0  0  0  0  0
    1.0501    1.2065    0.3864 C   0  0  0  0  0  0  0  0  0  0  0  0
    1.1056    2.3831    0.7377 O   0  0  0  0  0  0  0  0  0  0  0  0
   -0.1327    0.9749   -1.8151 C   0  0  0  0  0  0  0  0  0  0  0  0
   -1.2180    0.2841   -2.6042 C   0  0  0  0  0  0  0  0  0  0  0  0
   -2.4364    0.8274   -2.9406 C   0  0  0  0  0  0  0  0  0  0  0  0
   -1.1710   -1.0356   -3.1343 C   0  0  0  0  0  0  0  0  0  0  0  0
   -3.1332   -0.1102   -3.6545 N   0  0  0  0  0  0  0  0  0  0  0  0
   -2.3848   -1.2579   -3.7884 C   0  0  0  0  0  0  0  0  0  0  0  0
   -0.2095   -2.0655   -3.1205 C   0  0  0  0  0  0  0  0  0  0  0  0
   -2.6862   -2.4634   -4.4318 C   0  0  0  0  0  0  0  0  0  0  0  0
   -0.4972   -3.2767   -3.7601 C   0  0  0  0  0  0  0  0  0  0  0  0
   -1.7171   -3.4705   -4.4051 C   0  0  0  0  0  0  0  0  0  0  0  0
   -2.1183    1.4068   -0.2401 H   0  0  0  0  0  0  0  0  0  0  0  0
   -0.1575   -0.4778   -0.1840 H   0  0  0  0  0  0  0  0  0  0  0  0
    0.8480    0.7367   -2.2487 H   0  0  0  0  0  0  0  0  0  0  0  0
   -0.2495    2.0589   -1.9458 H   0  0  0  0  0  0  0  0  0  0  0  0
   -2.8714    1.7959   -2.7353 H   0  0  0  0  0  0  0  0  0  0  0  0
   -4.0626    0.0205   -4.0295 H   0  0  0  0  0  0  0  0  0  0  0  0
    0.7458   -1.9304   -2.6213 H   0  0  0  0  0  0  0  0  0  0  0  0
   -3.6351   -2.6148   -4.9351 H   0  0  0  0  0  0  0  0  0  0  0  0
    0.2402   -4.0748   -3.7524 H   0  0  0  0  0  0  0  0  0  0  0  0
   -1.9196   -4.4191   -4.8955 H   0  0  0  0  0  0  0  0  0  0  0  0
    2.0338    0.2570    0.6261 N   0  0  0  0  0  0  0  0  0  0  0  0
    3.2733    0.5531    1.3078 C   0  0  2  0  0  0  0  0  0  0  0  0
    3.8876    1.7836    0.6535 C   0  0  0  0  0  0  0  0  0  0  0  0
    3.6184    2.1391   -0.4921 O   0  0  0  0  0  0  0  0  0  0  0  0
    4.2308   -0.6271    1.2526 C   0  0  0  0  0  0  0  0  0  0  0  0
    1.8745   -0.6938    0.3062 H   0  0  0  0  0  0  0  0  0  0  0  0
    3.0155    0.7820    2.3476 H   0  0  0  0  0  0  0  0  0  0  0  0
    4.5005   -0.8712    0.2186 H   0  0  0  0  0  0  0  0  0  0  0  0
    5.1579   -0.4115    1.7939 H   0  0  0  0  0  0  0  0  0  0  0  0
    3.7760   -1.5190    1.6969 H   0  0  0  0  0  0  0  0  0  0  0  0
    4.8042    2.4134    1.4837 N   0  0  0  0  0  0  0  0  0  0  0  0
    5.5314    3.5964    1.0867 C   0  0  0  0  0  0  0  0  0  0  0  0
    4.9508    2.0605    2.4248 H   0  0  0  0  0  0  0  0  0  0  0  0
    6.4940    3.3038    0.6420 H   0  0  0  0  0  0  0  0  0  0  0  0
    4.9418    4.1582    0.3472 H   0  0  0  0  0  0  0  0  0  0  0  0
    5.7121    4.2288    1.9684 H   0  0  0  0  0  0  0  0  0  0  0  0
 29 30  2  0  0  0  0
 27 29  1  0  0  0  0
 28 30  1  0  0  0  0
 24 27  2  0  0  0  0
 26 28  2  0  0  0  0
 22 23  2  0  0  0  0
 23 25  1  0  0  0  0
 22 24  1  0  0  0  0
 24 26  1  0  0  0  0
 21 22  1  0  0  0  0
 25 26  1  0  0  0  0
  1  3  1  0  0  0  0
  1  7  1  0  0  0  0
  1  2  2  0  0  0  0
 42 43  1  0  0  0  0
 43 51  1  0  0  0  0
 43 44  2  0  0  0  0
  8  9  1  0  0  0  0
  9 17  1  0  0  0  0
  9 10  2  0  0  0  0
 18 19  1  0  0  0  0
 19 41  1  0  0  0  0
 19 20  2  0  0  0  0
 42 45  1  0  0  0  0
  8 11  1  0  0  0  0
 51 52  1  0  0  0  0
 18 21  1  0  0  0  0
 41 42  1  0  0  0  0
  7  8  1  0  0  0  0
 17 18  1  0  0  0  0
 29 39  1  0  0  0  0
 30 40  1  0  0  0  0
 27 37  1  0  0  0  0
 28 38  1  0  0  0  0
 23 35  1  0  0  0  0
  3  4  1  0  0  0  0
  3  5  1  0  0  0  0
  3  6  1  0  0  0  0
 45 48  1  0  0  0  0
 45 49  1  0  0  0  0
 45 50  1  0  0  0  0
 11 14  1  0  0  0  0
 11 15  1  0  0  0  0
 11 16  1  0  0  0  0
 52 54  1  0  0  0  0
 52 55  1  0  0  0  0
 52 56  1  0  0  0  0
 21 33  1  0  0  0  0
 21 34  1  0  0  0  0
 42 47  1  0  0  0  0
  8 13  1  0  0  0  0
 18 32  1  0  0  0  0
 25 36  1  0  0  0  0
 51 53  1  0  0  0  0
  7 12  1  0  0  0  0
 41 46  1  0  0  0  0
 17 31  1  0  0  0  0
M  END
$$$$

  -OEChem-05262214473D

 56 57  0     1  0  0  0  0  0999 V2000
   -2.2900    0.3401    4.1553 C   0  0  0  0  0  0  0  0  0  0  0  0
   -1.3426   -0.2746    3.6796 O   0  0  0  0  0  0  0  0  0  0  0  0
   -2.7219    0.0577    5.5560 C   0  0  0  0  0  0  0  0  0  0  0  0
   -3.4815   -0.7386    5.6094 H   0  0  0  0  0  0  0  0  0  0  0  0
   -1.8906   -0.2899    6.1903 H   0  0  0  0  0  0  0  0  0  0  0  0
   -3.1599    0.9126    6.0956 H   0  0  0  0  0  0  0  0  0  0  0  0
   -3.0397    1.3125    3.5142 N   0  0  0  0  0  0  0  0  0  0  0  0
   -2.7928    1.7385    2.1618 C   0  0  2  0  0  0  0  0  0  0  0  0
   -1.4579    1.1532    1.7206 C   0  0  0  0  0  0  0  0  0  0  0  0
   -0.5858    0.8004    2.5118 O   0  0  0  0  0  0  0  0  0  0  0  0
   -2.7841    3.2553    2.0523 C   0  0  0  0  0  0  0  0  0  0  0  0
   -3.8047    1.7484    4.0260 H   0  0  0  0  0  0  0  0  0  0  0  0
   -3.5969    1.3201    1.5466 H   0  0  0  0  0  0  0  0  0  0  0  0
   -1.9850    3.6926    2.6620 H   0  0  0  0  0  0  0  0  0  0  0  0
   -2.6246    3.5776    1.0180 H   0  0  0  0  0  0  0  0  0  0  0  0
   -3.7342    3.6765    2.3981 H   0  0  0  0  0  0  0  0  0  0  0  0
   -1.3352    1.1101    0.3372 N   0  0  0  0  0  0  0  0  0  0  0  0
   -0.1579    0.6093   -0.3265 C   0  0  2  0  0  0  0  0  0  0  0  0
    1.0501    1.2065    0.3864 C   0  0  0  0  0  0  0  0  0  0  0  0
    1.0150    2.2866    0.9721 O   0  0  0  0  0  0  0  0  0  0  0  0
   -0.1327    0.9749   -1.8151 C   0  0  0  0  0  0  0  0  0  0  0  0
   -1.2180    0.2841   -2.6042 C   0  0  0  0  0  0  0  0  0  0  0  0
   -2.4364    0.8274   -2.9406 C   0  0  0  0  0  0  0  0  0  0  0  0
   -1.1710   -1.0356   -3.1343 C   0  0  0  0  0  0  0  0  0  0  0  0
   -3.1332   -0.1102   -3.6545 N   0  0  0  0  0  0  0  0  0  0  0  0
   -2.3848   -1.2579   -3.7884 C   0  0  0  0  0  0  0  0  0  0  0  0
   -0.2095   -2.0655   -3.1205 C   0  0  0  0  0  0  0  0  0  0  0  0
   -2.6862   -2.4634   -4.4318 C   0  0  0  0  0  0  0  0  0  0  0  0
   -0.4972   -3.2767   -3.7601 C   0  0  0  0  0  0  0  0  0  0  0  0
   -1.7171   -3.4705   -4.4051 C   0  0  0  0  0  0  0  0  0  0  0  0
   -2.1183    1.4068   -0.2401 H   0  0  0  0  0  0  0  0  0  0  0  0
   -0.1575   -0.4778   -0.1840 H   0  0  0  0  0  0  0  0  0  0  0  0
    0.8480    0.7367   -2.2487 H   0  0  0  0  0  0  0  0  0  0  0  0
   -0.2495    2.0589   -1.9458 H   0  0  0  0  0  0  0  0  0  0  0  0
   -2.8714    1.7959   -2.7353 H   0  0  0  0  0  0  0  0  0  0  0  0
   -4.0626    0.0205   -4.0295 H   0  0  0  0  0  0  0  0  0  0  0  0
    0.7458   -1.9304   -2.6213 H   0  0  0  0  0  0  0  0  0  0  0  0
   -3.6351   -2.6148   -4.9351 H   0  0  0  0  0  0  0  0  0  0  0  0
    0.2402   -4.0748   -3.7524 H   0  0  0  0  0  0  0  0  0  0  0  0
   -1.9196   -4.4191   -4.8955 H   0  0  0  0  0  0  0  0  0  0  0  0
    2.1535    0.3662    0.3317 N   0  0  0  0  0  0  0  0  0  0  0  0
    3.4223    0.6814    0.9479 C   0  0  2  0  0  0  0  0  0  0  0  0
    3.8183    2.0873    0.5165 C   0  0  0  0  0  0  0  0  0  0  0  0
    3.3827    2.6248   -0.4995 O   0  0  0  0  0  0  0  0  0  0  0  0
    4.4917   -0.3278    0.5597 C   0  0  0  0  0  0  0  0  0  0  0  0
    2.0648   -0.5145   -0.1664 H   0  0  0  0  0  0  0  0  0  0  0  0
    3.2610    0.6630    2.0312 H   0  0  0  0  0  0  0  0  0  0  0  0
    4.6671   -0.3238   -0.5222 H   0  0  0  0  0  0  0  0  0  0  0  0
    5.4450   -0.1040    1.0499 H   0  0  0  0  0  0  0  0  0  0  0  0
    4.1919   -1.3422    0.8441 H   0  0  0  0  0  0  0  0  0  0  0  0
    4.7484    2.6545    1.3763 N   0  0  0  0  0  0  0  0  0  0  0  0
    5.2904    3.9780    1.1753 C   0  0  0  0  0  0  0  0  0  0  0  0
    5.0394    2.1439    2.2048 H   0  0  0  0  0  0  0  0  0  0  0  0
    6.2225    3.9089    0.5953 H   0  0  0  0  0  0  0  0  0  0  0  0
    4.5619    4.5930    0.6266 H   0  0  0  0  0  0  0  0  0  0  0  0
    5.4995    4.4406    2.1512 H   0  0  0  0  0  0  0  0  0  0  0  0
 29 30  2  0  0  0  0
 27 29  1  0  0  0  0
 28 30  1  0  0  0  0
 24 27  2  0  0  0  0
 26 28  2  0  0  0  0
 22 23  2  0  0  0  0
 23 25  1  0  0  0  0
 22 24  1  0  0  0  0
 24 26  1  0  0  0  0
 21 22  1  0  0  0  0
 25 26  1  0  0  0  0
  1  3  1  0  0  0  0
  1  7  1  0  0  0  0
  1  2  2  0  0  0  0
 42 43  1  0  0  0  0
 43 51  1  0  0  0  0
 43 44  2  0  0  0  0
  8  9  1  0  0  0  0
  9 17  1  0  0  0  0
  9 10  2  0  0  0  0
 18 19  1  0  0  0  0
 19 41  1  0  0  0  0
 19 20  2  0  0  0  0
 42 45  1  0  0  0  0
  8 11  1  0  0  0  0
 51 52  1  0  0  0  0
 18 21  1  0  0  0  0
 41 42  1  0  0  0  0
  7  8  1  0  0  0  0
 17 18  1  0  0  0  0
 29 39  1  0  0  0  0
 30 40  1  0  0  0  0
 27 37  1  0  0  0  0
 28 38  1  0  0  0  0
 23 35  1  0  0  0  0
  3  4  1  0  0  0  0
  3  5  1  0  0  0  0
  3  6  1  0  0  0  0
 45 48  1  0  0  0  0
 45 49  1  0  0  0  0
 45 50  1  0  0  0  0
 11 14  1  0  0  0  0
 11 15  1  0  0  0  0
 11 16  1  0  0  0  0
 52 54  1  0  0  0  0
 52 55  1  0  0  0  0
 52 56  1  0  0  0  0
 21 33  1  0  0  0  0
 21 34  1  0  0  0  0
 42 47  1  0  0  0  0
  8 13  1  0  0  0  0
 18 32  1  0  0  0  0
 25 36  1  0  0  0  0
 51 53  1  0  0  0  0
  7 12  1  0  0  0  0
 41 46  1  0  0  0  0
 17 31  1  0  0  0  0
M  END
$$$$

  -OEChem-05262214473D

 56 57  0     1  0  0  0  0  0999 V2000
   -2.2900    0.3401    4.1553 C   0  0  0  0  0  0  0  0  0  0  0  0
   -1.3426   -0.2746    3.6796 O   0  0  0  0  0  0  0  0  0  0  0  0
   -2.7219    0.0577    5.5560 C   0  0  0  0  0  0  0  0  0  0  0  0
   -3.4815   -0.7386    5.6094 H   0  0  0  0  0  0  0  0  0  0  0  0
   -1.8906   -0.2899    6.1903 H   0  0  0  0  0  0  0  0  0  0  0  0
   -3.1599    0.9126    6.0956 H   0  0  0  0  0  0  0  0  0  0  0  0
   -3.0397    1.3125    3.5142 N   0  0  0  0  0  0  0  0  0  0  0  0
   -2.7928    1.7385    2.1618 C   0  0  2  0  0  0  0  0  0  0  0  0
   -1.4579    1.1532    1.7206 C   0  0  0  0  0  0  0  0  0  0  0  0
   -0.5858    0.8004    2.5118 O   0  0  0  0  0  0  0  0  0  0  0  0
   -2.7841    3.2553    2.0523 C   0  0  0  0  0  0  0  0  0  0  0  0
   -3.8047    1.7484    4.0260 H   0  0  0  0  0  0  0  0  0  0  0  0
   -3.5969    1.3201    1.5466 H   0  0  0  0  0  0  0  0  0  0  0  0
   -1.9850    3.6926    2.6620 H   0  0  0  0  0  0  0  0  0  0  0  0
   -2.6246    3.5776    1.0180 H   0  0  0  0  0  0  0  0  0  0  0  0
   -3.7342    3.6765    2.3981 H   0  0  0  0  0  0  0  0  0  0  0  0
   -1.3352    1.1101    0.3372 N   0  0  0  0  0  0  0  0  0  0  0  0
   -0.1579    0.6093   -0.3265 C   0  0  2  0  0  0  0  0  0  0  0  0
    1.0501    1.2065    0.3864 C   0  0  0  0  0  0  0  0  0  0  0  0
    0.9629    2.1343    1.1879 O   0  0  0  0  0  0  0  0  0  0  0  0
   -0.1327    0.9749   -1.8151 C   0  0  0  0  0  0  0  0  0  0  0  0
   -1.2180    0.2841   -2.6042 C   0  0  0  0  0  0  0  0  0  0  0  0
   -2.4364    0.8274   -2.9406 C   0  0  0  0  0  0  0  0  0  0  0  0
   -1.1710   -1.0356   -3.1343 C   0  0  0  0  0  0  0  0  0  0  0  0
   -3.1332   -0.1102   -3.6545 N   0  0  0  0  0  0  0  0  0  0  0  0
   -2.3848   -1.2579   -3.7884 C   0  0  0  0  0  0  0  0  0  0  0  0
   -0.2095   -2.0655   -3.1205 C   0  0  0  0  0  0  0  0  0  0  0  0
   -2.6862   -2.4634   -4.4318 C   0  0  0  0  0  0  0  0  0  0  0  0
   -0.4972   -3.2767   -3.7601 C   0  0  0  0  0  0  0  0  0  0  0  0
   -1.7171   -3.4705   -4.4051 C   0  0  0  0  0  0  0  0  0  0  0  0
   -2.1183    1.4068   -0.2401 H   0  0  0  0  0  0  0  0  0  0  0  0
   -0.1575   -0.4778   -0.1840 H   0  0  0  0  0  0  0  0  0  0  0  0
    0.8480    0.7367   -2.2487 H   0  0  0  0  0  0  0  0  0  0  0  0
   -0.2495    2.0589   -1.9458 H   0  0  0  0  0  0  0  0  0  0  0  0
   -2.8714    1.7959   -2.7353 H   0  0  0  0  0  0  0  0  0  0  0  0
   -4.0626    0.0205   -4.0295 H   0  0  0  0  0  0  0  0  0  0  0  0
    0.7458   -1.9304   -2.6213 H   0  0  0  0  0  0  0  0  0  0  0  0
   -3.6351   -2.6148   -4.9351 H   0  0  0  0  0  0  0  0  0  0  0  0
    0.2402   -4.0748   -3.7524 H   0  0  0  0  0  0  0  0  0  0  0  0
   -1.9196   -4.4191   -4.8955 H   0  0  0  0  0  0  0  0  0  0  0  0
    2.2261    0.5465    0.0577 N   0  0  0  0  0  0  0  0  0  0  0  0
    3.5142    0.8971    0.6114 C   0  0  2  0  0  0  0  0  0  0  0  0
    3.7007    2.4003    0.4535 C   0  0  0  0  0  0  0  0  0  0  0  0
    3.0954    3.0671   -0.3832 O   0  0  0  0  0  0  0  0  0  0  0  0
    4.6373    0.1349   -0.0746 C   0  0  0  0  0  0  0  0  0  0  0  0
    2.1790   -0.2214   -0.6055 H   0  0  0  0  0  0  0  0  0  0  0  0
    3.4805    0.6426    1.6764 H   0  0  0  0  0  0  0  0  0  0  0  0
    4.6867    0.3770   -1.1425 H   0  0  0  0  0  0  0  0  0  0  0  0
    5.6096    0.3802    0.3652 H   0  0  0  0  0  0  0  0  0  0  0  0
    4.4857   -0.9462    0.0144 H   0  0  0  0  0  0  0  0  0  0  0  0
    4.6544    2.9026    1.3277 N   0  0  0  0  0  0  0  0  0  0  0  0
    5.0204    4.2993    1.3637 C   0  0  0  0  0  0  0  0  0  0  0  0
    5.0926    2.2803    2.0004 H   0  0  0  0  0  0  0  0  0  0  0  0
    5.8822    4.4702    0.7017 H   0  0  0  0  0  0  0  0  0  0  0  0
    4.1707    4.9097    1.0242 H   0  0  0  0  0  0  0  0  0  0  0  0
    5.2870    4.5820    2.3928 H   0  0  0  0  0  0  0  0  0  0  0  0
 29 30  2  0  0  0  0
 27 29  1  0  0  0  0
 28 30  1  0  0  0  0
 24 27  2  0  0  0  0
 26 28  2  0  0  0  0
 22 23  2  0  0  0  0
 23 25  1  0  0  0  0
 22 24  1  0  0  0  0
 24 26  1  0  0  0  0
 21 22  1  0  0  0  0
 25 26  1  0  0  0  0
  1  3  1  0  0  0  0
  1  7  1  0  0  0  0
  1  2  2  0  0  0  0
 42 43  1  0  0  0  0
 43 51  1  0  0  0  0
 43 44  2  0  0  0  0
  8  9  1  0  0  0  0
  9 17  1  0  0  0  0
  9 10  2  0  0  0  0
 18 19  1  0  0  0  0
 19 41  1  0  0  0  0
 19 20  2  0  0  0  0
 42 45  1  0  0  0  0
  8 11  1  0  0  0  0
 51 52  1  0  0  0  0
 18 21  1  0  0  0  0
 41 42  1  0  0  0  0
  7  8  1  0  0  0  0
 17 18  1  0  0  0  0
 29 39  1  0  0  0  0
 30 40  1  0  0  0  0
 27 37  1  0  0  0  0
 28 38  1  0  0  0  0
 23 35  1  0  0  0  0
  3  4  1  0  0  0  0
  3  5  1  0  0  0  0
  3  6  1  0  0  0  0
 45 48  1  0  0  0  0
 45 49  1  0  0  0  0
 45 50  1  0  0  0  0
 11 14  1  0  0  0  0
 11 15  1  0  0  0  0
 11 16  1  0  0  0  0
 52 54  1  0  0  0  0
 52 55  1  0  0  0  0
 52 56  1  0  0  0  0
 21 33  1  0  0  0  0
 21 34  1  0  0  0  0
 42 47  1  0  0  0  0
  8 13  1  0  0  0  0
 18 32  1  0  0  0  0
 25 36  1  0  0  0  0
 51 53  1  0  0  0  0
  7 12  1  0  0  0  0
 41 46  1  0  0  0  0
 17 31  1  0  0  0  0
M  END
$$$$

  -OEChem-05262214473D

 56 57  0     1  0  0  0  0  0999 V2000
   -2.2900    0.3401    4.1553 C   0  0  0  0  0  0  0  0  0  0  0  0
   -1.3426   -0.2746    3.6796 O   0  0  0  0  0  0  0  0  0  0  0  0
   -2.7219    0.0577    5.5560 C   0  0  0  0  0  0  0  0  0  0  0  0
   -3.4815   -0.7386    5.6094 H   0  0  0  0  0  0  0  0  0  0  0  0
   -1.8906   -0.2899    6.1903 H   0  0  0  0  0  0  0  0  0  0  0  0
   -3.1599    0.9126    6.0956 H   0  0  0  0  0  0  0  0  0  0  0  0
   -3.0397    1.3125    3.5142 N   0  0  0  0  0  0  0  0  0  0  0  0
   -2.7928    1.7385    2.1618 C   0  0  2  0  0  0  0  0  0  0  0  0
   -1.4579    1.1532    1.7206 C   0  0  0  0  0  0  0  0  0  0  0  0
   -0.5858    0.8004    2.5118 O   0  0  0  0  0  0  0  0  0  0  0  0
   -2.7841    3.2553    2.0523 C   0  0  0  0  0  0  0  0  0  0  0  0
   -3.8047    1.7484    4.0260 H   0  0  0  0  0  0  0  0  0  0  0  0
   -3.5969    1.3201    1.5466 H   0  0  0  0  0  0  0  0  0  0  0  0
   -1.9850    3.6926    2.6620 H   0  0  0  0  0  0  0  0  0  0  0  0
   -2.6246    3.5776    1.0180 H   0  0  0  0  0  0  0  0  0  0  0  0
   -3.7342    3.6765    2.3981 H   0  0  0  0  0  0  0  0  0  0  0  0
   -1.3352    1.1101    0.3372 N   0  0  0  0  0  0  0  0  0  0  0  0
   -0.1579    0.6093   -0.3265 C   0  0  2  0  0  0  0  0  0  0  0  0
    1.0286    0.8861    0.5900 C   0  0  0  0  0  0  0  0  0  0  0  0
    0.9113    1.4043    1.6984 O   0  0  0  0  0  0  0  0  0  0  0  0
    0.0600    1.2673   -1.6938 C   0  0  0  0  0  0  0  0  0  0  0  0
   -1.0075    0.8996   -2.6953 C   0  0  0  0  0  0  0  0  0  0  0  0
   -2.1181    1.6529   -2.9988 C   0  0  0  0  0  0  0  0  0  0  0  0
   -1.0512   -0.2775   -3.4938 C   0  0  0  0  0  0  0  0  0  0  0  0
   -2.8363    0.9801   -3.9506 N   0  0  0  0  0  0  0  0  0  0  0  0
   -2.2083   -0.2020   -4.2721 C   0  0  0  0  0  0  0  0  0  0  0  0
   -0.2147   -1.4032   -3.6296 C   0  0  0  0  0  0  0  0  0  0  0  0
   -2.5722   -1.2001   -5.1830 C   0  0  0  0  0  0  0  0  0  0  0  0
   -0.5661   -2.4094   -4.5368 C   0  0  0  0  0  0  0  0  0  0  0  0
   -1.7272   -2.3073   -5.3006 C   0  0  0  0  0  0  0  0  0  0  0  0
   -2.1183    1.4068   -0.2401 H   0  0  0  0  0  0  0  0  0  0  0  0
   -0.2912   -0.4746   -0.4235 H   0  0  0  0  0  0  0  0  0  0  0  0
    1.0481    0.9991   -2.0919 H   0  0  0  0  0  0  0  0  0  0  0  0
    0.0766    2.3608   -1.5950 H   0  0  0  0  0  0  0  0  0  0  0  0
   -2.4632    2.6061   -2.6225 H   0  0  0  0  0  0  0  0  0  0  0  0
   -3.7023    1.3039   -4.3588 H   0  0  0  0  0  0  0  0  0  0  0  0
    0.6932   -1.4981   -3.0408 H   0  0  0  0  0  0  0  0  0  0  0  0
   -3.4752   -1.1209   -5.7787 H   0  0  0  0  0  0  0  0  0  0  0  0
    0.0748   -3.2802   -4.6455 H   0  0  0  0  0  0  0  0  0  0  0  0
   -1.9808   -3.1004   -5.9992 H   0  0  0  0  0  0  0  0  0  0  0  0
    2.2233    0.4399    0.0423 N   0  0  0  0  0  0  0  0  0  0  0  0
    3.4974    0.5580    0.7143 C   0  0  2  0  0  0  0  0  0  0  0  0
    3.6483    1.9981    1.1864 C   0  0  0  0  0  0  0  0  0  0  0  0
    3.0344    2.9368    0.6834 O   0  0  0  0  0  0  0  0  0  0  0  0
    4.6450    0.1633   -0.2021 C   0  0  0  0  0  0  0  0  0  0  0  0
    2.2011    0.0087   -0.8771 H   0  0  0  0  0  0  0  0  0  0  0  0
    3.4603   -0.1095    1.5821 H   0  0  0  0  0  0  0  0  0  0  0  0
    4.6981    0.8210   -1.0774 H   0  0  0  0  0  0  0  0  0  0  0  0
    5.6070    0.2260    0.3172 H   0  0  0  0  0  0  0  0  0  0  0  0
    4.5193   -0.8627   -0.5645 H   0  0  0  0  0  0  0  0  0  0  0  0
    4.5814    2.1176    2.2068 N   0  0  0  0  0  0  0  0  0  0  0  0
    4.9127    3.3847    2.8159 C   0  0  0  0  0  0  0  0  0  0  0  0
    5.0287    1.2834    2.5753 H   0  0  0  0  0  0  0  0  0  0  0  0
    5.7759    3.8269    2.2970 H   0  0  0  0  0  0  0  0  0  0  0  0
    4.0513    4.0645    2.7393 H   0  0  0  0  0  0  0  0  0  0  0  0
    5.1629    3.2278    3.8755 H   0  0  0  0  0  0  0  0  0  0  0  0
 29 30  2  0  0  0  0
 27 29  1  0  0  0  0
 28 30  1  0  0  0  0
 24 27  2  0  0  0  0
 26 28  2  0  0  0  0
 22 23  2  0  0  0  0
 23 25  1  0  0  0  0
 22 24  1  0  0  0  0
 24 26  1  0  0  0  0
 21 22  1  0  0  0  0
 25 26  1  0  0  0  0
  1  3  1  0  0  0  0
  1  7  1  0  0  0  0
  1  2  2  0  0  0  0
 42 43  1  0  0  0  0
 43 51  1  0  0  0  0
 43 44  2  0  0  0  0
  8  9  1  0  0  0  0
  9 17  1  0  0  0  0
  9 10  2  0  0  0  0
 18 19  1  0  0  0  0
 19 41  1  0  0  0  0
 19 20  2  0  0  0  0
 42 45  1  0  0  0  0
  8 11  1  0  0  0  0
 51 52  1  0  0  0  0
 18 21  1  0  0  0  0
 41 42  1  0  0  0  0
  7  8  1  0  0  0  0
 17 18  1  0  0  0  0
 29 39  1  0  0  0  0
 30 40  1  0  0  0  0
 27 37  1  0  0  0  0
 28 38  1  0  0  0  0
 23 35  1  0  0  0  0
  3  4  1  0  0  0  0
  3  5  1  0  0  0  0
  3  6  1  0  0  0  0
 45 48  1  0  0  0  0
 45 49  1  0  0  0  0
 45 50  1  0  0  0  0
 11 14  1  0  0  0  0
 11 15  1  0  0  0  0
 11 16  1  0  0  0  0
 52 54  1  0  0  0  0
 52 55  1  0  0  0  0
 52 56  1  0  0  0  0
 21 33  1  0  0  0  0
 21 34  1  0  0  0  0
 42 47  1  0  0  0  0
  8 13  1  0  0  0  0
 18 32  1  0  0  0  0
 25 36  1  0  0  0  0
 51 53  1  0  0  0  0
  7 12  1  0  0  0  0
 41 46  1  0  0  0  0
 17 31  1  0  0  0  0
M  END
$$$$

  -OEChem-05262214473D

 56 57  0     1  0  0  0  0  0999 V2000
   -2.2900    0.3401    4.1553 C   0  0  0  0  0  0  0  0  0  0  0  0
   -1.3426   -0.2746    3.6796 O   0  0  0  0  0  0  0  0  0  0  0  0
   -2.7219    0.0577    5.5560 C   0  0  0  0  0  0  0  0  0  0  0  0
   -3.4815   -0.7386    5.6094 H   0  0  0  0  0  0  0  0  0  0  0  0
   -1.8906   -0.2899    6.1903 H   0  0  0  0  0  0  0  0  0  0  0  0
   -3.1599    0.9126    6.0956 H   0  0  0  0  0  0  0  0  0  0  0  0
   -3.0397    1.3125    3.5142 N   0  0  0  0  0  0  0  0  0  0  0  0
   -2.7928    1.7385    2.1618 C   0  0  2  0  0  0  0  0  0  0  0  0
   -1.4579    1.1532    1.7206 C   0  0  0  0  0  0  0  0  0  0  0  0
   -0.5858    0.8004    2.5118 O   0  0  0  0  0  0  0  0  0  0  0  0
   -2.7841    3.2553    2.0523 C   0  0  0  0  0  0  0  0  0  0  0  0
   -3.8047    1.7484    4.0260 H   0  0  0  0  0  0  0  0  0  0  0  0
   -3.5969    1.3201    1.5466 H   0  0  0  0  0  0  0  0  0  0  0  0
   -1.9850    3.6926    2.6620 H   0  0  0  0  0  0  0  0  0  0  0  0
   -2.6246    3.5776    1.0180 H   0  0  0  0  0  0  0  0  0  0  0  0
   -3.7342    3.6765    2.3981 H   0  0  0  0  0  0  0  0  0  0  0  0
   -1.3352    1.1101    0.3372 N   0  0  0  0  0  0  0  0  0  0  0  0
   -0.1579    0.6093   -0.3265 C   0  0  2  0  0  0  0  0  0  0  0  0
    1.0286    0.8861    0.5900 C   0  0  0  0  0  0  0  0  0  0  0  0
    0.9045    1.1493    1.7842 O   0  0  0  0  0  0  0  0  0  0  0  0
    0.0600    1.2673   -1.6938 C   0  0  0  0  0  0  0  0  0  0  0  0
   -1.0075    0.8996   -2.6953 C   0  0  0  0  0  0  0  0  0  0  0  0
   -2.1181    1.6529   -2.9988 C   0  0  0  0  0  0  0  0  0  0  0  0
   -1.0512   -0.2775   -3.4938 C   0  0  0  0  0  0  0  0  0  0  0  0
   -2.8363    0.9801   -3.9506 N   0  0  0  0  0  0  0  0  0  0  0  0
   -2.2083   -0.2020   -4.2721 C   0  0  0  0  0  0  0  0  0  0  0  0
   -0.2147   -1.4032   -3.6296 C   0  0  0  0  0  0  0  0  0  0  0  0
   -2.5722   -1.2001   -5.1830 C   0  0  0  0  0  0  0  0  0  0  0  0
   -0.5661   -2.4094   -4.5368 C   0  0  0  0  0  0  0  0  0  0  0  0
   -1.7272   -2.3073   -5.3006 C   0  0  0  0  0  0  0  0  0  0  0  0
   -2.1183    1.4068   -0.2401 H   0  0  0  0  0  0  0  0  0  0  0  0
   -0.2912   -0.4746   -0.4235 H   0  0  0  0  0  0  0  0  0  0  0  0
    1.0481    0.9991   -2.0919 H   0  0  0  0  0  0  0  0  0  0  0  0
    0.0766    2.3608   -1.5950 H   0  0  0  0  0  0  0  0  0  0  0  0
   -2.4632    2.6061   -2.6225 H   0  0  0  0  0  0  0  0  0  0  0  0
   -3.7023    1.3039   -4.3588 H   0  0  0  0  0  0  0  0  0  0  0  0
    0.6932   -1.4981   -3.0408 H   0  0  0  0  0  0  0  0  0  0  0  0
   -3.4752   -1.1209   -5.7787 H   0  0  0  0  0  0  0  0  0  0  0  0
    0.0748   -3.2802   -4.6455 H   0  0  0  0  0  0  0  0  0  0  0  0
   -1.9808   -3.1004   -5.9992 H   0  0  0  0  0  0  0  0  0  0  0  0
    2.2401    0.7545   -0.0744 N   0  0  0  0  0  0  0  0  0  0  0  0
    3.5215    0.9402    0.5676 C   0  0  2  0  0  0  0  0  0  0  0  0
    3.4830    2.2637    1.3202 C   0  0  0  0  0  0  0  0  0  0  0  0
    2.7042    3.1725    1.0398 O   0  0  0  0  0  0  0  0  0  0  0  0
    4.6556    0.9238   -0.4455 C   0  0  0  0  0  0  0  0  0  0  0  0
    2.2253    0.5157   -1.0616 H   0  0  0  0  0  0  0  0  0  0  0  0
    3.6402    0.1172    1.2808 H   0  0  0  0  0  0  0  0  0  0  0  0
    4.5537    1.7414   -1.1684 H   0  0  0  0  0  0  0  0  0  0  0  0
    5.6279    1.0360    0.0455 H   0  0  0  0  0  0  0  0  0  0  0  0
    4.6634   -0.0169   -1.0065 H   0  0  0  0  0  0  0  0  0  0  0  0
    4.4498    2.3273    2.3140 N   0  0  0  0  0  0  0  0  0  0  0  0
    4.6239    3.4853    3.1594 C   0  0  0  0  0  0  0  0  0  0  0  0
    5.0400    1.5194    2.4893 H   0  0  0  0  0  0  0  0  0  0  0  0
    5.3762    4.1540    2.7157 H   0  0  0  0  0  0  0  0  0  0  0  0
    3.6667    4.0197    3.2507 H   0  0  0  0  0  0  0  0  0  0  0  0
    4.9611    3.1642    4.1560 H   0  0  0  0  0  0  0  0  0  0  0  0
 29 30  2  0  0  0  0
 27 29  1  0  0  0  0
 28 30  1  0  0  0  0
 24 27  2  0  0  0  0
 26 28  2  0  0  0  0
 22 23  2  0  0  0  0
 23 25  1  0  0  0  0
 22 24  1  0  0  0  0
 24 26  1  0  0  0  0
 21 22  1  0  0  0  0
 25 26  1  0  0  0  0
  1  3  1  0  0  0  0
  1  7  1  0  0  0  0
  1  2  2  0  0  0  0
 42 43  1  0  0  0  0
 43 51  1  0  0  0  0
 43 44  2  0  0  0  0
  8  9  1  0  0  0  0
  9 17  1  0  0  0  0
  9 10  2  0  0  0  0
 18 19  1  0  0  0  0
 19 41  1  0  0  0  0
 19 20  2  0  0  0  0
 42 45  1  0  0  0  0
  8 11  1  0  0  0  0
 51 52  1  0  0  0  0
 18 21  1  0  0  0  0
 41 42  1  0  0  0  0
  7  8  1  0  0  0  0
 17 18  1  0  0  0  0
 29 39  1  0  0  0  0
 30 40  1  0  0  0  0
 27 37  1  0  0  0  0
 28 38  1  0  0  0  0
 23 35  1  0  0  0  0
  3  4  1  0  0  0  0
  3  5  1  0  0  0  0
  3  6  1  0  0  0  0
 45 48  1  0  0  0  0
 45 49  1  0  0  0  0
 45 50  1  0  0  0  0
 11 14  1  0  0  0  0
 11 15  1  0  0  0  0
 11 16  1  0  0  0  0
 52 54  1  0  0  0  0
 52 55  1  0  0  0  0
 52 56  1  0  0  0  0
 21 33  1  0  0  0  0
 21 34  1  0  0  0  0
 42 47  1  0  0  0  0
  8 13  1  0  0  0  0
 18 32  1  0  0  0  0
 25 36  1  0  0  0  0
 51 53  1  0  0  0  0
  7 12  1  0  0  0  0
 41 46  1  0  0  0  0
 17 31  1  0  0  0  0
M  END
$$$$

  -OEChem-05262214473D

 56 57  0     1  0  0  0  0  0999 V2000
   -2.2900    0.3401    4.1553 C   0  0  0  0  0  0  0  0  0  0  0  0
   -1.3426   -0.2746    3.6796 O   0  0  0  0  0  0  0  0  0  0  0  0
   -2.7219    0.0577    5.5560 C   0  0  0  0  0  0  0  0  0  0  0  0
   -3.4815   -0.7386    5.6094 H   0  0  0  0  0  0  0  0  0  0  0  0
   -1.8906   -0.2899    6.1903 H   0  0  0  0  0  0  0  0  0  0  0  0
   -3.1599    0.9126    6.0956 H   0  0  0  0  0  0  0  0  0  0  0  0
   -3.0397    1.3125    3.5142 N   0  0  0  0  0  0  0  0  0  0  0  0
   -2.7928    1.7385    2.1618 C   0  0  2  0  0  0  0  0  0  0  0  0
   -1.4579    1.1532    1.7206 C   0  0  0  0  0  0  0  0  0  0  0  0
   -0.5858    0.8004    2.5118 O   0  0  0  0  0  0  0  0  0  0  0  0
   -2.7841    3.2553    2.0523 C   0  0  0  0  0  0  0  0  0  0  0  0
   -3.8047    1.7484    4.0260 H   0  0  0  0  0  0  0  0  0  0  0  0
   -3.5969    1.3201    1.5466 H   0  0  0  0  0  0  0  0  0  0  0  0
   -1.9850    3.6926    2.6620 H   0  0  0  0  0  0  0  0  0  0  0  0
   -2.6246    3.5776    1.0180 H   0  0  0  0  0  0  0  0  0  0  0  0
   -3.7342    3.6765    2.3981 H   0  0  0  0  0  0  0  0  0  0  0  0
   -1.3352    1.1101    0.3372 N   0  0  0  0  0  0  0  0  0  0  0  0
   -0.1579    0.6093   -0.3265 C   0  0  2  0  0  0  0  0  0  0  0  0
    1.0286    0.8861    0.5900 C   0  0  0  0  0  0  0  0  0  0  0  0
    0.9416    0.8846    1.8161 O   0  0  0  0  0  0  0  0  0  0  0  0
    0.0600    1.2673   -1.6938 C   0  0  0  0  0  0  0  0  0  0  0  0
   -1.0075    0.8996   -2.6953 C   0  0  0  0  0  0  0  0  0  0  0  0
   -2.1181    1.6529   -2.9988 C   0  0  0  0  0  0  0  0  0  0  0  0
   -1.0512   -0.2775   -3.4938 C   0  0  0  0  0  0  0  0  0  0  0  0
   -2.8363    0.9801   -3.9506 N   0  0  0  0  0  0  0  0  0  0  0  0
   -2.2083   -0.2020   -4.2721 C   0  0  0  0  0  0  0  0  0  0  0  0
   -0.2147   -1.4032   -3.6296 C   0  0  0  0  0  0  0  0  0  0  0  0
   -2.5722   -1.2001   -5.1830 C   0  0  0  0  0  0  0  0  0  0  0  0
   -0.5661   -2.4094   -4.5368 C   0  0  0  0  0  0  0  0  0  0  0  0
   -1.7272   -2.3073   -5.3006 C   0  0  0  0  0  0  0  0  0  0  0  0
   -2.1183    1.4068   -0.2401 H   0  0  0  0  0  0  0  0  0  0  0  0
   -0.2912   -0.4746   -0.4235 H   0  0  0  0  0  0  0  0  0  0  0  0
    1.0481    0.9991   -2.0919 H   0  0  0  0  0  0  0  0  0  0  0  0
    0.0766    2.3608   -1.5950 H   0  0  0  0  0  0  0  0  0  0  0  0
   -2.4632    2.6061   -2.6225 H   0  0  0  0  0  0  0  0  0  0  0  0
   -3.7023    1.3039   -4.3588 H   0  0  0  0  0  0  0  0  0  0  0  0
    0.6932   -1.4981   -3.0408 H   0  0  0  0  0  0  0  0  0  0  0  0
   -3.4752   -1.1209   -5.7787 H   0  0  0  0  0  0  0  0  0  0  0  0
    0.0748   -3.2802   -4.6455 H   0  0  0  0  0  0  0  0  0  0  0  0
   -1.9808   -3.1004   -5.9992 H   0  0  0  0  0  0  0  0  0  0  0  0
    2.2018    1.0845   -0.1246 N   0  0  0  0  0  0  0  0  0  0  0  0
    3.4784    1.3427    0.5018 C   0  0  2  0  0  0  0  0  0  0  0  0
    3.2883    2.4676    1.5107 C   0  0  0  0  0  0  0  0  0  0  0  0
    2.3653    3.2770    1.4470 O   0  0  0  0  0  0  0  0  0  0  0  0
    4.5360    1.7091   -0.5278 C   0  0  0  0  0  0  0  0  0  0  0  0
    2.1612    1.0464   -1.1388 H   0  0  0  0  0  0  0  0  0  0  0  0
    3.7645    0.4249    1.0269 H   0  0  0  0  0  0  0  0  0  0  0  0
    4.2667    2.6263   -1.0642 H   0  0  0  0  0  0  0  0  0  0  0  0
    5.5092    1.8765   -0.0547 H   0  0  0  0  0  0  0  0  0  0  0  0
    4.6502    0.9115   -1.2699 H   0  0  0  0  0  0  0  0  0  0  0  0
    4.2950    2.4877    2.4659 N   0  0  0  0  0  0  0  0  0  0  0  0
    4.3454    3.4683    3.5250 C   0  0  0  0  0  0  0  0  0  0  0  0
    5.0101    1.7664    2.4534 H   0  0  0  0  0  0  0  0  0  0  0  0
    4.9588    4.3234    3.2049 H   0  0  0  0  0  0  0  0  0  0  0  0
    3.3263    3.8135    3.7537 H   0  0  0  0  0  0  0  0  0  0  0  0
    4.7892    3.0148    4.4236 H   0  0  0  0  0  0  0  0  0  0  0  0
 29 30  2  0  0  0  0
 27 29  1  0  0  0  0
 28 30  1  0  0  0  0
 24 27  2  0  0  0  0
 26 28  2  0  0  0  0
 22 23  2  0  0  0  0
 23 25  1  0  0  0  0
 22 24  1  0  0  0  0
 24 26  1  0  0  0  0
 21 22  1  0  0  0  0
 25 26  1  0  0  0  0
  1  3  1  0  0  0  0
  1  7  1  0  0  0  0
  1  2  2  0  0  0  0
 42 43  1  0  0  0  0
 43 51  1  0  0  0  0
 43 44  2  0  0  0  0
  8  9  1  0  0  0  0
  9 17  1  0  0  0  0
  9 10  2  0  0  0  0
 18 19  1  0  0  0  0
 19 41  1  0  0  0  0
 19 20  2  0  0  0  0
 42 45  1  0  0  0  0
  8 11  1  0  0  0  0
 51 52  1  0  0  0  0
 18 21  1  0  0  0  0
 41 42  1  0  0  0  0
  7  8  1  0  0  0  0
 17 18  1  0  0  0  0
 29 39  1  0  0  0  0
 30 40  1  0  0  0  0
 27 37  1  0  0  0  0
 28 38  1  0  0  0  0
 23 35  1  0  0  0  0
  3  4  1  0  0  0  0
  3  5  1  0  0  0  0
  3  6  1  0  0  0  0
 45 48  1  0  0  0  0
 45 49  1  0  0  0  0
 45 50  1  0  0  0  0
 11 14  1  0  0  0  0
 11 15  1  0  0  0  0
 11 16  1  0  0  0  0
 52 54  1  0  0  0  0
 52 55  1  0  0  0  0
 52 56  1  0  0  0  0
 21 33  1  0  0  0  0
 21 34  1  0  0  0  0
 42 47  1  0  0  0  0
  8 13  1  0  0  0  0
 18 32  1  0  0  0  0
 25 36  1  0  0  0  0
 51 53  1  0  0  0  0
  7 12  1  0  0  0  0
 41 46  1  0  0  0  0
 17 31  1  0  0  0  0
M  END
$$$$

  -OEChem-05262214473D

 56 57  0     1  0  0  0  0  0999 V2000
   -2.2900    0.3401    4.1553 C   0  0  0  0  0  0  0  0  0  0  0  0
   -1.3426   -0.2746    3.6796 O   0  0  0  0  0  0  0  0  0  0  0  0
   -2.7219    0.0577    5.5560 C   0  0  0  0  0  0  0  0  0  0  0  0
   -3.4815   -0.7386    5.6094 H   0  0  0  0  0  0  0  0  0  0  0  0
   -1.8906   -0.2899    6.1903 H   0  0  0  0  0  0  0  0  0  0  0  0
   -3.1599    0.9126    6.0956 H   0  0  0  0  0  0  0  0  0  0  0  0
   -3.0397    1.3125    3.5142 N   0  0  0  0  0  0  0  0  0  0  0  0
   -2.7928    1.7385    2.1618 C   0  0  2  0  0  0  0  0  0  0  0  0
   -1.4579    1.1532    1.7206 C   0  0  0  0  0  0  0  0  0  0  0  0
   -0.5858    0.8004    2.5118 O   0  0  0  0  0  0  0  0  0  0  0  0
   -2.7841    3.2553    2.0523 C   0  0  0  0  0  0  0  0  0  0  0  0
   -3.8047    1.7484    4.0260 H   0  0  0  0  0  0  0  0  0  0  0  0
   -3.5969    1.3201    1.5466 H   0  0  0  0  0  0  0  0  0  0  0  0
   -1.9850    3.6926    2.6620 H   0  0  0  0  0  0  0  0  0  0  0  0
   -2.6246    3.5776    1.0180 H   0  0  0  0  0  0  0  0  0  0  0  0
   -3.7342    3.6765    2.3981 H   0  0  0  0  0  0  0  0  0  0  0  0
   -1.3352    1.1101    0.3372 N   0  0  0  0  0  0  0  0  0  0  0  0
   -0.1579    0.6093   -0.3265 C   0  0  2  0  0  0  0  0  0  0  0  0
    1.0286    0.8861    0.5900 C   0  0  0  0  0  0  0  0  0  0  0  0
    1.0202    0.6283    1.7918 O   0  0  0  0  0  0  0  0  0  0  0  0
    0.0600    1.2673   -1.6938 C   0  0  0  0  0  0  0  0  0  0  0  0
   -1.0075    0.8996   -2.6953 C   0  0  0  0  0  0  0  0  0  0  0  0
   -2.1181    1.6529   -2.9988 C   0  0  0  0  0  0  0  0  0  0  0  0
   -1.0512   -0.2775   -3.4938 C   0  0  0  0  0  0  0  0  0  0  0  0
   -2.8363    0.9801   -3.9506 N   0  0  0  0  0  0  0  0  0  0  0  0
   -2.2083   -0.2020   -4.2721 C   0  0  0  0  0  0  0  0  0  0  0  0
   -0.2147   -1.4032   -3.6296 C   0  0  0  0  0  0  0  0  0  0  0  0
   -2.5722   -1.2001   -5.1830 C   0  0  0  0  0  0  0  0  0  0  0  0
   -0.5661   -2.4094   -4.5368 C   0  0  0  0  0  0  0  0  0  0  0  0
   -1.7272   -2.3073   -5.3006 C   0  0  0  0  0  0  0  0  0  0  0  0
   -2.1183    1.4068   -0.2401 H   0  0  0  0  0  0  0  0  0  0  0  0
   -0.2912   -0.4746   -0.4235 H   0  0  0  0  0  0  0  0  0  0  0  0
    1.0481    0.9991   -2.0919 H   0  0  0  0  0  0  0  0  0  0  0  0
    0.0766    2.3608   -1.5950 H   0  0  0  0  0  0  0  0  0  0  0  0
   -2.4632    2.6061   -2.6225 H   0  0  0  0  0  0  0  0  0  0  0  0
   -3.7023    1.3039   -4.3588 H   0  0  0  0  0  0  0  0  0  0  0  0
    0.6932   -1.4981   -3.0408 H   0  0  0  0  0  0  0  0  0  0  0  0
   -3.4752   -1.1209   -5.7787 H   0  0  0  0  0  0  0  0  0  0  0  0
    0.0748   -3.2802   -4.6455 H   0  0  0  0  0  0  0  0  0  0  0  0
   -1.9808   -3.1004   -5.9992 H   0  0  0  0  0  0  0  0  0  0  0  0
    2.1112    1.4075   -0.1048 N   0  0  0  0  0  0  0  0  0  0  0  0
    3.3711    1.7381    0.5213 C   0  0  2  0  0  0  0  0  0  0  0  0
    3.0774    2.5959    1.7450 C   0  0  0  0  0  0  0  0  0  0  0  0
    2.0408    3.2431    1.8773 O   0  0  0  0  0  0  0  0  0  0  0  0
    4.2944    2.4655   -0.4436 C   0  0  0  0  0  0  0  0  0  0  0  0
    2.0130    1.5646   -1.1035 H   0  0  0  0  0  0  0  0  0  0  0  0
    3.8247    0.7925    0.8378 H   0  0  0  0  0  0  0  0  0  0  0  0
    3.8568    3.4154   -0.7717 H   0  0  0  0  0  0  0  0  0  0  0  0
    5.2591    2.6900    0.0234 H   0  0  0  0  0  0  0  0  0  0  0  0
    4.4807    1.8593   -1.3366 H   0  0  0  0  0  0  0  0  0  0  0  0
    4.1277    2.5879    2.6522 N   0  0  0  0  0  0  0  0  0  0  0  0
    4.0962    3.3349    3.8879 C   0  0  0  0  0  0  0  0  0  0  0  0
    4.9412    2.0076    2.4698 H   0  0  0  0  0  0  0  0  0  0  0  0
    4.5524    4.3236    3.7311 H   0  0  0  0  0  0  0  0  0  0  0  0
    3.0532    3.4601    4.2141 H   0  0  0  0  0  0  0  0  0  0  0  0
    4.6589    2.7899    4.6601 H   0  0  0  0  0  0  0  0  0  0  0  0
 29 30  2  0  0  0  0
 27 29  1  0  0  0  0
 28 30  1  0  0  0  0
 24 27  2  0  0  0  0
 26 28  2  0  0  0  0
 22 23  2  0  0  0  0
 23 25  1  0  0  0  0
 22 24  1  0  0  0  0
 24 26  1  0  0  0  0
 21 22  1  0  0  0  0
 25 26  1  0  0  0  0
  1  3  1  0  0  0  0
  1  7  1  0  0  0  0
  1  2  2  0  0  0  0
 42 43  1  0  0  0  0
 43 51  1  0  0  0  0
 43 44  2  0  0  0  0
  8  9  1  0  0  0  0
  9 17  1  0  0  0  0
  9 10  2  0  0  0  0
 18 19  1  0  0  0  0
 19 41  1  0  0  0  0
 19 20  2  0  0  0  0
 42 45  1  0  0  0  0
  8 11  1  0  0  0  0
 51 52  1  0  0  0  0
 18 21  1  0  0  0  0
 41 42  1  0  0  0  0
  7  8  1  0  0  0  0
 17 18  1  0  0  0  0
 29 39  1  0  0  0  0
 30 40  1  0  0  0  0
 27 37  1  0  0  0  0
 28 38  1  0  0  0  0
 23 35  1  0  0  0  0
  3  4  1  0  0  0  0
  3  5  1  0  0  0  0
  3  6  1  0  0  0  0
 45 48  1  0  0  0  0
 45 49  1  0  0  0  0
 45 50  1  0  0  0  0
 11 14  1  0  0  0  0
 11 15  1  0  0  0  0
 11 16  1  0  0  0  0
 52 54  1  0  0  0  0
 52 55  1  0  0  0  0
 52 56  1  0  0  0  0
 21 33  1  0  0  0  0
 21 34  1  0  0  0  0
 42 47  1  0  0  0  0
  8 13  1  0  0  0  0
 18 32  1  0  0  0  0
 25 36  1  0  0  0  0
 51 53  1  0  0  0  0
  7 12  1  0  0  0  0
 41 46  1  0  0  0  0
 17 31  1  0  0  0  0
M  END
$$$$

  -OEChem-05262214473D

 56 57  0     1  0  0  0  0  0999 V2000
   -2.2900    0.3401    4.1553 C   0  0  0  0  0  0  0  0  0  0  0  0
   -1.3426   -0.2746    3.6796 O   0  0  0  0  0  0  0  0  0  0  0  0
   -2.7219    0.0577    5.5560 C   0  0  0  0  0  0  0  0  0  0  0  0
   -3.4815   -0.7386    5.6094 H   0  0  0  0  0  0  0  0  0  0  0  0
   -1.8906   -0.2899    6.1903 H   0  0  0  0  0  0  0  0  0  0  0  0
   -3.1599    0.9126    6.0956 H   0  0  0  0  0  0  0  0  0  0  0  0
   -3.0397    1.3125    3.5142 N   0  0  0  0  0  0  0  0  0  0  0  0
   -2.7928    1.7385    2.1618 C   0  0  2  0  0  0  0  0  0  0  0  0
   -1.4579    1.1532    1.7206 C   0  0  0  0  0  0  0  0  0  0  0  0
   -0.5858    0.8004    2.5118 O   0  0  0  0  0  0  0  0  0  0  0  0
   -2.7841    3.2553    2.0523 C   0  0  0  0  0  0  0  0  0  0  0  0
   -3.8047    1.7484    4.0260 H   0  0  0  0  0  0  0  0  0  0  0  0
   -3.5969    1.3201    1.5466 H   0  0  0  0  0  0  0  0  0  0  0  0
   -1.9850    3.6926    2.6620 H   0  0  0  0  0  0  0  0  0  0  0  0
   -2.6246    3.5776    1.0180 H   0  0  0  0  0  0  0  0  0  0  0  0
   -3.7342    3.6765    2.3981 H   0  0  0  0  0  0  0  0  0  0  0  0
   -1.3352    1.1101    0.3372 N   0  0  0  0  0  0  0  0  0  0  0  0
   -0.1579    0.6093   -0.3265 C   0  0  2  0  0  0  0  0  0  0  0  0
    1.0286    0.8861    0.5900 C   0  0  0  0  0  0  0  0  0  0  0  0
    1.1348    0.3979    1.7130 O   0  0  0  0  0  0  0  0  0  0  0  0
    0.0600    1.2673   -1.6938 C   0  0  0  0  0  0  0  0  0  0  0  0
   -1.0075    0.8996   -2.6953 C   0  0  0  0  0  0  0  0  0  0  0  0
   -2.1181    1.6529   -2.9988 C   0  0  0  0  0  0  0  0  0  0  0  0
   -1.0512   -0.2775   -3.4938 C   0  0  0  0  0  0  0  0  0  0  0  0
   -2.8363    0.9801   -3.9506 N   0  0  0  0  0  0  0  0  0  0  0  0
   -2.2083   -0.2020   -4.2721 C   0  0  0  0  0  0  0  0  0  0  0  0
   -0.2147   -1.4032   -3.6296 C   0  0  0  0  0  0  0  0  0  0  0  0
   -2.5722   -1.2001   -5.1830 C   0  0  0  0  0  0  0  0  0  0  0  0
   -0.5661   -2.4094   -4.5368 C   0  0  0  0  0  0  0  0  0  0  0  0
   -1.7272   -2.3073   -5.3006 C   0  0  0  0  0  0  0  0  0  0  0  0
   -2.1183    1.4068   -0.2401 H   0  0  0  0  0  0  0  0  0  0  0  0
   -0.2912   -0.4746   -0.4235 H   0  0  0  0  0  0  0  0  0  0  0  0
    1.0481    0.9991   -2.0919 H   0  0  0  0  0  0  0  0  0  0  0  0
    0.0766    2.3608   -1.5950 H   0  0  0  0  0  0  0  0  0  0  0  0
   -2.4632    2.6061   -2.6225 H   0  0  0  0  0  0  0  0  0  0  0  0
   -3.7023    1.3039   -4.3588 H   0  0  0  0  0  0  0  0  0  0  0  0
    0.6932   -1.4981   -3.0408 H   0  0  0  0  0  0  0  0  0  0  0  0
   -3.4752   -1.1209   -5.7787 H   0  0  0  0  0  0  0  0  0  0  0  0
    0.0748   -3.2802   -4.6455 H   0  0  0  0  0  0  0  0  0  0  0  0
   -1.9808   -3.1004   -5.9992 H   0  0  0  0  0  0  0  0  0  0  0  0
    1.9743    1.7013   -0.0163 N   0  0  0  0  0  0  0  0  0  0  0  0
    3.2069    2.0993    0.6249 C   0  0  2  0  0  0  0  0  0  0  0  0
    2.8648    2.6399    2.0070 C   0  0  0  0  0  0  0  0  0  0  0  0
    1.7528    3.0733    2.3014 O   0  0  0  0  0  0  0  0  0  0  0  0
    3.9474    3.1417   -0.1985 C   0  0  0  0  0  0  0  0  0  0  0  0
    1.7909    2.0349   -0.9580 H   0  0  0  0  0  0  0  0  0  0  0  0
    3.8169    1.1951    0.7264 H   0  0  0  0  0  0  0  0  0  0  0  0
    3.3517    4.0549   -0.3110 H   0  0  0  0  0  0  0  0  0  0  0  0
    4.8946    3.4211    0.2744 H   0  0  0  0  0  0  0  0  0  0  0  0
    4.1663    2.7618   -1.2023 H   0  0  0  0  0  0  0  0  0  0  0  0
    3.9593    2.6212    2.8602 N   0  0  0  0  0  0  0  0  0  0  0  0
    3.8933    3.0943    4.2233 C   0  0  0  0  0  0  0  0  0  0  0  0
    4.8378    2.2266    2.5375 H   0  0  0  0  0  0  0  0  0  0  0  0
    4.1844    4.1545    4.2585 H   0  0  0  0  0  0  0  0  0  0  0  0
    2.8659    2.9835    4.6004 H   0  0  0  0  0  0  0  0  0  0  0  0
    4.5793    2.5048    4.8494 H   0  0  0  0  0  0  0  0  0  0  0  0
 29 30  2  0  0  0  0
 27 29  1  0  0  0  0
 28 30  1  0  0  0  0
 24 27  2  0  0  0  0
 26 28  2  0  0  0  0
 22 23  2  0  0  0  0
 23 25  1  0  0  0  0
 22 24  1  0  0  0  0
 24 26  1  0  0  0  0
 21 22  1  0  0  0  0
 25 26  1  0  0  0  0
  1  3  1  0  0  0  0
  1  7  1  0  0  0  0
  1  2  2  0  0  0  0
 42 43  1  0  0  0  0
 43 51  1  0  0  0  0
 43 44  2  0  0  0  0
  8  9  1  0  0  0  0
  9 17  1  0  0  0  0
  9 10  2  0  0  0  0
 18 19  1  0  0  0  0
 19 41  1  0  0  0  0
 19 20  2  0  0  0  0
 42 45  1  0  0  0  0
  8 11  1  0  0  0  0
 51 52  1  0  0  0  0
 18 21  1  0  0  0  0
 41 42  1  0  0  0  0
  7  8  1  0  0  0  0
 17 18  1  0  0  0  0
 29 39  1  0  0  0  0
 30 40  1  0  0  0  0
 27 37  1  0  0  0  0
 28 38  1  0  0  0  0
 23 35  1  0  0  0  0
  3  4  1  0  0  0  0
  3  5  1  0  0  0  0
  3  6  1  0  0  0  0
 45 48  1  0  0  0  0
 45 49  1  0  0  0  0
 45 50  1  0  0  0  0
 11 14  1  0  0  0  0
 11 15  1  0  0  0  0
 11 16  1  0  0  0  0
 52 54  1  0  0  0  0
 52 55  1  0  0  0  0
 52 56  1  0  0  0  0
 21 33  1  0  0  0  0
 21 34  1  0  0  0  0
 42 47  1  0  0  0  0
  8 13  1  0  0  0  0
 18 32  1  0  0  0  0
 25 36  1  0  0  0  0
 51 53  1  0  0  0  0
  7 12  1  0  0  0  0
 41 46  1  0  0  0  0
 17 31  1  0  0  0  0
M  END
$$$$

  -OEChem-05262214473D

 56 57  0     1  0  0  0  0  0999 V2000
   -2.2900    0.3401    4.1553 C   0  0  0  0  0  0  0  0  0  0  0  0
   -1.3426   -0.2746    3.6796 O   0  0  0  0  0  0  0  0  0  0  0  0
   -2.7219    0.0577    5.5560 C   0  0  0  0  0  0  0  0  0  0  0  0
   -3.4815   -0.7386    5.6094 H   0  0  0  0  0  0  0  0  0  0  0  0
   -1.8906   -0.2899    6.1903 H   0  0  0  0  0  0  0  0  0  0  0  0
   -3.1599    0.9126    6.0956 H   0  0  0  0  0  0  0  0  0  0  0  0
   -3.0397    1.3125    3.5142 N   0  0  0  0  0  0  0  0  0  0  0  0
   -2.7928    1.7385    2.1618 C   0  0  2  0  0  0  0  0  0  0  0  0
   -1.4579    1.1532    1.7206 C   0  0  0  0  0  0  0  0  0  0  0  0
   -0.5858    0.8004    2.5118 O   0  0  0  0  0  0  0  0  0  0  0  0
   -2.7841    3.2553    2.0523 C   0  0  0  0  0  0  0  0  0  0  0  0
   -3.8047    1.7484    4.0260 H   0  0  0  0  0  0  0  0  0  0  0  0
   -3.5969    1.3201    1.5466 H   0  0  0  0  0  0  0  0  0  0  0  0
   -1.9850    3.6926    2.6620 H   0  0  0  0  0  0  0  0  0  0  0  0
   -2.6246    3.5776    1.0180 H   0  0  0  0  0  0  0  0  0  0  0  0
   -3.7342    3.6765    2.3981 H   0  0  0  0  0  0  0  0  0  0  0  0
   -1.3352    1.1101    0.3372 N   0  0  0  0  0  0  0  0  0  0  0  0
   -0.1579    0.6093   -0.3265 C   0  0  2  0  0  0  0  0  0  0  0  0
    1.0286    0.8861    0.5900 C   0  0  0  0  0  0  0  0  0  0  0  0
    1.2777    0.2089    1.5851 O   0  0  0  0  0  0  0  0  0  0  0  0
    0.0600    1.2673   -1.6938 C   0  0  0  0  0  0  0  0  0  0  0  0
   -1.0075    0.8996   -2.6953 C   0  0  0  0  0  0  0  0  0  0  0  0
   -2.1181    1.6529   -2.9988 C   0  0  0  0  0  0  0  0  0  0  0  0
   -1.0512   -0.2775   -3.4938 C   0  0  0  0  0  0  0  0  0  0  0  0
   -2.8363    0.9801   -3.9506 N   0  0  0  0  0  0  0  0  0  0  0  0
   -2.2083   -0.2020   -4.2721 C   0  0  0  0  0  0  0  0  0  0  0  0
   -0.2147   -1.4032   -3.6296 C   0  0  0  0  0  0  0  0  0  0  0  0
   -2.5722   -1.2001   -5.1830 C   0  0  0  0  0  0  0  0  0  0  0  0
   -0.5661   -2.4094   -4.5368 C   0  0  0  0  0  0  0  0  0  0  0  0
   -1.7272   -2.3073   -5.3006 C   0  0  0  0  0  0  0  0  0  0  0  0
   -2.1183    1.4068   -0.2401 H   0  0  0  0  0  0  0  0  0  0  0  0
   -0.2912   -0.4746   -0.4235 H   0  0  0  0  0  0  0  0  0  0  0  0
    1.0481    0.9991   -2.0919 H   0  0  0  0  0  0  0  0  0  0  0  0
    0.0766    2.3608   -1.5950 H   0  0  0  0  0  0  0  0  0  0  0  0
   -2.4632    2.6061   -2.6225 H   0  0  0  0  0  0  0  0  0  0  0  0
   -3.7023    1.3039   -4.3588 H   0  0  0  0  0  0  0  0  0  0  0  0
    0.6932   -1.4981   -3.0408 H   0  0  0  0  0  0  0  0  0  0  0  0
   -3.4752   -1.1209   -5.7787 H   0  0  0  0  0  0  0  0  0  0  0  0
    0.0748   -3.2802   -4.6455 H   0  0  0  0  0  0  0  0  0  0  0  0
   -1.9808   -3.1004   -5.9992 H   0  0  0  0  0  0  0  0  0  0  0  0
    1.8005    1.9460    0.1348 N   0  0  0  0  0  0  0  0  0  0  0  0
    2.9969    2.4018    0.8054 C   0  0  2  0  0  0  0  0  0  0  0  0
    2.6649    2.5964    2.2789 C   0  0  0  0  0  0  0  0  0  0  0  0
    1.5210    2.7790    2.6904 O   0  0  0  0  0  0  0  0  0  0  0  0
    3.5185    3.6914    0.1908 C   0  0  0  0  0  0  0  0  0  0  0  0
    1.5100    2.4254   -0.7123 H   0  0  0  0  0  0  0  0  0  0  0  0
    3.7414    1.6052    0.7003 H   0  0  0  0  0  0  0  0  0  0  0  0
    2.7860    4.5012    0.2865 H   0  0  0  0  0  0  0  0  0  0  0  0
    4.4406    4.0201    0.6813 H   0  0  0  0  0  0  0  0  0  0  0  0
    3.7286    3.5577   -0.8759 H   0  0  0  0  0  0  0  0  0  0  0  0
    3.8011    2.5853    3.0758 N   0  0  0  0  0  0  0  0  0  0  0  0
    3.7506    2.7627    4.5083 C   0  0  0  0  0  0  0  0  0  0  0  0
    4.7071    2.4084    2.6518 H   0  0  0  0  0  0  0  0  0  0  0  0
    3.8801    3.8277    4.7512 H   0  0  0  0  0  0  0  0  0  0  0  0
    2.7774    2.4162    4.8863 H   0  0  0  0  0  0  0  0  0  0  0  0
    4.5556    2.1789    4.9785 H   0  0  0  0  0  0  0  0  0  0  0  0
 29 30  2  0  0  0  0
 27 29  1  0  0  0  0
 28 30  1  0  0  0  0
 24 27  2  0  0  0  0
 26 28  2  0  0  0  0
 22 23  2  0  0  0  0
 23 25  1  0  0  0  0
 22 24  1  0  0  0  0
 24 26  1  0  0  0  0
 21 22  1  0  0  0  0
 25 26  1  0  0  0  0
  1  3  1  0  0  0  0
  1  7  1  0  0  0  0
  1  2  2  0  0  0  0
 42 43  1  0  0  0  0
 43 51  1  0  0  0  0
 43 44  2  0  0  0  0
  8  9  1  0  0  0  0
  9 17  1  0  0  0  0
  9 10  2  0  0  0  0
 18 19  1  0  0  0  0
 19 41  1  0  0  0  0
 19 20  2  0  0  0  0
 42 45  1  0  0  0  0
  8 11  1  0  0  0  0
 51 52  1  0  0  0  0
 18 21  1  0  0  0  0
 41 42  1  0  0  0  0
  7  8  1  0  0  0  0
 17 18  1  0  0  0  0
 29 39  1  0  0  0  0
 30 40  1  0  0  0  0
 27 37  1  0  0  0  0
 28 38  1  0  0  0  0
 23 35  1  0  0  0  0
  3  4  1  0  0  0  0
  3  5  1  0  0  0  0
  3  6  1  0  0  0  0
 45 48  1  0  0  0  0
 45 49  1  0  0  0  0
 45 50  1  0  0  0  0
 11 14  1  0  0  0  0
 11 15  1  0  0  0  0
 11 16  1  0  0  0  0
 52 54  1  0  0  0  0
 52 55  1  0  0  0  0
 52 56  1  0  0  0  0
 21 33  1  0  0  0  0
 21 34  1  0  0  0  0
 42 47  1  0  0  0  0
  8 13  1  0  0  0  0
 18 32  1  0  0  0  0
 25 36  1  0  0  0  0
 51 53  1  0  0  0  0
  7 12  1  0  0  0  0
 41 46  1  0  0  0  0
 17 31  1  0  0  0  0
M  END
$$$$

  -OEChem-05262214473D

 56 57  0     1  0  0  0  0  0999 V2000
   -2.2900    0.3401    4.1553 C   0  0  0  0  0  0  0  0  0  0  0  0
   -1.3426   -0.2746    3.6796 O   0  0  0  0  0  0  0  0  0  0  0  0
   -2.7219    0.0577    5.5560 C   0  0  0  0  0  0  0  0  0  0  0  0
   -3.4815   -0.7386    5.6094 H   0  0  0  0  0  0  0  0  0  0  0  0
   -1.8906   -0.2899    6.1903 H   0  0  0  0  0  0  0  0  0  0  0  0
   -3.1599    0.9126    6.0956 H   0  0  0  0  0  0  0  0  0  0  0  0
   -3.0397    1.3125    3.5142 N   0  0  0  0  0  0  0  0  0  0  0  0
   -2.7928    1.7385    2.1618 C   0  0  2  0  0  0  0  0  0  0  0  0
   -1.4579    1.1532    1.7206 C   0  0  0  0  0  0  0  0  0  0  0  0
   -0.5858    0.8004    2.5118 O   0  0  0  0  0  0  0  0  0  0  0  0
   -2.7841    3.2553    2.0523 C   0  0  0  0  0  0  0  0  0  0  0  0
   -3.8047    1.7484    4.0260 H   0  0  0  0  0  0  0  0  0  0  0  0
   -3.5969    1.3201    1.5466 H   0  0  0  0  0  0  0  0  0  0  0  0
   -1.9850    3.6926    2.6620 H   0  0  0  0  0  0  0  0  0  0  0  0
   -2.6246    3.5776    1.0180 H   0  0  0  0  0  0  0  0  0  0  0  0
   -3.7342    3.6765    2.3981 H   0  0  0  0  0  0  0  0  0  0  0  0
   -1.3352    1.1101    0.3372 N   0  0  0  0  0  0  0  0  0  0  0  0
   -0.1579    0.6093   -0.3265 C   0  0  2  0  0  0  0  0  0  0  0  0
    1.0286    0.8861    0.5900 C   0  0  0  0  0  0  0  0  0  0  0  0
    1.4390    0.0745    1.4168 O   0  0  0  0  0  0  0  0  0  0  0  0
    0.0600    1.2673   -1.6938 C   0  0  0  0  0  0  0  0  0  0  0  0
   -1.0075    0.8996   -2.6953 C   0  0  0  0  0  0  0  0  0  0  0  0
   -2.1181    1.6529   -2.9988 C   0  0  0  0  0  0  0  0  0  0  0  0
   -1.0512   -0.2775   -3.4938 C   0  0  0  0  0  0  0  0  0  0  0  0
   -2.8363    0.9801   -3.9506 N   0  0  0  0  0  0  0  0  0  0  0  0
   -2.2083   -0.2020   -4.2721 C   0  0  0  0  0  0  0  0  0  0  0  0
   -0.2147   -1.4032   -3.6296 C   0  0  0  0  0  0  0  0  0  0  0  0
   -2.5722   -1.2001   -5.1830 C   0  0  0  0  0  0  0  0  0  0  0  0
   -0.5661   -2.4094   -4.5368 C   0  0  0  0  0  0  0  0  0  0  0  0
   -1.7272   -2.3073   -5.3006 C   0  0  0  0  0  0  0  0  0  0  0  0
   -2.1183    1.4068   -0.2401 H   0  0  0  0  0  0  0  0  0  0  0  0
   -0.2912   -0.4746   -0.4235 H   0  0  0  0  0  0  0  0  0  0  0  0
    1.0481    0.9991   -2.0919 H   0  0  0  0  0  0  0  0  0  0  0  0
    0.0766    2.3608   -1.5950 H   0  0  0  0  0  0  0  0  0  0  0  0
   -2.4632    2.6061   -2.6225 H   0  0  0  0  0  0  0  0  0  0  0  0
   -3.7023    1.3039   -4.3588 H   0  0  0  0  0  0  0  0  0  0  0  0
    0.6932   -1.4981   -3.0408 H   0  0  0  0  0  0  0  0  0  0  0  0
   -3.4752   -1.1209   -5.7787 H   0  0  0  0  0  0  0  0  0  0  0  0
    0.0748   -3.2802   -4.6455 H   0  0  0  0  0  0  0  0  0  0  0  0
   -1.9808   -3.1004   -5.9992 H   0  0  0  0  0  0  0  0  0  0  0  0
    1.6017    2.1249    0.3381 N   0  0  0  0  0  0  0  0  0  0  0  0
    2.7555    2.6250    1.0505 C   0  0  2  0  0  0  0  0  0  0  0  0
    2.4913    2.4686    2.5422 C   0  0  0  0  0  0  0  0  0  0  0  0
    1.3612    2.3804    3.0177 O   0  0  0  0  0  0  0  0  0  0  0  0
    3.0369    4.0772    0.6976 C   0  0  0  0  0  0  0  0  0  0  0  0
    1.1895    2.7093   -0.3832 H   0  0  0  0  0  0  0  0  0  0  0  0
    3.6035    1.9948    0.7611 H   0  0  0  0  0  0  0  0  0  0  0  0
    2.1983    4.7240    0.9802 H   0  0  0  0  0  0  0  0  0  0  0  0
    3.9280    4.4460    1.2163 H   0  0  0  0  0  0  0  0  0  0  0  0
    3.1972    4.1925   -0.3798 H   0  0  0  0  0  0  0  0  0  0  0  0
    3.6641    2.4826    3.2842 N   0  0  0  0  0  0  0  0  0  0  0  0
    3.6776    2.3628    4.7234 C   0  0  0  0  0  0  0  0  0  0  0  0
    4.5579    2.5406    2.8050 H   0  0  0  0  0  0  0  0  0  0  0  0
    3.6602    3.3654    5.1755 H   0  0  0  0  0  0  0  0  0  0  0  0
    2.7936    1.7969    5.0525 H   0  0  0  0  0  0  0  0  0  0  0  0
    4.5894    1.8344    5.0387 H   0  0  0  0  0  0  0  0  0  0  0  0
 29 30  2  0  0  0  0
 27 29  1  0  0  0  0
 28 30  1  0  0  0  0
 24 27  2  0  0  0  0
 26 28  2  0  0  0  0
 22 23  2  0  0  0  0
 23 25  1  0  0  0  0
 22 24  1  0  0  0  0
 24 26  1  0  0  0  0
 21 22  1  0  0  0  0
 25 26  1  0  0  0  0
  1  3  1  0  0  0  0
  1  7  1  0  0  0  0
  1  2  2  0  0  0  0
 42 43  1  0  0  0  0
 43 51  1  0  0  0  0
 43 44  2  0  0  0  0
  8  9  1  0  0  0  0
  9 17  1  0  0  0  0
  9 10  2  0  0  0  0
 18 19  1  0  0  0  0
 19 41  1  0  0  0  0
 19 20  2  0  0  0  0
 42 45  1  0  0  0  0
  8 11  1  0  0  0  0
 51 52  1  0  0  0  0
 18 21  1  0  0  0  0
 41 42  1  0  0  0  0
  7  8  1  0  0  0  0
 17 18  1  0  0  0  0
 29 39  1  0  0  0  0
 30 40  1  0  0  0  0
 27 37  1  0  0  0  0
 28 38  1  0  0  0  0
 23 35  1  0  0  0  0
  3  4  1  0  0  0  0
  3  5  1  0  0  0  0
  3  6  1  0  0  0  0
 45 48  1  0  0  0  0
 45 49  1  0  0  0  0
 45 50  1  0  0  0  0
 11 14  1  0  0  0  0
 11 15  1  0  0  0  0
 11 16  1  0  0  0  0
 52 54  1  0  0  0  0
 52 55  1  0  0  0  0
 52 56  1  0  0  0  0
 21 33  1  0  0  0  0
 21 34  1  0  0  0  0
 42 47  1  0  0  0  0
  8 13  1  0  0  0  0
 18 32  1  0  0  0  0
 25 36  1  0  0  0  0
 51 53  1  0  0  0  0
  7 12  1  0  0  0  0
 41 46  1  0  0  0  0
 17 31  1  0  0  0  0
M  END
$$$$

  -OEChem-05262214473D

 56 57  0     1  0  0  0  0  0999 V2000
   -2.2900    0.3401    4.1553 C   0  0  0  0  0  0  0  0  0  0  0  0
   -1.3426   -0.2746    3.6796 O   0  0  0  0  0  0  0  0  0  0  0  0
   -2.7219    0.0577    5.5560 C   0  0  0  0  0  0  0  0  0  0  0  0
   -3.4815   -0.7386    5.6094 H   0  0  0  0  0  0  0  0  0  0  0  0
   -1.8906   -0.2899    6.1903 H   0  0  0  0  0  0  0  0  0  0  0  0
   -3.1599    0.9126    6.0956 H   0  0  0  0  0  0  0  0  0  0  0  0
   -3.0397    1.3125    3.5142 N   0  0  0  0  0  0  0  0  0  0  0  0
   -2.7928    1.7385    2.1618 C   0  0  2  0  0  0  0  0  0  0  0  0
   -1.4579    1.1532    1.7206 C   0  0  0  0  0  0  0  0  0  0  0  0
   -0.5858    0.8004    2.5118 O   0  0  0  0  0  0  0  0  0  0  0  0
   -2.7841    3.2553    2.0523 C   0  0  0  0  0  0  0  0  0  0  0  0
   -3.8047    1.7484    4.0260 H   0  0  0  0  0  0  0  0  0  0  0  0
   -3.5969    1.3201    1.5466 H   0  0  0  0  0  0  0  0  0  0  0  0
   -1.9850    3.6926    2.6620 H   0  0  0  0  0  0  0  0  0  0  0  0
   -2.6246    3.5776    1.0180 H   0  0  0  0  0  0  0  0  0  0  0  0
   -3.7342    3.6765    2.3981 H   0  0  0  0  0  0  0  0  0  0  0  0
   -1.3352    1.1101    0.3372 N   0  0  0  0  0  0  0  0  0  0  0  0
   -0.1579    0.6093   -0.3265 C   0  0  2  0  0  0  0  0  0  0  0  0
    1.0286    0.8861    0.5900 C   0  0  0  0  0  0  0  0  0  0  0  0
    1.6079    0.0036    1.2196 O   0  0  0  0  0  0  0  0  0  0  0  0
    0.0600    1.2673   -1.6938 C   0  0  0  0  0  0  0  0  0  0  0  0
   -1.0075    0.8996   -2.6953 C   0  0  0  0  0  0  0  0  0  0  0  0
   -2.1181    1.6529   -2.9988 C   0  0  0  0  0  0  0  0  0  0  0  0
   -1.0512   -0.2775   -3.4938 C   0  0  0  0  0  0  0  0  0  0  0  0
   -2.8363    0.9801   -3.9506 N   0  0  0  0  0  0  0  0  0  0  0  0
   -2.2083   -0.2020   -4.2721 C   0  0  0  0  0  0  0  0  0  0  0  0
   -0.2147   -1.4032   -3.6296 C   0  0  0  0  0  0  0  0  0  0  0  0
   -2.5722   -1.2001   -5.1830 C   0  0  0  0  0  0  0  0  0  0  0  0
   -0.5661   -2.4094   -4.5368 C   0  0  0  0  0  0  0  0  0  0  0  0
   -1.7272   -2.3073   -5.3006 C   0  0  0  0  0  0  0  0  0  0  0  0
   -2.1183    1.4068   -0.2401 H   0  0  0  0  0  0  0  0  0  0  0  0
   -0.2912   -0.4746   -0.4235 H   0  0  0  0  0  0  0  0  0  0  0  0
    1.0481    0.9991   -2.0919 H   0  0  0  0  0  0  0  0  0  0  0  0
    0.0766    2.3608   -1.5950 H   0  0  0  0  0  0  0  0  0  0  0  0
   -2.4632    2.6061   -2.6225 H   0  0  0  0  0  0  0  0  0  0  0  0
   -3.7023    1.3039   -4.3588 H   0  0  0  0  0  0  0  0  0  0  0  0
    0.6932   -1.4981   -3.0408 H   0  0  0  0  0  0  0  0  0  0  0  0
   -3.4752   -1.1209   -5.7787 H   0  0  0  0  0  0  0  0  0  0  0  0
    0.0748   -3.2802   -4.6455 H   0  0  0  0  0  0  0  0  0  0  0  0
   -1.9808   -3.1004   -5.9992 H   0  0  0  0  0  0  0  0  0  0  0  0
    1.3914    2.2258    0.5799 N   0  0  0  0  0  0  0  0  0  0  0  0
    2.4991    2.7537    1.3436 C   0  0  2  0  0  0  0  0  0  0  0  0
    2.3559    2.2651    2.7790 C   0  0  0  0  0  0  0  0  0  0  0  0
    1.2842    1.9045    3.2611 O   0  0  0  0  0  0  0  0  0  0  0  0
    2.5356    4.2729    1.2876 C   0  0  0  0  0  0  0  0  0  0  0  0
    0.8512    2.8675    0.0071 H   0  0  0  0  0  0  0  0  0  0  0  0
    3.4125    2.3374    0.9049 H   0  0  0  0  0  0  0  0  0  0  0  0
    1.6285    4.7080    1.7227 H   0  0  0  0  0  0  0  0  0  0  0  0
    3.3918    4.6700    1.8429 H   0  0  0  0  0  0  0  0  0  0  0  0
    2.6086    4.6231    0.2523 H   0  0  0  0  0  0  0  0  0  0  0  0
    3.5576    2.3200    3.4712 N   0  0  0  0  0  0  0  0  0  0  0  0
    3.6795    1.9218    4.8542 C   0  0  0  0  0  0  0  0  0  0  0  0
    4.4004    2.6142    2.9866 H   0  0  0  0  0  0  0  0  0  0  0  0
    3.5396    2.7992    5.5027 H   0  0  0  0  0  0  0  0  0  0  0  0
    2.9134    1.1677    5.0874 H   0  0  0  0  0  0  0  0  0  0  0  0
    4.6786    1.4947    5.0259 H   0  0  0  0  0  0  0  0  0  0  0  0
 29 30  2  0  0  0  0
 27 29  1  0  0  0  0
 28 30  1  0  0  0  0
 24 27  2  0  0  0  0
 26 28  2  0  0  0  0
 22 23  2  0  0  0  0
 23 25  1  0  0  0  0
 22 24  1  0  0  0  0
 24 26  1  0  0  0  0
 21 22  1  0  0  0  0
 25 26  1  0  0  0  0
  1  3  1  0  0  0  0
  1  7  1  0  0  0  0
  1  2  2  0  0  0  0
 42 43  1  0  0  0  0
 43 51  1  0  0  0  0
 43 44  2  0  0  0  0
  8  9  1  0  0  0  0
  9 17  1  0  0  0  0
  9 10  2  0  0  0  0
 18 19  1  0  0  0  0
 19 41  1  0  0  0  0
 19 20  2  0  0  0  0
 42 45  1  0  0  0  0
  8 11  1  0  0  0  0
 51 52  1  0  0  0  0
 18 21  1  0  0  0  0
 41 42  1  0  0  0  0
  7  8  1  0  0  0  0
 17 18  1  0  0  0  0
 29 39  1  0  0  0  0
 30 40  1  0  0  0  0
 27 37  1  0  0  0  0
 28 38  1  0  0  0  0
 23 35  1  0  0  0  0
  3  4  1  0  0  0  0
  3  5  1  0  0  0  0
  3  6  1  0  0  0  0
 45 48  1  0  0  0  0
 45 49  1  0  0  0  0
 45 50  1  0  0  0  0
 11 14  1  0  0  0  0
 11 15  1  0  0  0  0
 11 16  1  0  0  0  0
 52 54  1  0  0  0  0
 52 55  1  0  0  0  0
 52 56  1  0  0  0  0
 21 33  1  0  0  0  0
 21 34  1  0  0  0  0
 42 47  1  0  0  0  0
  8 13  1  0  0  0  0
 18 32  1  0  0  0  0
 25 36  1  0  0  0  0
 51 53  1  0  0  0  0
  7 12  1  0  0  0  0
 41 46  1  0  0  0  0
 17 31  1  0  0  0  0
M  END
$$$$

  -OEChem-05262214473D

 56 57  0     1  0  0  0  0  0999 V2000
   -2.2900    0.3401    4.1553 C   0  0  0  0  0  0  0  0  0  0  0  0
   -1.3426   -0.2746    3.6796 O   0  0  0  0  0  0  0  0  0  0  0  0
   -2.7219    0.0577    5.5560 C   0  0  0  0  0  0  0  0  0  0  0  0
   -3.4815   -0.7386    5.6094 H   0  0  0  0  0  0  0  0  0  0  0  0
   -1.8906   -0.2899    6.1903 H   0  0  0  0  0  0  0  0  0  0  0  0
   -3.1599    0.9126    6.0956 H   0  0  0  0  0  0  0  0  0  0  0  0
   -3.0397    1.3125    3.5142 N   0  0  0  0  0  0  0  0  0  0  0  0
   -2.7928    1.7385    2.1618 C   0  0  2  0  0  0  0  0  0  0  0  0
   -1.4579    1.1532    1.7206 C   0  0  0  0  0  0  0  0  0  0  0  0
   -0.5858    0.8004    2.5118 O   0  0  0  0  0  0  0  0  0  0  0  0
   -2.7841    3.2553    2.0523 C   0  0  0  0  0  0  0  0  0  0  0  0
   -3.8047    1.7484    4.0260 H   0  0  0  0  0  0  0  0  0  0  0  0
   -3.5969    1.3201    1.5466 H   0  0  0  0  0  0  0  0  0  0  0  0
   -1.9850    3.6926    2.6620 H   0  0  0  0  0  0  0  0  0  0  0  0
   -2.6246    3.5776    1.0180 H   0  0  0  0  0  0  0  0  0  0  0  0
   -3.7342    3.6765    2.3981 H   0  0  0  0  0  0  0  0  0  0  0  0
   -1.3352    1.1101    0.3372 N   0  0  0  0  0  0  0  0  0  0  0  0
   -0.1579    0.6093   -0.3265 C   0  0  2  0  0  0  0  0  0  0  0  0
    1.0286    0.8861    0.5900 C   0  0  0  0  0  0  0  0  0  0  0  0
    1.7728    0.0011    1.0068 O   0  0  0  0  0  0  0  0  0  0  0  0
    0.0600    1.2673   -1.6938 C   0  0  0  0  0  0  0  0  0  0  0  0
   -1.0075    0.8996   -2.6953 C   0  0  0  0  0  0  0  0  0  0  0  0
   -2.1181    1.6529   -2.9988 C   0  0  0  0  0  0  0  0  0  0  0  0
   -1.0512   -0.2775   -3.4938 C   0  0  0  0  0  0  0  0  0  0  0  0
   -2.8363    0.9801   -3.9506 N   0  0  0  0  0  0  0  0  0  0  0  0
   -2.2083   -0.2020   -4.2721 C   0  0  0  0  0  0  0  0  0  0  0  0
   -0.2147   -1.4032   -3.6296 C   0  0  0  0  0  0  0  0  0  0  0  0
   -2.5722   -1.2001   -5.1830 C   0  0  0  0  0  0  0  0  0  0  0  0
   -0.5661   -2.4094   -4.5368 C   0  0  0  0  0  0  0  0  0  0  0  0
   -1.7272   -2.3073   -5.3006 C   0  0  0  0  0  0  0  0  0  0  0  0
   -2.1183    1.4068   -0.2401 H   0  0  0  0  0  0  0  0  0  0  0  0
   -0.2912   -0.4746   -0.4235 H   0  0  0  0  0  0  0  0  0  0  0  0
    1.0481    0.9991   -2.0919 H   0  0  0  0  0  0  0  0  0  0  0  0
    0.0766    2.3608   -1.5950 H   0  0  0  0  0  0  0  0  0  0  0  0
   -2.4632    2.6061   -2.6225 H   0  0  0  0  0  0  0  0  0  0  0  0
   -3.7023    1.3039   -4.3588 H   0  0  0  0  0  0  0  0  0  0  0  0
    0.6932   -1.4981   -3.0408 H   0  0  0  0  0  0  0  0  0  0  0  0
   -3.4752   -1.1209   -5.7787 H   0  0  0  0  0  0  0  0  0  0  0  0
    0.0748   -3.2802   -4.6455 H   0  0  0  0  0  0  0  0  0  0  0  0
   -1.9808   -3.1004   -5.9992 H   0  0  0  0  0  0  0  0  0  0  0  0
    1.1839    2.2418    0.8437 N   0  0  0  0  0  0  0  0  0  0  0  0
    2.2452    2.7790    1.6646 C   0  0  2  0  0  0  0  0  0  0  0  0
    2.2680    1.9998    2.9730 C   0  0  0  0  0  0  0  0  0  0  0  0
    1.2953    1.3839    3.4040 O   0  0  0  0  0  0  0  0  0  0  0  0
    2.0486    4.2651    1.9204 C   0  0  0  0  0  0  0  0  0  0  0  0
    0.5182    2.8890    0.4317 H   0  0  0  0  0  0  0  0  0  0  0  0
    3.1815    2.6097    1.1218 H   0  0  0  0  0  0  0  0  0  0  0  0
    1.1155    4.4544    2.4635 H   0  0  0  0  0  0  0  0  0  0  0  0
    2.8684    4.6766    2.5185 H   0  0  0  0  0  0  0  0  0  0  0  0
    2.0027    4.8202    0.9772 H   0  0  0  0  0  0  0  0  0  0  0  0
    3.4887    2.1088    3.6242 N   0  0  0  0  0  0  0  0  0  0  0  0
    3.7561    1.4698    4.8915 C   0  0  0  0  0  0  0  0  0  0  0  0
    4.2454    2.6243    3.1843 H   0  0  0  0  0  0  0  0  0  0  0  0
    3.5266    2.1677    5.7103 H   0  0  0  0  0  0  0  0  0  0  0  0
    3.1286    0.5716    4.9888 H   0  0  0  0  0  0  0  0  0  0  0  0
    4.8170    1.1831    4.9409 H   0  0  0  0  0  0  0  0  0  0  0  0
 29 30  2  0  0  0  0
 27 29  1  0  0  0  0
 28 30  1  0  0  0  0
 24 27  2  0  0  0  0
 26 28  2  0  0  0  0
 22 23  2  0  0  0  0
 23 25  1  0  0  0  0
 22 24  1  0  0  0  0
 24 26  1  0  0  0  0
 21 22  1  0  0  0  0
 25 26  1  0  0  0  0
  1  3  1  0  0  0  0
  1  7  1  0  0  0  0
  1  2  2  0  0  0  0
 42 43  1  0  0  0  0
 43 51  1  0  0  0  0
 43 44  2  0  0  0  0
  8  9  1  0  0  0  0
  9 17  1  0  0  0  0
  9 10  2  0  0  0  0
 18 19  1  0  0  0  0
 19 41  1  0  0  0  0
 19 20  2  0  0  0  0
 42 45  1  0  0  0  0
  8 11  1  0  0  0  0
 51 52  1  0  0  0  0
 18 21  1  0  0  0  0
 41 42  1  0  0  0  0
  7  8  1  0  0  0  0
 17 18  1  0  0  0  0
 29 39  1  0  0  0  0
 30 40  1  0  0  0  0
 27 37  1  0  0  0  0
 28 38  1  0  0  0  0
 23 35  1  0  0  0  0
  3  4  1  0  0  0  0
  3  5  1  0  0  0  0
  3  6  1  0  0  0  0
 45 48  1  0  0  0  0
 45 49  1  0  0  0  0
 45 50  1  0  0  0  0
 11 14  1  0  0  0  0
 11 15  1  0  0  0  0
 11 16  1  0  0  0  0
 52 54  1  0  0  0  0
 52 55  1  0  0  0  0
 52 56  1  0  0  0  0
 21 33  1  0  0  0  0
 21 34  1  0  0  0  0
 42 47  1  0  0  0  0
  8 13  1  0  0  0  0
 18 32  1  0  0  0  0
 25 36  1  0  0  0  0
 51 53  1  0  0  0  0
  7 12  1  0  0  0  0
 41 46  1  0  0  0  0
 17 31  1  0  0  0  0
M  END
$$$$

  -OEChem-05262214473D

 56 57  0     1  0  0  0  0  0999 V2000
   -2.2900    0.3401    4.1553 C   0  0  0  0  0  0  0  0  0  0  0  0
   -1.3426   -0.2746    3.6796 O   0  0  0  0  0  0  0  0  0  0  0  0
   -2.7219    0.0577    5.5560 C   0  0  0  0  0  0  0  0  0  0  0  0
   -3.4815   -0.7386    5.6094 H   0  0  0  0  0  0  0  0  0  0  0  0
   -1.8906   -0.2899    6.1903 H   0  0  0  0  0  0  0  0  0  0  0  0
   -3.1599    0.9126    6.0956 H   0  0  0  0  0  0  0  0  0  0  0  0
   -3.0397    1.3125    3.5142 N   0  0  0  0  0  0  0  0  0  0  0  0
   -2.7928    1.7385    2.1618 C   0  0  2  0  0  0  0  0  0  0  0  0
   -1.4579    1.1532    1.7206 C   0  0  0  0  0  0  0  0  0  0  0  0
   -0.5858    0.8004    2.5118 O   0  0  0  0  0  0  0  0  0  0  0  0
   -2.7841    3.2553    2.0523 C   0  0  0  0  0  0  0  0  0  0  0  0
   -3.8047    1.7484    4.0260 H   0  0  0  0  0  0  0  0  0  0  0  0
   -3.5969    1.3201    1.5466 H   0  0  0  0  0  0  0  0  0  0  0  0
   -1.9850    3.6926    2.6620 H   0  0  0  0  0  0  0  0  0  0  0  0
   -2.6246    3.5776    1.0180 H   0  0  0  0  0  0  0  0  0  0  0  0
   -3.7342    3.6765    2.3981 H   0  0  0  0  0  0  0  0  0  0  0  0
   -1.3352    1.1101    0.3372 N   0  0  0  0  0  0  0  0  0  0  0  0
   -0.1579    0.6093   -0.3265 C   0  0  2  0  0  0  0  0  0  0  0  0
    1.0286    0.8861    0.5900 C   0  0  0  0  0  0  0  0  0  0  0  0
    1.9225    0.0672    0.7931 O   0  0  0  0  0  0  0  0  0  0  0  0
    0.0600    1.2673   -1.6938 C   0  0  0  0  0  0  0  0  0  0  0  0
   -1.0075    0.8996   -2.6953 C   0  0  0  0  0  0  0  0  0  0  0  0
   -2.1181    1.6529   -2.9988 C   0  0  0  0  0  0  0  0  0  0  0  0
   -1.0512   -0.2775   -3.4938 C   0  0  0  0  0  0  0  0  0  0  0  0
   -2.8363    0.9801   -3.9506 N   0  0  0  0  0  0  0  0  0  0  0  0
   -2.2083   -0.2020   -4.2721 C   0  0  0  0  0  0  0  0  0  0  0  0
   -0.2147   -1.4032   -3.6296 C   0  0  0  0  0  0  0  0  0  0  0  0
   -2.5722   -1.2001   -5.1830 C   0  0  0  0  0  0  0  0  0  0  0  0
   -0.5661   -2.4094   -4.5368 C   0  0  0  0  0  0  0  0  0  0  0  0
   -1.7272   -2.3073   -5.3006 C   0  0  0  0  0  0  0  0  0  0  0  0
   -2.1183    1.4068   -0.2401 H   0  0  0  0  0  0  0  0  0  0  0  0
   -0.2912   -0.4746   -0.4235 H   0  0  0  0  0  0  0  0  0  0  0  0
    1.0481    0.9991   -2.0919 H   0  0  0  0  0  0  0  0  0  0  0  0
    0.0766    2.3608   -1.5950 H   0  0  0  0  0  0  0  0  0  0  0  0
   -2.4632    2.6061   -2.6225 H   0  0  0  0  0  0  0  0  0  0  0  0
   -3.7023    1.3039   -4.3588 H   0  0  0  0  0  0  0  0  0  0  0  0
    0.6932   -1.4981   -3.0408 H   0  0  0  0  0  0  0  0  0  0  0  0
   -3.4752   -1.1209   -5.7787 H   0  0  0  0  0  0  0  0  0  0  0  0
    0.0748   -3.2802   -4.6455 H   0  0  0  0  0  0  0  0  0  0  0  0
   -1.9808   -3.1004   -5.9992 H   0  0  0  0  0  0  0  0  0  0  0  0
    0.9934    2.1719    1.1115 N   0  0  0  0  0  0  0  0  0  0  0  0
    2.0111    2.6993    1.9918 C   0  0  2  0  0  0  0  0  0  0  0  0
    2.2334    1.6908    3.1112 C   0  0  0  0  0  0  0  0  0  0  0  0
    1.3938    0.8539    3.4365 O   0  0  0  0  0  0  0  0  0  0  0  0
    1.6092    4.0544    2.5530 C   0  0  0  0  0  0  0  0  0  0  0  0
    0.2131    2.7724    0.8619 H   0  0  0  0  0  0  0  0  0  0  0  0
    2.9262    2.7931    1.3969 H   0  0  0  0  0  0  0  0  0  0  0  0
    0.6942    3.9803    3.1520 H   0  0  0  0  0  0  0  0  0  0  0  0
    2.3935    4.4655    3.1970 H   0  0  0  0  0  0  0  0  0  0  0  0
    1.4208    4.7702    1.7456 H   0  0  0  0  0  0  0  0  0  0  0  0
    3.4623    1.8632    3.7326 N   0  0  0  0  0  0  0  0  0  0  0  0
    3.9022    1.0376    4.8330 C   0  0  0  0  0  0  0  0  0  0  0  0
    4.1034    2.5701    3.3846 H   0  0  0  0  0  0  0  0  0  0  0  0
    3.6220    1.5138    5.7842 H   0  0  0  0  0  0  0  0  0  0  0  0
    3.4247    0.0491    4.7633 H   0  0  0  0  0  0  0  0  0  0  0  0
    4.9951    0.9208    4.7895 H   0  0  0  0  0  0  0  0  0  0  0  0
 29 30  2  0  0  0  0
 27 29  1  0  0  0  0
 28 30  1  0  0  0  0
 24 27  2  0  0  0  0
 26 28  2  0  0  0  0
 22 23  2  0  0  0  0
 23 25  1  0  0  0  0
 22 24  1  0  0  0  0
 24 26  1  0  0  0  0
 21 22  1  0  0  0  0
 25 26  1  0  0  0  0
  1  3  1  0  0  0  0
  1  7  1  0  0  0  0
  1  2  2  0  0  0  0
 42 43  1  0  0  0  0
 43 51  1  0  0  0  0
 43 44  2  0  0  0  0
  8  9  1  0  0  0  0
  9 17  1  0  0  0  0
  9 10  2  0  0  0  0
 18 19  1  0  0  0  0
 19 41  1  0  0  0  0
 19 20  2  0  0  0  0
 42 45  1  0  0  0  0
  8 11  1  0  0  0  0
 51 52  1  0  0  0  0
 18 21  1  0  0  0  0
 41 42  1  0  0  0  0
  7  8  1  0  0  0  0
 17 18  1  0  0  0  0
 29 39  1  0  0  0  0
 30 40  1  0  0  0  0
 27 37  1  0  0  0  0
 28 38  1  0  0  0  0
 23 35  1  0  0  0  0
  3  4  1  0  0  0  0
  3  5  1  0  0  0  0
  3  6  1  0  0  0  0
 45 48  1  0  0  0  0
 45 49  1  0  0  0  0
 45 50  1  0  0  0  0
 11 14  1  0  0  0  0
 11 15  1  0  0  0  0
 11 16  1  0  0  0  0
 52 54  1  0  0  0  0
 52 55  1  0  0  0  0
 52 56  1  0  0  0  0
 21 33  1  0  0  0  0
 21 34  1  0  0  0  0
 42 47  1  0  0  0  0
  8 13  1  0  0  0  0
 18 32  1  0  0  0  0
 25 36  1  0  0  0  0
 51 53  1  0  0  0  0
  7 12  1  0  0  0  0
 41 46  1  0  0  0  0
 17 31  1  0  0  0  0
M  END
$$$$

  -OEChem-05262214473D

 56 57  0     1  0  0  0  0  0999 V2000
   -2.2900    0.3401    4.1553 C   0  0  0  0  0  0  0  0  0  0  0  0
   -1.3426   -0.2746    3.6796 O   0  0  0  0  0  0  0  0  0  0  0  0
   -2.7219    0.0577    5.5560 C   0  0  0  0  0  0  0  0  0  0  0  0
   -3.4815   -0.7386    5.6094 H   0  0  0  0  0  0  0  0  0  0  0  0
   -1.8906   -0.2899    6.1903 H   0  0  0  0  0  0  0  0  0  0  0  0
   -3.1599    0.9126    6.0956 H   0  0  0  0  0  0  0  0  0  0  0  0
   -3.0397    1.3125    3.5142 N   0  0  0  0  0  0  0  0  0  0  0  0
   -2.7928    1.7385    2.1618 C   0  0  2  0  0  0  0  0  0  0  0  0
   -1.4579    1.1532    1.7206 C   0  0  0  0  0  0  0  0  0  0  0  0
   -0.5858    0.8004    2.5118 O   0  0  0  0  0  0  0  0  0  0  0  0
   -2.7841    3.2553    2.0523 C   0  0  0  0  0  0  0  0  0  0  0  0
   -3.8047    1.7484    4.0260 H   0  0  0  0  0  0  0  0  0  0  0  0
   -3.5969    1.3201    1.5466 H   0  0  0  0  0  0  0  0  0  0  0  0
   -1.9850    3.6926    2.6620 H   0  0  0  0  0  0  0  0  0  0  0  0
   -2.6246    3.5776    1.0180 H   0  0  0  0  0  0  0  0  0  0  0  0
   -3.7342    3.6765    2.3981 H   0  0  0  0  0  0  0  0  0  0  0  0
   -1.3352    1.1101    0.3372 N   0  0  0  0  0  0  0  0  0  0  0  0
   -0.1579    0.6093   -0.3265 C   0  0  2  0  0  0  0  0  0  0  0  0
    1.0286    0.8861    0.5900 C   0  0  0  0  0  0  0  0  0  0  0  0
    2.0467    0.1974    0.5929 O   0  0  0  0  0  0  0  0  0  0  0  0
    0.0600    1.2673   -1.6938 C   0  0  0  0  0  0  0  0  0  0  0  0
   -1.0075    0.8996   -2.6953 C   0  0  0  0  0  0  0  0  0  0  0  0
   -2.1181    1.6529   -2.9988 C   0  0  0  0  0  0  0  0  0  0  0  0
   -1.0512   -0.2775   -3.4938 C   0  0  0  0  0  0  0  0  0  0  0  0
   -2.8363    0.9801   -3.9506 N   0  0  0  0  0  0  0  0  0  0  0  0
   -2.2083   -0.2020   -4.2721 C   0  0  0  0  0  0  0  0  0  0  0  0
   -0.2147   -1.4032   -3.6296 C   0  0  0  0  0  0  0  0  0  0  0  0
   -2.5722   -1.2001   -5.1830 C   0  0  0  0  0  0  0  0  0  0  0  0
   -0.5661   -2.4094   -4.5368 C   0  0  0  0  0  0  0  0  0  0  0  0
   -1.7272   -2.3073   -5.3006 C   0  0  0  0  0  0  0  0  0  0  0  0
   -2.1183    1.4068   -0.2401 H   0  0  0  0  0  0  0  0  0  0  0  0
   -0.2912   -0.4746   -0.4235 H   0  0  0  0  0  0  0  0  0  0  0  0
    1.0481    0.9991   -2.0919 H   0  0  0  0  0  0  0  0  0  0  0  0
    0.0766    2.3608   -1.5950 H   0  0  0  0  0  0  0  0  0  0  0  0
   -2.4632    2.6061   -2.6225 H   0  0  0  0  0  0  0  0  0  0  0  0
   -3.7023    1.3039   -4.3588 H   0  0  0  0  0  0  0  0  0  0  0  0
    0.6932   -1.4981   -3.0408 H   0  0  0  0  0  0  0  0  0  0  0  0
   -3.4752   -1.1209   -5.7787 H   0  0  0  0  0  0  0  0  0  0  0  0
    0.0748   -3.2802   -4.6455 H   0  0  0  0  0  0  0  0  0  0  0  0
   -1.9808   -3.1004   -5.9992 H   0  0  0  0  0  0  0  0  0  0  0  0
    0.8328    2.0207    1.3650 N   0  0  0  0  0  0  0  0  0  0  0  0
    1.8127    2.5200    2.3028 C   0  0  2  0  0  0  0  0  0  0  0  0
    2.2545    1.3590    3.1840 C   0  0  0  0  0  0  0  0  0  0  0  0
    1.5729    0.3507    3.3567 O   0  0  0  0  0  0  0  0  0  0  0  0
    1.2472    3.6550    3.1422 C   0  0  0  0  0  0  0  0  0  0  0  0
   -0.0432    2.5257    1.2683 H   0  0  0  0  0  0  0  0  0  0  0  0
    2.6639    2.8751    1.7117 H   0  0  0  0  0  0  0  0  0  0  0  0
    0.3934    3.3182    3.7414 H   0  0  0  0  0  0  0  0  0  0  0  0
    1.9996    4.0511    3.8322 H   0  0  0  0  0  0  0  0  0  0  0  0
    0.9026    4.4767    2.5051 H   0  0  0  0  0  0  0  0  0  0  0  0
    3.4800    1.6001    3.7891 N   0  0  0  0  0  0  0  0  0  0  0  0
    4.1077    0.6547    4.6825 C   0  0  0  0  0  0  0  0  0  0  0  0
    3.9840    2.4553    3.5737 H   0  0  0  0  0  0  0  0  0  0  0  0
    3.8194    0.8822    5.7194 H   0  0  0  0  0  0  0  0  0  0  0  0
    3.7813   -0.3641    4.4264 H   0  0  0  0  0  0  0  0  0  0  0  0
    5.2009    0.7256    4.5821 H   0  0  0  0  0  0  0  0  0  0  0  0
 29 30  2  0  0  0  0
 27 29  1  0  0  0  0
 28 30  1  0  0  0  0
 24 27  2  0  0  0  0
 26 28  2  0  0  0  0
 22 23  2  0  0  0  0
 23 25  1  0  0  0  0
 22 24  1  0  0  0  0
 24 26  1  0  0  0  0
 21 22  1  0  0  0  0
 25 26  1  0  0  0  0
  1  3  1  0  0  0  0
  1  7  1  0  0  0  0
  1  2  2  0  0  0  0
 42 43  1  0  0  0  0
 43 51  1  0  0  0  0
 43 44  2  0  0  0  0
  8  9  1  0  0  0  0
  9 17  1  0  0  0  0
  9 10  2  0  0  0  0
 18 19  1  0  0  0  0
 19 41  1  0  0  0  0
 19 20  2  0  0  0  0
 42 45  1  0  0  0  0
  8 11  1  0  0  0  0
 51 52  1  0  0  0  0
 18 21  1  0  0  0  0
 41 42  1  0  0  0  0
  7  8  1  0  0  0  0
 17 18  1  0  0  0  0
 29 39  1  0  0  0  0
 30 40  1  0  0  0  0
 27 37  1  0  0  0  0
 28 38  1  0  0  0  0
 23 35  1  0  0  0  0
  3  4  1  0  0  0  0
  3  5  1  0  0  0  0
  3  6  1  0  0  0  0
 45 48  1  0  0  0  0
 45 49  1  0  0  0  0
 45 50  1  0  0  0  0
 11 14  1  0  0  0  0
 11 15  1  0  0  0  0
 11 16  1  0  0  0  0
 52 54  1  0  0  0  0
 52 55  1  0  0  0  0
 52 56  1  0  0  0  0
 21 33  1  0  0  0  0
 21 34  1  0  0  0  0
 42 47  1  0  0  0  0
  8 13  1  0  0  0  0
 18 32  1  0  0  0  0
 25 36  1  0  0  0  0
 51 53  1  0  0  0  0
  7 12  1  0  0  0  0
 41 46  1  0  0  0  0
 17 31  1  0  0  0  0
M  END
$$$$

  -OEChem-05262214473D

 56 57  0     1  0  0  0  0  0999 V2000
   -2.2900    0.3401    4.1553 C   0  0  0  0  0  0  0  0  0  0  0  0
   -1.3426   -0.2746    3.6796 O   0  0  0  0  0  0  0  0  0  0  0  0
   -2.7219    0.0577    5.5560 C   0  0  0  0  0  0  0  0  0  0  0  0
   -3.4815   -0.7386    5.6094 H   0  0  0  0  0  0  0  0  0  0  0  0
   -1.8906   -0.2899    6.1903 H   0  0  0  0  0  0  0  0  0  0  0  0
   -3.1599    0.9126    6.0956 H   0  0  0  0  0  0  0  0  0  0  0  0
   -3.0397    1.3125    3.5142 N   0  0  0  0  0  0  0  0  0  0  0  0
   -2.7928    1.7385    2.1618 C   0  0  2  0  0  0  0  0  0  0  0  0
   -1.4579    1.1532    1.7206 C   0  0  0  0  0  0  0  0  0  0  0  0
   -0.5858    0.8004    2.5118 O   0  0  0  0  0  0  0  0  0  0  0  0
   -2.7841    3.2553    2.0523 C   0  0  0  0  0  0  0  0  0  0  0  0
   -3.8047    1.7484    4.0260 H   0  0  0  0  0  0  0  0  0  0  0  0
   -3.5969    1.3201    1.5466 H   0  0  0  0  0  0  0  0  0  0  0  0
   -1.9850    3.6926    2.6620 H   0  0  0  0  0  0  0  0  0  0  0  0
   -2.6246    3.5776    1.0180 H   0  0  0  0  0  0  0  0  0  0  0  0
   -3.7342    3.6765    2.3981 H   0  0  0  0  0  0  0  0  0  0  0  0
   -1.3352    1.1101    0.3372 N   0  0  0  0  0  0  0  0  0  0  0  0
   -0.1579    0.6093   -0.3265 C   0  0  2  0  0  0  0  0  0  0  0  0
    1.0286    0.8861    0.5900 C   0  0  0  0  0  0  0  0  0  0  0  0
    2.1371    0.3828    0.4200 O   0  0  0  0  0  0  0  0  0  0  0  0
    0.0600    1.2673   -1.6938 C   0  0  0  0  0  0  0  0  0  0  0  0
   -1.0075    0.8996   -2.6953 C   0  0  0  0  0  0  0  0  0  0  0  0
   -2.1181    1.6529   -2.9988 C   0  0  0  0  0  0  0  0  0  0  0  0
   -1.0512   -0.2775   -3.4938 C   0  0  0  0  0  0  0  0  0  0  0  0
   -2.8363    0.9801   -3.9506 N   0  0  0  0  0  0  0  0  0  0  0  0
   -2.2083   -0.2020   -4.2721 C   0  0  0  0  0  0  0  0  0  0  0  0
   -0.2147   -1.4032   -3.6296 C   0  0  0  0  0  0  0  0  0  0  0  0
   -2.5722   -1.2001   -5.1830 C   0  0  0  0  0  0  0  0  0  0  0  0
   -0.5661   -2.4094   -4.5368 C   0  0  0  0  0  0  0  0  0  0  0  0
   -1.7272   -2.3073   -5.3006 C   0  0  0  0  0  0  0  0  0  0  0  0
   -2.1183    1.4068   -0.2401 H   0  0  0  0  0  0  0  0  0  0  0  0
   -0.2912   -0.4746   -0.4235 H   0  0  0  0  0  0  0  0  0  0  0  0
    1.0481    0.9991   -2.0919 H   0  0  0  0  0  0  0  0  0  0  0  0
    0.0766    2.3608   -1.5950 H   0  0  0  0  0  0  0  0  0  0  0  0
   -2.4632    2.6061   -2.6225 H   0  0  0  0  0  0  0  0  0  0  0  0
   -3.7023    1.3039   -4.3588 H   0  0  0  0  0  0  0  0  0  0  0  0
    0.6932   -1.4981   -3.0408 H   0  0  0  0  0  0  0  0  0  0  0  0
   -3.4752   -1.1209   -5.7787 H   0  0  0  0  0  0  0  0  0  0  0  0
    0.0748   -3.2802   -4.6455 H   0  0  0  0  0  0  0  0  0  0  0  0
   -1.9808   -3.1004   -5.9992 H   0  0  0  0  0  0  0  0  0  0  0  0
    0.7132    1.7987    1.5870 N   0  0  0  0  0  0  0  0  0  0  0  0
    1.6636    2.2533    2.5763 C   0  0  2  0  0  0  0  0  0  0  0  0
    2.3300    1.0272    3.1865 C   0  0  0  0  0  0  0  0  0  0  0  0
    1.8204   -0.0913    3.1697 O   0  0  0  0  0  0  0  0  0  0  0  0
    0.9875    3.0942    3.6479 C   0  0  0  0  0  0  0  0  0  0  0  0
   -0.2333    2.1656    1.6231 H   0  0  0  0  0  0  0  0  0  0  0  0
    2.4127    2.8501    2.0445 H   0  0  0  0  0  0  0  0  0  0  0  0
    0.2336    2.5131    4.1915 H   0  0  0  0  0  0  0  0  0  0  0  0
    1.7134    3.4615    4.3808 H   0  0  0  0  0  0  0  0  0  0  0  0
    0.4835    3.9595    3.2039 H   0  0  0  0  0  0  0  0  0  0  0  0
    3.5408    1.3373    3.7898 N   0  0  0  0  0  0  0  0  0  0  0  0
    4.3588    0.3471    4.4504 C   0  0  0  0  0  0  0  0  0  0  0  0
    3.8955    2.2877    3.7389 H   0  0  0  0  0  0  0  0  0  0  0  0
    4.1053    0.3158    5.5203 H   0  0  0  0  0  0  0  0  0  0  0  0
    4.1742   -0.6398    4.0010 H   0  0  0  0  0  0  0  0  0  0  0  0
    5.4202    0.6108    4.3327 H   0  0  0  0  0  0  0  0  0  0  0  0
 29 30  2  0  0  0  0
 27 29  1  0  0  0  0
 28 30  1  0  0  0  0
 24 27  2  0  0  0  0
 26 28  2  0  0  0  0
 22 23  2  0  0  0  0
 23 25  1  0  0  0  0
 22 24  1  0  0  0  0
 24 26  1  0  0  0  0
 21 22  1  0  0  0  0
 25 26  1  0  0  0  0
  1  3  1  0  0  0  0
  1  7  1  0  0  0  0
  1  2  2  0  0  0  0
 42 43  1  0  0  0  0
 43 51  1  0  0  0  0
 43 44  2  0  0  0  0
  8  9  1  0  0  0  0
  9 17  1  0  0  0  0
  9 10  2  0  0  0  0
 18 19  1  0  0  0  0
 19 41  1  0  0  0  0
 19 20  2  0  0  0  0
 42 45  1  0  0  0  0
  8 11  1  0  0  0  0
 51 52  1  0  0  0  0
 18 21  1  0  0  0  0
 41 42  1  0  0  0  0
  7  8  1  0  0  0  0
 17 18  1  0  0  0  0
 29 39  1  0  0  0  0
 30 40  1  0  0  0  0
 27 37  1  0  0  0  0
 28 38  1  0  0  0  0
 23 35  1  0  0  0  0
  3  4  1  0  0  0  0
  3  5  1  0  0  0  0
  3  6  1  0  0  0  0
 45 48  1  0  0  0  0
 45 49  1  0  0  0  0
 45 50  1  0  0  0  0
 11 14  1  0  0  0  0
 11 15  1  0  0  0  0
 11 16  1  0  0  0  0
 52 54  1  0  0  0  0
 52 55  1  0  0  0  0
 52 56  1  0  0  0  0
 21 33  1  0  0  0  0
 21 34  1  0  0  0  0
 42 47  1  0  0  0  0
  8 13  1  0  0  0  0
 18 32  1  0  0  0  0
 25 36  1  0  0  0  0
 51 53  1  0  0  0  0
  7 12  1  0  0  0  0
 41 46  1  0  0  0  0
 17 31  1  0  0  0  0
M  END
$$$$

  -OEChem-05262214473D

 56 57  0     1  0  0  0  0  0999 V2000
   -2.2900    0.3401    4.1553 C   0  0  0  0  0  0  0  0  0  0  0  0
   -1.3426   -0.2746    3.6796 O   0  0  0  0  0  0  0  0  0  0  0  0
   -2.7219    0.0577    5.5560 C   0  0  0  0  0  0  0  0  0  0  0  0
   -3.4815   -0.7386    5.6094 H   0  0  0  0  0  0  0  0  0  0  0  0
   -1.8906   -0.2899    6.1903 H   0  0  0  0  0  0  0  0  0  0  0  0
   -3.1599    0.9126    6.0956 H   0  0  0  0  0  0  0  0  0  0  0  0
   -3.0397    1.3125    3.5142 N   0  0  0  0  0  0  0  0  0  0  0  0
   -2.7928    1.7385    2.1618 C   0  0  2  0  0  0  0  0  0  0  0  0
   -1.4579    1.1532    1.7206 C   0  0  0  0  0  0  0  0  0  0  0  0
   -0.5858    0.8004    2.5118 O   0  0  0  0  0  0  0  0  0  0  0  0
   -2.7841    3.2553    2.0523 C   0  0  0  0  0  0  0  0  0  0  0  0
   -3.8047    1.7484    4.0260 H   0  0  0  0  0  0  0  0  0  0  0  0
   -3.5969    1.3201    1.5466 H   0  0  0  0  0  0  0  0  0  0  0  0
   -1.9850    3.6926    2.6620 H   0  0  0  0  0  0  0  0  0  0  0  0
   -2.6246    3.5776    1.0180 H   0  0  0  0  0  0  0  0  0  0  0  0
   -3.7342    3.6765    2.3981 H   0  0  0  0  0  0  0  0  0  0  0  0
   -1.3352    1.1101    0.3372 N   0  0  0  0  0  0  0  0  0  0  0  0
   -0.1579    0.6093   -0.3265 C   0  0  2  0  0  0  0  0  0  0  0  0
    1.0286    0.8861    0.5900 C   0  0  0  0  0  0  0  0  0  0  0  0
    2.1873    0.6108    0.2860 O   0  0  0  0  0  0  0  0  0  0  0  0
    0.0600    1.2673   -1.6938 C   0  0  0  0  0  0  0  0  0  0  0  0
   -1.0075    0.8996   -2.6953 C   0  0  0  0  0  0  0  0  0  0  0  0
   -2.1181    1.6529   -2.9988 C   0  0  0  0  0  0  0  0  0  0  0  0
   -1.0512   -0.2775   -3.4938 C   0  0  0  0  0  0  0  0  0  0  0  0
   -2.8363    0.9801   -3.9506 N   0  0  0  0  0  0  0  0  0  0  0  0
   -2.2083   -0.2020   -4.2721 C   0  0  0  0  0  0  0  0  0  0  0  0
   -0.2147   -1.4032   -3.6296 C   0  0  0  0  0  0  0  0  0  0  0  0
   -2.5722   -1.2001   -5.1830 C   0  0  0  0  0  0  0  0  0  0  0  0
   -0.5661   -2.4094   -4.5368 C   0  0  0  0  0  0  0  0  0  0  0  0
   -1.7272   -2.3073   -5.3006 C   0  0  0  0  0  0  0  0  0  0  0  0
   -2.1183    1.4068   -0.2401 H   0  0  0  0  0  0  0  0  0  0  0  0
   -0.2912   -0.4746   -0.4235 H   0  0  0  0  0  0  0  0  0  0  0  0
    1.0481    0.9991   -2.0919 H   0  0  0  0  0  0  0  0  0  0  0  0
    0.0766    2.3608   -1.5950 H   0  0  0  0  0  0  0  0  0  0  0  0
   -2.4632    2.6061   -2.6225 H   0  0  0  0  0  0  0  0  0  0  0  0
   -3.7023    1.3039   -4.3588 H   0  0  0  0  0  0  0  0  0  0  0  0
    0.6932   -1.4981   -3.0408 H   0  0  0  0  0  0  0  0  0  0  0  0
   -3.4752   -1.1209   -5.7787 H   0  0  0  0  0  0  0  0  0  0  0  0
    0.0748   -3.2802   -4.6455 H   0  0  0  0  0  0  0  0  0  0  0  0
   -1.9808   -3.1004   -5.9992 H   0  0  0  0  0  0  0  0  0  0  0  0
    0.6426    1.5209    1.7623 N   0  0  0  0  0  0  0  0  0  0  0  0
    1.5740    1.9174    2.7938 C   0  0  2  0  0  0  0  0  0  0  0  0
    2.4546    0.7180    3.1185 C   0  0  0  0  0  0  0  0  0  0  0  0
    2.1195   -0.4421    2.8885 O   0  0  0  0  0  0  0  0  0  0  0  0
    0.8475    2.4103    4.0356 C   0  0  0  0  0  0  0  0  0  0  0  0
   -0.3443    1.7168    1.9023 H   0  0  0  0  0  0  0  0  0  0  0  0
    2.1895    2.7198    2.3728 H   0  0  0  0  0  0  0  0  0  0  0  0
    0.2256    1.6199    4.4716 H   0  0  0  0  0  0  0  0  0  0  0  0
    1.5544    2.7370    4.8054 H   0  0  0  0  0  0  0  0  0  0  0  0
    0.1920    3.2540    3.7945 H   0  0  0  0  0  0  0  0  0  0  0  0
    3.6404    1.0927    3.7347 N   0  0  0  0  0  0  0  0  0  0  0  0
    4.6383    0.1358    4.1524 C   0  0  0  0  0  0  0  0  0  0  0  0
    3.8438    2.0788    3.8689 H   0  0  0  0  0  0  0  0  0  0  0  0
    4.4602   -0.1466    5.2005 H   0  0  0  0  0  0  0  0  0  0  0  0
    4.5767   -0.7594    3.5160 H   0  0  0  0  0  0  0  0  0  0  0  0
    5.6383    0.5843    4.0584 H   0  0  0  0  0  0  0  0  0  0  0  0
 29 30  2  0  0  0  0
 27 29  1  0  0  0  0
 28 30  1  0  0  0  0
 24 27  2  0  0  0  0
 26 28  2  0  0  0  0
 22 23  2  0  0  0  0
 23 25  1  0  0  0  0
 22 24  1  0  0  0  0
 24 26  1  0  0  0  0
 21 22  1  0  0  0  0
 25 26  1  0  0  0  0
  1  3  1  0  0  0  0
  1  7  1  0  0  0  0
  1  2  2  0  0  0  0
 42 43  1  0  0  0  0
 43 51  1  0  0  0  0
 43 44  2  0  0  0  0
  8  9  1  0  0  0  0
  9 17  1  0  0  0  0
  9 10  2  0  0  0  0
 18 19  1  0  0  0  0
 19 41  1  0  0  0  0
 19 20  2  0  0  0  0
 42 45  1  0  0  0  0
  8 11  1  0  0  0  0
 51 52  1  0  0  0  0
 18 21  1  0  0  0  0
 41 42  1  0  0  0  0
  7  8  1  0  0  0  0
 17 18  1  0  0  0  0
 29 39  1  0  0  0  0
 30 40  1  0  0  0  0
 27 37  1  0  0  0  0
 28 38  1  0  0  0  0
 23 35  1  0  0  0  0
  3  4  1  0  0  0  0
  3  5  1  0  0  0  0
  3  6  1  0  0  0  0
 45 48  1  0  0  0  0
 45 49  1  0  0  0  0
 45 50  1  0  0  0  0
 11 14  1  0  0  0  0
 11 15  1  0  0  0  0
 11 16  1  0  0  0  0
 52 54  1  0  0  0  0
 52 55  1  0  0  0  0
 52 56  1  0  0  0  0
 21 33  1  0  0  0  0
 21 34  1  0  0  0  0
 42 47  1  0  0  0  0
  8 13  1  0  0  0  0
 18 32  1  0  0  0  0
 25 36  1  0  0  0  0
 51 53  1  0  0  0  0
  7 12  1  0  0  0  0
 41 46  1  0  0  0  0
 17 31  1  0  0  0  0
M  END
$$$$

  -OEChem-05262214473D

 56 57  0     1  0  0  0  0  0999 V2000
   -2.2900    0.3401    4.1553 C   0  0  0  0  0  0  0  0  0  0  0  0
   -1.3426   -0.2746    3.6796 O   0  0  0  0  0  0  0  0  0  0  0  0
   -2.7219    0.0577    5.5560 C   0  0  0  0  0  0  0  0  0  0  0  0
   -3.4815   -0.7386    5.6094 H   0  0  0  0  0  0  0  0  0  0  0  0
   -1.8906   -0.2899    6.1903 H   0  0  0  0  0  0  0  0  0  0  0  0
   -3.1599    0.9126    6.0956 H   0  0  0  0  0  0  0  0  0  0  0  0
   -3.0397    1.3125    3.5142 N   0  0  0  0  0  0  0  0  0  0  0  0
   -2.7928    1.7385    2.1618 C   0  0  2  0  0  0  0  0  0  0  0  0
   -1.4579    1.1532    1.7206 C   0  0  0  0  0  0  0  0  0  0  0  0
   -0.5858    0.8004    2.5118 O   0  0  0  0  0  0  0  0  0  0  0  0
   -2.7841    3.2553    2.0523 C   0  0  0  0  0  0  0  0  0  0  0  0
   -3.8047    1.7484    4.0260 H   0  0  0  0  0  0  0  0  0  0  0  0
   -3.5969    1.3201    1.5466 H   0  0  0  0  0  0  0  0  0  0  0  0
   -1.9850    3.6926    2.6620 H   0  0  0  0  0  0  0  0  0  0  0  0
   -2.6246    3.5776    1.0180 H   0  0  0  0  0  0  0  0  0  0  0  0
   -3.7342    3.6765    2.3981 H   0  0  0  0  0  0  0  0  0  0  0  0
   -1.3352    1.1101    0.3372 N   0  0  0  0  0  0  0  0  0  0  0  0
   -0.1579    0.6093   -0.3265 C   0  0  2  0  0  0  0  0  0  0  0  0
    1.0286    0.8861    0.5900 C   0  0  0  0  0  0  0  0  0  0  0  0
    2.1941    0.8658    0.2002 O   0  0  0  0  0  0  0  0  0  0  0  0
    0.0600    1.2673   -1.6938 C   0  0  0  0  0  0  0  0  0  0  0  0
   -1.0075    0.8996   -2.6953 C   0  0  0  0  0  0  0  0  0  0  0  0
   -2.1181    1.6529   -2.9988 C   0  0  0  0  0  0  0  0  0  0  0  0
   -1.0512   -0.2775   -3.4938 C   0  0  0  0  0  0  0  0  0  0  0  0
   -2.8363    0.9801   -3.9506 N   0  0  0  0  0  0  0  0  0  0  0  0
   -2.2083   -0.2020   -4.2721 C   0  0  0  0  0  0  0  0  0  0  0  0
   -0.2147   -1.4032   -3.6296 C   0  0  0  0  0  0  0  0  0  0  0  0
   -2.5722   -1.2001   -5.1830 C   0  0  0  0  0  0  0  0  0  0  0  0
   -0.5661   -2.4094   -4.5368 C   0  0  0  0  0  0  0  0  0  0  0  0
   -1.7272   -2.3073   -5.3006 C   0  0  0  0  0  0  0  0  0  0  0  0
   -2.1183    1.4068   -0.2401 H   0  0  0  0  0  0  0  0  0  0  0  0
   -0.2912   -0.4746   -0.4235 H   0  0  0  0  0  0  0  0  0  0  0  0
    1.0481    0.9991   -2.0919 H   0  0  0  0  0  0  0  0  0  0  0  0
    0.0766    2.3608   -1.5950 H   0  0  0  0  0  0  0  0  0  0  0  0
   -2.4632    2.6061   -2.6225 H   0  0  0  0  0  0  0  0  0  0  0  0
   -3.7023    1.3039   -4.3588 H   0  0  0  0  0  0  0  0  0  0  0  0
    0.6932   -1.4981   -3.0408 H   0  0  0  0  0  0  0  0  0  0  0  0
   -3.4752   -1.1209   -5.7787 H   0  0  0  0  0  0  0  0  0  0  0  0
    0.0748   -3.2802   -4.6455 H   0  0  0  0  0  0  0  0  0  0  0  0
   -1.9808   -3.1004   -5.9992 H   0  0  0  0  0  0  0  0  0  0  0  0
    0.6258    1.2063    1.8790 N   0  0  0  0  0  0  0  0  0  0  0  0
    1.5499    1.5351    2.9405 C   0  0  2  0  0  0  0  0  0  0  0  0
    2.6199    0.4523    2.9847 C   0  0  0  0  0  0  0  0  0  0  0  0
    2.4497   -0.6778    2.5321 O   0  0  0  0  0  0  0  0  0  0  0  0
    0.8370    1.6498    4.2789 C   0  0  0  0  0  0  0  0  0  0  0  0
   -0.3685    1.2098    2.0868 H   0  0  0  0  0  0  0  0  0  0  0  0
    2.0096    2.4931    2.6741 H   0  0  0  0  0  0  0  0  0  0  0  0
    0.3701    0.6995    4.5626 H   0  0  0  0  0  0  0  0  0  0  0  0
    1.5336    1.9270    5.0770 H   0  0  0  0  0  0  0  0  0  0  0  0
    0.0479    2.4083    4.2365 H   0  0  0  0  0  0  0  0  0  0  0  0
    3.7720    0.8831    3.6276 N   0  0  0  0  0  0  0  0  0  0  0  0
    4.9271    0.0352    3.8088 C   0  0  0  0  0  0  0  0  0  0  0  0
    3.8326    1.8428    3.9548 H   0  0  0  0  0  0  0  0  0  0  0  0
    4.8600   -0.4737    4.7817 H   0  0  0  0  0  0  0  0  0  0  0  0
    4.9613   -0.7146    3.0046 H   0  0  0  0  0  0  0  0  0  0  0  0
    5.8401    0.6479    3.7779 H   0  0  0  0  0  0  0  0  0  0  0  0
 29 30  2  0  0  0  0
 27 29  1  0  0  0  0
 28 30  1  0  0  0  0
 24 27  2  0  0  0  0
 26 28  2  0  0  0  0
 22 23  2  0  0  0  0
 23 25  1  0  0  0  0
 22 24  1  0  0  0  0
 24 26  1  0  0  0  0
 21 22  1  0  0  0  0
 25 26  1  0  0  0  0
  1  3  1  0  0  0  0
  1  7  1  0  0  0  0
  1  2  2  0  0  0  0
 42 43  1  0  0  0  0
 43 51  1  0  0  0  0
 43 44  2  0  0  0  0
  8  9  1  0  0  0  0
  9 17  1  0  0  0  0
  9 10  2  0  0  0  0
 18 19  1  0  0  0  0
 19 41  1  0  0  0  0
 19 20  2  0  0  0  0
 42 45  1  0  0  0  0
  8 11  1  0  0  0  0
 51 52  1  0  0  0  0
 18 21  1  0  0  0  0
 41 42  1  0  0  0  0
  7  8  1  0  0  0  0
 17 18  1  0  0  0  0
 29 39  1  0  0  0  0
 30 40  1  0  0  0  0
 27 37  1  0  0  0  0
 28 38  1  0  0  0  0
 23 35  1  0  0  0  0
  3  4  1  0  0  0  0
  3  5  1  0  0  0  0
  3  6  1  0  0  0  0
 45 48  1  0  0  0  0
 45 49  1  0  0  0  0
 45 50  1  0  0  0  0
 11 14  1  0  0  0  0
 11 15  1  0  0  0  0
 11 16  1  0  0  0  0
 52 54  1  0  0  0  0
 52 55  1  0  0  0  0
 52 56  1  0  0  0  0
 21 33  1  0  0  0  0
 21 34  1  0  0  0  0
 42 47  1  0  0  0  0
  8 13  1  0  0  0  0
 18 32  1  0  0  0  0
 25 36  1  0  0  0  0
 51 53  1  0  0  0  0
  7 12  1  0  0  0  0
 41 46  1  0  0  0  0
 17 31  1  0  0  0  0
M  END
$$$$

  -OEChem-05262214473D

 56 57  0     1  0  0  0  0  0999 V2000
   -2.2900    0.3401    4.1553 C   0  0  0  0  0  0  0  0  0  0  0  0
   -1.3426   -0.2746    3.6796 O   0  0  0  0  0  0  0  0  0  0  0  0
   -2.7219    0.0577    5.5560 C   0  0  0  0  0  0  0  0  0  0  0  0
   -3.4815   -0.7386    5.6094 H   0  0  0  0  0  0  0  0  0  0  0  0
   -1.8906   -0.2899    6.1903 H   0  0  0  0  0  0  0  0  0  0  0  0
   -3.1599    0.9126    6.0956 H   0  0  0  0  0  0  0  0  0  0  0  0
   -3.0397    1.3125    3.5142 N   0  0  0  0  0  0  0  0  0  0  0  0
   -2.7928    1.7385    2.1618 C   0  0  2  0  0  0  0  0  0  0  0  0
   -1.4579    1.1532    1.7206 C   0  0  0  0  0  0  0  0  0  0  0  0
   -0.5858    0.8004    2.5118 O   0  0  0  0  0  0  0  0  0  0  0  0
   -2.7841    3.2553    2.0523 C   0  0  0  0  0  0  0  0  0  0  0  0
   -3.8047    1.7484    4.0260 H   0  0  0  0  0  0  0  0  0  0  0  0
   -3.5969    1.3201    1.5466 H   0  0  0  0  0  0  0  0  0  0  0  0
   -1.9850    3.6926    2.6620 H   0  0  0  0  0  0  0  0  0  0  0  0
   -2.6246    3.5776    1.0180 H   0  0  0  0  0  0  0  0  0  0  0  0
   -3.7342    3.6765    2.3981 H   0  0  0  0  0  0  0  0  0  0  0  0
   -1.3352    1.1101    0.3372 N   0  0  0  0  0  0  0  0  0  0  0  0
   -0.1579    0.6093   -0.3265 C   0  0  2  0  0  0  0  0  0  0  0  0
    1.0286    0.8861    0.5900 C   0  0  0  0  0  0  0  0  0  0  0  0
    2.1570    1.1305    0.1683 O   0  0  0  0  0  0  0  0  0  0  0  0
    0.0600    1.2673   -1.6938 C   0  0  0  0  0  0  0  0  0  0  0  0
   -1.0075    0.8996   -2.6953 C   0  0  0  0  0  0  0  0  0  0  0  0
   -2.1181    1.6529   -2.9988 C   0  0  0  0  0  0  0  0  0  0  0  0
   -1.0512   -0.2775   -3.4938 C   0  0  0  0  0  0  0  0  0  0  0  0
   -2.8363    0.9801   -3.9506 N   0  0  0  0  0  0  0  0  0  0  0  0
   -2.2083   -0.2020   -4.2721 C   0  0  0  0  0  0  0  0  0  0  0  0
   -0.2147   -1.4032   -3.6296 C   0  0  0  0  0  0  0  0  0  0  0  0
   -2.5722   -1.2001   -5.1830 C   0  0  0  0  0  0  0  0  0  0  0  0
   -0.5661   -2.4094   -4.5368 C   0  0  0  0  0  0  0  0  0  0  0  0
   -1.7272   -2.3073   -5.3006 C   0  0  0  0  0  0  0  0  0  0  0  0
   -2.1183    1.4068   -0.2401 H   0  0  0  0  0  0  0  0  0  0  0  0
   -0.2912   -0.4746   -0.4235 H   0  0  0  0  0  0  0  0  0  0  0  0
    1.0481    0.9991   -2.0919 H   0  0  0  0  0  0  0  0  0  0  0  0
    0.0766    2.3608   -1.5950 H   0  0  0  0  0  0  0  0  0  0  0  0
   -2.4632    2.6061   -2.6225 H   0  0  0  0  0  0  0  0  0  0  0  0
   -3.7023    1.3039   -4.3588 H   0  0  0  0  0  0  0  0  0  0  0  0
    0.6932   -1.4981   -3.0408 H   0  0  0  0  0  0  0  0  0  0  0  0
   -3.4752   -1.1209   -5.7787 H   0  0  0  0  0  0  0  0  0  0  0  0
    0.0748   -3.2802   -4.6455 H   0  0  0  0  0  0  0  0  0  0  0  0
   -1.9808   -3.1004   -5.9992 H   0  0  0  0  0  0  0  0  0  0  0  0
    0.6641    0.8763    1.9292 N   0  0  0  0  0  0  0  0  0  0  0  0
    1.5929    1.1326    3.0063 C   0  0  2  0  0  0  0  0  0  0  0  0
    2.8147    0.2484    2.7942 C   0  0  0  0  0  0  0  0  0  0  0  0
    2.7886   -0.7823    2.1249 O   0  0  0  0  0  0  0  0  0  0  0  0
    0.9566    0.8646    4.3613 C   0  0  0  0  0  0  0  0  0  0  0  0
   -0.3043    0.6791    2.1640 H   0  0  0  0  0  0  0  0  0  0  0  0
    1.8853    2.1855    2.9280 H   0  0  0  0  0  0  0  0  0  0  0  0
    0.6570   -0.1853    4.4583 H   0  0  0  0  0  0  0  0  0  0  0  0
    1.6523    1.0865    5.1772 H   0  0  0  0  0  0  0  0  0  0  0  0
    0.0610    1.4798    4.4998 H   0  0  0  0  0  0  0  0  0  0  0  0
    3.9268    0.7227    3.4757 N   0  0  0  0  0  0  0  0  0  0  0  0
    5.2056    0.0521    3.4432 C   0  0  0  0  0  0  0  0  0  0  0  0
    3.8624    1.5957    3.9908 H   0  0  0  0  0  0  0  0  0  0  0  0
    5.2773   -0.6431    4.2926 H   0  0  0  0  0  0  0  0  0  0  0  0
    5.3017   -0.5084    2.5016 H   0  0  0  0  0  0  0  0  0  0  0  0
    6.0120    0.7973    3.5103 H   0  0  0  0  0  0  0  0  0  0  0  0
 29 30  2  0  0  0  0
 27 29  1  0  0  0  0
 28 30  1  0  0  0  0
 24 27  2  0  0  0  0
 26 28  2  0  0  0  0
 22 23  2  0  0  0  0
 23 25  1  0  0  0  0
 22 24  1  0  0  0  0
 24 26  1  0  0  0  0
 21 22  1  0  0  0  0
 25 26  1  0  0  0  0
  1  3  1  0  0  0  0
  1  7  1  0  0  0  0
  1  2  2  0  0  0  0
 42 43  1  0  0  0  0
 43 51  1  0  0  0  0
 43 44  2  0  0  0  0
  8  9  1  0  0  0  0
  9 17  1  0  0  0  0
  9 10  2  0  0  0  0
 18 19  1  0  0  0  0
 19 41  1  0  0  0  0
 19 20  2  0  0  0  0
 42 45  1  0  0  0  0
  8 11  1  0  0  0  0
 51 52  1  0  0  0  0
 18 21  1  0  0  0  0
 41 42  1  0  0  0  0
  7  8  1  0  0  0  0
 17 18  1  0  0  0  0
 29 39  1  0  0  0  0
 30 40  1  0  0  0  0
 27 37  1  0  0  0  0
 28 38  1  0  0  0  0
 23 35  1  0  0  0  0
  3  4  1  0  0  0  0
  3  5  1  0  0  0  0
  3  6  1  0  0  0  0
 45 48  1  0  0  0  0
 45 49  1  0  0  0  0
 45 50  1  0  0  0  0
 11 14  1  0  0  0  0
 11 15  1  0  0  0  0
 11 16  1  0  0  0  0
 52 54  1  0  0  0  0
 52 55  1  0  0  0  0
 52 56  1  0  0  0  0
 21 33  1  0  0  0  0
 21 34  1  0  0  0  0
 42 47  1  0  0  0  0
  8 13  1  0  0  0  0
 18 32  1  0  0  0  0
 25 36  1  0  0  0  0
 51 53  1  0  0  0  0
  7 12  1  0  0  0  0
 41 46  1  0  0  0  0
 17 31  1  0  0  0  0
M  END
$$$$

  -OEChem-05262214473D

 56 57  0     1  0  0  0  0  0999 V2000
   -2.2900    0.3401    4.1553 C   0  0  0  0  0  0  0  0  0  0  0  0
   -1.3426   -0.2746    3.6796 O   0  0  0  0  0  0  0  0  0  0  0  0
   -2.7219    0.0577    5.5560 C   0  0  0  0  0  0  0  0  0  0  0  0
   -3.4815   -0.7386    5.6094 H   0  0  0  0  0  0  0  0  0  0  0  0
   -1.8906   -0.2899    6.1903 H   0  0  0  0  0  0  0  0  0  0  0  0
   -3.1599    0.9126    6.0956 H   0  0  0  0  0  0  0  0  0  0  0  0
   -3.0397    1.3125    3.5142 N   0  0  0  0  0  0  0  0  0  0  0  0
   -2.7928    1.7385    2.1618 C   0  0  2  0  0  0  0  0  0  0  0  0
   -1.4579    1.1532    1.7206 C   0  0  0  0  0  0  0  0  0  0  0  0
   -0.5858    0.8004    2.5118 O   0  0  0  0  0  0  0  0  0  0  0  0
   -2.7841    3.2553    2.0523 C   0  0  0  0  0  0  0  0  0  0  0  0
   -3.8047    1.7484    4.0260 H   0  0  0  0  0  0  0  0  0  0  0  0
   -3.5969    1.3201    1.5466 H   0  0  0  0  0  0  0  0  0  0  0  0
   -1.9850    3.6926    2.6620 H   0  0  0  0  0  0  0  0  0  0  0  0
   -2.6246    3.5776    1.0180 H   0  0  0  0  0  0  0  0  0  0  0  0
   -3.7342    3.6765    2.3981 H   0  0  0  0  0  0  0  0  0  0  0  0
   -1.3352    1.1101    0.3372 N   0  0  0  0  0  0  0  0  0  0  0  0
   -0.1579    0.6093   -0.3265 C   0  0  2  0  0  0  0  0  0  0  0  0
    1.0286    0.8861    0.5900 C   0  0  0  0  0  0  0  0  0  0  0  0
    2.0785    1.3868    0.1926 O   0  0  0  0  0  0  0  0  0  0  0  0
    0.0600    1.2673   -1.6938 C   0  0  0  0  0  0  0  0  0  0  0  0
   -1.0075    0.8996   -2.6953 C   0  0  0  0  0  0  0  0  0  0  0  0
   -2.1181    1.6529   -2.9988 C   0  0  0  0  0  0  0  0  0  0  0  0
   -1.0512   -0.2775   -3.4938 C   0  0  0  0  0  0  0  0  0  0  0  0
   -2.8363    0.9801   -3.9506 N   0  0  0  0  0  0  0  0  0  0  0  0
   -2.2083   -0.2020   -4.2721 C   0  0  0  0  0  0  0  0  0  0  0  0
   -0.2147   -1.4032   -3.6296 C   0  0  0  0  0  0  0  0  0  0  0  0
   -2.5722   -1.2001   -5.1830 C   0  0  0  0  0  0  0  0  0  0  0  0
   -0.5661   -2.4094   -4.5368 C   0  0  0  0  0  0  0  0  0  0  0  0
   -1.7272   -2.3073   -5.3006 C   0  0  0  0  0  0  0  0  0  0  0  0
   -2.1183    1.4068   -0.2401 H   0  0  0  0  0  0  0  0  0  0  0  0
   -0.2912   -0.4746   -0.4235 H   0  0  0  0  0  0  0  0  0  0  0  0
    1.0481    0.9991   -2.0919 H   0  0  0  0  0  0  0  0  0  0  0  0
    0.0766    2.3608   -1.5950 H   0  0  0  0  0  0  0  0  0  0  0  0
   -2.4632    2.6061   -2.6225 H   0  0  0  0  0  0  0  0  0  0  0  0
   -3.7023    1.3039   -4.3588 H   0  0  0  0  0  0  0  0  0  0  0  0
    0.6932   -1.4981   -3.0408 H   0  0  0  0  0  0  0  0  0  0  0  0
   -3.4752   -1.1209   -5.7787 H   0  0  0  0  0  0  0  0  0  0  0  0
    0.0748   -3.2802   -4.6455 H   0  0  0  0  0  0  0  0  0  0  0  0
   -1.9808   -3.1004   -5.9992 H   0  0  0  0  0  0  0  0  0  0  0  0
    0.7547    0.5534    1.9093 N   0  0  0  0  0  0  0  0  0  0  0  0
    1.7002    0.7373    2.9868 C   0  0  2  0  0  0  0  0  0  0  0  0
    3.0255    0.1201    2.5600 C   0  0  0  0  0  0  0  0  0  0  0  0
    3.1131   -0.7485    1.6946 O   0  0  0  0  0  0  0  0  0  0  0  0
    1.1981    0.1081    4.2770 C   0  0  0  0  0  0  0  0  0  0  0  0
   -0.1561    0.1609    2.1287 H   0  0  0  0  0  0  0  0  0  0  0  0
    1.8250    1.8178    3.1171 H   0  0  0  0  0  0  0  0  0  0  0  0
    1.0670   -0.9744    4.1659 H   0  0  0  0  0  0  0  0  0  0  0  0
    1.9024    0.2730    5.0992 H   0  0  0  0  0  0  0  0  0  0  0  0
    0.2306    0.5321    4.5666 H   0  0  0  0  0  0  0  0  0  0  0  0
    4.0941    0.6224    3.2894 N   0  0  0  0  0  0  0  0  0  0  0  0
    5.4548    0.1855    3.0803 C   0  0  0  0  0  0  0  0  0  0  0  0
    3.9314    1.3545    3.9744 H   0  0  0  0  0  0  0  0  0  0  0  0
    5.6838   -0.6433    3.7664 H   0  0  0  0  0  0  0  0  0  0  0  0
    5.5749   -0.1550    2.0413 H   0  0  0  0  0  0  0  0  0  0  0  0
    6.1422    1.0222    3.2738 H   0  0  0  0  0  0  0  0  0  0  0  0
 29 30  2  0  0  0  0
 27 29  1  0  0  0  0
 28 30  1  0  0  0  0
 24 27  2  0  0  0  0
 26 28  2  0  0  0  0
 22 23  2  0  0  0  0
 23 25  1  0  0  0  0
 22 24  1  0  0  0  0
 24 26  1  0  0  0  0
 21 22  1  0  0  0  0
 25 26  1  0  0  0  0
  1  3  1  0  0  0  0
  1  7  1  0  0  0  0
  1  2  2  0  0  0  0
 42 43  1  0  0  0  0
 43 51  1  0  0  0  0
 43 44  2  0  0  0  0
  8  9  1  0  0  0  0
  9 17  1  0  0  0  0
  9 10  2  0  0  0  0
 18 19  1  0  0  0  0
 19 41  1  0  0  0  0
 19 20  2  0  0  0  0
 42 45  1  0  0  0  0
  8 11  1  0  0  0  0
 51 52  1  0  0  0  0
 18 21  1  0  0  0  0
 41 42  1  0  0  0  0
  7  8  1  0  0  0  0
 17 18  1  0  0  0  0
 29 39  1  0  0  0  0
 30 40  1  0  0  0  0
 27 37  1  0  0  0  0
 28 38  1  0  0  0  0
 23 35  1  0  0  0  0
  3  4  1  0  0  0  0
  3  5  1  0  0  0  0
  3  6  1  0  0  0  0
 45 48  1  0  0  0  0
 45 49  1  0  0  0  0
 45 50  1  0  0  0  0
 11 14  1  0  0  0  0
 11 15  1  0  0  0  0
 11 16  1  0  0  0  0
 52 54  1  0  0  0  0
 52 55  1  0  0  0  0
 52 56  1  0  0  0  0
 21 33  1  0  0  0  0
 21 34  1  0  0  0  0
 42 47  1  0  0  0  0
  8 13  1  0  0  0  0
 18 32  1  0  0  0  0
 25 36  1  0  0  0  0
 51 53  1  0  0  0  0
  7 12  1  0  0  0  0
 41 46  1  0  0  0  0
 17 31  1  0  0  0  0
M  END
$$$$

  -OEChem-05262214473D

 56 57  0     1  0  0  0  0  0999 V2000
   -2.2900    0.3401    4.1553 C   0  0  0  0  0  0  0  0  0  0  0  0
   -1.3426   -0.2746    3.6796 O   0  0  0  0  0  0  0  0  0  0  0  0
   -2.7219    0.0577    5.5560 C   0  0  0  0  0  0  0  0  0  0  0  0
   -3.4815   -0.7386    5.6094 H   0  0  0  0  0  0  0  0  0  0  0  0
   -1.8906   -0.2899    6.1903 H   0  0  0  0  0  0  0  0  0  0  0  0
   -3.1599    0.9126    6.0956 H   0  0  0  0  0  0  0  0  0  0  0  0
   -3.0397    1.3125    3.5142 N   0  0  0  0  0  0  0  0  0  0  0  0
   -2.7928    1.7385    2.1618 C   0  0  2  0  0  0  0  0  0  0  0  0
   -1.4579    1.1532    1.7206 C   0  0  0  0  0  0  0  0  0  0  0  0
   -0.5858    0.8004    2.5118 O   0  0  0  0  0  0  0  0  0  0  0  0
   -2.7841    3.2553    2.0523 C   0  0  0  0  0  0  0  0  0  0  0  0
   -3.8047    1.7484    4.0260 H   0  0  0  0  0  0  0  0  0  0  0  0
   -3.5969    1.3201    1.5466 H   0  0  0  0  0  0  0  0  0  0  0  0
   -1.9850    3.6926    2.6620 H   0  0  0  0  0  0  0  0  0  0  0  0
   -2.6246    3.5776    1.0180 H   0  0  0  0  0  0  0  0  0  0  0  0
   -3.7342    3.6765    2.3981 H   0  0  0  0  0  0  0  0  0  0  0  0
   -1.3352    1.1101    0.3372 N   0  0  0  0  0  0  0  0  0  0  0  0
   -0.1579    0.6093   -0.3265 C   0  0  2  0  0  0  0  0  0  0  0  0
    1.0286    0.8861    0.5900 C   0  0  0  0  0  0  0  0  0  0  0  0
    1.9638    1.6173    0.2714 O   0  0  0  0  0  0  0  0  0  0  0  0
    0.0600    1.2673   -1.6938 C   0  0  0  0  0  0  0  0  0  0  0  0
   -1.0075    0.8996   -2.6953 C   0  0  0  0  0  0  0  0  0  0  0  0
   -2.1181    1.6529   -2.9988 C   0  0  0  0  0  0  0  0  0  0  0  0
   -1.0512   -0.2775   -3.4938 C   0  0  0  0  0  0  0  0  0  0  0  0
   -2.8363    0.9801   -3.9506 N   0  0  0  0  0  0  0  0  0  0  0  0
   -2.2083   -0.2020   -4.2721 C   0  0  0  0  0  0  0  0  0  0  0  0
   -0.2147   -1.4032   -3.6296 C   0  0  0  0  0  0  0  0  0  0  0  0
   -2.5722   -1.2001   -5.1830 C   0  0  0  0  0  0  0  0  0  0  0  0
   -0.5661   -2.4094   -4.5368 C   0  0  0  0  0  0  0  0  0  0  0  0
   -1.7272   -2.3073   -5.3006 C   0  0  0  0  0  0  0  0  0  0  0  0
   -2.1183    1.4068   -0.2401 H   0  0  0  0  0  0  0  0  0  0  0  0
   -0.2912   -0.4746   -0.4235 H   0  0  0  0  0  0  0  0  0  0  0  0
    1.0481    0.9991   -2.0919 H   0  0  0  0  0  0  0  0  0  0  0  0
    0.0766    2.3608   -1.5950 H   0  0  0  0  0  0  0  0  0  0  0  0
   -2.4632    2.6061   -2.6225 H   0  0  0  0  0  0  0  0  0  0  0  0
   -3.7023    1.3039   -4.3588 H   0  0  0  0  0  0  0  0  0  0  0  0
    0.6932   -1.4981   -3.0408 H   0  0  0  0  0  0  0  0  0  0  0  0
   -3.4752   -1.1209   -5.7787 H   0  0  0  0  0  0  0  0  0  0  0  0
    0.0748   -3.2802   -4.6455 H   0  0  0  0  0  0  0  0  0  0  0  0
   -1.9808   -3.1004   -5.9992 H   0  0  0  0  0  0  0  0  0  0  0  0
    0.8916    0.2596    1.8209 N   0  0  0  0  0  0  0  0  0  0  0  0
    1.8645    0.3761    2.8833 C   0  0  2  0  0  0  0  0  0  0  0  0
    3.2382    0.0762    2.2980 C   0  0  0  0  0  0  0  0  0  0  0  0
    3.4011   -0.5787    1.2705 O   0  0  0  0  0  0  0  0  0  0  0  0
    1.5452   -0.5680    4.0319 C   0  0  0  0  0  0  0  0  0  0  0  0
    0.0660   -0.3094    1.9832 H   0  0  0  0  0  0  0  0  0  0  0  0
    1.8329    1.4152    3.2285 H   0  0  0  0  0  0  0  0  0  0  0  0
    1.5721   -1.6139    3.7052 H   0  0  0  0  0  0  0  0  0  0  0  0
    2.2668   -0.4581    4.8481 H   0  0  0  0  0  0  0  0  0  0  0  0
    0.5449   -0.3705    4.4322 H   0  0  0  0  0  0  0  0  0  0  0  0
    4.2625    0.5891    3.0813 N   0  0  0  0  0  0  0  0  0  0  0  0
    5.6576    0.4262    2.7450 C   0  0  0  0  0  0  0  0  0  0  0  0
    4.0347    1.1356    3.9067 H   0  0  0  0  0  0  0  0  0  0  0  0
    6.0517   -0.4742    3.2390 H   0  0  0  0  0  0  0  0  0  0  0  0
    5.7621    0.3216    1.6549 H   0  0  0  0  0  0  0  0  0  0  0  0
    6.2219    1.3073    3.0845 H   0  0  0  0  0  0  0  0  0  0  0  0
 29 30  2  0  0  0  0
 27 29  1  0  0  0  0
 28 30  1  0  0  0  0
 24 27  2  0  0  0  0
 26 28  2  0  0  0  0
 22 23  2  0  0  0  0
 23 25  1  0  0  0  0
 22 24  1  0  0  0  0
 24 26  1  0  0  0  0
 21 22  1  0  0  0  0
 25 26  1  0  0  0  0
  1  3  1  0  0  0  0
  1  7  1  0  0  0  0
  1  2  2  0  0  0  0
 42 43  1  0  0  0  0
 43 51  1  0  0  0  0
 43 44  2  0  0  0  0
  8  9  1  0  0  0  0
  9 17  1  0  0  0  0
  9 10  2  0  0  0  0
 18 19  1  0  0  0  0
 19 41  1  0  0  0  0
 19 20  2  0  0  0  0
 42 45  1  0  0  0  0
  8 11  1  0  0  0  0
 51 52  1  0  0  0  0
 18 21  1  0  0  0  0
 41 42  1  0  0  0  0
  7  8  1  0  0  0  0
 17 18  1  0  0  0  0
 29 39  1  0  0  0  0
 30 40  1  0  0  0  0
 27 37  1  0  0  0  0
 28 38  1  0  0  0  0
 23 35  1  0  0  0  0
  3  4  1  0  0  0  0
  3  5  1  0  0  0  0
  3  6  1  0  0  0  0
 45 48  1  0  0  0  0
 45 49  1  0  0  0  0
 45 50  1  0  0  0  0
 11 14  1  0  0  0  0
 11 15  1  0  0  0  0
 11 16  1  0  0  0  0
 52 54  1  0  0  0  0
 52 55  1  0  0  0  0
 52 56  1  0  0  0  0
 21 33  1  0  0  0  0
 21 34  1  0  0  0  0
 42 47  1  0  0  0  0
  8 13  1  0  0  0  0
 18 32  1  0  0  0  0
 25 36  1  0  0  0  0
 51 53  1  0  0  0  0
  7 12  1  0  0  0  0
 41 46  1  0  0  0  0
 17 31  1  0  0  0  0
M  END
$$$$

  -OEChem-05262214473D

 56 57  0     1  0  0  0  0  0999 V2000
   -2.2900    0.3401    4.1553 C   0  0  0  0  0  0  0  0  0  0  0  0
   -1.3426   -0.2746    3.6796 O   0  0  0  0  0  0  0  0  0  0  0  0
   -2.7219    0.0577    5.5560 C   0  0  0  0  0  0  0  0  0  0  0  0
   -3.4815   -0.7386    5.6094 H   0  0  0  0  0  0  0  0  0  0  0  0
   -1.8906   -0.2899    6.1903 H   0  0  0  0  0  0  0  0  0  0  0  0
   -3.1599    0.9126    6.0956 H   0  0  0  0  0  0  0  0  0  0  0  0
   -3.0397    1.3125    3.5142 N   0  0  0  0  0  0  0  0  0  0  0  0
   -2.7928    1.7385    2.1618 C   0  0  2  0  0  0  0  0  0  0  0  0
   -1.4579    1.1532    1.7206 C   0  0  0  0  0  0  0  0  0  0  0  0
   -0.5858    0.8004    2.5118 O   0  0  0  0  0  0  0  0  0  0  0  0
   -2.7841    3.2553    2.0523 C   0  0  0  0  0  0  0  0  0  0  0  0
   -3.8047    1.7484    4.0260 H   0  0  0  0  0  0  0  0  0  0  0  0
   -3.5969    1.3201    1.5466 H   0  0  0  0  0  0  0  0  0  0  0  0
   -1.9850    3.6926    2.6620 H   0  0  0  0  0  0  0  0  0  0  0  0
   -2.6246    3.5776    1.0180 H   0  0  0  0  0  0  0  0  0  0  0  0
   -3.7342    3.6765    2.3981 H   0  0  0  0  0  0  0  0  0  0  0  0
   -1.3352    1.1101    0.3372 N   0  0  0  0  0  0  0  0  0  0  0  0
   -0.1579    0.6093   -0.3265 C   0  0  2  0  0  0  0  0  0  0  0  0
    1.0286    0.8861    0.5900 C   0  0  0  0  0  0  0  0  0  0  0  0
    1.8210    1.8062    0.3993 O   0  0  0  0  0  0  0  0  0  0  0  0
    0.0600    1.2673   -1.6938 C   0  0  0  0  0  0  0  0  0  0  0  0
   -1.0075    0.8996   -2.6953 C   0  0  0  0  0  0  0  0  0  0  0  0
   -2.1181    1.6529   -2.9988 C   0  0  0  0  0  0  0  0  0  0  0  0
   -1.0512   -0.2775   -3.4938 C   0  0  0  0  0  0  0  0  0  0  0  0
   -2.8363    0.9801   -3.9506 N   0  0  0  0  0  0  0  0  0  0  0  0
   -2.2083   -0.2020   -4.2721 C   0  0  0  0  0  0  0  0  0  0  0  0
   -0.2147   -1.4032   -3.6296 C   0  0  0  0  0  0  0  0  0  0  0  0
   -2.5722   -1.2001   -5.1830 C   0  0  0  0  0  0  0  0  0  0  0  0
   -0.5661   -2.4094   -4.5368 C   0  0  0  0  0  0  0  0  0  0  0  0
   -1.7272   -2.3073   -5.3006 C   0  0  0  0  0  0  0  0  0  0  0  0
   -2.1183    1.4068   -0.2401 H   0  0  0  0  0  0  0  0  0  0  0  0
   -0.2912   -0.4746   -0.4235 H   0  0  0  0  0  0  0  0  0  0  0  0
    1.0481    0.9991   -2.0919 H   0  0  0  0  0  0  0  0  0  0  0  0
    0.0766    2.3608   -1.5950 H   0  0  0  0  0  0  0  0  0  0  0  0
   -2.4632    2.6061   -2.6225 H   0  0  0  0  0  0  0  0  0  0  0  0
   -3.7023    1.3039   -4.3588 H   0  0  0  0  0  0  0  0  0  0  0  0
    0.6932   -1.4981   -3.0408 H   0  0  0  0  0  0  0  0  0  0  0  0
   -3.4752   -1.1209   -5.7787 H   0  0  0  0  0  0  0  0  0  0  0  0
    0.0748   -3.2802   -4.6455 H   0  0  0  0  0  0  0  0  0  0  0  0
   -1.9808   -3.1004   -5.9992 H   0  0  0  0  0  0  0  0  0  0  0  0
    1.0653    0.0149    1.6698 N   0  0  0  0  0  0  0  0  0  0  0  0
    2.0745    0.0736    2.7028 C   0  0  2  0  0  0  0  0  0  0  0  0
    3.4381    0.1196    2.0260 C   0  0  0  0  0  0  0  0  0  0  0  0
    3.6329   -0.2844    0.8815 O   0  0  0  0  0  0  0  0  0  0  0  0
    1.9741   -1.1177    3.6427 C   0  0  0  0  0  0  0  0  0  0  0  0
    0.3468   -0.6999    1.7375 H   0  0  0  0  0  0  0  0  0  0  0  0
    1.9084    1.0052    3.2546 H   0  0  0  0  0  0  0  0  0  0  0  0
    2.1377   -2.0603    3.1076 H   0  0  0  0  0  0  0  0  0  0  0  0
    2.7208   -1.0571    4.4413 H   0  0  0  0  0  0  0  0  0  0  0  0
    0.9827   -1.1663    4.1058 H   0  0  0  0  0  0  0  0  0  0  0  0
    4.4207    0.6251    2.8658 N   0  0  0  0  0  0  0  0  0  0  0  0
    5.8004    0.7578    2.4600 C   0  0  0  0  0  0  0  0  0  0  0  0
    4.1654    0.9538    3.7924 H   0  0  0  0  0  0  0  0  0  0  0  0
    6.3561   -0.1474    2.7463 H   0  0  0  0  0  0  0  0  0  0  0  0
    5.8506    0.8889    1.3690 H   0  0  0  0  0  0  0  0  0  0  0  0
    6.2456    1.6332    2.9554 H   0  0  0  0  0  0  0  0  0  0  0  0
 29 30  2  0  0  0  0
 27 29  1  0  0  0  0
 28 30  1  0  0  0  0
 24 27  2  0  0  0  0
 26 28  2  0  0  0  0
 22 23  2  0  0  0  0
 23 25  1  0  0  0  0
 22 24  1  0  0  0  0
 24 26  1  0  0  0  0
 21 22  1  0  0  0  0
 25 26  1  0  0  0  0
  1  3  1  0  0  0  0
  1  7  1  0  0  0  0
  1  2  2  0  0  0  0
 42 43  1  0  0  0  0
 43 51  1  0  0  0  0
 43 44  2  0  0  0  0
  8  9  1  0  0  0  0
  9 17  1  0  0  0  0
  9 10  2  0  0  0  0
 18 19  1  0  0  0  0
 19 41  1  0  0  0  0
 19 20  2  0  0  0  0
 42 45  1  0  0  0  0
  8 11  1  0  0  0  0
 51 52  1  0  0  0  0
 18 21  1  0  0  0  0
 41 42  1  0  0  0  0
  7  8  1  0  0  0  0
 17 18  1  0  0  0  0
 29 39  1  0  0  0  0
 30 40  1  0  0  0  0
 27 37  1  0  0  0  0
 28 38  1  0  0  0  0
 23 35  1  0  0  0  0
  3  4  1  0  0  0  0
  3  5  1  0  0  0  0
  3  6  1  0  0  0  0
 45 48  1  0  0  0  0
 45 49  1  0  0  0  0
 45 50  1  0  0  0  0
 11 14  1  0  0  0  0
 11 15  1  0  0  0  0
 11 16  1  0  0  0  0
 52 54  1  0  0  0  0
 52 55  1  0  0  0  0
 52 56  1  0  0  0  0
 21 33  1  0  0  0  0
 21 34  1  0  0  0  0
 42 47  1  0  0  0  0
  8 13  1  0  0  0  0
 18 32  1  0  0  0  0
 25 36  1  0  0  0  0
 51 53  1  0  0  0  0
  7 12  1  0  0  0  0
 41 46  1  0  0  0  0
 17 31  1  0  0  0  0
M  END
$$$$

  -OEChem-05262214473D

 56 57  0     1  0  0  0  0  0999 V2000
   -2.2900    0.3401    4.1553 C   0  0  0  0  0  0  0  0  0  0  0  0
   -1.3426   -0.2746    3.6796 O   0  0  0  0  0  0  0  0  0  0  0  0
   -2.7219    0.0577    5.5560 C   0  0  0  0  0  0  0  0  0  0  0  0
   -3.4815   -0.7386    5.6094 H   0  0  0  0  0  0  0  0  0  0  0  0
   -1.8906   -0.2899    6.1903 H   0  0  0  0  0  0  0  0  0  0  0  0
   -3.1599    0.9126    6.0956 H   0  0  0  0  0  0  0  0  0  0  0  0
   -3.0397    1.3125    3.5142 N   0  0  0  0  0  0  0  0  0  0  0  0
   -2.7928    1.7385    2.1618 C   0  0  2  0  0  0  0  0  0  0  0  0
   -1.4579    1.1532    1.7206 C   0  0  0  0  0  0  0  0  0  0  0  0
   -0.5858    0.8004    2.5118 O   0  0  0  0  0  0  0  0  0  0  0  0
   -2.7841    3.2553    2.0523 C   0  0  0  0  0  0  0  0  0  0  0  0
   -3.8047    1.7484    4.0260 H   0  0  0  0  0  0  0  0  0  0  0  0
   -3.5969    1.3201    1.5466 H   0  0  0  0  0  0  0  0  0  0  0  0
   -1.9850    3.6926    2.6620 H   0  0  0  0  0  0  0  0  0  0  0  0
   -2.6246    3.5776    1.0180 H   0  0  0  0  0  0  0  0  0  0  0  0
   -3.7342    3.6765    2.3981 H   0  0  0  0  0  0  0  0  0  0  0  0
   -1.3352    1.1101    0.3372 N   0  0  0  0  0  0  0  0  0  0  0  0
   -0.1579    0.6093   -0.3265 C   0  0  2  0  0  0  0  0  0  0  0  0
    1.0286    0.8861    0.5900 C   0  0  0  0  0  0  0  0  0  0  0  0
    1.6596    1.9407    0.5676 O   0  0  0  0  0  0  0  0  0  0  0  0
    0.0600    1.2673   -1.6938 C   0  0  0  0  0  0  0  0  0  0  0  0
   -1.0075    0.8996   -2.6953 C   0  0  0  0  0  0  0  0  0  0  0  0
   -2.1181    1.6529   -2.9988 C   0  0  0  0  0  0  0  0  0  0  0  0
   -1.0512   -0.2775   -3.4938 C   0  0  0  0  0  0  0  0  0  0  0  0
   -2.8363    0.9801   -3.9506 N   0  0  0  0  0  0  0  0  0  0  0  0
   -2.2083   -0.2020   -4.2721 C   0  0  0  0  0  0  0  0  0  0  0  0
   -0.2147   -1.4032   -3.6296 C   0  0  0  0  0  0  0  0  0  0  0  0
   -2.5722   -1.2001   -5.1830 C   0  0  0  0  0  0  0  0  0  0  0  0
   -0.5661   -2.4094   -4.5368 C   0  0  0  0  0  0  0  0  0  0  0  0
   -1.7272   -2.3073   -5.3006 C   0  0  0  0  0  0  0  0  0  0  0  0
   -2.1183    1.4068   -0.2401 H   0  0  0  0  0  0  0  0  0  0  0  0
   -0.2912   -0.4746   -0.4235 H   0  0  0  0  0  0  0  0  0  0  0  0
    1.0481    0.9991   -2.0919 H   0  0  0  0  0  0  0  0  0  0  0  0
    0.0766    2.3608   -1.5950 H   0  0  0  0  0  0  0  0  0  0  0  0
   -2.4632    2.6061   -2.6225 H   0  0  0  0  0  0  0  0  0  0  0  0
   -3.7023    1.3039   -4.3588 H   0  0  0  0  0  0  0  0  0  0  0  0
    0.6932   -1.4981   -3.0408 H   0  0  0  0  0  0  0  0  0  0  0  0
   -3.4752   -1.1209   -5.7787 H   0  0  0  0  0  0  0  0  0  0  0  0
    0.0748   -3.2802   -4.6455 H   0  0  0  0  0  0  0  0  0  0  0  0
   -1.9808   -3.1004   -5.9992 H   0  0  0  0  0  0  0  0  0  0  0  0
    1.2642   -0.1640    1.4665 N   0  0  0  0  0  0  0  0  0  0  0  0
    2.3159   -0.1496    2.4576 C   0  0  2  0  0  0  0  0  0  0  0  0
    3.6116    0.2474    1.7627 C   0  0  0  0  0  0  0  0  0  0  0  0
    3.7927    0.1143    0.5542 O   0  0  0  0  0  0  0  0  0  0  0  0
    2.4556   -1.5036    3.1358 C   0  0  0  0  0  0  0  0  0  0  0  0
    0.6673   -0.9839    1.4084 H   0  0  0  0  0  0  0  0  0  0  0  0
    2.0463    0.6155    3.1938 H   0  0  0  0  0  0  0  0  0  0  0  0
    2.7255   -2.2831    2.4140 H   0  0  0  0  0  0  0  0  0  0  0  0
    3.2334   -1.4831    3.9063 H   0  0  0  0  0  0  0  0  0  0  0  0
    1.5140   -1.8011    3.6097 H   0  0  0  0  0  0  0  0  0  0  0  0
    4.5577    0.7278    2.6574 N   0  0  0  0  0  0  0  0  0  0  0  0
    5.8733    1.1577    2.2448 C   0  0  0  0  0  0  0  0  0  0  0  0
    4.3146    0.8216    3.6392 H   0  0  0  0  0  0  0  0  0  0  0  0
    6.5760    0.3149    2.3220 H   0  0  0  0  0  0  0  0  0  0  0  0
    5.8344    1.5082    1.2029 H   0  0  0  0  0  0  0  0  0  0  0  0
    6.2117    1.9777    2.8952 H   0  0  0  0  0  0  0  0  0  0  0  0
 29 30  2  0  0  0  0
 27 29  1  0  0  0  0
 28 30  1  0  0  0  0
 24 27  2  0  0  0  0
 26 28  2  0  0  0  0
 22 23  2  0  0  0  0
 23 25  1  0  0  0  0
 22 24  1  0  0  0  0
 24 26  1  0  0  0  0
 21 22  1  0  0  0  0
 25 26  1  0  0  0  0
  1  3  1  0  0  0  0
  1  7  1  0  0  0  0
  1  2  2  0  0  0  0
 42 43  1  0  0  0  0
 43 51  1  0  0  0  0
 43 44  2  0  0  0  0
  8  9  1  0  0  0  0
  9 17  1  0  0  0  0
  9 10  2  0  0  0  0
 18 19  1  0  0  0  0
 19 41  1  0  0  0  0
 19 20  2  0  0  0  0
 42 45  1  0  0  0  0
  8 11  1  0  0  0  0
 51 52  1  0  0  0  0
 18 21  1  0  0  0  0
 41 42  1  0  0  0  0
  7  8  1  0  0  0  0
 17 18  1  0  0  0  0
 29 39  1  0  0  0  0
 30 40  1  0  0  0  0
 27 37  1  0  0  0  0
 28 38  1  0  0  0  0
 23 35  1  0  0  0  0
  3  4  1  0  0  0  0
  3  5  1  0  0  0  0
  3  6  1  0  0  0  0
 45 48  1  0  0  0  0
 45 49  1  0  0  0  0
 45 50  1  0  0  0  0
 11 14  1  0  0  0  0
 11 15  1  0  0  0  0
 11 16  1  0  0  0  0
 52 54  1  0  0  0  0
 52 55  1  0  0  0  0
 52 56  1  0  0  0  0
 21 33  1  0  0  0  0
 21 34  1  0  0  0  0
 42 47  1  0  0  0  0
  8 13  1  0  0  0  0
 18 32  1  0  0  0  0
 25 36  1  0  0  0  0
 51 53  1  0  0  0  0
  7 12  1  0  0  0  0
 41 46  1  0  0  0  0
 17 31  1  0  0  0  0
M  END
$$$$

  -OEChem-05262214473D

 56 57  0     1  0  0  0  0  0999 V2000
   -2.2900    0.3401    4.1553 C   0  0  0  0  0  0  0  0  0  0  0  0
   -1.3426   -0.2746    3.6796 O   0  0  0  0  0  0  0  0  0  0  0  0
   -2.7219    0.0577    5.5560 C   0  0  0  0  0  0  0  0  0  0  0  0
   -3.4815   -0.7386    5.6094 H   0  0  0  0  0  0  0  0  0  0  0  0
   -1.8906   -0.2899    6.1903 H   0  0  0  0  0  0  0  0  0  0  0  0
   -3.1599    0.9126    6.0956 H   0  0  0  0  0  0  0  0  0  0  0  0
   -3.0397    1.3125    3.5142 N   0  0  0  0  0  0  0  0  0  0  0  0
   -2.7928    1.7385    2.1618 C   0  0  2  0  0  0  0  0  0  0  0  0
   -1.4579    1.1532    1.7206 C   0  0  0  0  0  0  0  0  0  0  0  0
   -0.5858    0.8004    2.5118 O   0  0  0  0  0  0  0  0  0  0  0  0
   -2.7841    3.2553    2.0523 C   0  0  0  0  0  0  0  0  0  0  0  0
   -3.8047    1.7484    4.0260 H   0  0  0  0  0  0  0  0  0  0  0  0
   -3.5969    1.3201    1.5466 H   0  0  0  0  0  0  0  0  0  0  0  0
   -1.9850    3.6926    2.6620 H   0  0  0  0  0  0  0  0  0  0  0  0
   -2.6246    3.5776    1.0180 H   0  0  0  0  0  0  0  0  0  0  0  0
   -3.7342    3.6765    2.3981 H   0  0  0  0  0  0  0  0  0  0  0  0
   -1.3352    1.1101    0.3372 N   0  0  0  0  0  0  0  0  0  0  0  0
   -0.1579    0.6093   -0.3265 C   0  0  2  0  0  0  0  0  0  0  0  0
    1.0286    0.8861    0.5900 C   0  0  0  0  0  0  0  0  0  0  0  0
    1.4907    2.0116    0.7648 O   0  0  0  0  0  0  0  0  0  0  0  0
    0.0600    1.2673   -1.6938 C   0  0  0  0  0  0  0  0  0  0  0  0
   -1.0075    0.8996   -2.6953 C   0  0  0  0  0  0  0  0  0  0  0  0
   -2.1181    1.6529   -2.9988 C   0  0  0  0  0  0  0  0  0  0  0  0
   -1.0512   -0.2775   -3.4938 C   0  0  0  0  0  0  0  0  0  0  0  0
   -2.8363    0.9801   -3.9506 N   0  0  0  0  0  0  0  0  0  0  0  0
   -2.2083   -0.2020   -4.2721 C   0  0  0  0  0  0  0  0  0  0  0  0
   -0.2147   -1.4032   -3.6296 C   0  0  0  0  0  0  0  0  0  0  0  0
   -2.5722   -1.2001   -5.1830 C   0  0  0  0  0  0  0  0  0  0  0  0
   -0.5661   -2.4094   -4.5368 C   0  0  0  0  0  0  0  0  0  0  0  0
   -1.7272   -2.3073   -5.3006 C   0  0  0  0  0  0  0  0  0  0  0  0
   -2.1183    1.4068   -0.2401 H   0  0  0  0  0  0  0  0  0  0  0  0
   -0.2912   -0.4746   -0.4235 H   0  0  0  0  0  0  0  0  0  0  0  0
    1.0481    0.9991   -2.0919 H   0  0  0  0  0  0  0  0  0  0  0  0
    0.0766    2.3608   -1.5950 H   0  0  0  0  0  0  0  0  0  0  0  0
   -2.4632    2.6061   -2.6225 H   0  0  0  0  0  0  0  0  0  0  0  0
   -3.7023    1.3039   -4.3588 H   0  0  0  0  0  0  0  0  0  0  0  0
    0.6932   -1.4981   -3.0408 H   0  0  0  0  0  0  0  0  0  0  0  0
   -3.4752   -1.1209   -5.7787 H   0  0  0  0  0  0  0  0  0  0  0  0
    0.0748   -3.2802   -4.6455 H   0  0  0  0  0  0  0  0  0  0  0  0
   -1.9808   -3.1004   -5.9992 H   0  0  0  0  0  0  0  0  0  0  0  0
    1.4745   -0.2649    1.2246 N   0  0  0  0  0  0  0  0  0  0  0  0
    2.5723   -0.2783    2.1645 C   0  0  2  0  0  0  0  0  0  0  0  0
    3.7470    0.4509    1.5260 C   0  0  0  0  0  0  0  0  0  0  0  0
    3.8697    0.5901    0.3108 O   0  0  0  0  0  0  0  0  0  0  0  0
    2.9570   -1.6993    2.5459 C   0  0  0  0  0  0  0  0  0  0  0  0
    1.0056   -1.1420    1.0182 H   0  0  0  0  0  0  0  0  0  0  0  0
    2.2373    0.2729    3.0500 H   0  0  0  0  0  0  0  0  0  0  0  0
    3.2953   -2.2671    1.6714 H   0  0  0  0  0  0  0  0  0  0  0  0
    3.7697   -1.7070    3.2796 H   0  0  0  0  0  0  0  0  0  0  0  0
    2.1027   -2.2318    2.9777 H   0  0  0  0  0  0  0  0  0  0  0  0
    4.6642    0.8903    2.4703 N   0  0  0  0  0  0  0  0  0  0  0  0
    5.8714    1.5986    2.1141 C   0  0  0  0  0  0  0  0  0  0  0  0
    4.4721    0.7479    3.4575 H   0  0  0  0  0  0  0  0  0  0  0  0
    6.6966    0.8811    1.9948 H   0  0  0  0  0  0  0  0  0  0  0  0
    5.7146    2.1374    1.1679 H   0  0  0  0  0  0  0  0  0  0  0  0
    6.1226    2.3174    2.9080 H   0  0  0  0  0  0  0  0  0  0  0  0
 29 30  2  0  0  0  0
 27 29  1  0  0  0  0
 28 30  1  0  0  0  0
 24 27  2  0  0  0  0
 26 28  2  0  0  0  0
 22 23  2  0  0  0  0
 23 25  1  0  0  0  0
 22 24  1  0  0  0  0
 24 26  1  0  0  0  0
 21 22  1  0  0  0  0
 25 26  1  0  0  0  0
  1  3  1  0  0  0  0
  1  7  1  0  0  0  0
  1  2  2  0  0  0  0
 42 43  1  0  0  0  0
 43 51  1  0  0  0  0
 43 44  2  0  0  0  0
  8  9  1  0  0  0  0
  9 17  1  0  0  0  0
  9 10  2  0  0  0  0
 18 19  1  0  0  0  0
 19 41  1  0  0  0  0
 19 20  2  0  0  0  0
 42 45  1  0  0  0  0
  8 11  1  0  0  0  0
 51 52  1  0  0  0  0
 18 21  1  0  0  0  0
 41 42  1  0  0  0  0
  7  8  1  0  0  0  0
 17 18  1  0  0  0  0
 29 39  1  0  0  0  0
 30 40  1  0  0  0  0
 27 37  1  0  0  0  0
 28 38  1  0  0  0  0
 23 35  1  0  0  0  0
  3  4  1  0  0  0  0
  3  5  1  0  0  0  0
  3  6  1  0  0  0  0
 45 48  1  0  0  0  0
 45 49  1  0  0  0  0
 45 50  1  0  0  0  0
 11 14  1  0  0  0  0
 11 15  1  0  0  0  0
 11 16  1  0  0  0  0
 52 54  1  0  0  0  0
 52 55  1  0  0  0  0
 52 56  1  0  0  0  0
 21 33  1  0  0  0  0
 21 34  1  0  0  0  0
 42 47  1  0  0  0  0
  8 13  1  0  0  0  0
 18 32  1  0  0  0  0
 25 36  1  0  0  0  0
 51 53  1  0  0  0  0
  7 12  1  0  0  0  0
 41 46  1  0  0  0  0
 17 31  1  0  0  0  0
M  END
$$$$

  -OEChem-05262214473D

 56 57  0     1  0  0  0  0  0999 V2000
   -2.2900    0.3401    4.1553 C   0  0  0  0  0  0  0  0  0  0  0  0
   -1.3426   -0.2746    3.6796 O   0  0  0  0  0  0  0  0  0  0  0  0
   -2.7219    0.0577    5.5560 C   0  0  0  0  0  0  0  0  0  0  0  0
   -3.4815   -0.7386    5.6094 H   0  0  0  0  0  0  0  0  0  0  0  0
   -1.8906   -0.2899    6.1903 H   0  0  0  0  0  0  0  0  0  0  0  0
   -3.1599    0.9126    6.0956 H   0  0  0  0  0  0  0  0  0  0  0  0
   -3.0397    1.3125    3.5142 N   0  0  0  0  0  0  0  0  0  0  0  0
   -2.7928    1.7385    2.1618 C   0  0  2  0  0  0  0  0  0  0  0  0
   -1.4579    1.1532    1.7206 C   0  0  0  0  0  0  0  0  0  0  0  0
   -0.5858    0.8004    2.5118 O   0  0  0  0  0  0  0  0  0  0  0  0
   -2.7841    3.2553    2.0523 C   0  0  0  0  0  0  0  0  0  0  0  0
   -3.8047    1.7484    4.0260 H   0  0  0  0  0  0  0  0  0  0  0  0
   -3.5969    1.3201    1.5466 H   0  0  0  0  0  0  0  0  0  0  0  0
   -1.9850    3.6926    2.6620 H   0  0  0  0  0  0  0  0  0  0  0  0
   -2.6246    3.5776    1.0180 H   0  0  0  0  0  0  0  0  0  0  0  0
   -3.7342    3.6765    2.3981 H   0  0  0  0  0  0  0  0  0  0  0  0
   -1.3352    1.1101    0.3372 N   0  0  0  0  0  0  0  0  0  0  0  0
   -0.1579    0.6093   -0.3265 C   0  0  2  0  0  0  0  0  0  0  0  0
    1.0286    0.8861    0.5900 C   0  0  0  0  0  0  0  0  0  0  0  0
    1.3258    2.0141    0.9775 O   0  0  0  0  0  0  0  0  0  0  0  0
    0.0600    1.2673   -1.6938 C   0  0  0  0  0  0  0  0  0  0  0  0
   -1.0075    0.8996   -2.6953 C   0  0  0  0  0  0  0  0  0  0  0  0
   -2.1181    1.6529   -2.9988 C   0  0  0  0  0  0  0  0  0  0  0  0
   -1.0512   -0.2775   -3.4938 C   0  0  0  0  0  0  0  0  0  0  0  0
   -2.8363    0.9801   -3.9506 N   0  0  0  0  0  0  0  0  0  0  0  0
   -2.2083   -0.2020   -4.2721 C   0  0  0  0  0  0  0  0  0  0  0  0
   -0.2147   -1.4032   -3.6296 C   0  0  0  0  0  0  0  0  0  0  0  0
   -2.5722   -1.2001   -5.1830 C   0  0  0  0  0  0  0  0  0  0  0  0
   -0.5661   -2.4094   -4.5368 C   0  0  0  0  0  0  0  0  0  0  0  0
   -1.7272   -2.3073   -5.3006 C   0  0  0  0  0  0  0  0  0  0  0  0
   -2.1183    1.4068   -0.2401 H   0  0  0  0  0  0  0  0  0  0  0  0
   -0.2912   -0.4746   -0.4235 H   0  0  0  0  0  0  0  0  0  0  0  0
    1.0481    0.9991   -2.0919 H   0  0  0  0  0  0  0  0  0  0  0  0
    0.0766    2.3608   -1.5950 H   0  0  0  0  0  0  0  0  0  0  0  0
   -2.4632    2.6061   -2.6225 H   0  0  0  0  0  0  0  0  0  0  0  0
   -3.7023    1.3039   -4.3588 H   0  0  0  0  0  0  0  0  0  0  0  0
    0.6932   -1.4981   -3.0408 H   0  0  0  0  0  0  0  0  0  0  0  0
   -3.4752   -1.1209   -5.7787 H   0  0  0  0  0  0  0  0  0  0  0  0
    0.0748   -3.2802   -4.6455 H   0  0  0  0  0  0  0  0  0  0  0  0
   -1.9808   -3.1004   -5.9992 H   0  0  0  0  0  0  0  0  0  0  0  0
    1.6820   -0.2809    0.9609 N   0  0  0  0  0  0  0  0  0  0  0  0
    2.8262   -0.3036    1.8435 C   0  0  2  0  0  0  0  0  0  0  0  0
    3.8350    0.7162    1.3319 C   0  0  0  0  0  0  0  0  0  0  0  0
    3.8586    1.1108    0.1679 O   0  0  0  0  0  0  0  0  0  0  0  0
    3.4439   -1.6915    1.9131 C   0  0  0  0  0  0  0  0  0  0  0  0
    1.3387   -1.1635    0.5935 H   0  0  0  0  0  0  0  0  0  0  0  0
    2.4683    0.0006    2.8331 H   0  0  0  0  0  0  0  0  0  0  0  0
    3.8083   -2.0134    0.9307 H   0  0  0  0  0  0  0  0  0  0  0  0
    4.2931   -1.7136    2.6040 H   0  0  0  0  0  0  0  0  0  0  0  0
    2.7086   -2.4288    2.2527 H   0  0  0  0  0  0  0  0  0  0  0  0
    4.7331    1.1016    2.3174 N   0  0  0  0  0  0  0  0  0  0  0  0
    5.7948    2.0506    2.0767 C   0  0  0  0  0  0  0  0  0  0  0  0
    4.6271    0.7379    3.2599 H   0  0  0  0  0  0  0  0  0  0  0  0
    6.7096    1.5126    1.7872 H   0  0  0  0  0  0  0  0  0  0  0  0
    5.4994    2.7335    1.2666 H   0  0  0  0  0  0  0  0  0  0  0  0
    5.9842    2.6290    2.9930 H   0  0  0  0  0  0  0  0  0  0  0  0
 29 30  2  0  0  0  0
 27 29  1  0  0  0  0
 28 30  1  0  0  0  0
 24 27  2  0  0  0  0
 26 28  2  0  0  0  0
 22 23  2  0  0  0  0
 23 25  1  0  0  0  0
 22 24  1  0  0  0  0
 24 26  1  0  0  0  0
 21 22  1  0  0  0  0
 25 26  1  0  0  0  0
  1  3  1  0  0  0  0
  1  7  1  0  0  0  0
  1  2  2  0  0  0  0
 42 43  1  0  0  0  0
 43 51  1  0  0  0  0
 43 44  2  0  0  0  0
  8  9  1  0  0  0  0
  9 17  1  0  0  0  0
  9 10  2  0  0  0  0
 18 19  1  0  0  0  0
 19 41  1  0  0  0  0
 19 20  2  0  0  0  0
 42 45  1  0  0  0  0
  8 11  1  0  0  0  0
 51 52  1  0  0  0  0
 18 21  1  0  0  0  0
 41 42  1  0  0  0  0
  7  8  1  0  0  0  0
 17 18  1  0  0  0  0
 29 39  1  0  0  0  0
 30 40  1  0  0  0  0
 27 37  1  0  0  0  0
 28 38  1  0  0  0  0
 23 35  1  0  0  0  0
  3  4  1  0  0  0  0
  3  5  1  0  0  0  0
  3  6  1  0  0  0  0
 45 48  1  0  0  0  0
 45 49  1  0  0  0  0
 45 50  1  0  0  0  0
 11 14  1  0  0  0  0
 11 15  1  0  0  0  0
 11 16  1  0  0  0  0
 52 54  1  0  0  0  0
 52 55  1  0  0  0  0
 52 56  1  0  0  0  0
 21 33  1  0  0  0  0
 21 34  1  0  0  0  0
 42 47  1  0  0  0  0
  8 13  1  0  0  0  0
 18 32  1  0  0  0  0
 25 36  1  0  0  0  0
 51 53  1  0  0  0  0
  7 12  1  0  0  0  0
 41 46  1  0  0  0  0
 17 31  1  0  0  0  0
M  END
$$$$

  -OEChem-05262214473D

 56 57  0     1  0  0  0  0  0999 V2000
   -2.2900    0.3401    4.1553 C   0  0  0  0  0  0  0  0  0  0  0  0
   -1.3426   -0.2746    3.6796 O   0  0  0  0  0  0  0  0  0  0  0  0
   -2.7219    0.0577    5.5560 C   0  0  0  0  0  0  0  0  0  0  0  0
   -3.4815   -0.7386    5.6094 H   0  0  0  0  0  0  0  0  0  0  0  0
   -1.8906   -0.2899    6.1903 H   0  0  0  0  0  0  0  0  0  0  0  0
   -3.1599    0.9126    6.0956 H   0  0  0  0  0  0  0  0  0  0  0  0
   -3.0397    1.3125    3.5142 N   0  0  0  0  0  0  0  0  0  0  0  0
   -2.7928    1.7385    2.1618 C   0  0  2  0  0  0  0  0  0  0  0  0
   -1.4579    1.1532    1.7206 C   0  0  0  0  0  0  0  0  0  0  0  0
   -0.5858    0.8004    2.5118 O   0  0  0  0  0  0  0  0  0  0  0  0
   -2.7841    3.2553    2.0523 C   0  0  0  0  0  0  0  0  0  0  0  0
   -3.8047    1.7484    4.0260 H   0  0  0  0  0  0  0  0  0  0  0  0
   -3.5969    1.3201    1.5466 H   0  0  0  0  0  0  0  0  0  0  0  0
   -1.9850    3.6926    2.6620 H   0  0  0  0  0  0  0  0  0  0  0  0
   -2.6246    3.5776    1.0180 H   0  0  0  0  0  0  0  0  0  0  0  0
   -3.7342    3.6765    2.3981 H   0  0  0  0  0  0  0  0  0  0  0  0
   -1.3352    1.1101    0.3372 N   0  0  0  0  0  0  0  0  0  0  0  0
   -0.1579    0.6093   -0.3265 C   0  0  2  0  0  0  0  0  0  0  0  0
    1.0286    0.8861    0.5900 C   0  0  0  0  0  0  0  0  0  0  0  0
    1.1762    1.9479    1.1913 O   0  0  0  0  0  0  0  0  0  0  0  0
    0.0600    1.2673   -1.6938 C   0  0  0  0  0  0  0  0  0  0  0  0
   -1.0075    0.8996   -2.6953 C   0  0  0  0  0  0  0  0  0  0  0  0
   -2.1181    1.6529   -2.9988 C   0  0  0  0  0  0  0  0  0  0  0  0
   -1.0512   -0.2775   -3.4938 C   0  0  0  0  0  0  0  0  0  0  0  0
   -2.8363    0.9801   -3.9506 N   0  0  0  0  0  0  0  0  0  0  0  0
   -2.2083   -0.2020   -4.2721 C   0  0  0  0  0  0  0  0  0  0  0  0
   -0.2147   -1.4032   -3.6296 C   0  0  0  0  0  0  0  0  0  0  0  0
   -2.5722   -1.2001   -5.1830 C   0  0  0  0  0  0  0  0  0  0  0  0
   -0.5661   -2.4094   -4.5368 C   0  0  0  0  0  0  0  0  0  0  0  0
   -1.7272   -2.3073   -5.3006 C   0  0  0  0  0  0  0  0  0  0  0  0
   -2.1183    1.4068   -0.2401 H   0  0  0  0  0  0  0  0  0  0  0  0
   -0.2912   -0.4746   -0.4235 H   0  0  0  0  0  0  0  0  0  0  0  0
    1.0481    0.9991   -2.0919 H   0  0  0  0  0  0  0  0  0  0  0  0
    0.0766    2.3608   -1.5950 H   0  0  0  0  0  0  0  0  0  0  0  0
   -2.4632    2.6061   -2.6225 H   0  0  0  0  0  0  0  0  0  0  0  0
   -3.7023    1.3039   -4.3588 H   0  0  0  0  0  0  0  0  0  0  0  0
    0.6932   -1.4981   -3.0408 H   0  0  0  0  0  0  0  0  0  0  0  0
   -3.4752   -1.1209   -5.7787 H   0  0  0  0  0  0  0  0  0  0  0  0
    0.0748   -3.2802   -4.6455 H   0  0  0  0  0  0  0  0  0  0  0  0
   -1.9808   -3.1004   -5.9992 H   0  0  0  0  0  0  0  0  0  0  0  0
    1.8725   -0.2110    0.6931 N   0  0  0  0  0  0  0  0  0  0  0  0
    3.0603   -0.2239    1.5163 C   0  0  2  0  0  0  0  0  0  0  0  0
    3.8696    1.0253    1.1938 C   0  0  0  0  0  0  0  0  0  0  0  0
    3.7601    1.6407    0.1353 O   0  0  0  0  0  0  0  0  0  0  0  0
    3.8834   -1.4807    1.2805 C   0  0  0  0  0  0  0  0  0  0  0  0
    1.6437   -1.0469    0.1633 H   0  0  0  0  0  0  0  0  0  0  0  0
    2.7236   -0.1828    2.5580 H   0  0  0  0  0  0  0  0  0  0  0  0
    4.2296   -1.5394    0.2421 H   0  0  0  0  0  0  0  0  0  0  0  0
    4.7680   -1.5025    1.9255 H   0  0  0  0  0  0  0  0  0  0  0  0
    3.2904   -2.3789    1.4844 H   0  0  0  0  0  0  0  0  0  0  0  0
    4.7595    1.3471    2.2090 N   0  0  0  0  0  0  0  0  0  0  0  0
    5.6488    2.4828    2.1353 C   0  0  0  0  0  0  0  0  0  0  0  0
    4.7691    0.7921    3.0596 H   0  0  0  0  0  0  0  0  0  0  0  0
    6.6141    2.1665    1.7133 H   0  0  0  0  0  0  0  0  0  0  0  0
    5.2033    3.2560    1.4920 H   0  0  0  0  0  0  0  0  0  0  0  0
    5.8061    2.8913    3.1444 H   0  0  0  0  0  0  0  0  0  0  0  0
 29 30  2  0  0  0  0
 27 29  1  0  0  0  0
 28 30  1  0  0  0  0
 24 27  2  0  0  0  0
 26 28  2  0  0  0  0
 22 23  2  0  0  0  0
 23 25  1  0  0  0  0
 22 24  1  0  0  0  0
 24 26  1  0  0  0  0
 21 22  1  0  0  0  0
 25 26  1  0  0  0  0
  1  3  1  0  0  0  0
  1  7  1  0  0  0  0
  1  2  2  0  0  0  0
 42 43  1  0  0  0  0
 43 51  1  0  0  0  0
 43 44  2  0  0  0  0
  8  9  1  0  0  0  0
  9 17  1  0  0  0  0
  9 10  2  0  0  0  0
 18 19  1  0  0  0  0
 19 41  1  0  0  0  0
 19 20  2  0  0  0  0
 42 45  1  0  0  0  0
  8 11  1  0  0  0  0
 51 52  1  0  0  0  0
 18 21  1  0  0  0  0
 41 42  1  0  0  0  0
  7  8  1  0  0  0  0
 17 18  1  0  0  0  0
 29 39  1  0  0  0  0
 30 40  1  0  0  0  0
 27 37  1  0  0  0  0
 28 38  1  0  0  0  0
 23 35  1  0  0  0  0
  3  4  1  0  0  0  0
  3  5  1  0  0  0  0
  3  6  1  0  0  0  0
 45 48  1  0  0  0  0
 45 49  1  0  0  0  0
 45 50  1  0  0  0  0
 11 14  1  0  0  0  0
 11 15  1  0  0  0  0
 11 16  1  0  0  0  0
 52 54  1  0  0  0  0
 52 55  1  0  0  0  0
 52 56  1  0  0  0  0
 21 33  1  0  0  0  0
 21 34  1  0  0  0  0
 42 47  1  0  0  0  0
  8 13  1  0  0  0  0
 18 32  1  0  0  0  0
 25 36  1  0  0  0  0
 51 53  1  0  0  0  0
  7 12  1  0  0  0  0
 41 46  1  0  0  0  0
 17 31  1  0  0  0  0
M  END
$$$$

  -OEChem-05262214473D

 56 57  0     1  0  0  0  0  0999 V2000
   -2.2900    0.3401    4.1553 C   0  0  0  0  0  0  0  0  0  0  0  0
   -1.3426   -0.2746    3.6796 O   0  0  0  0  0  0  0  0  0  0  0  0
   -2.7219    0.0577    5.5560 C   0  0  0  0  0  0  0  0  0  0  0  0
   -3.4815   -0.7386    5.6094 H   0  0  0  0  0  0  0  0  0  0  0  0
   -1.8906   -0.2899    6.1903 H   0  0  0  0  0  0  0  0  0  0  0  0
   -3.1599    0.9126    6.0956 H   0  0  0  0  0  0  0  0  0  0  0  0
   -3.0397    1.3125    3.5142 N   0  0  0  0  0  0  0  0  0  0  0  0
   -2.7928    1.7385    2.1618 C   0  0  2  0  0  0  0  0  0  0  0  0
   -1.4579    1.1532    1.7206 C   0  0  0  0  0  0  0  0  0  0  0  0
   -0.5858    0.8004    2.5118 O   0  0  0  0  0  0  0  0  0  0  0  0
   -2.7841    3.2553    2.0523 C   0  0  0  0  0  0  0  0  0  0  0  0
   -3.8047    1.7484    4.0260 H   0  0  0  0  0  0  0  0  0  0  0  0
   -3.5969    1.3201    1.5466 H   0  0  0  0  0  0  0  0  0  0  0  0
   -1.9850    3.6926    2.6620 H   0  0  0  0  0  0  0  0  0  0  0  0
   -2.6246    3.5776    1.0180 H   0  0  0  0  0  0  0  0  0  0  0  0
   -3.7342    3.6765    2.3981 H   0  0  0  0  0  0  0  0  0  0  0  0
   -1.3352    1.1101    0.3372 N   0  0  0  0  0  0  0  0  0  0  0  0
   -0.1579    0.6093   -0.3265 C   0  0  2  0  0  0  0  0  0  0  0  0
    1.0286    0.8861    0.5900 C   0  0  0  0  0  0  0  0  0  0  0  0
    1.0519    1.8177    1.3914 O   0  0  0  0  0  0  0  0  0  0  0  0
    0.0600    1.2673   -1.6938 C   0  0  0  0  0  0  0  0  0  0  0  0
   -1.0075    0.8996   -2.6953 C   0  0  0  0  0  0  0  0  0  0  0  0
   -2.1181    1.6529   -2.9988 C   0  0  0  0  0  0  0  0  0  0  0  0
   -1.0512   -0.2775   -3.4938 C   0  0  0  0  0  0  0  0  0  0  0  0
   -2.8363    0.9801   -3.9506 N   0  0  0  0  0  0  0  0  0  0  0  0
   -2.2083   -0.2020   -4.2721 C   0  0  0  0  0  0  0  0  0  0  0  0
   -0.2147   -1.4032   -3.6296 C   0  0  0  0  0  0  0  0  0  0  0  0
   -2.5722   -1.2001   -5.1830 C   0  0  0  0  0  0  0  0  0  0  0  0
   -0.5661   -2.4094   -4.5368 C   0  0  0  0  0  0  0  0  0  0  0  0
   -1.7272   -2.3073   -5.3006 C   0  0  0  0  0  0  0  0  0  0  0  0
   -2.1183    1.4068   -0.2401 H   0  0  0  0  0  0  0  0  0  0  0  0
   -0.2912   -0.4746   -0.4235 H   0  0  0  0  0  0  0  0  0  0  0  0
    1.0481    0.9991   -2.0919 H   0  0  0  0  0  0  0  0  0  0  0  0
    0.0766    2.3608   -1.5950 H   0  0  0  0  0  0  0  0  0  0  0  0
   -2.4632    2.6061   -2.6225 H   0  0  0  0  0  0  0  0  0  0  0  0
   -3.7023    1.3039   -4.3588 H   0  0  0  0  0  0  0  0  0  0  0  0
    0.6932   -1.4981   -3.0408 H   0  0  0  0  0  0  0  0  0  0  0  0
   -3.4752   -1.1209   -5.7787 H   0  0  0  0  0  0  0  0  0  0  0  0
    0.0748   -3.2802   -4.6455 H   0  0  0  0  0  0  0  0  0  0  0  0
   -1.9808   -3.1004   -5.9992 H   0  0  0  0  0  0  0  0  0  0  0  0
    2.0330   -0.0599    0.4396 N   0  0  0  0  0  0  0  0  0  0  0  0
    3.2586   -0.0446    1.2054 C   0  0  2  0  0  0  0  0  0  0  0  0
    3.8484    1.3570    1.1210 C   0  0  0  0  0  0  0  0  0  0  0  0
    3.5810    2.1439    0.2152 O   0  0  0  0  0  0  0  0  0  0  0  0
    4.2453   -1.0814    0.6913 C   0  0  0  0  0  0  0  0  0  0  0  0
    1.9001   -0.8002   -0.2431 H   0  0  0  0  0  0  0  0  0  0  0  0
    2.9859   -0.2648    2.2432 H   0  0  0  0  0  0  0  0  0  0  0  0
    4.5303   -0.8772   -0.3473 H   0  0  0  0  0  0  0  0  0  0  0  0
    5.1619   -1.0881    1.2903 H   0  0  0  0  0  0  0  0  0  0  0  0
    3.8086   -2.0853    0.7249 H   0  0  0  0  0  0  0  0  0  0  0  0
    4.7418    1.6103    2.1525 N   0  0  0  0  0  0  0  0  0  0  0  0
    5.4432    2.8658    2.2857 C   0  0  0  0  0  0  0  0  0  0  0  0
    4.8885    0.9069    2.8704 H   0  0  0  0  0  0  0  0  0  0  0  0
    6.4167    2.7981    1.7781 H   0  0  0  0  0  0  0  0  0  0  0  0
    4.8467    3.6692    1.8289 H   0  0  0  0  0  0  0  0  0  0  0  0
    5.6003    3.0865    3.3518 H   0  0  0  0  0  0  0  0  0  0  0  0
 29 30  2  0  0  0  0
 27 29  1  0  0  0  0
 28 30  1  0  0  0  0
 24 27  2  0  0  0  0
 26 28  2  0  0  0  0
 22 23  2  0  0  0  0
 23 25  1  0  0  0  0
 22 24  1  0  0  0  0
 24 26  1  0  0  0  0
 21 22  1  0  0  0  0
 25 26  1  0  0  0  0
  1  3  1  0  0  0  0
  1  7  1  0  0  0  0
  1  2  2  0  0  0  0
 42 43  1  0  0  0  0
 43 51  1  0  0  0  0
 43 44  2  0  0  0  0
  8  9  1  0  0  0  0
  9 17  1  0  0  0  0
  9 10  2  0  0  0  0
 18 19  1  0  0  0  0
 19 41  1  0  0  0  0
 19 20  2  0  0  0  0
 42 45  1  0  0  0  0
  8 11  1  0  0  0  0
 51 52  1  0  0  0  0
 18 21  1  0  0  0  0
 41 42  1  0  0  0  0
  7  8  1  0  0  0  0
 17 18  1  0  0  0  0
 29 39  1  0  0  0  0
 30 40  1  0  0  0  0
 27 37  1  0  0  0  0
 28 38  1  0  0  0  0
 23 35  1  0  0  0  0
  3  4  1  0  0  0  0
  3  5  1  0  0  0  0
  3  6  1  0  0  0  0
 45 48  1  0  0  0  0
 45 49  1  0  0  0  0
 45 50  1  0  0  0  0
 11 14  1  0  0  0  0
 11 15  1  0  0  0  0
 11 16  1  0  0  0  0
 52 54  1  0  0  0  0
 52 55  1  0  0  0  0
 52 56  1  0  0  0  0
 21 33  1  0  0  0  0
 21 34  1  0  0  0  0
 42 47  1  0  0  0  0
  8 13  1  0  0  0  0
 18 32  1  0  0  0  0
 25 36  1  0  0  0  0
 51 53  1  0  0  0  0
  7 12  1  0  0  0  0
 41 46  1  0  0  0  0
 17 31  1  0  0  0  0
M  END
$$$$

  -OEChem-05262214473D

 56 57  0     1  0  0  0  0  0999 V2000
   -2.2900    0.3401    4.1553 C   0  0  0  0  0  0  0  0  0  0  0  0
   -1.3426   -0.2746    3.6796 O   0  0  0  0  0  0  0  0  0  0  0  0
   -2.7219    0.0577    5.5560 C   0  0  0  0  0  0  0  0  0  0  0  0
   -3.4815   -0.7386    5.6094 H   0  0  0  0  0  0  0  0  0  0  0  0
   -1.8906   -0.2899    6.1903 H   0  0  0  0  0  0  0  0  0  0  0  0
   -3.1599    0.9126    6.0956 H   0  0  0  0  0  0  0  0  0  0  0  0
   -3.0397    1.3125    3.5142 N   0  0  0  0  0  0  0  0  0  0  0  0
   -2.7928    1.7385    2.1618 C   0  0  2  0  0  0  0  0  0  0  0  0
   -1.4579    1.1532    1.7206 C   0  0  0  0  0  0  0  0  0  0  0  0
   -0.5858    0.8004    2.5118 O   0  0  0  0  0  0  0  0  0  0  0  0
   -2.7841    3.2553    2.0523 C   0  0  0  0  0  0  0  0  0  0  0  0
   -3.8047    1.7484    4.0260 H   0  0  0  0  0  0  0  0  0  0  0  0
   -3.5969    1.3201    1.5466 H   0  0  0  0  0  0  0  0  0  0  0  0
   -1.9850    3.6926    2.6620 H   0  0  0  0  0  0  0  0  0  0  0  0
   -2.6246    3.5776    1.0180 H   0  0  0  0  0  0  0  0  0  0  0  0
   -3.7342    3.6765    2.3981 H   0  0  0  0  0  0  0  0  0  0  0  0
   -1.3352    1.1101    0.3372 N   0  0  0  0  0  0  0  0  0  0  0  0
   -0.1579    0.6093   -0.3265 C   0  0  2  0  0  0  0  0  0  0  0  0
    1.0286    0.8861    0.5900 C   0  0  0  0  0  0  0  0  0  0  0  0
    0.9616    1.6323    1.5644 O   0  0  0  0  0  0  0  0  0  0  0  0
    0.0600    1.2673   -1.6938 C   0  0  0  0  0  0  0  0  0  0  0  0
   -1.0075    0.8996   -2.6953 C   0  0  0  0  0  0  0  0  0  0  0  0
   -2.1181    1.6529   -2.9988 C   0  0  0  0  0  0  0  0  0  0  0  0
   -1.0512   -0.2775   -3.4938 C   0  0  0  0  0  0  0  0  0  0  0  0
   -2.8363    0.9801   -3.9506 N   0  0  0  0  0  0  0  0  0  0  0  0
   -2.2083   -0.2020   -4.2721 C   0  0  0  0  0  0  0  0  0  0  0  0
   -0.2147   -1.4032   -3.6296 C   0  0  0  0  0  0  0  0  0  0  0  0
   -2.5722   -1.2001   -5.1830 C   0  0  0  0  0  0  0  0  0  0  0  0
   -0.5661   -2.4094   -4.5368 C   0  0  0  0  0  0  0  0  0  0  0  0
   -1.7272   -2.3073   -5.3006 C   0  0  0  0  0  0  0  0  0  0  0  0
   -2.1183    1.4068   -0.2401 H   0  0  0  0  0  0  0  0  0  0  0  0
   -0.2912   -0.4746   -0.4235 H   0  0  0  0  0  0  0  0  0  0  0  0
    1.0481    0.9991   -2.0919 H   0  0  0  0  0  0  0  0  0  0  0  0
    0.0766    2.3608   -1.5950 H   0  0  0  0  0  0  0  0  0  0  0  0
   -2.4632    2.6061   -2.6225 H   0  0  0  0  0  0  0  0  0  0  0  0
   -3.7023    1.3039   -4.3588 H   0  0  0  0  0  0  0  0  0  0  0  0
    0.6932   -1.4981   -3.0408 H   0  0  0  0  0  0  0  0  0  0  0  0
   -3.4752   -1.1209   -5.7787 H   0  0  0  0  0  0  0  0  0  0  0  0
    0.0748   -3.2802   -4.6455 H   0  0  0  0  0  0  0  0  0  0  0  0
   -1.9808   -3.1004   -5.9992 H   0  0  0  0  0  0  0  0  0  0  0  0
    2.1527    0.1621    0.2176 N   0  0  0  0  0  0  0  0  0  0  0  0
    3.4077    0.2221    0.9318 C   0  0  2  0  0  0  0  0  0  0  0  0
    3.7730    1.6888    1.1185 C   0  0  0  0  0  0  0  0  0  0  0  0
    3.3335    2.5859    0.4022 O   0  0  0  0  0  0  0  0  0  0  0  0
    4.5051   -0.5206    0.1856 C   0  0  0  0  0  0  0  0  0  0  0  0
    2.0902   -0.4402   -0.5979 H   0  0  0  0  0  0  0  0  0  0  0  0
    3.2371   -0.2398    1.9104 H   0  0  0  0  0  0  0  0  0  0  0  0
    4.6902   -0.0722   -0.7973 H   0  0  0  0  0  0  0  0  0  0  0  0
    5.4481   -0.4985    0.7417 H   0  0  0  0  0  0  0  0  0  0  0  0
    4.2277   -1.5682    0.0260 H   0  0  0  0  0  0  0  0  0  0  0  0
    4.6810    1.8731    2.1518 N   0  0  0  0  0  0  0  0  0  0  0  0
    5.1921    3.1734    2.5179 C   0  0  0  0  0  0  0  0  0  0  0  0
    4.9770    1.0745    2.7052 H   0  0  0  0  0  0  0  0  0  0  0  0
    6.1308    3.3645    1.9772 H   0  0  0  0  0  0  0  0  0  0  0  0
    4.4538    3.9450    2.2543 H   0  0  0  0  0  0  0  0  0  0  0  0
    5.3809    3.2013    3.6012 H   0  0  0  0  0  0  0  0  0  0  0  0
 29 30  2  0  0  0  0
 27 29  1  0  0  0  0
 28 30  1  0  0  0  0
 24 27  2  0  0  0  0
 26 28  2  0  0  0  0
 22 23  2  0  0  0  0
 23 25  1  0  0  0  0
 22 24  1  0  0  0  0
 24 26  1  0  0  0  0
 21 22  1  0  0  0  0
 25 26  1  0  0  0  0
  1  3  1  0  0  0  0
  1  7  1  0  0  0  0
  1  2  2  0  0  0  0
 42 43  1  0  0  0  0
 43 51  1  0  0  0  0
 43 44  2  0  0  0  0
  8  9  1  0  0  0  0
  9 17  1  0  0  0  0
  9 10  2  0  0  0  0
 18 19  1  0  0  0  0
 19 41  1  0  0  0  0
 19 20  2  0  0  0  0
 42 45  1  0  0  0  0
  8 11  1  0  0  0  0
 51 52  1  0  0  0  0
 18 21  1  0  0  0  0
 41 42  1  0  0  0  0
  7  8  1  0  0  0  0
 17 18  1  0  0  0  0
 29 39  1  0  0  0  0
 30 40  1  0  0  0  0
 27 37  1  0  0  0  0
 28 38  1  0  0  0  0
 23 35  1  0  0  0  0
  3  4  1  0  0  0  0
  3  5  1  0  0  0  0
  3  6  1  0  0  0  0
 45 48  1  0  0  0  0
 45 49  1  0  0  0  0
 45 50  1  0  0  0  0
 11 14  1  0  0  0  0
 11 15  1  0  0  0  0
 11 16  1  0  0  0  0
 52 54  1  0  0  0  0
 52 55  1  0  0  0  0
 52 56  1  0  0  0  0
 21 33  1  0  0  0  0
 21 34  1  0  0  0  0
 42 47  1  0  0  0  0
  8 13  1  0  0  0  0
 18 32  1  0  0  0  0
 25 36  1  0  0  0  0
 51 53  1  0  0  0  0
  7 12  1  0  0  0  0
 41 46  1  0  0  0  0
 17 31  1  0  0  0  0
M  END
$$$$

  -OEChem-05262214473D

 56 57  0     1  0  0  0  0  0999 V2000
   -2.2900    0.3401    4.1553 C   0  0  0  0  0  0  0  0  0  0  0  0
   -1.3426   -0.2746    3.6796 O   0  0  0  0  0  0  0  0  0  0  0  0
   -2.7219    0.0577    5.5560 C   0  0  0  0  0  0  0  0  0  0  0  0
   -3.4815   -0.7386    5.6094 H   0  0  0  0  0  0  0  0  0  0  0  0
   -1.8906   -0.2899    6.1903 H   0  0  0  0  0  0  0  0  0  0  0  0
   -3.1599    0.9126    6.0956 H   0  0  0  0  0  0  0  0  0  0  0  0
   -3.0397    1.3125    3.5142 N   0  0  0  0  0  0  0  0  0  0  0  0
   -2.7928    1.7385    2.1618 C   0  0  2  0  0  0  0  0  0  0  0  0
   -1.4579    1.1532    1.7206 C   0  0  0  0  0  0  0  0  0  0  0  0
   -0.5858    0.8004    2.5118 O   0  0  0  0  0  0  0  0  0  0  0  0
   -2.7841    3.2553    2.0523 C   0  0  0  0  0  0  0  0  0  0  0  0
   -3.8047    1.7484    4.0260 H   0  0  0  0  0  0  0  0  0  0  0  0
   -3.5969    1.3201    1.5466 H   0  0  0  0  0  0  0  0  0  0  0  0
   -1.9850    3.6926    2.6620 H   0  0  0  0  0  0  0  0  0  0  0  0
   -2.6246    3.5776    1.0180 H   0  0  0  0  0  0  0  0  0  0  0  0
   -3.7342    3.6765    2.3981 H   0  0  0  0  0  0  0  0  0  0  0  0
   -1.3352    1.1101    0.3372 N   0  0  0  0  0  0  0  0  0  0  0  0
   -0.1579    0.6093   -0.3265 C   0  0  2  0  0  0  0  0  0  0  0  0
    0.9513    0.5362    0.7169 C   0  0  0  0  0  0  0  0  0  0  0  0
    0.7782    0.8257    1.8989 O   0  0  0  0  0  0  0  0  0  0  0  0
    0.2701    1.5011   -1.4976 C   0  0  0  0  0  0  0  0  0  0  0  0
   -0.7227    1.4882   -2.6342 C   0  0  0  0  0  0  0  0  0  0  0  0
   -1.7070    2.4246   -2.8519 C   0  0  0  0  0  0  0  0  0  0  0  0
   -0.8127    0.5166   -3.6699 C   0  0  0  0  0  0  0  0  0  0  0  0
   -2.3930    2.0606   -3.9794 N   0  0  0  0  0  0  0  0  0  0  0  0
   -1.8685    0.8991   -4.5002 C   0  0  0  0  0  0  0  0  0  0  0  0
   -0.0951   -0.6553   -3.9817 C   0  0  0  0  0  0  0  0  0  0  0  0
   -2.2440    0.1655   -5.6311 C   0  0  0  0  0  0  0  0  0  0  0  0
   -0.4595   -1.3992   -5.1099 C   0  0  0  0  0  0  0  0  0  0  0  0
   -1.5177   -0.9932   -5.9205 C   0  0  0  0  0  0  0  0  0  0  0  0
   -2.1183    1.4068   -0.2401 H   0  0  0  0  0  0  0  0  0  0  0  0
   -0.3984   -0.4050   -0.6663 H   0  0  0  0  0  0  0  0  0  0  0  0
    1.2585    1.1957   -1.8670 H   0  0  0  0  0  0  0  0  0  0  0  0
    0.3961    2.5393   -1.1630 H   0  0  0  0  0  0  0  0  0  0  0  0
   -1.9824    3.3162   -2.3056 H   0  0  0  0  0  0  0  0  0  0  0  0
   -3.1718    2.5703   -4.3733 H   0  0  0  0  0  0  0  0  0  0  0  0
    0.7317   -0.9855   -3.3593 H   0  0  0  0  0  0  0  0  0  0  0  0
   -3.0669    0.4813   -6.2633 H   0  0  0  0  0  0  0  0  0  0  0  0
    0.0900   -2.3041   -5.3551 H   0  0  0  0  0  0  0  0  0  0  0  0
   -1.7836   -1.5860   -6.7920 H   0  0  0  0  0  0  0  0  0  0  0  0
    2.1399    0.0622    0.1793 N   0  0  0  0  0  0  0  0  0  0  0  0
    3.3434   -0.1258    0.9571 C   0  0  2  0  0  0  0  0  0  0  0  0
    3.6018    1.1544    1.7405 C   0  0  0  0  0  0  0  0  0  0  0  0
    3.1494    2.2477    1.4072 O   0  0  0  0  0  0  0  0  0  0  0  0
    4.5290   -0.4678    0.0682 C   0  0  0  0  0  0  0  0  0  0  0  0
    2.1652   -0.1639   -0.8107 H   0  0  0  0  0  0  0  0  0  0  0  0
    3.1445   -0.9472    1.6540 H   0  0  0  0  0  0  0  0  0  0  0  0
    4.7434    0.3436   -0.6369 H   0  0  0  0  0  0  0  0  0  0  0  0
    5.4335   -0.6379    0.6613 H   0  0  0  0  0  0  0  0  0  0  0  0
    4.3295   -1.3722   -0.5167 H   0  0  0  0  0  0  0  0  0  0  0  0
    4.4326    0.9400    2.8314 N   0  0  0  0  0  0  0  0  0  0  0  0
    4.8362    2.0010    3.7244 C   0  0  0  0  0  0  0  0  0  0  0  0
    4.7455   -0.0028    3.0435 H   0  0  0  0  0  0  0  0  0  0  0  0
    5.7915    2.4256    3.3819 H   0  0  0  0  0  0  0  0  0  0  0  0
    4.0670    2.7872    3.7309 H   0  0  0  0  0  0  0  0  0  0  0  0
    4.9576    1.5983    4.7408 H   0  0  0  0  0  0  0  0  0  0  0  0
 29 30  2  0  0  0  0
 27 29  1  0  0  0  0
 28 30  1  0  0  0  0
 24 27  2  0  0  0  0
 26 28  2  0  0  0  0
 22 23  2  0  0  0  0
 23 25  1  0  0  0  0
 22 24  1  0  0  0  0
 24 26  1  0  0  0  0
 21 22  1  0  0  0  0
 25 26  1  0  0  0  0
  1  3  1  0  0  0  0
  1  7  1  0  0  0  0
  1  2  2  0  0  0  0
 42 43  1  0  0  0  0
 43 51  1  0  0  0  0
 43 44  2  0  0  0  0
  8  9  1  0  0  0  0
  9 17  1  0  0  0  0
  9 10  2  0  0  0  0
 18 19  1  0  0  0  0
 19 41  1  0  0  0  0
 19 20  2  0  0  0  0
 42 45  1  0  0  0  0
  8 11  1  0  0  0  0
 51 52  1  0  0  0  0
 18 21  1  0  0  0  0
 41 42  1  0  0  0  0
  7  8  1  0  0  0  0
 17 18  1  0  0  0  0
 29 39  1  0  0  0  0
 30 40  1  0  0  0  0
 27 37  1  0  0  0  0
 28 38  1  0  0  0  0
 23 35  1  0  0  0  0
  3  4  1  0  0  0  0
  3  5  1  0  0  0  0
  3  6  1  0  0  0  0
 45 48  1  0  0  0  0
 45 49  1  0  0  0  0
 45 50  1  0  0  0  0
 11 14  1  0  0  0  0
 11 15  1  0  0  0  0
 11 16  1  0  0  0  0
 52 54  1  0  0  0  0
 52 55  1  0  0  0  0
 52 56  1  0  0  0  0
 21 33  1  0  0  0  0
 21 34  1  0  0  0  0
 42 47  1  0  0  0  0
  8 13  1  0  0  0  0
 18 32  1  0  0  0  0
 25 36  1  0  0  0  0
 51 53  1  0  0  0  0
  7 12  1  0  0  0  0
 41 46  1  0  0  0  0
 17 31  1  0  0  0  0
M  END
$$$$

  -OEChem-05262214473D

 56 57  0     1  0  0  0  0  0999 V2000
   -2.2900    0.3401    4.1553 C   0  0  0  0  0  0  0  0  0  0  0  0
   -1.3426   -0.2746    3.6796 O   0  0  0  0  0  0  0  0  0  0  0  0
   -2.7219    0.0577    5.5560 C   0  0  0  0  0  0  0  0  0  0  0  0
   -3.4815   -0.7386    5.6094 H   0  0  0  0  0  0  0  0  0  0  0  0
   -1.8906   -0.2899    6.1903 H   0  0  0  0  0  0  0  0  0  0  0  0
   -3.1599    0.9126    6.0956 H   0  0  0  0  0  0  0  0  0  0  0  0
   -3.0397    1.3125    3.5142 N   0  0  0  0  0  0  0  0  0  0  0  0
   -2.7928    1.7385    2.1618 C   0  0  2  0  0  0  0  0  0  0  0  0
   -1.4579    1.1532    1.7206 C   0  0  0  0  0  0  0  0  0  0  0  0
   -0.5858    0.8004    2.5118 O   0  0  0  0  0  0  0  0  0  0  0  0
   -2.7841    3.2553    2.0523 C   0  0  0  0  0  0  0  0  0  0  0  0
   -3.8047    1.7484    4.0260 H   0  0  0  0  0  0  0  0  0  0  0  0
   -3.5969    1.3201    1.5466 H   0  0  0  0  0  0  0  0  0  0  0  0
   -1.9850    3.6926    2.6620 H   0  0  0  0  0  0  0  0  0  0  0  0
   -2.6246    3.5776    1.0180 H   0  0  0  0  0  0  0  0  0  0  0  0
   -3.7342    3.6765    2.3981 H   0  0  0  0  0  0  0  0  0  0  0  0
   -1.3352    1.1101    0.3372 N   0  0  0  0  0  0  0  0  0  0  0  0
   -0.1579    0.6093   -0.3265 C   0  0  2  0  0  0  0  0  0  0  0  0
    0.9513    0.5362    0.7169 C   0  0  0  0  0  0  0  0  0  0  0  0
    0.7347    0.5615    1.9266 O   0  0  0  0  0  0  0  0  0  0  0  0
    0.2701    1.5011   -1.4976 C   0  0  0  0  0  0  0  0  0  0  0  0
   -0.7227    1.4882   -2.6342 C   0  0  0  0  0  0  0  0  0  0  0  0
   -1.7070    2.4246   -2.8519 C   0  0  0  0  0  0  0  0  0  0  0  0
   -0.8127    0.5166   -3.6699 C   0  0  0  0  0  0  0  0  0  0  0  0
   -2.3930    2.0606   -3.9794 N   0  0  0  0  0  0  0  0  0  0  0  0
   -1.8685    0.8991   -4.5002 C   0  0  0  0  0  0  0  0  0  0  0  0
   -0.0951   -0.6553   -3.9817 C   0  0  0  0  0  0  0  0  0  0  0  0
   -2.2440    0.1655   -5.6311 C   0  0  0  0  0  0  0  0  0  0  0  0
   -0.4595   -1.3992   -5.1099 C   0  0  0  0  0  0  0  0  0  0  0  0
   -1.5177   -0.9932   -5.9205 C   0  0  0  0  0  0  0  0  0  0  0  0
   -2.1183    1.4068   -0.2401 H   0  0  0  0  0  0  0  0  0  0  0  0
   -0.3984   -0.4050   -0.6663 H   0  0  0  0  0  0  0  0  0  0  0  0
    1.2585    1.1957   -1.8670 H   0  0  0  0  0  0  0  0  0  0  0  0
    0.3961    2.5393   -1.1630 H   0  0  0  0  0  0  0  0  0  0  0  0
   -1.9824    3.3162   -2.3056 H   0  0  0  0  0  0  0  0  0  0  0  0
   -3.1718    2.5703   -4.3733 H   0  0  0  0  0  0  0  0  0  0  0  0
    0.7317   -0.9855   -3.3593 H   0  0  0  0  0  0  0  0  0  0  0  0
   -3.0669    0.4813   -6.2633 H   0  0  0  0  0  0  0  0  0  0  0  0
    0.0900   -2.3041   -5.3551 H   0  0  0  0  0  0  0  0  0  0  0  0
   -1.7836   -1.5860   -6.7920 H   0  0  0  0  0  0  0  0  0  0  0  0
    2.2029    0.3893    0.1352 N   0  0  0  0  0  0  0  0  0  0  0  0
    3.4242    0.2721    0.8991 C   0  0  2  0  0  0  0  0  0  0  0  0
    3.4537    1.4058    1.9156 C   0  0  0  0  0  0  0  0  0  0  0  0
    2.8120    2.4455    1.7797 O   0  0  0  0  0  0  0  0  0  0  0  0
    4.6477    0.3187   -0.0029 C   0  0  0  0  0  0  0  0  0  0  0  0
    2.2636    0.3628   -0.8784 H   0  0  0  0  0  0  0  0  0  0  0  0
    3.3781   -0.6885    1.4238 H   0  0  0  0  0  0  0  0  0  0  0  0
    4.7108    1.2738   -0.5370 H   0  0  0  0  0  0  0  0  0  0  0  0
    5.5708    0.2011    0.5742 H   0  0  0  0  0  0  0  0  0  0  0  0
    4.6100   -0.4793   -0.7523 H   0  0  0  0  0  0  0  0  0  0  0  0
    4.3143    1.1383    2.9710 N   0  0  0  0  0  0  0  0  0  0  0  0
    4.5264    2.0650    4.0582 C   0  0  0  0  0  0  0  0  0  0  0  0
    4.7914    0.2424    3.0119 H   0  0  0  0  0  0  0  0  0  0  0  0
    5.3890    2.7082    3.8295 H   0  0  0  0  0  0  0  0  0  0  0  0
    3.6293    2.6879    4.1892 H   0  0  0  0  0  0  0  0  0  0  0  0
    4.7222    1.5048    4.9844 H   0  0  0  0  0  0  0  0  0  0  0  0
 29 30  2  0  0  0  0
 27 29  1  0  0  0  0
 28 30  1  0  0  0  0
 24 27  2  0  0  0  0
 26 28  2  0  0  0  0
 22 23  2  0  0  0  0
 23 25  1  0  0  0  0
 22 24  1  0  0  0  0
 24 26  1  0  0  0  0
 21 22  1  0  0  0  0
 25 26  1  0  0  0  0
  1  3  1  0  0  0  0
  1  7  1  0  0  0  0
  1  2  2  0  0  0  0
 42 43  1  0  0  0  0
 43 51  1  0  0  0  0
 43 44  2  0  0  0  0
  8  9  1  0  0  0  0
  9 17  1  0  0  0  0
  9 10  2  0  0  0  0
 18 19  1  0  0  0  0
 19 41  1  0  0  0  0
 19 20  2  0  0  0  0
 42 45  1  0  0  0  0
  8 11  1  0  0  0  0
 51 52  1  0  0  0  0
 18 21  1  0  0  0  0
 41 42  1  0  0  0  0
  7  8  1  0  0  0  0
 17 18  1  0  0  0  0
 29 39  1  0  0  0  0
 30 40  1  0  0  0  0
 27 37  1  0  0  0  0
 28 38  1  0  0  0  0
 23 35  1  0  0  0  0
  3  4  1  0  0  0  0
  3  5  1  0  0  0  0
  3  6  1  0  0  0  0
 45 48  1  0  0  0  0
 45 49  1  0  0  0  0
 45 50  1  0  0  0  0
 11 14  1  0  0  0  0
 11 15  1  0  0  0  0
 11 16  1  0  0  0  0
 52 54  1  0  0  0  0
 52 55  1  0  0  0  0
 52 56  1  0  0  0  0
 21 33  1  0  0  0  0
 21 34  1  0  0  0  0
 42 47  1  0  0  0  0
  8 13  1  0  0  0  0
 18 32  1  0  0  0  0
 25 36  1  0  0  0  0
 51 53  1  0  0  0  0
  7 12  1  0  0  0  0
 41 46  1  0  0  0  0
 17 31  1  0  0  0  0
M  END
$$$$

  -OEChem-05262214473D

 56 57  0     1  0  0  0  0  0999 V2000
   -2.2900    0.3401    4.1553 C   0  0  0  0  0  0  0  0  0  0  0  0
   -1.3426   -0.2746    3.6796 O   0  0  0  0  0  0  0  0  0  0  0  0
   -2.7219    0.0577    5.5560 C   0  0  0  0  0  0  0  0  0  0  0  0
   -3.4815   -0.7386    5.6094 H   0  0  0  0  0  0  0  0  0  0  0  0
   -1.8906   -0.2899    6.1903 H   0  0  0  0  0  0  0  0  0  0  0  0
   -3.1599    0.9126    6.0956 H   0  0  0  0  0  0  0  0  0  0  0  0
   -3.0397    1.3125    3.5142 N   0  0  0  0  0  0  0  0  0  0  0  0
   -2.7928    1.7385    2.1618 C   0  0  2  0  0  0  0  0  0  0  0  0
   -1.4579    1.1532    1.7206 C   0  0  0  0  0  0  0  0  0  0  0  0
   -0.5858    0.8004    2.5118 O   0  0  0  0  0  0  0  0  0  0  0  0
   -2.7841    3.2553    2.0523 C   0  0  0  0  0  0  0  0  0  0  0  0
   -3.8047    1.7484    4.0260 H   0  0  0  0  0  0  0  0  0  0  0  0
   -3.5969    1.3201    1.5466 H   0  0  0  0  0  0  0  0  0  0  0  0
   -1.9850    3.6926    2.6620 H   0  0  0  0  0  0  0  0  0  0  0  0
   -2.6246    3.5776    1.0180 H   0  0  0  0  0  0  0  0  0  0  0  0
   -3.7342    3.6765    2.3981 H   0  0  0  0  0  0  0  0  0  0  0  0
   -1.3352    1.1101    0.3372 N   0  0  0  0  0  0  0  0  0  0  0  0
   -0.1579    0.6093   -0.3265 C   0  0  2  0  0  0  0  0  0  0  0  0
    0.9513    0.5362    0.7169 C   0  0  0  0  0  0  0  0  0  0  0  0
    0.7392    0.2934    1.9030 O   0  0  0  0  0  0  0  0  0  0  0  0
    0.2701    1.5011   -1.4976 C   0  0  0  0  0  0  0  0  0  0  0  0
   -0.7227    1.4882   -2.6342 C   0  0  0  0  0  0  0  0  0  0  0  0
   -1.7070    2.4246   -2.8519 C   0  0  0  0  0  0  0  0  0  0  0  0
   -0.8127    0.5166   -3.6699 C   0  0  0  0  0  0  0  0  0  0  0  0
   -2.3930    2.0606   -3.9794 N   0  0  0  0  0  0  0  0  0  0  0  0
   -1.8685    0.8991   -4.5002 C   0  0  0  0  0  0  0  0  0  0  0  0
   -0.0951   -0.6553   -3.9817 C   0  0  0  0  0  0  0  0  0  0  0  0
   -2.2440    0.1655   -5.6311 C   0  0  0  0  0  0  0  0  0  0  0  0
   -0.4595   -1.3992   -5.1099 C   0  0  0  0  0  0  0  0  0  0  0  0
   -1.5177   -0.9932   -5.9205 C   0  0  0  0  0  0  0  0  0  0  0  0
   -2.1183    1.4068   -0.2401 H   0  0  0  0  0  0  0  0  0  0  0  0
   -0.3984   -0.4050   -0.6663 H   0  0  0  0  0  0  0  0  0  0  0  0
    1.2585    1.1957   -1.8670 H   0  0  0  0  0  0  0  0  0  0  0  0
    0.3961    2.5393   -1.1630 H   0  0  0  0  0  0  0  0  0  0  0  0
   -1.9824    3.3162   -2.3056 H   0  0  0  0  0  0  0  0  0  0  0  0
   -3.1718    2.5703   -4.3733 H   0  0  0  0  0  0  0  0  0  0  0  0
    0.7317   -0.9855   -3.3593 H   0  0  0  0  0  0  0  0  0  0  0  0
   -3.0669    0.4813   -6.2633 H   0  0  0  0  0  0  0  0  0  0  0  0
    0.0900   -2.3041   -5.3551 H   0  0  0  0  0  0  0  0  0  0  0  0
   -1.7836   -1.5860   -6.7920 H   0  0  0  0  0  0  0  0  0  0  0  0
    2.2064    0.7247    0.1550 N   0  0  0  0  0  0  0  0  0  0  0  0
    3.4324    0.6816    0.9190 C   0  0  2  0  0  0  0  0  0  0  0  0
    3.2640    1.5895    2.1302 C   0  0  0  0  0  0  0  0  0  0  0  0
    2.4466    2.5067    2.1725 O   0  0  0  0  0  0  0  0  0  0  0  0
    4.6239    1.1128    0.0781 C   0  0  0  0  0  0  0  0  0  0  0  0
    2.2662    0.9018   -0.8434 H   0  0  0  0  0  0  0  0  0  0  0  0
    3.5607   -0.3538    1.2530 H   0  0  0  0  0  0  0  0  0  0  0  0
    4.5132    2.1477   -0.2657 H   0  0  0  0  0  0  0  0  0  0  0  0
    5.5558    1.0523    0.6498 H   0  0  0  0  0  0  0  0  0  0  0  0
    4.7257    0.4772   -0.8082 H   0  0  0  0  0  0  0  0  0  0  0  0
    4.1633    1.2825    3.1417 N   0  0  0  0  0  0  0  0  0  0  0  0
    4.2117    2.0091    4.3889 C   0  0  0  0  0  0  0  0  0  0  0  0
    4.7926    0.4933    3.0282 H   0  0  0  0  0  0  0  0  0  0  0  0
    4.9447    2.8255    4.3101 H   0  0  0  0  0  0  0  0  0  0  0  0
    3.2185    2.4282    4.6077 H   0  0  0  0  0  0  0  0  0  0  0  0
    4.5084    1.3270    5.1992 H   0  0  0  0  0  0  0  0  0  0  0  0
 29 30  2  0  0  0  0
 27 29  1  0  0  0  0
 28 30  1  0  0  0  0
 24 27  2  0  0  0  0
 26 28  2  0  0  0  0
 22 23  2  0  0  0  0
 23 25  1  0  0  0  0
 22 24  1  0  0  0  0
 24 26  1  0  0  0  0
 21 22  1  0  0  0  0
 25 26  1  0  0  0  0
  1  3  1  0  0  0  0
  1  7  1  0  0  0  0
  1  2  2  0  0  0  0
 42 43  1  0  0  0  0
 43 51  1  0  0  0  0
 43 44  2  0  0  0  0
  8  9  1  0  0  0  0
  9 17  1  0  0  0  0
  9 10  2  0  0  0  0
 18 19  1  0  0  0  0
 19 41  1  0  0  0  0
 19 20  2  0  0  0  0
 42 45  1  0  0  0  0
  8 11  1  0  0  0  0
 51 52  1  0  0  0  0
 18 21  1  0  0  0  0
 41 42  1  0  0  0  0
  7  8  1  0  0  0  0
 17 18  1  0  0  0  0
 29 39  1  0  0  0  0
 30 40  1  0  0  0  0
 27 37  1  0  0  0  0
 28 38  1  0  0  0  0
 23 35  1  0  0  0  0
  3  4  1  0  0  0  0
  3  5  1  0  0  0  0
  3  6  1  0  0  0  0
 45 48  1  0  0  0  0
 45 49  1  0  0  0  0
 45 50  1  0  0  0  0
 11 14  1  0  0  0  0
 11 15  1  0  0  0  0
 11 16  1  0  0  0  0
 52 54  1  0  0  0  0
 52 55  1  0  0  0  0
 52 56  1  0  0  0  0
 21 33  1  0  0  0  0
 21 34  1  0  0  0  0
 42 47  1  0  0  0  0
  8 13  1  0  0  0  0
 18 32  1  0  0  0  0
 25 36  1  0  0  0  0
 51 53  1  0  0  0  0
  7 12  1  0  0  0  0
 41 46  1  0  0  0  0
 17 31  1  0  0  0  0
M  END
$$$$

  -OEChem-05262214473D

 56 57  0     1  0  0  0  0  0999 V2000
   -2.2900    0.3401    4.1553 C   0  0  0  0  0  0  0  0  0  0  0  0
   -1.3426   -0.2746    3.6796 O   0  0  0  0  0  0  0  0  0  0  0  0
   -2.7219    0.0577    5.5560 C   0  0  0  0  0  0  0  0  0  0  0  0
   -3.4815   -0.7386    5.6094 H   0  0  0  0  0  0  0  0  0  0  0  0
   -1.8906   -0.2899    6.1903 H   0  0  0  0  0  0  0  0  0  0  0  0
   -3.1599    0.9126    6.0956 H   0  0  0  0  0  0  0  0  0  0  0  0
   -3.0397    1.3125    3.5142 N   0  0  0  0  0  0  0  0  0  0  0  0
   -2.7928    1.7385    2.1618 C   0  0  2  0  0  0  0  0  0  0  0  0
   -1.4579    1.1532    1.7206 C   0  0  0  0  0  0  0  0  0  0  0  0
   -0.5858    0.8004    2.5118 O   0  0  0  0  0  0  0  0  0  0  0  0
   -2.7841    3.2553    2.0523 C   0  0  0  0  0  0  0  0  0  0  0  0
   -3.8047    1.7484    4.0260 H   0  0  0  0  0  0  0  0  0  0  0  0
   -3.5969    1.3201    1.5466 H   0  0  0  0  0  0  0  0  0  0  0  0
   -1.9850    3.6926    2.6620 H   0  0  0  0  0  0  0  0  0  0  0  0
   -2.6246    3.5776    1.0180 H   0  0  0  0  0  0  0  0  0  0  0  0
   -3.7342    3.6765    2.3981 H   0  0  0  0  0  0  0  0  0  0  0  0
   -1.3352    1.1101    0.3372 N   0  0  0  0  0  0  0  0  0  0  0  0
   -0.1579    0.6093   -0.3265 C   0  0  2  0  0  0  0  0  0  0  0  0
    0.9513    0.5362    0.7169 C   0  0  0  0  0  0  0  0  0  0  0  0
    0.7913    0.0397    1.8299 O   0  0  0  0  0  0  0  0  0  0  0  0
    0.2701    1.5011   -1.4976 C   0  0  0  0  0  0  0  0  0  0  0  0
   -0.7227    1.4882   -2.6342 C   0  0  0  0  0  0  0  0  0  0  0  0
   -1.7070    2.4246   -2.8519 C   0  0  0  0  0  0  0  0  0  0  0  0
   -0.8127    0.5166   -3.6699 C   0  0  0  0  0  0  0  0  0  0  0  0
   -2.3930    2.0606   -3.9794 N   0  0  0  0  0  0  0  0  0  0  0  0
   -1.8685    0.8991   -4.5002 C   0  0  0  0  0  0  0  0  0  0  0  0
   -0.0951   -0.6553   -3.9817 C   0  0  0  0  0  0  0  0  0  0  0  0
   -2.2440    0.1655   -5.6311 C   0  0  0  0  0  0  0  0  0  0  0  0
   -0.4595   -1.3992   -5.1099 C   0  0  0  0  0  0  0  0  0  0  0  0
   -1.5177   -0.9932   -5.9205 C   0  0  0  0  0  0  0  0  0  0  0  0
   -2.1183    1.4068   -0.2401 H   0  0  0  0  0  0  0  0  0  0  0  0
   -0.3984   -0.4050   -0.6663 H   0  0  0  0  0  0  0  0  0  0  0  0
    1.2585    1.1957   -1.8670 H   0  0  0  0  0  0  0  0  0  0  0  0
    0.3961    2.5393   -1.1630 H   0  0  0  0  0  0  0  0  0  0  0  0
   -1.9824    3.3162   -2.3056 H   0  0  0  0  0  0  0  0  0  0  0  0
   -3.1718    2.5703   -4.3733 H   0  0  0  0  0  0  0  0  0  0  0  0
    0.7317   -0.9855   -3.3593 H   0  0  0  0  0  0  0  0  0  0  0  0
   -3.0669    0.4813   -6.2633 H   0  0  0  0  0  0  0  0  0  0  0  0
    0.0900   -2.3041   -5.3551 H   0  0  0  0  0  0  0  0  0  0  0  0
   -1.7836   -1.5860   -6.7920 H   0  0  0  0  0  0  0  0  0  0  0  0
    2.1501    1.0455    0.2374 N   0  0  0  0  0  0  0  0  0  0  0  0
    3.3676    1.0749    1.0155 C   0  0  2  0  0  0  0  0  0  0  0  0
    3.0455    1.6929    2.3697 C   0  0  0  0  0  0  0  0  0  0  0  0
    2.0778    2.4270    2.5589 O   0  0  0  0  0  0  0  0  0  0  0  0
    4.4592    1.8603    0.3055 C   0  0  0  0  0  0  0  0  0  0  0  0
    2.1728    1.4163   -0.7080 H   0  0  0  0  0  0  0  0  0  0  0  0
    3.6800    0.0340    1.1534 H   0  0  0  0  0  0  0  0  0  0  0  0
    4.1643    2.9057    0.1584 H   0  0  0  0  0  0  0  0  0  0  0  0
    5.3896    1.8576    0.8829 H   0  0  0  0  0  0  0  0  0  0  0  0
    4.6687    1.4322   -0.6807 H   0  0  0  0  0  0  0  0  0  0  0  0
    3.9897    1.3630    3.3318 N   0  0  0  0  0  0  0  0  0  0  0  0
    3.9134    1.8371    4.6939 C   0  0  0  0  0  0  0  0  0  0  0  0
    4.7492    0.7328    3.0912 H   0  0  0  0  0  0  0  0  0  0  0  0
    4.4888    2.7696    4.7909 H   0  0  0  0  0  0  0  0  0  0  0  0
    2.8624    2.0258    4.9580 H   0  0  0  0  0  0  0  0  0  0  0  0
    4.3308    1.0769    5.3706 H   0  0  0  0  0  0  0  0  0  0  0  0
 29 30  2  0  0  0  0
 27 29  1  0  0  0  0
 28 30  1  0  0  0  0
 24 27  2  0  0  0  0
 26 28  2  0  0  0  0
 22 23  2  0  0  0  0
 23 25  1  0  0  0  0
 22 24  1  0  0  0  0
 24 26  1  0  0  0  0
 21 22  1  0  0  0  0
 25 26  1  0  0  0  0
  1  3  1  0  0  0  0
  1  7  1  0  0  0  0
  1  2  2  0  0  0  0
 42 43  1  0  0  0  0
 43 51  1  0  0  0  0
 43 44  2  0  0  0  0
  8  9  1  0  0  0  0
  9 17  1  0  0  0  0
  9 10  2  0  0  0  0
 18 19  1  0  0  0  0
 19 41  1  0  0  0  0
 19 20  2  0  0  0  0
 42 45  1  0  0  0  0
  8 11  1  0  0  0  0
 51 52  1  0  0  0  0
 18 21  1  0  0  0  0
 41 42  1  0  0  0  0
  7  8  1  0  0  0  0
 17 18  1  0  0  0  0
 29 39  1  0  0  0  0
 30 40  1  0  0  0  0
 27 37  1  0  0  0  0
 28 38  1  0  0  0  0
 23 35  1  0  0  0  0
  3  4  1  0  0  0  0
  3  5  1  0  0  0  0
  3  6  1  0  0  0  0
 45 48  1  0  0  0  0
 45 49  1  0  0  0  0
 45 50  1  0  0  0  0
 11 14  1  0  0  0  0
 11 15  1  0  0  0  0
 11 16  1  0  0  0  0
 52 54  1  0  0  0  0
 52 55  1  0  0  0  0
 52 56  1  0  0  0  0
 21 33  1  0  0  0  0
 21 34  1  0  0  0  0
 42 47  1  0  0  0  0
  8 13  1  0  0  0  0
 18 32  1  0  0  0  0
 25 36  1  0  0  0  0
 51 53  1  0  0  0  0
  7 12  1  0  0  0  0
 41 46  1  0  0  0  0
 17 31  1  0  0  0  0
M  END
$$$$

  -OEChem-05262214473D

 56 57  0     1  0  0  0  0  0999 V2000
   -2.2900    0.3401    4.1553 C   0  0  0  0  0  0  0  0  0  0  0  0
   -1.3426   -0.2746    3.6796 O   0  0  0  0  0  0  0  0  0  0  0  0
   -2.7219    0.0577    5.5560 C   0  0  0  0  0  0  0  0  0  0  0  0
   -3.4815   -0.7386    5.6094 H   0  0  0  0  0  0  0  0  0  0  0  0
   -1.8906   -0.2899    6.1903 H   0  0  0  0  0  0  0  0  0  0  0  0
   -3.1599    0.9126    6.0956 H   0  0  0  0  0  0  0  0  0  0  0  0
   -3.0397    1.3125    3.5142 N   0  0  0  0  0  0  0  0  0  0  0  0
   -2.7928    1.7385    2.1618 C   0  0  2  0  0  0  0  0  0  0  0  0
   -1.4579    1.1532    1.7206 C   0  0  0  0  0  0  0  0  0  0  0  0
   -0.5858    0.8004    2.5118 O   0  0  0  0  0  0  0  0  0  0  0  0
   -2.7841    3.2553    2.0523 C   0  0  0  0  0  0  0  0  0  0  0  0
   -3.8047    1.7484    4.0260 H   0  0  0  0  0  0  0  0  0  0  0  0
   -3.5969    1.3201    1.5466 H   0  0  0  0  0  0  0  0  0  0  0  0
   -1.9850    3.6926    2.6620 H   0  0  0  0  0  0  0  0  0  0  0  0
   -2.6246    3.5776    1.0180 H   0  0  0  0  0  0  0  0  0  0  0  0
   -3.7342    3.6765    2.3981 H   0  0  0  0  0  0  0  0  0  0  0  0
   -1.3352    1.1101    0.3372 N   0  0  0  0  0  0  0  0  0  0  0  0
   -0.1579    0.6093   -0.3265 C   0  0  2  0  0  0  0  0  0  0  0  0
    0.9513    0.5362    0.7169 C   0  0  0  0  0  0  0  0  0  0  0  0
    0.8874   -0.1824    1.7121 O   0  0  0  0  0  0  0  0  0  0  0  0
    0.2701    1.5011   -1.4976 C   0  0  0  0  0  0  0  0  0  0  0  0
   -0.7227    1.4882   -2.6342 C   0  0  0  0  0  0  0  0  0  0  0  0
   -1.7070    2.4246   -2.8519 C   0  0  0  0  0  0  0  0  0  0  0  0
   -0.8127    0.5166   -3.6699 C   0  0  0  0  0  0  0  0  0  0  0  0
   -2.3930    2.0606   -3.9794 N   0  0  0  0  0  0  0  0  0  0  0  0
   -1.8685    0.8991   -4.5002 C   0  0  0  0  0  0  0  0  0  0  0  0
   -0.0951   -0.6553   -3.9817 C   0  0  0  0  0  0  0  0  0  0  0  0
   -2.2440    0.1655   -5.6311 C   0  0  0  0  0  0  0  0  0  0  0  0
   -0.4595   -1.3992   -5.1099 C   0  0  0  0  0  0  0  0  0  0  0  0
   -1.5177   -0.9932   -5.9205 C   0  0  0  0  0  0  0  0  0  0  0  0
   -2.1183    1.4068   -0.2401 H   0  0  0  0  0  0  0  0  0  0  0  0
   -0.3984   -0.4050   -0.6663 H   0  0  0  0  0  0  0  0  0  0  0  0
    1.2585    1.1957   -1.8670 H   0  0  0  0  0  0  0  0  0  0  0  0
    0.3961    2.5393   -1.1630 H   0  0  0  0  0  0  0  0  0  0  0  0
   -1.9824    3.3162   -2.3056 H   0  0  0  0  0  0  0  0  0  0  0  0
   -3.1718    2.5703   -4.3733 H   0  0  0  0  0  0  0  0  0  0  0  0
    0.7317   -0.9855   -3.3593 H   0  0  0  0  0  0  0  0  0  0  0  0
   -3.0669    0.4813   -6.2633 H   0  0  0  0  0  0  0  0  0  0  0  0
    0.0900   -2.3041   -5.3551 H   0  0  0  0  0  0  0  0  0  0  0  0
   -1.7836   -1.5860   -6.7920 H   0  0  0  0  0  0  0  0  0  0  0  0
    2.0378    1.3299    0.3766 N   0  0  0  0  0  0  0  0  0  0  0  0
    3.2341    1.4252    1.1819 C   0  0  2  0  0  0  0  0  0  0  0  0
    2.8131    1.7089    2.6178 C   0  0  0  0  0  0  0  0  0  0  0  0
    1.7310    2.2120    2.9126 O   0  0  0  0  0  0  0  0  0  0  0  0
    4.1650    2.5105    0.6638 C   0  0  0  0  0  0  0  0  0  0  0  0
    1.9898    1.8712   -0.4816 H   0  0  0  0  0  0  0  0  0  0  0  0
    3.7278    0.4485    1.1317 H   0  0  0  0  0  0  0  0  0  0  0  0
    3.6877    3.4963    0.7064 H   0  0  0  0  0  0  0  0  0  0  0  0
    5.0835    2.5621    1.2577 H   0  0  0  0  0  0  0  0  0  0  0  0
    4.4430    2.3205   -0.3785 H   0  0  0  0  0  0  0  0  0  0  0  0
    3.8055    1.3741    3.5285 N   0  0  0  0  0  0  0  0  0  0  0  0
    3.6520    1.5607    4.9524 C   0  0  0  0  0  0  0  0  0  0  0  0
    4.6640    0.9446    3.1966 H   0  0  0  0  0  0  0  0  0  0  0  0
    4.0523    2.5444    5.2391 H   0  0  0  0  0  0  0  0  0  0  0  0
    2.5854    1.5080    5.2162 H   0  0  0  0  0  0  0  0  0  0  0  0
    4.2013    0.7716    5.4868 H   0  0  0  0  0  0  0  0  0  0  0  0
 29 30  2  0  0  0  0
 27 29  1  0  0  0  0
 28 30  1  0  0  0  0
 24 27  2  0  0  0  0
 26 28  2  0  0  0  0
 22 23  2  0  0  0  0
 23 25  1  0  0  0  0
 22 24  1  0  0  0  0
 24 26  1  0  0  0  0
 21 22  1  0  0  0  0
 25 26  1  0  0  0  0
  1  3  1  0  0  0  0
  1  7  1  0  0  0  0
  1  2  2  0  0  0  0
 42 43  1  0  0  0  0
 43 51  1  0  0  0  0
 43 44  2  0  0  0  0
  8  9  1  0  0  0  0
  9 17  1  0  0  0  0
  9 10  2  0  0  0  0
 18 19  1  0  0  0  0
 19 41  1  0  0  0  0
 19 20  2  0  0  0  0
 42 45  1  0  0  0  0
  8 11  1  0  0  0  0
 51 52  1  0  0  0  0
 18 21  1  0  0  0  0
 41 42  1  0  0  0  0
  7  8  1  0  0  0  0
 17 18  1  0  0  0  0
 29 39  1  0  0  0  0
 30 40  1  0  0  0  0
 27 37  1  0  0  0  0
 28 38  1  0  0  0  0
 23 35  1  0  0  0  0
  3  4  1  0  0  0  0
  3  5  1  0  0  0  0
  3  6  1  0  0  0  0
 45 48  1  0  0  0  0
 45 49  1  0  0  0  0
 45 50  1  0  0  0  0
 11 14  1  0  0  0  0
 11 15  1  0  0  0  0
 11 16  1  0  0  0  0
 52 54  1  0  0  0  0
 52 55  1  0  0  0  0
 52 56  1  0  0  0  0
 21 33  1  0  0  0  0
 21 34  1  0  0  0  0
 42 47  1  0  0  0  0
  8 13  1  0  0  0  0
 18 32  1  0  0  0  0
 25 36  1  0  0  0  0
 51 53  1  0  0  0  0
  7 12  1  0  0  0  0
 41 46  1  0  0  0  0
 17 31  1  0  0  0  0
M  END
$$$$

  -OEChem-05262214473D

 56 57  0     1  0  0  0  0  0999 V2000
   -2.2900    0.3401    4.1553 C   0  0  0  0  0  0  0  0  0  0  0  0
   -1.3426   -0.2746    3.6796 O   0  0  0  0  0  0  0  0  0  0  0  0
   -2.7219    0.0577    5.5560 C   0  0  0  0  0  0  0  0  0  0  0  0
   -3.4815   -0.7386    5.6094 H   0  0  0  0  0  0  0  0  0  0  0  0
   -1.8906   -0.2899    6.1903 H   0  0  0  0  0  0  0  0  0  0  0  0
   -3.1599    0.9126    6.0956 H   0  0  0  0  0  0  0  0  0  0  0  0
   -3.0397    1.3125    3.5142 N   0  0  0  0  0  0  0  0  0  0  0  0
   -2.7928    1.7385    2.1618 C   0  0  2  0  0  0  0  0  0  0  0  0
   -1.4579    1.1532    1.7206 C   0  0  0  0  0  0  0  0  0  0  0  0
   -0.5858    0.8004    2.5118 O   0  0  0  0  0  0  0  0  0  0  0  0
   -2.7841    3.2553    2.0523 C   0  0  0  0  0  0  0  0  0  0  0  0
   -3.8047    1.7484    4.0260 H   0  0  0  0  0  0  0  0  0  0  0  0
   -3.5969    1.3201    1.5466 H   0  0  0  0  0  0  0  0  0  0  0  0
   -1.9850    3.6926    2.6620 H   0  0  0  0  0  0  0  0  0  0  0  0
   -2.6246    3.5776    1.0180 H   0  0  0  0  0  0  0  0  0  0  0  0
   -3.7342    3.6765    2.3981 H   0  0  0  0  0  0  0  0  0  0  0  0
   -1.3352    1.1101    0.3372 N   0  0  0  0  0  0  0  0  0  0  0  0
   -0.1579    0.6093   -0.3265 C   0  0  2  0  0  0  0  0  0  0  0  0
    0.9513    0.5362    0.7169 C   0  0  0  0  0  0  0  0  0  0  0  0
    1.0211   -0.3578    1.5577 O   0  0  0  0  0  0  0  0  0  0  0  0
    0.2701    1.5011   -1.4976 C   0  0  0  0  0  0  0  0  0  0  0  0
   -0.7227    1.4882   -2.6342 C   0  0  0  0  0  0  0  0  0  0  0  0
   -1.7070    2.4246   -2.8519 C   0  0  0  0  0  0  0  0  0  0  0  0
   -0.8127    0.5166   -3.6699 C   0  0  0  0  0  0  0  0  0  0  0  0
   -2.3930    2.0606   -3.9794 N   0  0  0  0  0  0  0  0  0  0  0  0
   -1.8685    0.8991   -4.5002 C   0  0  0  0  0  0  0  0  0  0  0  0
   -0.0951   -0.6553   -3.9817 C   0  0  0  0  0  0  0  0  0  0  0  0
   -2.2440    0.1655   -5.6311 C   0  0  0  0  0  0  0  0  0  0  0  0
   -0.4595   -1.3992   -5.1099 C   0  0  0  0  0  0  0  0  0  0  0  0
   -1.5177   -0.9932   -5.9205 C   0  0  0  0  0  0  0  0  0  0  0  0
   -2.1183    1.4068   -0.2401 H   0  0  0  0  0  0  0  0  0  0  0  0
   -0.3984   -0.4050   -0.6663 H   0  0  0  0  0  0  0  0  0  0  0  0
    1.2585    1.1957   -1.8670 H   0  0  0  0  0  0  0  0  0  0  0  0
    0.3961    2.5393   -1.1630 H   0  0  0  0  0  0  0  0  0  0  0  0
   -1.9824    3.3162   -2.3056 H   0  0  0  0  0  0  0  0  0  0  0  0
   -3.1718    2.5703   -4.3733 H   0  0  0  0  0  0  0  0  0  0  0  0
    0.7317   -0.9855   -3.3593 H   0  0  0  0  0  0  0  0  0  0  0  0
   -3.0669    0.4813   -6.2633 H   0  0  0  0  0  0  0  0  0  0  0  0
    0.0900   -2.3041   -5.3551 H   0  0  0  0  0  0  0  0  0  0  0  0
   -1.7836   -1.5860   -6.7920 H   0  0  0  0  0  0  0  0  0  0  0  0
    1.8773    1.5586    0.5633 N   0  0  0  0  0  0  0  0  0  0  0  0
    3.0411    1.7085    1.4070 C   0  0  2  0  0  0  0  0  0  0  0  0
    2.5828    1.6366    2.8576 C   0  0  0  0  0  0  0  0  0  0  0  0
    1.4296    1.8763    3.2094 O   0  0  0  0  0  0  0  0  0  0  0  0
    3.7611    3.0188    1.1288 C   0  0  0  0  0  0  0  0  0  0  0  0
    1.7296    2.2355   -0.1795 H   0  0  0  0  0  0  0  0  0  0  0  0
    3.7008    0.8614    1.1894 H   0  0  0  0  0  0  0  0  0  0  0  0
    3.1159    3.8791    1.3411 H   0  0  0  0  0  0  0  0  0  0  0  0
    4.6585    3.1178    1.7485 H   0  0  0  0  0  0  0  0  0  0  0  0
    4.0638    3.0817    0.0780 H   0  0  0  0  0  0  0  0  0  0  0  0
    3.6231    1.3152    3.7183 N   0  0  0  0  0  0  0  0  0  0  0  0
    3.4453    1.1988    5.1468 C   0  0  0  0  0  0  0  0  0  0  0  0
    4.5429    1.1142    3.3372 H   0  0  0  0  0  0  0  0  0  0  0  0
    3.6651    2.1651    5.6242 H   0  0  0  0  0  0  0  0  0  0  0  0
    2.4064    0.9102    5.3646 H   0  0  0  0  0  0  0  0  0  0  0  0
    4.1289    0.4319    5.5400 H   0  0  0  0  0  0  0  0  0  0  0  0
 29 30  2  0  0  0  0
 27 29  1  0  0  0  0
 28 30  1  0  0  0  0
 24 27  2  0  0  0  0
 26 28  2  0  0  0  0
 22 23  2  0  0  0  0
 23 25  1  0  0  0  0
 22 24  1  0  0  0  0
 24 26  1  0  0  0  0
 21 22  1  0  0  0  0
 25 26  1  0  0  0  0
  1  3  1  0  0  0  0
  1  7  1  0  0  0  0
  1  2  2  0  0  0  0
 42 43  1  0  0  0  0
 43 51  1  0  0  0  0
 43 44  2  0  0  0  0
  8  9  1  0  0  0  0
  9 17  1  0  0  0  0
  9 10  2  0  0  0  0
 18 19  1  0  0  0  0
 19 41  1  0  0  0  0
 19 20  2  0  0  0  0
 42 45  1  0  0  0  0
  8 11  1  0  0  0  0
 51 52  1  0  0  0  0
 18 21  1  0  0  0  0
 41 42  1  0  0  0  0
  7  8  1  0  0  0  0
 17 18  1  0  0  0  0
 29 39  1  0  0  0  0
 30 40  1  0  0  0  0
 27 37  1  0  0  0  0
 28 38  1  0  0  0  0
 23 35  1  0  0  0  0
  3  4  1  0  0  0  0
  3  5  1  0  0  0  0
  3  6  1  0  0  0  0
 45 48  1  0  0  0  0
 45 49  1  0  0  0  0
 45 50  1  0  0  0  0
 11 14  1  0  0  0  0
 11 15  1  0  0  0  0
 11 16  1  0  0  0  0
 52 54  1  0  0  0  0
 52 55  1  0  0  0  0
 52 56  1  0  0  0  0
 21 33  1  0  0  0  0
 21 34  1  0  0  0  0
 42 47  1  0  0  0  0
  8 13  1  0  0  0  0
 18 32  1  0  0  0  0
 25 36  1  0  0  0  0
 51 53  1  0  0  0  0
  7 12  1  0  0  0  0
 41 46  1  0  0  0  0
 17 31  1  0  0  0  0
M  END
$$$$

  -OEChem-05262214473D

 56 57  0     1  0  0  0  0  0999 V2000
   -2.2900    0.3401    4.1553 C   0  0  0  0  0  0  0  0  0  0  0  0
   -1.3426   -0.2746    3.6796 O   0  0  0  0  0  0  0  0  0  0  0  0
   -2.7219    0.0577    5.5560 C   0  0  0  0  0  0  0  0  0  0  0  0
   -3.4815   -0.7386    5.6094 H   0  0  0  0  0  0  0  0  0  0  0  0
   -1.8906   -0.2899    6.1903 H   0  0  0  0  0  0  0  0  0  0  0  0
   -3.1599    0.9126    6.0956 H   0  0  0  0  0  0  0  0  0  0  0  0
   -3.0397    1.3125    3.5142 N   0  0  0  0  0  0  0  0  0  0  0  0
   -2.7928    1.7385    2.1618 C   0  0  2  0  0  0  0  0  0  0  0  0
   -1.4579    1.1532    1.7206 C   0  0  0  0  0  0  0  0  0  0  0  0
   -0.5858    0.8004    2.5118 O   0  0  0  0  0  0  0  0  0  0  0  0
   -2.7841    3.2553    2.0523 C   0  0  0  0  0  0  0  0  0  0  0  0
   -3.8047    1.7484    4.0260 H   0  0  0  0  0  0  0  0  0  0  0  0
   -3.5969    1.3201    1.5466 H   0  0  0  0  0  0  0  0  0  0  0  0
   -1.9850    3.6926    2.6620 H   0  0  0  0  0  0  0  0  0  0  0  0
   -2.6246    3.5776    1.0180 H   0  0  0  0  0  0  0  0  0  0  0  0
   -3.7342    3.6765    2.3981 H   0  0  0  0  0  0  0  0  0  0  0  0
   -1.3352    1.1101    0.3372 N   0  0  0  0  0  0  0  0  0  0  0  0
   -0.1579    0.6093   -0.3265 C   0  0  2  0  0  0  0  0  0  0  0  0
    0.9513    0.5362    0.7169 C   0  0  0  0  0  0  0  0  0  0  0  0
    1.1832   -0.4743    1.3772 O   0  0  0  0  0  0  0  0  0  0  0  0
    0.2701    1.5011   -1.4976 C   0  0  0  0  0  0  0  0  0  0  0  0
   -0.7227    1.4882   -2.6342 C   0  0  0  0  0  0  0  0  0  0  0  0
   -1.7070    2.4246   -2.8519 C   0  0  0  0  0  0  0  0  0  0  0  0
   -0.8127    0.5166   -3.6699 C   0  0  0  0  0  0  0  0  0  0  0  0
   -2.3930    2.0606   -3.9794 N   0  0  0  0  0  0  0  0  0  0  0  0
   -1.8685    0.8991   -4.5002 C   0  0  0  0  0  0  0  0  0  0  0  0
   -0.0951   -0.6553   -3.9817 C   0  0  0  0  0  0  0  0  0  0  0  0
   -2.2440    0.1655   -5.6311 C   0  0  0  0  0  0  0  0  0  0  0  0
   -0.4595   -1.3992   -5.1099 C   0  0  0  0  0  0  0  0  0  0  0  0
   -1.5177   -0.9932   -5.9205 C   0  0  0  0  0  0  0  0  0  0  0  0
   -2.1183    1.4068   -0.2401 H   0  0  0  0  0  0  0  0  0  0  0  0
   -0.3984   -0.4050   -0.6663 H   0  0  0  0  0  0  0  0  0  0  0  0
    1.2585    1.1957   -1.8670 H   0  0  0  0  0  0  0  0  0  0  0  0
    0.3961    2.5393   -1.1630 H   0  0  0  0  0  0  0  0  0  0  0  0
   -1.9824    3.3162   -2.3056 H   0  0  0  0  0  0  0  0  0  0  0  0
   -3.1718    2.5703   -4.3733 H   0  0  0  0  0  0  0  0  0  0  0  0
    0.7317   -0.9855   -3.3593 H   0  0  0  0  0  0  0  0  0  0  0  0
   -3.0669    0.4813   -6.2633 H   0  0  0  0  0  0  0  0  0  0  0  0
    0.0900   -2.3041   -5.3551 H   0  0  0  0  0  0  0  0  0  0  0  0
   -1.7836   -1.5860   -6.7920 H   0  0  0  0  0  0  0  0  0  0  0  0
    1.6794    1.7158    0.7846 N   0  0  0  0  0  0  0  0  0  0  0  0
    2.8017    1.9056    1.6753 C   0  0  2  0  0  0  0  0  0  0  0  0
    2.3702    1.4807    3.0727 C   0  0  0  0  0  0  0  0  0  0  0  0
    1.1943    1.4428    3.4291 O   0  0  0  0  0  0  0  0  0  0  0  0
    3.2753    3.3508    1.6686 C   0  0  0  0  0  0  0  0  0  0  0  0
    1.4100    2.4845    0.1777 H   0  0  0  0  0  0  0  0  0  0  0  0
    3.6008    1.2446    1.3225 H   0  0  0  0  0  0  0  0  0  0  0  0
    2.4879    4.0280    2.0191 H   0  0  0  0  0  0  0  0  0  0  0  0
    4.1433    3.4869    2.3220 H   0  0  0  0  0  0  0  0  0  0  0  0
    3.5571    3.6638    0.6575 H   0  0  0  0  0  0  0  0  0  0  0  0
    3.4550    1.1903    3.8882 N   0  0  0  0  0  0  0  0  0  0  0  0
    3.3073    0.7759    5.2639 C   0  0  0  0  0  0  0  0  0  0  0  0
    4.3942    1.2301    3.5034 H   0  0  0  0  0  0  0  0  0  0  0  0
    3.3534    1.6577    5.9199 H   0  0  0  0  0  0  0  0  0  0  0  0
    2.3375    0.2732    5.3932 H   0  0  0  0  0  0  0  0  0  0  0  0
    4.1185    0.0809    5.5264 H   0  0  0  0  0  0  0  0  0  0  0  0
 29 30  2  0  0  0  0
 27 29  1  0  0  0  0
 28 30  1  0  0  0  0
 24 27  2  0  0  0  0
 26 28  2  0  0  0  0
 22 23  2  0  0  0  0
 23 25  1  0  0  0  0
 22 24  1  0  0  0  0
 24 26  1  0  0  0  0
 21 22  1  0  0  0  0
 25 26  1  0  0  0  0
  1  3  1  0  0  0  0
  1  7  1  0  0  0  0
  1  2  2  0  0  0  0
 42 43  1  0  0  0  0
 43 51  1  0  0  0  0
 43 44  2  0  0  0  0
  8  9  1  0  0  0  0
  9 17  1  0  0  0  0
  9 10  2  0  0  0  0
 18 19  1  0  0  0  0
 19 41  1  0  0  0  0
 19 20  2  0  0  0  0
 42 45  1  0  0  0  0
  8 11  1  0  0  0  0
 51 52  1  0  0  0  0
 18 21  1  0  0  0  0
 41 42  1  0  0  0  0
  7  8  1  0  0  0  0
 17 18  1  0  0  0  0
 29 39  1  0  0  0  0
 30 40  1  0  0  0  0
 27 37  1  0  0  0  0
 28 38  1  0  0  0  0
 23 35  1  0  0  0  0
  3  4  1  0  0  0  0
  3  5  1  0  0  0  0
  3  6  1  0  0  0  0
 45 48  1  0  0  0  0
 45 49  1  0  0  0  0
 45 50  1  0  0  0  0
 11 14  1  0  0  0  0
 11 15  1  0  0  0  0
 11 16  1  0  0  0  0
 52 54  1  0  0  0  0
 52 55  1  0  0  0  0
 52 56  1  0  0  0  0
 21 33  1  0  0  0  0
 21 34  1  0  0  0  0
 42 47  1  0  0  0  0
  8 13  1  0  0  0  0
 18 32  1  0  0  0  0
 25 36  1  0  0  0  0
 51 53  1  0  0  0  0
  7 12  1  0  0  0  0
 41 46  1  0  0  0  0
 17 31  1  0  0  0  0
M  END
$$$$

  -OEChem-05262214473D

 56 57  0     1  0  0  0  0  0999 V2000
   -2.2900    0.3401    4.1553 C   0  0  0  0  0  0  0  0  0  0  0  0
   -1.3426   -0.2746    3.6796 O   0  0  0  0  0  0  0  0  0  0  0  0
   -2.7219    0.0577    5.5560 C   0  0  0  0  0  0  0  0  0  0  0  0
   -3.4815   -0.7386    5.6094 H   0  0  0  0  0  0  0  0  0  0  0  0
   -1.8906   -0.2899    6.1903 H   0  0  0  0  0  0  0  0  0  0  0  0
   -3.1599    0.9126    6.0956 H   0  0  0  0  0  0  0  0  0  0  0  0
   -3.0397    1.3125    3.5142 N   0  0  0  0  0  0  0  0  0  0  0  0
   -2.7928    1.7385    2.1618 C   0  0  2  0  0  0  0  0  0  0  0  0
   -1.4579    1.1532    1.7206 C   0  0  0  0  0  0  0  0  0  0  0  0
   -0.5858    0.8004    2.5118 O   0  0  0  0  0  0  0  0  0  0  0  0
   -2.7841    3.2553    2.0523 C   0  0  0  0  0  0  0  0  0  0  0  0
   -3.8047    1.7484    4.0260 H   0  0  0  0  0  0  0  0  0  0  0  0
   -3.5969    1.3201    1.5466 H   0  0  0  0  0  0  0  0  0  0  0  0
   -1.9850    3.6926    2.6620 H   0  0  0  0  0  0  0  0  0  0  0  0
   -2.6246    3.5776    1.0180 H   0  0  0  0  0  0  0  0  0  0  0  0
   -3.7342    3.6765    2.3981 H   0  0  0  0  0  0  0  0  0  0  0  0
   -1.3352    1.1101    0.3372 N   0  0  0  0  0  0  0  0  0  0  0  0
   -0.1579    0.6093   -0.3265 C   0  0  2  0  0  0  0  0  0  0  0  0
    0.9513    0.5362    0.7169 C   0  0  0  0  0  0  0  0  0  0  0  0
    1.3627   -0.5242    1.1829 O   0  0  0  0  0  0  0  0  0  0  0  0
    0.2701    1.5011   -1.4976 C   0  0  0  0  0  0  0  0  0  0  0  0
   -0.7227    1.4882   -2.6342 C   0  0  0  0  0  0  0  0  0  0  0  0
   -1.7070    2.4246   -2.8519 C   0  0  0  0  0  0  0  0  0  0  0  0
   -0.8127    0.5166   -3.6699 C   0  0  0  0  0  0  0  0  0  0  0  0
   -2.3930    2.0606   -3.9794 N   0  0  0  0  0  0  0  0  0  0  0  0
   -1.8685    0.8991   -4.5002 C   0  0  0  0  0  0  0  0  0  0  0  0
   -0.0951   -0.6553   -3.9817 C   0  0  0  0  0  0  0  0  0  0  0  0
   -2.2440    0.1655   -5.6311 C   0  0  0  0  0  0  0  0  0  0  0  0
   -0.4595   -1.3992   -5.1099 C   0  0  0  0  0  0  0  0  0  0  0  0
   -1.5177   -0.9932   -5.9205 C   0  0  0  0  0  0  0  0  0  0  0  0
   -2.1183    1.4068   -0.2401 H   0  0  0  0  0  0  0  0  0  0  0  0
   -0.3984   -0.4050   -0.6663 H   0  0  0  0  0  0  0  0  0  0  0  0
    1.2585    1.1957   -1.8670 H   0  0  0  0  0  0  0  0  0  0  0  0
    0.3961    2.5393   -1.1630 H   0  0  0  0  0  0  0  0  0  0  0  0
   -1.9824    3.3162   -2.3056 H   0  0  0  0  0  0  0  0  0  0  0  0
   -3.1718    2.5703   -4.3733 H   0  0  0  0  0  0  0  0  0  0  0  0
    0.7317   -0.9855   -3.3593 H   0  0  0  0  0  0  0  0  0  0  0  0
   -3.0669    0.4813   -6.2633 H   0  0  0  0  0  0  0  0  0  0  0  0
    0.0900   -2.3041   -5.3551 H   0  0  0  0  0  0  0  0  0  0  0  0
   -1.7836   -1.5860   -6.7920 H   0  0  0  0  0  0  0  0  0  0  0  0
    1.4577    1.7910    1.0256 N   0  0  0  0  0  0  0  0  0  0  0  0
    2.5322    2.0031    1.9687 C   0  0  2  0  0  0  0  0  0  0  0  0
    2.1897    1.2520    3.2485 C   0  0  0  0  0  0  0  0  0  0  0  0
    1.0411    0.9410    3.5569 O   0  0  0  0  0  0  0  0  0  0  0  0
    2.7404    3.4837    2.2465 C   0  0  0  0  0  0  0  0  0  0  0  0
    1.0528    2.6011    0.5656 H   0  0  0  0  0  0  0  0  0  0  0  0
    3.4348    1.5720    1.5220 H   0  0  0  0  0  0  0  0  0  0  0  0
    1.8465    3.9330    2.6943 H   0  0  0  0  0  0  0  0  0  0  0  0
    3.5733    3.6441    2.9390 H   0  0  0  0  0  0  0  0  0  0  0  0
    2.9573    4.0272    1.3205 H   0  0  0  0  0  0  0  0  0  0  0  0
    3.3126    1.0078    4.0268 N   0  0  0  0  0  0  0  0  0  0  0  0
    3.2475    0.3210    5.2956 C   0  0  0  0  0  0  0  0  0  0  0  0
    4.2279    1.2845    3.6840 H   0  0  0  0  0  0  0  0  0  0  0  0
    3.1386    1.0566    6.1062 H   0  0  0  0  0  0  0  0  0  0  0  0
    2.3835   -0.3598    5.3000 H   0  0  0  0  0  0  0  0  0  0  0  0
    4.1708   -0.2574    5.4472 H   0  0  0  0  0  0  0  0  0  0  0  0
 29 30  2  0  0  0  0
 27 29  1  0  0  0  0
 28 30  1  0  0  0  0
 24 27  2  0  0  0  0
 26 28  2  0  0  0  0
 22 23  2  0  0  0  0
 23 25  1  0  0  0  0
 22 24  1  0  0  0  0
 24 26  1  0  0  0  0
 21 22  1  0  0  0  0
 25 26  1  0  0  0  0
  1  3  1  0  0  0  0
  1  7  1  0  0  0  0
  1  2  2  0  0  0  0
 42 43  1  0  0  0  0
 43 51  1  0  0  0  0
 43 44  2  0  0  0  0
  8  9  1  0  0  0  0
  9 17  1  0  0  0  0
  9 10  2  0  0  0  0
 18 19  1  0  0  0  0
 19 41  1  0  0  0  0
 19 20  2  0  0  0  0
 42 45  1  0  0  0  0
  8 11  1  0  0  0  0
 51 52  1  0  0  0  0
 18 21  1  0  0  0  0
 41 42  1  0  0  0  0
  7  8  1  0  0  0  0
 17 18  1  0  0  0  0
 29 39  1  0  0  0  0
 30 40  1  0  0  0  0
 27 37  1  0  0  0  0
 28 38  1  0  0  0  0
 23 35  1  0  0  0  0
  3  4  1  0  0  0  0
  3  5  1  0  0  0  0
  3  6  1  0  0  0  0
 45 48  1  0  0  0  0
 45 49  1  0  0  0  0
 45 50  1  0  0  0  0
 11 14  1  0  0  0  0
 11 15  1  0  0  0  0
 11 16  1  0  0  0  0
 52 54  1  0  0  0  0
 52 55  1  0  0  0  0
 52 56  1  0  0  0  0
 21 33  1  0  0  0  0
 21 34  1  0  0  0  0
 42 47  1  0  0  0  0
  8 13  1  0  0  0  0
 18 32  1  0  0  0  0
 25 36  1  0  0  0  0
 51 53  1  0  0  0  0
  7 12  1  0  0  0  0
 41 46  1  0  0  0  0
 17 31  1  0  0  0  0
M  END
$$$$

  -OEChem-05262214473D

 56 57  0     1  0  0  0  0  0999 V2000
   -2.2900    0.3401    4.1553 C   0  0  0  0  0  0  0  0  0  0  0  0
   -1.3426   -0.2746    3.6796 O   0  0  0  0  0  0  0  0  0  0  0  0
   -2.7219    0.0577    5.5560 C   0  0  0  0  0  0  0  0  0  0  0  0
   -3.4815   -0.7386    5.6094 H   0  0  0  0  0  0  0  0  0  0  0  0
   -1.8906   -0.2899    6.1903 H   0  0  0  0  0  0  0  0  0  0  0  0
   -3.1599    0.9126    6.0956 H   0  0  0  0  0  0  0  0  0  0  0  0
   -3.0397    1.3125    3.5142 N   0  0  0  0  0  0  0  0  0  0  0  0
   -2.7928    1.7385    2.1618 C   0  0  2  0  0  0  0  0  0  0  0  0
   -1.4579    1.1532    1.7206 C   0  0  0  0  0  0  0  0  0  0  0  0
   -0.5858    0.8004    2.5118 O   0  0  0  0  0  0  0  0  0  0  0  0
   -2.7841    3.2553    2.0523 C   0  0  0  0  0  0  0  0  0  0  0  0
   -3.8047    1.7484    4.0260 H   0  0  0  0  0  0  0  0  0  0  0  0
   -3.5969    1.3201    1.5466 H   0  0  0  0  0  0  0  0  0  0  0  0
   -1.9850    3.6926    2.6620 H   0  0  0  0  0  0  0  0  0  0  0  0
   -2.6246    3.5776    1.0180 H   0  0  0  0  0  0  0  0  0  0  0  0
   -3.7342    3.6765    2.3981 H   0  0  0  0  0  0  0  0  0  0  0  0
   -1.3352    1.1101    0.3372 N   0  0  0  0  0  0  0  0  0  0  0  0
   -0.1579    0.6093   -0.3265 C   0  0  2  0  0  0  0  0  0  0  0  0
    0.9513    0.5362    0.7169 C   0  0  0  0  0  0  0  0  0  0  0  0
    1.5473   -0.5041    0.9880 O   0  0  0  0  0  0  0  0  0  0  0  0
    0.2701    1.5011   -1.4976 C   0  0  0  0  0  0  0  0  0  0  0  0
   -0.7227    1.4882   -2.6342 C   0  0  0  0  0  0  0  0  0  0  0  0
   -1.7070    2.4246   -2.8519 C   0  0  0  0  0  0  0  0  0  0  0  0
   -0.8127    0.5166   -3.6699 C   0  0  0  0  0  0  0  0  0  0  0  0
   -2.3930    2.0606   -3.9794 N   0  0  0  0  0  0  0  0  0  0  0  0
   -1.8685    0.8991   -4.5002 C   0  0  0  0  0  0  0  0  0  0  0  0
   -0.0951   -0.6553   -3.9817 C   0  0  0  0  0  0  0  0  0  0  0  0
   -2.2440    0.1655   -5.6311 C   0  0  0  0  0  0  0  0  0  0  0  0
   -0.4595   -1.3992   -5.1099 C   0  0  0  0  0  0  0  0  0  0  0  0
   -1.5177   -0.9932   -5.9205 C   0  0  0  0  0  0  0  0  0  0  0  0
   -2.1183    1.4068   -0.2401 H   0  0  0  0  0  0  0  0  0  0  0  0
   -0.3984   -0.4050   -0.6663 H   0  0  0  0  0  0  0  0  0  0  0  0
    1.2585    1.1957   -1.8670 H   0  0  0  0  0  0  0  0  0  0  0  0
    0.3961    2.5393   -1.1630 H   0  0  0  0  0  0  0  0  0  0  0  0
   -1.9824    3.3162   -2.3056 H   0  0  0  0  0  0  0  0  0  0  0  0
   -3.1718    2.5703   -4.3733 H   0  0  0  0  0  0  0  0  0  0  0  0
    0.7317   -0.9855   -3.3593 H   0  0  0  0  0  0  0  0  0  0  0  0
   -3.0669    0.4813   -6.2633 H   0  0  0  0  0  0  0  0  0  0  0  0
    0.0900   -2.3041   -5.3551 H   0  0  0  0  0  0  0  0  0  0  0  0
   -1.7836   -1.5860   -6.7920 H   0  0  0  0  0  0  0  0  0  0  0  0
    1.2272    1.7790    1.2698 N   0  0  0  0  0  0  0  0  0  0  0  0
    2.2509    1.9942    2.2670 C   0  0  2  0  0  0  0  0  0  0  0  0
    2.0537    0.9660    3.3731 C   0  0  0  0  0  0  0  0  0  0  0  0
    0.9804    0.4051    3.5838 O   0  0  0  0  0  0  0  0  0  0  0  0
    2.1931    3.4085    2.8231 C   0  0  0  0  0  0  0  0  0  0  0  0
    0.6823    2.5774    0.9579 H   0  0  0  0  0  0  0  0  0  0  0  0
    3.2139    1.8212    1.7742 H   0  0  0  0  0  0  0  0  0  0  0  0
    1.2354    3.6005    3.3206 H   0  0  0  0  0  0  0  0  0  0  0  0
    2.9871    3.5789    3.5576 H   0  0  0  0  0  0  0  0  0  0  0  0
    2.3053    4.1471    2.0220 H   0  0  0  0  0  0  0  0  0  0  0  0
    3.2057    0.7803    4.1245 N   0  0  0  0  0  0  0  0  0  0  0  0
    3.2698   -0.1350    5.2399 C   0  0  0  0  0  0  0  0  0  0  0  0
    4.0554    1.2735    3.8666 H   0  0  0  0  0  0  0  0  0  0  0  0
    3.0352    0.4029    6.1703 H   0  0  0  0  0  0  0  0  0  0  0  0
    2.5411   -0.9455    5.0913 H   0  0  0  0  0  0  0  0  0  0  0  0
    4.2822   -0.5600    5.3075 H   0  0  0  0  0  0  0  0  0  0  0  0
 29 30  2  0  0  0  0
 27 29  1  0  0  0  0
 28 30  1  0  0  0  0
 24 27  2  0  0  0  0
 26 28  2  0  0  0  0
 22 23  2  0  0  0  0
 23 25  1  0  0  0  0
 22 24  1  0  0  0  0
 24 26  1  0  0  0  0
 21 22  1  0  0  0  0
 25 26  1  0  0  0  0
  1  3  1  0  0  0  0
  1  7  1  0  0  0  0
  1  2  2  0  0  0  0
 42 43  1  0  0  0  0
 43 51  1  0  0  0  0
 43 44  2  0  0  0  0
  8  9  1  0  0  0  0
  9 17  1  0  0  0  0
  9 10  2  0  0  0  0
 18 19  1  0  0  0  0
 19 41  1  0  0  0  0
 19 20  2  0  0  0  0
 42 45  1  0  0  0  0
  8 11  1  0  0  0  0
 51 52  1  0  0  0  0
 18 21  1  0  0  0  0
 41 42  1  0  0  0  0
  7  8  1  0  0  0  0
 17 18  1  0  0  0  0
 29 39  1  0  0  0  0
 30 40  1  0  0  0  0
 27 37  1  0  0  0  0
 28 38  1  0  0  0  0
 23 35  1  0  0  0  0
  3  4  1  0  0  0  0
  3  5  1  0  0  0  0
  3  6  1  0  0  0  0
 45 48  1  0  0  0  0
 45 49  1  0  0  0  0
 45 50  1  0  0  0  0
 11 14  1  0  0  0  0
 11 15  1  0  0  0  0
 11 16  1  0  0  0  0
 52 54  1  0  0  0  0
 52 55  1  0  0  0  0
 52 56  1  0  0  0  0
 21 33  1  0  0  0  0
 21 34  1  0  0  0  0
 42 47  1  0  0  0  0
  8 13  1  0  0  0  0
 18 32  1  0  0  0  0
 25 36  1  0  0  0  0
 51 53  1  0  0  0  0
  7 12  1  0  0  0  0
 41 46  1  0  0  0  0
 17 31  1  0  0  0  0
M  END
$$$$

  -OEChem-05262214473D

 56 57  0     1  0  0  0  0  0999 V2000
   -2.2900    0.3401    4.1553 C   0  0  0  0  0  0  0  0  0  0  0  0
   -1.3426   -0.2746    3.6796 O   0  0  0  0  0  0  0  0  0  0  0  0
   -2.7219    0.0577    5.5560 C   0  0  0  0  0  0  0  0  0  0  0  0
   -3.4815   -0.7386    5.6094 H   0  0  0  0  0  0  0  0  0  0  0  0
   -1.8906   -0.2899    6.1903 H   0  0  0  0  0  0  0  0  0  0  0  0
   -3.1599    0.9126    6.0956 H   0  0  0  0  0  0  0  0  0  0  0  0
   -3.0397    1.3125    3.5142 N   0  0  0  0  0  0  0  0  0  0  0  0
   -2.7928    1.7385    2.1618 C   0  0  2  0  0  0  0  0  0  0  0  0
   -1.4579    1.1532    1.7206 C   0  0  0  0  0  0  0  0  0  0  0  0
   -0.5858    0.8004    2.5118 O   0  0  0  0  0  0  0  0  0  0  0  0
   -2.7841    3.2553    2.0523 C   0  0  0  0  0  0  0  0  0  0  0  0
   -3.8047    1.7484    4.0260 H   0  0  0  0  0  0  0  0  0  0  0  0
   -3.5969    1.3201    1.5466 H   0  0  0  0  0  0  0  0  0  0  0  0
   -1.9850    3.6926    2.6620 H   0  0  0  0  0  0  0  0  0  0  0  0
   -2.6246    3.5776    1.0180 H   0  0  0  0  0  0  0  0  0  0  0  0
   -3.7342    3.6765    2.3981 H   0  0  0  0  0  0  0  0  0  0  0  0
   -1.3352    1.1101    0.3372 N   0  0  0  0  0  0  0  0  0  0  0  0
   -0.1579    0.6093   -0.3265 C   0  0  2  0  0  0  0  0  0  0  0  0
    0.9513    0.5362    0.7169 C   0  0  0  0  0  0  0  0  0  0  0  0
    1.7245   -0.4152    0.8059 O   0  0  0  0  0  0  0  0  0  0  0  0
    0.2701    1.5011   -1.4976 C   0  0  0  0  0  0  0  0  0  0  0  0
   -0.7227    1.4882   -2.6342 C   0  0  0  0  0  0  0  0  0  0  0  0
   -1.7070    2.4246   -2.8519 C   0  0  0  0  0  0  0  0  0  0  0  0
   -0.8127    0.5166   -3.6699 C   0  0  0  0  0  0  0  0  0  0  0  0
   -2.3930    2.0606   -3.9794 N   0  0  0  0  0  0  0  0  0  0  0  0
   -1.8685    0.8991   -4.5002 C   0  0  0  0  0  0  0  0  0  0  0  0
   -0.0951   -0.6553   -3.9817 C   0  0  0  0  0  0  0  0  0  0  0  0
   -2.2440    0.1655   -5.6311 C   0  0  0  0  0  0  0  0  0  0  0  0
   -0.4595   -1.3992   -5.1099 C   0  0  0  0  0  0  0  0  0  0  0  0
   -1.5177   -0.9932   -5.9205 C   0  0  0  0  0  0  0  0  0  0  0  0
   -2.1183    1.4068   -0.2401 H   0  0  0  0  0  0  0  0  0  0  0  0
   -0.3984   -0.4050   -0.6663 H   0  0  0  0  0  0  0  0  0  0  0  0
    1.2585    1.1957   -1.8670 H   0  0  0  0  0  0  0  0  0  0  0  0
    0.3961    2.5393   -1.1630 H   0  0  0  0  0  0  0  0  0  0  0  0
   -1.9824    3.3162   -2.3056 H   0  0  0  0  0  0  0  0  0  0  0  0
   -3.1718    2.5703   -4.3733 H   0  0  0  0  0  0  0  0  0  0  0  0
    0.7317   -0.9855   -3.3593 H   0  0  0  0  0  0  0  0  0  0  0  0
   -3.0669    0.4813   -6.2633 H   0  0  0  0  0  0  0  0  0  0  0  0
    0.0900   -2.3041   -5.3551 H   0  0  0  0  0  0  0  0  0  0  0  0
   -1.7836   -1.5860   -6.7920 H   0  0  0  0  0  0  0  0  0  0  0  0
    1.0037    1.6805    1.5005 N   0  0  0  0  0  0  0  0  0  0  0  0
    1.9772    1.8797    2.5501 C   0  0  2  0  0  0  0  0  0  0  0  0
    1.9715    0.6422    3.4378 C   0  0  0  0  0  0  0  0  0  0  0  0
    1.0163   -0.1284    3.5082 O   0  0  0  0  0  0  0  0  0  0  0  0
    1.6706    3.1304    3.3591 C   0  0  0  0  0  0  0  0  0  0  0  0
    0.3237    2.4150    1.3277 H   0  0  0  0  0  0  0  0  0  0  0  0
    2.9533    1.9753    2.0621 H   0  0  0  0  0  0  0  0  0  0  0  0
    0.6963    3.0531    3.8554 H   0  0  0  0  0  0  0  0  0  0  0  0
    2.4248    3.2955    4.1355 H   0  0  0  0  0  0  0  0  0  0  0  0
    1.6457    4.0154    2.7141 H   0  0  0  0  0  0  0  0  0  0  0  0
    3.1415    0.5232    4.1747 N   0  0  0  0  0  0  0  0  0  0  0  0
    3.3729   -0.5610    5.1004 C   0  0  0  0  0  0  0  0  0  0  0  0
    3.8885    1.1979    4.0388 H   0  0  0  0  0  0  0  0  0  0  0  0
    3.0504   -0.2589    6.1077 H   0  0  0  0  0  0  0  0  0  0  0  0
    2.7997   -1.4440    4.7815 H   0  0  0  0  0  0  0  0  0  0  0  0
    4.4451   -0.8062    5.1170 H   0  0  0  0  0  0  0  0  0  0  0  0
 29 30  2  0  0  0  0
 27 29  1  0  0  0  0
 28 30  1  0  0  0  0
 24 27  2  0  0  0  0
 26 28  2  0  0  0  0
 22 23  2  0  0  0  0
 23 25  1  0  0  0  0
 22 24  1  0  0  0  0
 24 26  1  0  0  0  0
 21 22  1  0  0  0  0
 25 26  1  0  0  0  0
  1  3  1  0  0  0  0
  1  7  1  0  0  0  0
  1  2  2  0  0  0  0
 42 43  1  0  0  0  0
 43 51  1  0  0  0  0
 43 44  2  0  0  0  0
  8  9  1  0  0  0  0
  9 17  1  0  0  0  0
  9 10  2  0  0  0  0
 18 19  1  0  0  0  0
 19 41  1  0  0  0  0
 19 20  2  0  0  0  0
 42 45  1  0  0  0  0
  8 11  1  0  0  0  0
 51 52  1  0  0  0  0
 18 21  1  0  0  0  0
 41 42  1  0  0  0  0
  7  8  1  0  0  0  0
 17 18  1  0  0  0  0
 29 39  1  0  0  0  0
 30 40  1  0  0  0  0
 27 37  1  0  0  0  0
 28 38  1  0  0  0  0
 23 35  1  0  0  0  0
  3  4  1  0  0  0  0
  3  5  1  0  0  0  0
  3  6  1  0  0  0  0
 45 48  1  0  0  0  0
 45 49  1  0  0  0  0
 45 50  1  0  0  0  0
 11 14  1  0  0  0  0
 11 15  1  0  0  0  0
 11 16  1  0  0  0  0
 52 54  1  0  0  0  0
 52 55  1  0  0  0  0
 52 56  1  0  0  0  0
 21 33  1  0  0  0  0
 21 34  1  0  0  0  0
 42 47  1  0  0  0  0
  8 13  1  0  0  0  0
 18 32  1  0  0  0  0
 25 36  1  0  0  0  0
 51 53  1  0  0  0  0
  7 12  1  0  0  0  0
 41 46  1  0  0  0  0
 17 31  1  0  0  0  0
M  END
$$$$

  -OEChem-05262214473D

 56 57  0     1  0  0  0  0  0999 V2000
   -2.2900    0.3401    4.1553 C   0  0  0  0  0  0  0  0  0  0  0  0
   -1.3426   -0.2746    3.6796 O   0  0  0  0  0  0  0  0  0  0  0  0
   -2.7219    0.0577    5.5560 C   0  0  0  0  0  0  0  0  0  0  0  0
   -3.4815   -0.7386    5.6094 H   0  0  0  0  0  0  0  0  0  0  0  0
   -1.8906   -0.2899    6.1903 H   0  0  0  0  0  0  0  0  0  0  0  0
   -3.1599    0.9126    6.0956 H   0  0  0  0  0  0  0  0  0  0  0  0
   -3.0397    1.3125    3.5142 N   0  0  0  0  0  0  0  0  0  0  0  0
   -2.7928    1.7385    2.1618 C   0  0  2  0  0  0  0  0  0  0  0  0
   -1.4579    1.1532    1.7206 C   0  0  0  0  0  0  0  0  0  0  0  0
   -0.5858    0.8004    2.5118 O   0  0  0  0  0  0  0  0  0  0  0  0
   -2.7841    3.2553    2.0523 C   0  0  0  0  0  0  0  0  0  0  0  0
   -3.8047    1.7484    4.0260 H   0  0  0  0  0  0  0  0  0  0  0  0
   -3.5969    1.3201    1.5466 H   0  0  0  0  0  0  0  0  0  0  0  0
   -1.9850    3.6926    2.6620 H   0  0  0  0  0  0  0  0  0  0  0  0
   -2.6246    3.5776    1.0180 H   0  0  0  0  0  0  0  0  0  0  0  0
   -3.7342    3.6765    2.3981 H   0  0  0  0  0  0  0  0  0  0  0  0
   -1.3352    1.1101    0.3372 N   0  0  0  0  0  0  0  0  0  0  0  0
   -0.1579    0.6093   -0.3265 C   0  0  2  0  0  0  0  0  0  0  0  0
    0.9513    0.5362    0.7169 C   0  0  0  0  0  0  0  0  0  0  0  0
    1.8821   -0.2637    0.6489 O   0  0  0  0  0  0  0  0  0  0  0  0
    0.2701    1.5011   -1.4976 C   0  0  0  0  0  0  0  0  0  0  0  0
   -0.7227    1.4882   -2.6342 C   0  0  0  0  0  0  0  0  0  0  0  0
   -1.7070    2.4246   -2.8519 C   0  0  0  0  0  0  0  0  0  0  0  0
   -0.8127    0.5166   -3.6699 C   0  0  0  0  0  0  0  0  0  0  0  0
   -2.3930    2.0606   -3.9794 N   0  0  0  0  0  0  0  0  0  0  0  0
   -1.8685    0.8991   -4.5002 C   0  0  0  0  0  0  0  0  0  0  0  0
   -0.0951   -0.6553   -3.9817 C   0  0  0  0  0  0  0  0  0  0  0  0
   -2.2440    0.1655   -5.6311 C   0  0  0  0  0  0  0  0  0  0  0  0
   -0.4595   -1.3992   -5.1099 C   0  0  0  0  0  0  0  0  0  0  0  0
   -1.5177   -0.9932   -5.9205 C   0  0  0  0  0  0  0  0  0  0  0  0
   -2.1183    1.4068   -0.2401 H   0  0  0  0  0  0  0  0  0  0  0  0
   -0.3984   -0.4050   -0.6663 H   0  0  0  0  0  0  0  0  0  0  0  0
    1.2585    1.1957   -1.8670 H   0  0  0  0  0  0  0  0  0  0  0  0
    0.3961    2.5393   -1.1630 H   0  0  0  0  0  0  0  0  0  0  0  0
   -1.9824    3.3162   -2.3056 H   0  0  0  0  0  0  0  0  0  0  0  0
   -3.1718    2.5703   -4.3733 H   0  0  0  0  0  0  0  0  0  0  0  0
    0.7317   -0.9855   -3.3593 H   0  0  0  0  0  0  0  0  0  0  0  0
   -3.0669    0.4813   -6.2633 H   0  0  0  0  0  0  0  0  0  0  0  0
    0.0900   -2.3041   -5.3551 H   0  0  0  0  0  0  0  0  0  0  0  0
   -1.7836   -1.5860   -6.7920 H   0  0  0  0  0  0  0  0  0  0  0  0
    0.8024    1.5024    1.7021 N   0  0  0  0  0  0  0  0  0  0  0  0
    1.7295    1.6673    2.7985 C   0  0  2  0  0  0  0  0  0  0  0  0
    1.9486    0.3027    3.4383 C   0  0  0  0  0  0  0  0  0  0  0  0
    1.1465   -0.6231    3.3352 O   0  0  0  0  0  0  0  0  0  0  0  0
    1.2084    2.6683    3.8179 C   0  0  0  0  0  0  0  0  0  0  0  0
    0.0015    2.1250    1.6499 H   0  0  0  0  0  0  0  0  0  0  0  0
    2.6706    2.0238    2.3659 H   0  0  0  0  0  0  0  0  0  0  0  0
    0.2659    2.3282    4.2622 H   0  0  0  0  0  0  0  0  0  0  0  0
    1.9247    2.8134    4.6334 H   0  0  0  0  0  0  0  0  0  0  0  0
    1.0232    3.6410    3.3495 H   0  0  0  0  0  0  0  0  0  0  0  0
    3.1244    0.2540    4.1740 N   0  0  0  0  0  0  0  0  0  0  0  0
    3.5497   -0.9280    4.8868 C   0  0  0  0  0  0  0  0  0  0  0  0
    3.7385    1.0630    4.1887 H   0  0  0  0  0  0  0  0  0  0  0  0
    3.1830   -0.8837    5.9229 H   0  0  0  0  0  0  0  0  0  0  0  0
    3.1417   -1.8214    4.3915 H   0  0  0  0  0  0  0  0  0  0  0  0
    4.6485   -0.9794    4.8887 H   0  0  0  0  0  0  0  0  0  0  0  0
 29 30  2  0  0  0  0
 27 29  1  0  0  0  0
 28 30  1  0  0  0  0
 24 27  2  0  0  0  0
 26 28  2  0  0  0  0
 22 23  2  0  0  0  0
 23 25  1  0  0  0  0
 22 24  1  0  0  0  0
 24 26  1  0  0  0  0
 21 22  1  0  0  0  0
 25 26  1  0  0  0  0
  1  3  1  0  0  0  0
  1  7  1  0  0  0  0
  1  2  2  0  0  0  0
 42 43  1  0  0  0  0
 43 51  1  0  0  0  0
 43 44  2  0  0  0  0
  8  9  1  0  0  0  0
  9 17  1  0  0  0  0
  9 10  2  0  0  0  0
 18 19  1  0  0  0  0
 19 41  1  0  0  0  0
 19 20  2  0  0  0  0
 42 45  1  0  0  0  0
  8 11  1  0  0  0  0
 51 52  1  0  0  0  0
 18 21  1  0  0  0  0
 41 42  1  0  0  0  0
  7  8  1  0  0  0  0
 17 18  1  0  0  0  0
 29 39  1  0  0  0  0
 30 40  1  0  0  0  0
 27 37  1  0  0  0  0
 28 38  1  0  0  0  0
 23 35  1  0  0  0  0
  3  4  1  0  0  0  0
  3  5  1  0  0  0  0
  3  6  1  0  0  0  0
 45 48  1  0  0  0  0
 45 49  1  0  0  0  0
 45 50  1  0  0  0  0
 11 14  1  0  0  0  0
 11 15  1  0  0  0  0
 11 16  1  0  0  0  0
 52 54  1  0  0  0  0
 52 55  1  0  0  0  0
 52 56  1  0  0  0  0
 21 33  1  0  0  0  0
 21 34  1  0  0  0  0
 42 47  1  0  0  0  0
  8 13  1  0  0  0  0
 18 32  1  0  0  0  0
 25 36  1  0  0  0  0
 51 53  1  0  0  0  0
  7 12  1  0  0  0  0
 41 46  1  0  0  0  0
 17 31  1  0  0  0  0
M  END
$$$$

  -OEChem-05262214473D

 56 57  0     1  0  0  0  0  0999 V2000
   -2.2900    0.3401    4.1553 C   0  0  0  0  0  0  0  0  0  0  0  0
   -1.3426   -0.2746    3.6796 O   0  0  0  0  0  0  0  0  0  0  0  0
   -2.7219    0.0577    5.5560 C   0  0  0  0  0  0  0  0  0  0  0  0
   -3.4815   -0.7386    5.6094 H   0  0  0  0  0  0  0  0  0  0  0  0
   -1.8906   -0.2899    6.1903 H   0  0  0  0  0  0  0  0  0  0  0  0
   -3.1599    0.9126    6.0956 H   0  0  0  0  0  0  0  0  0  0  0  0
   -3.0397    1.3125    3.5142 N   0  0  0  0  0  0  0  0  0  0  0  0
   -2.7928    1.7385    2.1618 C   0  0  2  0  0  0  0  0  0  0  0  0
   -1.4579    1.1532    1.7206 C   0  0  0  0  0  0  0  0  0  0  0  0
   -0.5858    0.8004    2.5118 O   0  0  0  0  0  0  0  0  0  0  0  0
   -2.7841    3.2553    2.0523 C   0  0  0  0  0  0  0  0  0  0  0  0
   -3.8047    1.7484    4.0260 H   0  0  0  0  0  0  0  0  0  0  0  0
   -3.5969    1.3201    1.5466 H   0  0  0  0  0  0  0  0  0  0  0  0
   -1.9850    3.6926    2.6620 H   0  0  0  0  0  0  0  0  0  0  0  0
   -2.6246    3.5776    1.0180 H   0  0  0  0  0  0  0  0  0  0  0  0
   -3.7342    3.6765    2.3981 H   0  0  0  0  0  0  0  0  0  0  0  0
   -1.3352    1.1101    0.3372 N   0  0  0  0  0  0  0  0  0  0  0  0
   -0.1579    0.6093   -0.3265 C   0  0  2  0  0  0  0  0  0  0  0  0
    0.9513    0.5362    0.7169 C   0  0  0  0  0  0  0  0  0  0  0  0
    2.0095   -0.0598    0.5278 O   0  0  0  0  0  0  0  0  0  0  0  0
    0.2701    1.5011   -1.4976 C   0  0  0  0  0  0  0  0  0  0  0  0
   -0.7227    1.4882   -2.6342 C   0  0  0  0  0  0  0  0  0  0  0  0
   -1.7070    2.4246   -2.8519 C   0  0  0  0  0  0  0  0  0  0  0  0
   -0.8127    0.5166   -3.6699 C   0  0  0  0  0  0  0  0  0  0  0  0
   -2.3930    2.0606   -3.9794 N   0  0  0  0  0  0  0  0  0  0  0  0
   -1.8685    0.8991   -4.5002 C   0  0  0  0  0  0  0  0  0  0  0  0
   -0.0951   -0.6553   -3.9817 C   0  0  0  0  0  0  0  0  0  0  0  0
   -2.2440    0.1655   -5.6311 C   0  0  0  0  0  0  0  0  0  0  0  0
   -0.4595   -1.3992   -5.1099 C   0  0  0  0  0  0  0  0  0  0  0  0
   -1.5177   -0.9932   -5.9205 C   0  0  0  0  0  0  0  0  0  0  0  0
   -2.1183    1.4068   -0.2401 H   0  0  0  0  0  0  0  0  0  0  0  0
   -0.3984   -0.4050   -0.6663 H   0  0  0  0  0  0  0  0  0  0  0  0
    1.2585    1.1957   -1.8670 H   0  0  0  0  0  0  0  0  0  0  0  0
    0.3961    2.5393   -1.1630 H   0  0  0  0  0  0  0  0  0  0  0  0
   -1.9824    3.3162   -2.3056 H   0  0  0  0  0  0  0  0  0  0  0  0
   -3.1718    2.5703   -4.3733 H   0  0  0  0  0  0  0  0  0  0  0  0
    0.7317   -0.9855   -3.3593 H   0  0  0  0  0  0  0  0  0  0  0  0
   -3.0669    0.4813   -6.2633 H   0  0  0  0  0  0  0  0  0  0  0  0
    0.0900   -2.3041   -5.3551 H   0  0  0  0  0  0  0  0  0  0  0  0
   -1.7836   -1.5860   -6.7920 H   0  0  0  0  0  0  0  0  0  0  0  0
    0.6369    1.2568    1.8607 N   0  0  0  0  0  0  0  0  0  0  0  0
    1.5248    1.3714    2.9954 C   0  0  2  0  0  0  0  0  0  0  0  0
    1.9866   -0.0294    3.3746 C   0  0  0  0  0  0  0  0  0  0  0  0
    1.3620   -1.0453    3.0765 O   0  0  0  0  0  0  0  0  0  0  0  0
    0.8382    2.0536    4.1684 C   0  0  0  0  0  0  0  0  0  0  0  0
   -0.2623    1.7272    1.9025 H   0  0  0  0  0  0  0  0  0  0  0  0
    2.3853    1.9634    2.6650 H   0  0  0  0  0  0  0  0  0  0  0  0
   -0.0265    1.4751    4.5132 H   0  0  0  0  0  0  0  0  0  0  0  0
    1.5208    2.1654    5.0173 H   0  0  0  0  0  0  0  0  0  0  0  0
    0.4804    3.0494    3.8851 H   0  0  0  0  0  0  0  0  0  0  0  0
    3.1556   -0.0089    4.1224 N   0  0  0  0  0  0  0  0  0  0  0  0
    3.7881   -1.2109    4.6135 C   0  0  0  0  0  0  0  0  0  0  0  0
    3.6156    0.8778    4.3064 H   0  0  0  0  0  0  0  0  0  0  0  0
    3.4241   -1.4289    5.6284 H   0  0  0  0  0  0  0  0  0  0  0  0
    3.5437   -2.0519    3.9480 H   0  0  0  0  0  0  0  0  0  0  0  0
    4.8784   -1.0676    4.6381 H   0  0  0  0  0  0  0  0  0  0  0  0
 29 30  2  0  0  0  0
 27 29  1  0  0  0  0
 28 30  1  0  0  0  0
 24 27  2  0  0  0  0
 26 28  2  0  0  0  0
 22 23  2  0  0  0  0
 23 25  1  0  0  0  0
 22 24  1  0  0  0  0
 24 26  1  0  0  0  0
 21 22  1  0  0  0  0
 25 26  1  0  0  0  0
  1  3  1  0  0  0  0
  1  7  1  0  0  0  0
  1  2  2  0  0  0  0
 42 43  1  0  0  0  0
 43 51  1  0  0  0  0
 43 44  2  0  0  0  0
  8  9  1  0  0  0  0
  9 17  1  0  0  0  0
  9 10  2  0  0  0  0
 18 19  1  0  0  0  0
 19 41  1  0  0  0  0
 19 20  2  0  0  0  0
 42 45  1  0  0  0  0
  8 11  1  0  0  0  0
 51 52  1  0  0  0  0
 18 21  1  0  0  0  0
 41 42  1  0  0  0  0
  7  8  1  0  0  0  0
 17 18  1  0  0  0  0
 29 39  1  0  0  0  0
 30 40  1  0  0  0  0
 27 37  1  0  0  0  0
 28 38  1  0  0  0  0
 23 35  1  0  0  0  0
  3  4  1  0  0  0  0
  3  5  1  0  0  0  0
  3  6  1  0  0  0  0
 45 48  1  0  0  0  0
 45 49  1  0  0  0  0
 45 50  1  0  0  0  0
 11 14  1  0  0  0  0
 11 15  1  0  0  0  0
 11 16  1  0  0  0  0
 52 54  1  0  0  0  0
 52 55  1  0  0  0  0
 52 56  1  0  0  0  0
 21 33  1  0  0  0  0
 21 34  1  0  0  0  0
 42 47  1  0  0  0  0
  8 13  1  0  0  0  0
 18 32  1  0  0  0  0
 25 36  1  0  0  0  0
 51 53  1  0  0  0  0
  7 12  1  0  0  0  0
 41 46  1  0  0  0  0
 17 31  1  0  0  0  0
M  END
$$$$

  -OEChem-05262214473D

 56 57  0     1  0  0  0  0  0999 V2000
   -2.2900    0.3401    4.1553 C   0  0  0  0  0  0  0  0  0  0  0  0
   -1.3426   -0.2746    3.6796 O   0  0  0  0  0  0  0  0  0  0  0  0
   -2.7219    0.0577    5.5560 C   0  0  0  0  0  0  0  0  0  0  0  0
   -3.4815   -0.7386    5.6094 H   0  0  0  0  0  0  0  0  0  0  0  0
   -1.8906   -0.2899    6.1903 H   0  0  0  0  0  0  0  0  0  0  0  0
   -3.1599    0.9126    6.0956 H   0  0  0  0  0  0  0  0  0  0  0  0
   -3.0397    1.3125    3.5142 N   0  0  0  0  0  0  0  0  0  0  0  0
   -2.7928    1.7385    2.1618 C   0  0  2  0  0  0  0  0  0  0  0  0
   -1.4579    1.1532    1.7206 C   0  0  0  0  0  0  0  0  0  0  0  0
   -0.5858    0.8004    2.5118 O   0  0  0  0  0  0  0  0  0  0  0  0
   -2.7841    3.2553    2.0523 C   0  0  0  0  0  0  0  0  0  0  0  0
   -3.8047    1.7484    4.0260 H   0  0  0  0  0  0  0  0  0  0  0  0
   -3.5969    1.3201    1.5466 H   0  0  0  0  0  0  0  0  0  0  0  0
   -1.9850    3.6926    2.6620 H   0  0  0  0  0  0  0  0  0  0  0  0
   -2.6246    3.5776    1.0180 H   0  0  0  0  0  0  0  0  0  0  0  0
   -3.7342    3.6765    2.3981 H   0  0  0  0  0  0  0  0  0  0  0  0
   -1.3352    1.1101    0.3372 N   0  0  0  0  0  0  0  0  0  0  0  0
   -0.1579    0.6093   -0.3265 C   0  0  2  0  0  0  0  0  0  0  0  0
    0.9513    0.5362    0.7169 C   0  0  0  0  0  0  0  0  0  0  0  0
    2.0980    0.1824    0.4507 O   0  0  0  0  0  0  0  0  0  0  0  0
    0.2701    1.5011   -1.4976 C   0  0  0  0  0  0  0  0  0  0  0  0
   -0.7227    1.4882   -2.6342 C   0  0  0  0  0  0  0  0  0  0  0  0
   -1.7070    2.4246   -2.8519 C   0  0  0  0  0  0  0  0  0  0  0  0
   -0.8127    0.5166   -3.6699 C   0  0  0  0  0  0  0  0  0  0  0  0
   -2.3930    2.0606   -3.9794 N   0  0  0  0  0  0  0  0  0  0  0  0
   -1.8685    0.8991   -4.5002 C   0  0  0  0  0  0  0  0  0  0  0  0
   -0.0951   -0.6553   -3.9817 C   0  0  0  0  0  0  0  0  0  0  0  0
   -2.2440    0.1655   -5.6311 C   0  0  0  0  0  0  0  0  0  0  0  0
   -0.4595   -1.3992   -5.1099 C   0  0  0  0  0  0  0  0  0  0  0  0
   -1.5177   -0.9932   -5.9205 C   0  0  0  0  0  0  0  0  0  0  0  0
   -2.1183    1.4068   -0.2401 H   0  0  0  0  0  0  0  0  0  0  0  0
   -0.3984   -0.4050   -0.6663 H   0  0  0  0  0  0  0  0  0  0  0  0
    1.2585    1.1957   -1.8670 H   0  0  0  0  0  0  0  0  0  0  0  0
    0.3961    2.5393   -1.1630 H   0  0  0  0  0  0  0  0  0  0  0  0
   -1.9824    3.3162   -2.3056 H   0  0  0  0  0  0  0  0  0  0  0  0
   -3.1718    2.5703   -4.3733 H   0  0  0  0  0  0  0  0  0  0  0  0
    0.7317   -0.9855   -3.3593 H   0  0  0  0  0  0  0  0  0  0  0  0
   -3.0669    0.4813   -6.2633 H   0  0  0  0  0  0  0  0  0  0  0  0
    0.0900   -2.3041   -5.3551 H   0  0  0  0  0  0  0  0  0  0  0  0
   -1.7836   -1.5860   -6.7920 H   0  0  0  0  0  0  0  0  0  0  0  0
    0.5187    0.9603    1.9657 N   0  0  0  0  0  0  0  0  0  0  0  0
    1.3770    1.0124    3.1273 C   0  0  2  0  0  0  0  0  0  0  0  0
    2.0829   -0.3314    3.2510 C   0  0  0  0  0  0  0  0  0  0  0  0
    1.6482   -1.3662    2.7498 O   0  0  0  0  0  0  0  0  0  0  0  0
    0.5852    1.3284    4.3866 C   0  0  0  0  0  0  0  0  0  0  0  0
   -0.4499    1.2486    2.0683 H   0  0  0  0  0  0  0  0  0  0  0  0
    2.1166    1.7982    2.9390 H   0  0  0  0  0  0  0  0  0  0  0  0
   -0.1610    0.5520    4.5915 H   0  0  0  0  0  0  0  0  0  0  0  0
    1.2407    1.3957    5.2611 H   0  0  0  0  0  0  0  0  0  0  0  0
    0.0542    2.2810    4.2843 H   0  0  0  0  0  0  0  0  0  0  0  0
    3.2330   -0.2476    4.0234 N   0  0  0  0  0  0  0  0  0  0  0  0
    4.0719   -1.3905    4.2993 C   0  0  0  0  0  0  0  0  0  0  0  0
    3.5283    0.6550    4.3836 H   0  0  0  0  0  0  0  0  0  0  0  0
    3.7572   -1.8574    5.2443 H   0  0  0  0  0  0  0  0  0  0  0  0
    3.9783   -2.1198    3.4812 H   0  0  0  0  0  0  0  0  0  0  0  0
    5.1193   -1.0649    4.3822 H   0  0  0  0  0  0  0  0  0  0  0  0
 29 30  2  0  0  0  0
 27 29  1  0  0  0  0
 28 30  1  0  0  0  0
 24 27  2  0  0  0  0
 26 28  2  0  0  0  0
 22 23  2  0  0  0  0
 23 25  1  0  0  0  0
 22 24  1  0  0  0  0
 24 26  1  0  0  0  0
 21 22  1  0  0  0  0
 25 26  1  0  0  0  0
  1  3  1  0  0  0  0
  1  7  1  0  0  0  0
  1  2  2  0  0  0  0
 42 43  1  0  0  0  0
 43 51  1  0  0  0  0
 43 44  2  0  0  0  0
  8  9  1  0  0  0  0
  9 17  1  0  0  0  0
  9 10  2  0  0  0  0
 18 19  1  0  0  0  0
 19 41  1  0  0  0  0
 19 20  2  0  0  0  0
 42 45  1  0  0  0  0
  8 11  1  0  0  0  0
 51 52  1  0  0  0  0
 18 21  1  0  0  0  0
 41 42  1  0  0  0  0
  7  8  1  0  0  0  0
 17 18  1  0  0  0  0
 29 39  1  0  0  0  0
 30 40  1  0  0  0  0
 27 37  1  0  0  0  0
 28 38  1  0  0  0  0
 23 35  1  0  0  0  0
  3  4  1  0  0  0  0
  3  5  1  0  0  0  0
  3  6  1  0  0  0  0
 45 48  1  0  0  0  0
 45 49  1  0  0  0  0
 45 50  1  0  0  0  0
 11 14  1  0  0  0  0
 11 15  1  0  0  0  0
 11 16  1  0  0  0  0
 52 54  1  0  0  0  0
 52 55  1  0  0  0  0
 52 56  1  0  0  0  0
 21 33  1  0  0  0  0
 21 34  1  0  0  0  0
 42 47  1  0  0  0  0
  8 13  1  0  0  0  0
 18 32  1  0  0  0  0
 25 36  1  0  0  0  0
 51 53  1  0  0  0  0
  7 12  1  0  0  0  0
 41 46  1  0  0  0  0
 17 31  1  0  0  0  0
M  END
$$$$

  -OEChem-05262214473D

 56 57  0     1  0  0  0  0  0999 V2000
   -2.2900    0.3401    4.1553 C   0  0  0  0  0  0  0  0  0  0  0  0
   -1.3426   -0.2746    3.6796 O   0  0  0  0  0  0  0  0  0  0  0  0
   -2.7219    0.0577    5.5560 C   0  0  0  0  0  0  0  0  0  0  0  0
   -3.4815   -0.7386    5.6094 H   0  0  0  0  0  0  0  0  0  0  0  0
   -1.8906   -0.2899    6.1903 H   0  0  0  0  0  0  0  0  0  0  0  0
   -3.1599    0.9126    6.0956 H   0  0  0  0  0  0  0  0  0  0  0  0
   -3.0397    1.3125    3.5142 N   0  0  0  0  0  0  0  0  0  0  0  0
   -2.7928    1.7385    2.1618 C   0  0  2  0  0  0  0  0  0  0  0  0
   -1.4579    1.1532    1.7206 C   0  0  0  0  0  0  0  0  0  0  0  0
   -0.5858    0.8004    2.5118 O   0  0  0  0  0  0  0  0  0  0  0  0
   -2.7841    3.2553    2.0523 C   0  0  0  0  0  0  0  0  0  0  0  0
   -3.8047    1.7484    4.0260 H   0  0  0  0  0  0  0  0  0  0  0  0
   -3.5969    1.3201    1.5466 H   0  0  0  0  0  0  0  0  0  0  0  0
   -1.9850    3.6926    2.6620 H   0  0  0  0  0  0  0  0  0  0  0  0
   -2.6246    3.5776    1.0180 H   0  0  0  0  0  0  0  0  0  0  0  0
   -3.7342    3.6765    2.3981 H   0  0  0  0  0  0  0  0  0  0  0  0
   -1.3352    1.1101    0.3372 N   0  0  0  0  0  0  0  0  0  0  0  0
   -0.1579    0.6093   -0.3265 C   0  0  2  0  0  0  0  0  0  0  0  0
    0.9513    0.5362    0.7169 C   0  0  0  0  0  0  0  0  0  0  0  0
    2.1415    0.4466    0.4230 O   0  0  0  0  0  0  0  0  0  0  0  0
    0.2701    1.5011   -1.4976 C   0  0  0  0  0  0  0  0  0  0  0  0
   -0.7227    1.4882   -2.6342 C   0  0  0  0  0  0  0  0  0  0  0  0
   -1.7070    2.4246   -2.8519 C   0  0  0  0  0  0  0  0  0  0  0  0
   -0.8127    0.5166   -3.6699 C   0  0  0  0  0  0  0  0  0  0  0  0
   -2.3930    2.0606   -3.9794 N   0  0  0  0  0  0  0  0  0  0  0  0
   -1.8685    0.8991   -4.5002 C   0  0  0  0  0  0  0  0  0  0  0  0
   -0.0951   -0.6553   -3.9817 C   0  0  0  0  0  0  0  0  0  0  0  0
   -2.2440    0.1655   -5.6311 C   0  0  0  0  0  0  0  0  0  0  0  0
   -0.4595   -1.3992   -5.1099 C   0  0  0  0  0  0  0  0  0  0  0  0
   -1.5177   -0.9932   -5.9205 C   0  0  0  0  0  0  0  0  0  0  0  0
   -2.1183    1.4068   -0.2401 H   0  0  0  0  0  0  0  0  0  0  0  0
   -0.3984   -0.4050   -0.6663 H   0  0  0  0  0  0  0  0  0  0  0  0
    1.2585    1.1957   -1.8670 H   0  0  0  0  0  0  0  0  0  0  0  0
    0.3961    2.5393   -1.1630 H   0  0  0  0  0  0  0  0  0  0  0  0
   -1.9824    3.3162   -2.3056 H   0  0  0  0  0  0  0  0  0  0  0  0
   -3.1718    2.5703   -4.3733 H   0  0  0  0  0  0  0  0  0  0  0  0
    0.7317   -0.9855   -3.3593 H   0  0  0  0  0  0  0  0  0  0  0  0
   -3.0669    0.4813   -6.2633 H   0  0  0  0  0  0  0  0  0  0  0  0
    0.0900   -2.3041   -5.3551 H   0  0  0  0  0  0  0  0  0  0  0  0
   -1.7836   -1.5860   -6.7920 H   0  0  0  0  0  0  0  0  0  0  0  0
    0.4557    0.6332    2.0097 N   0  0  0  0  0  0  0  0  0  0  0  0
    1.2962    0.6145    3.1853 C   0  0  2  0  0  0  0  0  0  0  0  0
    2.2310   -0.5829    3.0760 C   0  0  0  0  0  0  0  0  0  0  0  0
    1.9855   -1.5640    2.3773 O   0  0  0  0  0  0  0  0  0  0  0  0
    0.4665    0.5419    4.4577 C   0  0  0  0  0  0  0  0  0  0  0  0
   -0.5483    0.7219    2.1360 H   0  0  0  0  0  0  0  0  0  0  0  0
    1.8830    1.5394    3.1693 H   0  0  0  0  0  0  0  0  0  0  0  0
   -0.1284   -0.3781    4.4916 H   0  0  0  0  0  0  0  0  0  0  0  0
    1.1035    0.5566    5.3481 H   0  0  0  0  0  0  0  0  0  0  0  0
   -0.2263    1.3880    4.5200 H   0  0  0  0  0  0  0  0  0  0  0  0
    3.3512   -0.4459    3.8838 N   0  0  0  0  0  0  0  0  0  0  0  0
    4.3817   -1.4546    3.9654 C   0  0  0  0  0  0  0  0  0  0  0  0
    3.4825    0.4099    4.4151 H   0  0  0  0  0  0  0  0  0  0  0  0
    4.1596   -2.1399    4.7967 H   0  0  0  0  0  0  0  0  0  0  0  0
    4.4160   -2.0206    3.0229 H   0  0  0  0  0  0  0  0  0  0  0  0
    5.3546   -0.9714    4.1386 H   0  0  0  0  0  0  0  0  0  0  0  0
 29 30  2  0  0  0  0
 27 29  1  0  0  0  0
 28 30  1  0  0  0  0
 24 27  2  0  0  0  0
 26 28  2  0  0  0  0
 22 23  2  0  0  0  0
 23 25  1  0  0  0  0
 22 24  1  0  0  0  0
 24 26  1  0  0  0  0
 21 22  1  0  0  0  0
 25 26  1  0  0  0  0
  1  3  1  0  0  0  0
  1  7  1  0  0  0  0
  1  2  2  0  0  0  0
 42 43  1  0  0  0  0
 43 51  1  0  0  0  0
 43 44  2  0  0  0  0
  8  9  1  0  0  0  0
  9 17  1  0  0  0  0
  9 10  2  0  0  0  0
 18 19  1  0  0  0  0
 19 41  1  0  0  0  0
 19 20  2  0  0  0  0
 42 45  1  0  0  0  0
  8 11  1  0  0  0  0
 51 52  1  0  0  0  0
 18 21  1  0  0  0  0
 41 42  1  0  0  0  0
  7  8  1  0  0  0  0
 17 18  1  0  0  0  0
 29 39  1  0  0  0  0
 30 40  1  0  0  0  0
 27 37  1  0  0  0  0
 28 38  1  0  0  0  0
 23 35  1  0  0  0  0
  3  4  1  0  0  0  0
  3  5  1  0  0  0  0
  3  6  1  0  0  0  0
 45 48  1  0  0  0  0
 45 49  1  0  0  0  0
 45 50  1  0  0  0  0
 11 14  1  0  0  0  0
 11 15  1  0  0  0  0
 11 16  1  0  0  0  0
 52 54  1  0  0  0  0
 52 55  1  0  0  0  0
 52 56  1  0  0  0  0
 21 33  1  0  0  0  0
 21 34  1  0  0  0  0
 42 47  1  0  0  0  0
  8 13  1  0  0  0  0
 18 32  1  0  0  0  0
 25 36  1  0  0  0  0
 51 53  1  0  0  0  0
  7 12  1  0  0  0  0
 41 46  1  0  0  0  0
 17 31  1  0  0  0  0
M  END
$$$$

  -OEChem-05262214473D

 56 57  0     1  0  0  0  0  0999 V2000
   -2.2900    0.3401    4.1553 C   0  0  0  0  0  0  0  0  0  0  0  0
   -1.3426   -0.2746    3.6796 O   0  0  0  0  0  0  0  0  0  0  0  0
   -2.7219    0.0577    5.5560 C   0  0  0  0  0  0  0  0  0  0  0  0
   -3.4815   -0.7386    5.6094 H   0  0  0  0  0  0  0  0  0  0  0  0
   -1.8906   -0.2899    6.1903 H   0  0  0  0  0  0  0  0  0  0  0  0
   -3.1599    0.9126    6.0956 H   0  0  0  0  0  0  0  0  0  0  0  0
   -3.0397    1.3125    3.5142 N   0  0  0  0  0  0  0  0  0  0  0  0
   -2.7928    1.7385    2.1618 C   0  0  2  0  0  0  0  0  0  0  0  0
   -1.4579    1.1532    1.7206 C   0  0  0  0  0  0  0  0  0  0  0  0
   -0.5858    0.8004    2.5118 O   0  0  0  0  0  0  0  0  0  0  0  0
   -2.7841    3.2553    2.0523 C   0  0  0  0  0  0  0  0  0  0  0  0
   -3.8047    1.7484    4.0260 H   0  0  0  0  0  0  0  0  0  0  0  0
   -3.5969    1.3201    1.5466 H   0  0  0  0  0  0  0  0  0  0  0  0
   -1.9850    3.6926    2.6620 H   0  0  0  0  0  0  0  0  0  0  0  0
   -2.6246    3.5776    1.0180 H   0  0  0  0  0  0  0  0  0  0  0  0
   -3.7342    3.6765    2.3981 H   0  0  0  0  0  0  0  0  0  0  0  0
   -1.3352    1.1101    0.3372 N   0  0  0  0  0  0  0  0  0  0  0  0
   -0.1579    0.6093   -0.3265 C   0  0  2  0  0  0  0  0  0  0  0  0
    0.9513    0.5362    0.7169 C   0  0  0  0  0  0  0  0  0  0  0  0
    2.1370    0.7147    0.4466 O   0  0  0  0  0  0  0  0  0  0  0  0
    0.2701    1.5011   -1.4976 C   0  0  0  0  0  0  0  0  0  0  0  0
   -0.7227    1.4882   -2.6342 C   0  0  0  0  0  0  0  0  0  0  0  0
   -1.7070    2.4246   -2.8519 C   0  0  0  0  0  0  0  0  0  0  0  0
   -0.8127    0.5166   -3.6699 C   0  0  0  0  0  0  0  0  0  0  0  0
   -2.3930    2.0606   -3.9794 N   0  0  0  0  0  0  0  0  0  0  0  0
   -1.8685    0.8991   -4.5002 C   0  0  0  0  0  0  0  0  0  0  0  0
   -0.0951   -0.6553   -3.9817 C   0  0  0  0  0  0  0  0  0  0  0  0
   -2.2440    0.1655   -5.6311 C   0  0  0  0  0  0  0  0  0  0  0  0
   -0.4595   -1.3992   -5.1099 C   0  0  0  0  0  0  0  0  0  0  0  0
   -1.5177   -0.9932   -5.9205 C   0  0  0  0  0  0  0  0  0  0  0  0
   -2.1183    1.4068   -0.2401 H   0  0  0  0  0  0  0  0  0  0  0  0
   -0.3984   -0.4050   -0.6663 H   0  0  0  0  0  0  0  0  0  0  0  0
    1.2585    1.1957   -1.8670 H   0  0  0  0  0  0  0  0  0  0  0  0
    0.3961    2.5393   -1.1630 H   0  0  0  0  0  0  0  0  0  0  0  0
   -1.9824    3.3162   -2.3056 H   0  0  0  0  0  0  0  0  0  0  0  0
   -3.1718    2.5703   -4.3733 H   0  0  0  0  0  0  0  0  0  0  0  0
    0.7317   -0.9855   -3.3593 H   0  0  0  0  0  0  0  0  0  0  0  0
   -3.0669    0.4813   -6.2633 H   0  0  0  0  0  0  0  0  0  0  0  0
    0.0900   -2.3041   -5.3551 H   0  0  0  0  0  0  0  0  0  0  0  0
   -1.7836   -1.5860   -6.7920 H   0  0  0  0  0  0  0  0  0  0  0  0
    0.4522    0.2978    1.9899 N   0  0  0  0  0  0  0  0  0  0  0  0
    1.2880    0.2049    3.1654 C   0  0  2  0  0  0  0  0  0  0  0  0
    2.4208   -0.7665    2.8614 C   0  0  0  0  0  0  0  0  0  0  0  0
    2.3510   -1.6252    1.9845 O   0  0  0  0  0  0  0  0  0  0  0  0
    0.4903   -0.2522    4.3767 C   0  0  0  0  0  0  0  0  0  0  0  0
   -0.5509    0.1829    2.1010 H   0  0  0  0  0  0  0  0  0  0  0  0
    1.7004    1.2047    3.3400 H   0  0  0  0  0  0  0  0  0  0  0  0
    0.0692   -1.2520    4.2203 H   0  0  0  0  0  0  0  0  0  0  0  0
    1.1185   -0.2946    5.2726 H   0  0  0  0  0  0  0  0  0  0  0  0
   -0.3420    0.4315    4.5759 H   0  0  0  0  0  0  0  0  0  0  0  0
    3.5022   -0.5901    3.7132 N   0  0  0  0  0  0  0  0  0  0  0  0
    4.6964   -1.3987    3.6347 C   0  0  0  0  0  0  0  0  0  0  0  0
    3.4813    0.1590    4.3988 H   0  0  0  0  0  0  0  0  0  0  0  0
    4.6040   -2.2573    4.3161 H   0  0  0  0  0  0  0  0  0  0  0  0
    4.8268   -1.7609    2.6043 H   0  0  0  0  0  0  0  0  0  0  0  0
    5.5684   -0.7936    3.9238 H   0  0  0  0  0  0  0  0  0  0  0  0
 29 30  2  0  0  0  0
 27 29  1  0  0  0  0
 28 30  1  0  0  0  0
 24 27  2  0  0  0  0
 26 28  2  0  0  0  0
 22 23  2  0  0  0  0
 23 25  1  0  0  0  0
 22 24  1  0  0  0  0
 24 26  1  0  0  0  0
 21 22  1  0  0  0  0
 25 26  1  0  0  0  0
  1  3  1  0  0  0  0
  1  7  1  0  0  0  0
  1  2  2  0  0  0  0
 42 43  1  0  0  0  0
 43 51  1  0  0  0  0
 43 44  2  0  0  0  0
  8  9  1  0  0  0  0
  9 17  1  0  0  0  0
  9 10  2  0  0  0  0
 18 19  1  0  0  0  0
 19 41  1  0  0  0  0
 19 20  2  0  0  0  0
 42 45  1  0  0  0  0
  8 11  1  0  0  0  0
 51 52  1  0  0  0  0
 18 21  1  0  0  0  0
 41 42  1  0  0  0  0
  7  8  1  0  0  0  0
 17 18  1  0  0  0  0
 29 39  1  0  0  0  0
 30 40  1  0  0  0  0
 27 37  1  0  0  0  0
 28 38  1  0  0  0  0
 23 35  1  0  0  0  0
  3  4  1  0  0  0  0
  3  5  1  0  0  0  0
  3  6  1  0  0  0  0
 45 48  1  0  0  0  0
 45 49  1  0  0  0  0
 45 50  1  0  0  0  0
 11 14  1  0  0  0  0
 11 15  1  0  0  0  0
 11 16  1  0  0  0  0
 52 54  1  0  0  0  0
 52 55  1  0  0  0  0
 52 56  1  0  0  0  0
 21 33  1  0  0  0  0
 21 34  1  0  0  0  0
 42 47  1  0  0  0  0
  8 13  1  0  0  0  0
 18 32  1  0  0  0  0
 25 36  1  0  0  0  0
 51 53  1  0  0  0  0
  7 12  1  0  0  0  0
 41 46  1  0  0  0  0
 17 31  1  0  0  0  0
M  END
$$$$

  -OEChem-05262214473D

 56 57  0     1  0  0  0  0  0999 V2000
   -2.2900    0.3401    4.1553 C   0  0  0  0  0  0  0  0  0  0  0  0
   -1.3426   -0.2746    3.6796 O   0  0  0  0  0  0  0  0  0  0  0  0
   -2.7219    0.0577    5.5560 C   0  0  0  0  0  0  0  0  0  0  0  0
   -3.4815   -0.7386    5.6094 H   0  0  0  0  0  0  0  0  0  0  0  0
   -1.8906   -0.2899    6.1903 H   0  0  0  0  0  0  0  0  0  0  0  0
   -3.1599    0.9126    6.0956 H   0  0  0  0  0  0  0  0  0  0  0  0
   -3.0397    1.3125    3.5142 N   0  0  0  0  0  0  0  0  0  0  0  0
   -2.7928    1.7385    2.1618 C   0  0  2  0  0  0  0  0  0  0  0  0
   -1.4579    1.1532    1.7206 C   0  0  0  0  0  0  0  0  0  0  0  0
   -0.5858    0.8004    2.5118 O   0  0  0  0  0  0  0  0  0  0  0  0
   -2.7841    3.2553    2.0523 C   0  0  0  0  0  0  0  0  0  0  0  0
   -3.8047    1.7484    4.0260 H   0  0  0  0  0  0  0  0  0  0  0  0
   -3.5969    1.3201    1.5466 H   0  0  0  0  0  0  0  0  0  0  0  0
   -1.9850    3.6926    2.6620 H   0  0  0  0  0  0  0  0  0  0  0  0
   -2.6246    3.5776    1.0180 H   0  0  0  0  0  0  0  0  0  0  0  0
   -3.7342    3.6765    2.3981 H   0  0  0  0  0  0  0  0  0  0  0  0
   -1.3352    1.1101    0.3372 N   0  0  0  0  0  0  0  0  0  0  0  0
   -0.1579    0.6093   -0.3265 C   0  0  2  0  0  0  0  0  0  0  0  0
    0.9513    0.5362    0.7169 C   0  0  0  0  0  0  0  0  0  0  0  0
    2.0849    0.9685    0.5197 O   0  0  0  0  0  0  0  0  0  0  0  0
    0.2701    1.5011   -1.4976 C   0  0  0  0  0  0  0  0  0  0  0  0
   -0.7227    1.4882   -2.6342 C   0  0  0  0  0  0  0  0  0  0  0  0
   -1.7070    2.4246   -2.8519 C   0  0  0  0  0  0  0  0  0  0  0  0
   -0.8127    0.5166   -3.6699 C   0  0  0  0  0  0  0  0  0  0  0  0
   -2.3930    2.0606   -3.9794 N   0  0  0  0  0  0  0  0  0  0  0  0
   -1.8685    0.8991   -4.5002 C   0  0  0  0  0  0  0  0  0  0  0  0
   -0.0951   -0.6553   -3.9817 C   0  0  0  0  0  0  0  0  0  0  0  0
   -2.2440    0.1655   -5.6311 C   0  0  0  0  0  0  0  0  0  0  0  0
   -0.4595   -1.3992   -5.1099 C   0  0  0  0  0  0  0  0  0  0  0  0
   -1.5177   -0.9932   -5.9205 C   0  0  0  0  0  0  0  0  0  0  0  0
   -2.1183    1.4068   -0.2401 H   0  0  0  0  0  0  0  0  0  0  0  0
   -0.3984   -0.4050   -0.6663 H   0  0  0  0  0  0  0  0  0  0  0  0
    1.2585    1.1957   -1.8670 H   0  0  0  0  0  0  0  0  0  0  0  0
    0.3961    2.5393   -1.1630 H   0  0  0  0  0  0  0  0  0  0  0  0
   -1.9824    3.3162   -2.3056 H   0  0  0  0  0  0  0  0  0  0  0  0
   -3.1718    2.5703   -4.3733 H   0  0  0  0  0  0  0  0  0  0  0  0
    0.7317   -0.9855   -3.3593 H   0  0  0  0  0  0  0  0  0  0  0  0
   -3.0669    0.4813   -6.2633 H   0  0  0  0  0  0  0  0  0  0  0  0
    0.0900   -2.3041   -5.3551 H   0  0  0  0  0  0  0  0  0  0  0  0
   -1.7836   -1.5860   -6.7920 H   0  0  0  0  0  0  0  0  0  0  0  0
    0.5085   -0.0230    1.9076 N   0  0  0  0  0  0  0  0  0  0  0  0
    1.3528   -0.1884    3.0689 C   0  0  2  0  0  0  0  0  0  0  0  0
    2.6393   -0.8699    2.6219 C   0  0  0  0  0  0  0  0  0  0  0  0
    2.7197   -1.5456    1.5981 O   0  0  0  0  0  0  0  0  0  0  0  0
    0.6549   -0.9997    4.1493 C   0  0  0  0  0  0  0  0  0  0  0  0
   -0.4575   -0.3316    1.9657 H   0  0  0  0  0  0  0  0  0  0  0  0
    1.5811    0.8169    3.4396 H   0  0  0  0  0  0  0  0  0  0  0  0
    0.4181   -2.0101    3.7962 H   0  0  0  0  0  0  0  0  0  0  0  0
    1.2847   -1.0998    5.0394 H   0  0  0  0  0  0  0  0  0  0  0  0
   -0.2851   -0.5235    4.4484 H   0  0  0  0  0  0  0  0  0  0  0  0
    3.6758   -0.6706    3.5230 N   0  0  0  0  0  0  0  0  0  0  0  0
    4.9947   -1.2267    3.3297 C   0  0  0  0  0  0  0  0  0  0  0  0
    3.5247   -0.0805    4.3359 H   0  0  0  0  0  0  0  0  0  0  0  0
    5.0599   -2.2014    3.8353 H   0  0  0  0  0  0  0  0  0  0  0  0
    5.1829   -1.3584    2.2540 H   0  0  0  0  0  0  0  0  0  0  0  0
    5.7461   -0.5435    3.7525 H   0  0  0  0  0  0  0  0  0  0  0  0
 29 30  2  0  0  0  0
 27 29  1  0  0  0  0
 28 30  1  0  0  0  0
 24 27  2  0  0  0  0
 26 28  2  0  0  0  0
 22 23  2  0  0  0  0
 23 25  1  0  0  0  0
 22 24  1  0  0  0  0
 24 26  1  0  0  0  0
 21 22  1  0  0  0  0
 25 26  1  0  0  0  0
  1  3  1  0  0  0  0
  1  7  1  0  0  0  0
  1  2  2  0  0  0  0
 42 43  1  0  0  0  0
 43 51  1  0  0  0  0
 43 44  2  0  0  0  0
  8  9  1  0  0  0  0
  9 17  1  0  0  0  0
  9 10  2  0  0  0  0
 18 19  1  0  0  0  0
 19 41  1  0  0  0  0
 19 20  2  0  0  0  0
 42 45  1  0  0  0  0
  8 11  1  0  0  0  0
 51 52  1  0  0  0  0
 18 21  1  0  0  0  0
 41 42  1  0  0  0  0
  7  8  1  0  0  0  0
 17 18  1  0  0  0  0
 29 39  1  0  0  0  0
 30 40  1  0  0  0  0
 27 37  1  0  0  0  0
 28 38  1  0  0  0  0
 23 35  1  0  0  0  0
  3  4  1  0  0  0  0
  3  5  1  0  0  0  0
  3  6  1  0  0  0  0
 45 48  1  0  0  0  0
 45 49  1  0  0  0  0
 45 50  1  0  0  0  0
 11 14  1  0  0  0  0
 11 15  1  0  0  0  0
 11 16  1  0  0  0  0
 52 54  1  0  0  0  0
 52 55  1  0  0  0  0
 52 56  1  0  0  0  0
 21 33  1  0  0  0  0
 21 34  1  0  0  0  0
 42 47  1  0  0  0  0
  8 13  1  0  0  0  0
 18 32  1  0  0  0  0
 25 36  1  0  0  0  0
 51 53  1  0  0  0  0
  7 12  1  0  0  0  0
 41 46  1  0  0  0  0
 17 31  1  0  0  0  0
M  END
$$$$

  -OEChem-05262214473D

 56 57  0     1  0  0  0  0  0999 V2000
   -2.2900    0.3401    4.1553 C   0  0  0  0  0  0  0  0  0  0  0  0
   -1.3426   -0.2746    3.6796 O   0  0  0  0  0  0  0  0  0  0  0  0
   -2.7219    0.0577    5.5560 C   0  0  0  0  0  0  0  0  0  0  0  0
   -3.4815   -0.7386    5.6094 H   0  0  0  0  0  0  0  0  0  0  0  0
   -1.8906   -0.2899    6.1903 H   0  0  0  0  0  0  0  0  0  0  0  0
   -3.1599    0.9126    6.0956 H   0  0  0  0  0  0  0  0  0  0  0  0
   -3.0397    1.3125    3.5142 N   0  0  0  0  0  0  0  0  0  0  0  0
   -2.7928    1.7385    2.1618 C   0  0  2  0  0  0  0  0  0  0  0  0
   -1.4579    1.1532    1.7206 C   0  0  0  0  0  0  0  0  0  0  0  0
   -0.5858    0.8004    2.5118 O   0  0  0  0  0  0  0  0  0  0  0  0
   -2.7841    3.2553    2.0523 C   0  0  0  0  0  0  0  0  0  0  0  0
   -3.8047    1.7484    4.0260 H   0  0  0  0  0  0  0  0  0  0  0  0
   -3.5969    1.3201    1.5466 H   0  0  0  0  0  0  0  0  0  0  0  0
   -1.9850    3.6926    2.6620 H   0  0  0  0  0  0  0  0  0  0  0  0
   -2.6246    3.5776    1.0180 H   0  0  0  0  0  0  0  0  0  0  0  0
   -3.7342    3.6765    2.3981 H   0  0  0  0  0  0  0  0  0  0  0  0
   -1.3352    1.1101    0.3372 N   0  0  0  0  0  0  0  0  0  0  0  0
   -0.1579    0.6093   -0.3265 C   0  0  2  0  0  0  0  0  0  0  0  0
    0.9513    0.5362    0.7169 C   0  0  0  0  0  0  0  0  0  0  0  0
    1.9887    1.1906    0.6375 O   0  0  0  0  0  0  0  0  0  0  0  0
    0.2701    1.5011   -1.4976 C   0  0  0  0  0  0  0  0  0  0  0  0
   -0.7227    1.4882   -2.6342 C   0  0  0  0  0  0  0  0  0  0  0  0
   -1.7070    2.4246   -2.8519 C   0  0  0  0  0  0  0  0  0  0  0  0
   -0.8127    0.5166   -3.6699 C   0  0  0  0  0  0  0  0  0  0  0  0
   -2.3930    2.0606   -3.9794 N   0  0  0  0  0  0  0  0  0  0  0  0
   -1.8685    0.8991   -4.5002 C   0  0  0  0  0  0  0  0  0  0  0  0
   -0.0951   -0.6553   -3.9817 C   0  0  0  0  0  0  0  0  0  0  0  0
   -2.2440    0.1655   -5.6311 C   0  0  0  0  0  0  0  0  0  0  0  0
   -0.4595   -1.3992   -5.1099 C   0  0  0  0  0  0  0  0  0  0  0  0
   -1.5177   -0.9932   -5.9205 C   0  0  0  0  0  0  0  0  0  0  0  0
   -2.1183    1.4068   -0.2401 H   0  0  0  0  0  0  0  0  0  0  0  0
   -0.3984   -0.4050   -0.6663 H   0  0  0  0  0  0  0  0  0  0  0  0
    1.2585    1.1957   -1.8670 H   0  0  0  0  0  0  0  0  0  0  0  0
    0.3961    2.5393   -1.1630 H   0  0  0  0  0  0  0  0  0  0  0  0
   -1.9824    3.3162   -2.3056 H   0  0  0  0  0  0  0  0  0  0  0  0
   -3.1718    2.5703   -4.3733 H   0  0  0  0  0  0  0  0  0  0  0  0
    0.7317   -0.9855   -3.3593 H   0  0  0  0  0  0  0  0  0  0  0  0
   -3.0669    0.4813   -6.2633 H   0  0  0  0  0  0  0  0  0  0  0  0
    0.0900   -2.3041   -5.3551 H   0  0  0  0  0  0  0  0  0  0  0  0
   -1.7836   -1.5860   -6.7920 H   0  0  0  0  0  0  0  0  0  0  0  0
    0.6208   -0.3074    1.7683 N   0  0  0  0  0  0  0  0  0  0  0  0
    1.4862   -0.5386    2.9025 C   0  0  2  0  0  0  0  0  0  0  0  0
    2.8716   -0.8860    2.3738 C   0  0  0  0  0  0  0  0  0  0  0  0
    3.0666   -1.3306    1.2444 O   0  0  0  0  0  0  0  0  0  0  0  0
    0.9491   -1.6499    3.7909 C   0  0  0  0  0  0  0  0  0  0  0  0
   -0.2745   -0.7865    1.7392 H   0  0  0  0  0  0  0  0  0  0  0  0
    1.5333    0.4024    3.4613 H   0  0  0  0  0  0  0  0  0  0  0  0
    0.8947   -2.6006    3.2482 H   0  0  0  0  0  0  0  0  0  0  0  0
    1.5908   -1.8044    4.6647 H   0  0  0  0  0  0  0  0  0  0  0  0
   -0.0593   -1.4118    4.1462 H   0  0  0  0  0  0  0  0  0  0  0  0
    3.8601   -0.6817    3.3263 N   0  0  0  0  0  0  0  0  0  0  0  0
    5.2561   -0.9503    3.0712 C   0  0  0  0  0  0  0  0  0  0  0  0
    3.6099   -0.2923    4.2305 H   0  0  0  0  0  0  0  0  0  0  0  0
    5.4963   -1.9762    3.3871 H   0  0  0  0  0  0  0  0  0  0  0  0
    5.4599   -0.8407    1.9959 H   0  0  0  0  0  0  0  0  0  0  0  0
    5.8755   -0.2382    3.6363 H   0  0  0  0  0  0  0  0  0  0  0  0
 29 30  2  0  0  0  0
 27 29  1  0  0  0  0
 28 30  1  0  0  0  0
 24 27  2  0  0  0  0
 26 28  2  0  0  0  0
 22 23  2  0  0  0  0
 23 25  1  0  0  0  0
 22 24  1  0  0  0  0
 24 26  1  0  0  0  0
 21 22  1  0  0  0  0
 25 26  1  0  0  0  0
  1  3  1  0  0  0  0
  1  7  1  0  0  0  0
  1  2  2  0  0  0  0
 42 43  1  0  0  0  0
 43 51  1  0  0  0  0
 43 44  2  0  0  0  0
  8  9  1  0  0  0  0
  9 17  1  0  0  0  0
  9 10  2  0  0  0  0
 18 19  1  0  0  0  0
 19 41  1  0  0  0  0
 19 20  2  0  0  0  0
 42 45  1  0  0  0  0
  8 11  1  0  0  0  0
 51 52  1  0  0  0  0
 18 21  1  0  0  0  0
 41 42  1  0  0  0  0
  7  8  1  0  0  0  0
 17 18  1  0  0  0  0
 29 39  1  0  0  0  0
 30 40  1  0  0  0  0
 27 37  1  0  0  0  0
 28 38  1  0  0  0  0
 23 35  1  0  0  0  0
  3  4  1  0  0  0  0
  3  5  1  0  0  0  0
  3  6  1  0  0  0  0
 45 48  1  0  0  0  0
 45 49  1  0  0  0  0
 45 50  1  0  0  0  0
 11 14  1  0  0  0  0
 11 15  1  0  0  0  0
 11 16  1  0  0  0  0
 52 54  1  0  0  0  0
 52 55  1  0  0  0  0
 52 56  1  0  0  0  0
 21 33  1  0  0  0  0
 21 34  1  0  0  0  0
 42 47  1  0  0  0  0
  8 13  1  0  0  0  0
 18 32  1  0  0  0  0
 25 36  1  0  0  0  0
 51 53  1  0  0  0  0
  7 12  1  0  0  0  0
 41 46  1  0  0  0  0
 17 31  1  0  0  0  0
M  END
$$$$

  -OEChem-05262214473D

 56 57  0     1  0  0  0  0  0999 V2000
   -2.2900    0.3401    4.1553 C   0  0  0  0  0  0  0  0  0  0  0  0
   -1.3426   -0.2746    3.6796 O   0  0  0  0  0  0  0  0  0  0  0  0
   -2.7219    0.0577    5.5560 C   0  0  0  0  0  0  0  0  0  0  0  0
   -3.4815   -0.7386    5.6094 H   0  0  0  0  0  0  0  0  0  0  0  0
   -1.8906   -0.2899    6.1903 H   0  0  0  0  0  0  0  0  0  0  0  0
   -3.1599    0.9126    6.0956 H   0  0  0  0  0  0  0  0  0  0  0  0
   -3.0397    1.3125    3.5142 N   0  0  0  0  0  0  0  0  0  0  0  0
   -2.7928    1.7385    2.1618 C   0  0  2  0  0  0  0  0  0  0  0  0
   -1.4579    1.1532    1.7206 C   0  0  0  0  0  0  0  0  0  0  0  0
   -0.5858    0.8004    2.5118 O   0  0  0  0  0  0  0  0  0  0  0  0
   -2.7841    3.2553    2.0523 C   0  0  0  0  0  0  0  0  0  0  0  0
   -3.8047    1.7484    4.0260 H   0  0  0  0  0  0  0  0  0  0  0  0
   -3.5969    1.3201    1.5466 H   0  0  0  0  0  0  0  0  0  0  0  0
   -1.9850    3.6926    2.6620 H   0  0  0  0  0  0  0  0  0  0  0  0
   -2.6246    3.5776    1.0180 H   0  0  0  0  0  0  0  0  0  0  0  0
   -3.7342    3.6765    2.3981 H   0  0  0  0  0  0  0  0  0  0  0  0
   -1.3352    1.1101    0.3372 N   0  0  0  0  0  0  0  0  0  0  0  0
   -0.1579    0.6093   -0.3265 C   0  0  2  0  0  0  0  0  0  0  0  0
    0.9513    0.5362    0.7169 C   0  0  0  0  0  0  0  0  0  0  0  0
    1.8550    1.3659    0.7919 O   0  0  0  0  0  0  0  0  0  0  0  0
    0.2701    1.5011   -1.4976 C   0  0  0  0  0  0  0  0  0  0  0  0
   -0.7227    1.4882   -2.6342 C   0  0  0  0  0  0  0  0  0  0  0  0
   -1.7070    2.4246   -2.8519 C   0  0  0  0  0  0  0  0  0  0  0  0
   -0.8127    0.5166   -3.6699 C   0  0  0  0  0  0  0  0  0  0  0  0
   -2.3930    2.0606   -3.9794 N   0  0  0  0  0  0  0  0  0  0  0  0
   -1.8685    0.8991   -4.5002 C   0  0  0  0  0  0  0  0  0  0  0  0
   -0.0951   -0.6553   -3.9817 C   0  0  0  0  0  0  0  0  0  0  0  0
   -2.2440    0.1655   -5.6311 C   0  0  0  0  0  0  0  0  0  0  0  0
   -0.4595   -1.3992   -5.1099 C   0  0  0  0  0  0  0  0  0  0  0  0
   -1.5177   -0.9932   -5.9205 C   0  0  0  0  0  0  0  0  0  0  0  0
   -2.1183    1.4068   -0.2401 H   0  0  0  0  0  0  0  0  0  0  0  0
   -0.3984   -0.4050   -0.6663 H   0  0  0  0  0  0  0  0  0  0  0  0
    1.2585    1.1957   -1.8670 H   0  0  0  0  0  0  0  0  0  0  0  0
    0.3961    2.5393   -1.1630 H   0  0  0  0  0  0  0  0  0  0  0  0
   -1.9824    3.3162   -2.3056 H   0  0  0  0  0  0  0  0  0  0  0  0
   -3.1718    2.5703   -4.3733 H   0  0  0  0  0  0  0  0  0  0  0  0
    0.7317   -0.9855   -3.3593 H   0  0  0  0  0  0  0  0  0  0  0  0
   -3.0669    0.4813   -6.2633 H   0  0  0  0  0  0  0  0  0  0  0  0
    0.0900   -2.3041   -5.3551 H   0  0  0  0  0  0  0  0  0  0  0  0
   -1.7836   -1.5860   -6.7920 H   0  0  0  0  0  0  0  0  0  0  0  0
    0.7813   -0.5361    1.5816 N   0  0  0  0  0  0  0  0  0  0  0  0
    1.6793   -0.8219    2.6774 C   0  0  2  0  0  0  0  0  0  0  0  0
    3.1020   -0.8136    2.1340 C   0  0  0  0  0  0  0  0  0  0  0  0
    3.3679   -0.9949    0.9476 O   0  0  0  0  0  0  0  0  0  0  0  0
    1.3530   -2.1582    3.3260 C   0  0  0  0  0  0  0  0  0  0  0  0
   -0.0143   -1.1508    1.4371 H   0  0  0  0  0  0  0  0  0  0  0  0
    1.5603   -0.0105    3.4037 H   0  0  0  0  0  0  0  0  0  0  0  0
    1.4665   -2.9834    2.6135 H   0  0  0  0  0  0  0  0  0  0  0  0
    2.0158   -2.3601    4.1739 H   0  0  0  0  0  0  0  0  0  0  0  0
    0.3199   -2.1730    3.6897 H   0  0  0  0  0  0  0  0  0  0  0  0
    4.0425   -0.6228    3.1366 N   0  0  0  0  0  0  0  0  0  0  0  0
    5.4628   -0.5883    2.8768 C   0  0  0  0  0  0  0  0  0  0  0  0
    3.7309   -0.4619    4.0899 H   0  0  0  0  0  0  0  0  0  0  0  0
    5.8836   -1.5969    3.0020 H   0  0  0  0  0  0  0  0  0  0  0  0
    5.6389   -0.2429    1.8474 H   0  0  0  0  0  0  0  0  0  0  0  0
    5.9479    0.1015    3.5831 H   0  0  0  0  0  0  0  0  0  0  0  0
 29 30  2  0  0  0  0
 27 29  1  0  0  0  0
 28 30  1  0  0  0  0
 24 27  2  0  0  0  0
 26 28  2  0  0  0  0
 22 23  2  0  0  0  0
 23 25  1  0  0  0  0
 22 24  1  0  0  0  0
 24 26  1  0  0  0  0
 21 22  1  0  0  0  0
 25 26  1  0  0  0  0
  1  3  1  0  0  0  0
  1  7  1  0  0  0  0
  1  2  2  0  0  0  0
 42 43  1  0  0  0  0
 43 51  1  0  0  0  0
 43 44  2  0  0  0  0
  8  9  1  0  0  0  0
  9 17  1  0  0  0  0
  9 10  2  0  0  0  0
 18 19  1  0  0  0  0
 19 41  1  0  0  0  0
 19 20  2  0  0  0  0
 42 45  1  0  0  0  0
  8 11  1  0  0  0  0
 51 52  1  0  0  0  0
 18 21  1  0  0  0  0
 41 42  1  0  0  0  0
  7  8  1  0  0  0  0
 17 18  1  0  0  0  0
 29 39  1  0  0  0  0
 30 40  1  0  0  0  0
 27 37  1  0  0  0  0
 28 38  1  0  0  0  0
 23 35  1  0  0  0  0
  3  4  1  0  0  0  0
  3  5  1  0  0  0  0
  3  6  1  0  0  0  0
 45 48  1  0  0  0  0
 45 49  1  0  0  0  0
 45 50  1  0  0  0  0
 11 14  1  0  0  0  0
 11 15  1  0  0  0  0
 11 16  1  0  0  0  0
 52 54  1  0  0  0  0
 52 55  1  0  0  0  0
 52 56  1  0  0  0  0
 21 33  1  0  0  0  0
 21 34  1  0  0  0  0
 42 47  1  0  0  0  0
  8 13  1  0  0  0  0
 18 32  1  0  0  0  0
 25 36  1  0  0  0  0
 51 53  1  0  0  0  0
  7 12  1  0  0  0  0
 41 46  1  0  0  0  0
 17 31  1  0  0  0  0
M  END
$$$$

  -OEChem-05262214473D

 56 57  0     1  0  0  0  0  0999 V2000
   -2.2900    0.3401    4.1553 C   0  0  0  0  0  0  0  0  0  0  0  0
   -1.3426   -0.2746    3.6796 O   0  0  0  0  0  0  0  0  0  0  0  0
   -2.7219    0.0577    5.5560 C   0  0  0  0  0  0  0  0  0  0  0  0
   -3.4815   -0.7386    5.6094 H   0  0  0  0  0  0  0  0  0  0  0  0
   -1.8906   -0.2899    6.1903 H   0  0  0  0  0  0  0  0  0  0  0  0
   -3.1599    0.9126    6.0956 H   0  0  0  0  0  0  0  0  0  0  0  0
   -3.0397    1.3125    3.5142 N   0  0  0  0  0  0  0  0  0  0  0  0
   -2.7928    1.7385    2.1618 C   0  0  2  0  0  0  0  0  0  0  0  0
   -1.4579    1.1532    1.7206 C   0  0  0  0  0  0  0  0  0  0  0  0
   -0.5858    0.8004    2.5118 O   0  0  0  0  0  0  0  0  0  0  0  0
   -2.7841    3.2553    2.0523 C   0  0  0  0  0  0  0  0  0  0  0  0
   -3.8047    1.7484    4.0260 H   0  0  0  0  0  0  0  0  0  0  0  0
   -3.5969    1.3201    1.5466 H   0  0  0  0  0  0  0  0  0  0  0  0
   -1.9850    3.6926    2.6620 H   0  0  0  0  0  0  0  0  0  0  0  0
   -2.6246    3.5776    1.0180 H   0  0  0  0  0  0  0  0  0  0  0  0
   -3.7342    3.6765    2.3981 H   0  0  0  0  0  0  0  0  0  0  0  0
   -1.3352    1.1101    0.3372 N   0  0  0  0  0  0  0  0  0  0  0  0
   -0.1579    0.6093   -0.3265 C   0  0  2  0  0  0  0  0  0  0  0  0
    0.9513    0.5362    0.7169 C   0  0  0  0  0  0  0  0  0  0  0  0
    1.6929    1.4825    0.9725 O   0  0  0  0  0  0  0  0  0  0  0  0
    0.2701    1.5011   -1.4976 C   0  0  0  0  0  0  0  0  0  0  0  0
   -0.7227    1.4882   -2.6342 C   0  0  0  0  0  0  0  0  0  0  0  0
   -1.7070    2.4246   -2.8519 C   0  0  0  0  0  0  0  0  0  0  0  0
   -0.8127    0.5166   -3.6699 C   0  0  0  0  0  0  0  0  0  0  0  0
   -2.3930    2.0606   -3.9794 N   0  0  0  0  0  0  0  0  0  0  0  0
   -1.8685    0.8991   -4.5002 C   0  0  0  0  0  0  0  0  0  0  0  0
   -0.0951   -0.6553   -3.9817 C   0  0  0  0  0  0  0  0  0  0  0  0
   -2.2440    0.1655   -5.6311 C   0  0  0  0  0  0  0  0  0  0  0  0
   -0.4595   -1.3992   -5.1099 C   0  0  0  0  0  0  0  0  0  0  0  0
   -1.5177   -0.9932   -5.9205 C   0  0  0  0  0  0  0  0  0  0  0  0
   -2.1183    1.4068   -0.2401 H   0  0  0  0  0  0  0  0  0  0  0  0
   -0.3984   -0.4050   -0.6663 H   0  0  0  0  0  0  0  0  0  0  0  0
    1.2585    1.1957   -1.8670 H   0  0  0  0  0  0  0  0  0  0  0  0
    0.3961    2.5393   -1.1630 H   0  0  0  0  0  0  0  0  0  0  0  0
   -1.9824    3.3162   -2.3056 H   0  0  0  0  0  0  0  0  0  0  0  0
   -3.1718    2.5703   -4.3733 H   0  0  0  0  0  0  0  0  0  0  0  0
    0.7317   -0.9855   -3.3593 H   0  0  0  0  0  0  0  0  0  0  0  0
   -3.0669    0.4813   -6.2633 H   0  0  0  0  0  0  0  0  0  0  0  0
    0.0900   -2.3041   -5.3551 H   0  0  0  0  0  0  0  0  0  0  0  0
   -1.7836   -1.5860   -6.7920 H   0  0  0  0  0  0  0  0  0  0  0  0
    0.9791   -0.6933    1.3603 N   0  0  0  0  0  0  0  0  0  0  0  0
    1.9187   -1.0191    2.4091 C   0  0  2  0  0  0  0  0  0  0  0  0
    3.3146   -0.6577    1.9188 C   0  0  0  0  0  0  0  0  0  0  0  0
    3.6032   -0.5613    0.7278 O   0  0  0  0  0  0  0  0  0  0  0  0
    1.8389   -2.4902    2.7862 C   0  0  0  0  0  0  0  0  0  0  0  0
    0.3053   -1.3998    1.0799 H   0  0  0  0  0  0  0  0  0  0  0  0
    1.6603   -0.3937    3.2706 H   0  0  0  0  0  0  0  0  0  0  0  0
    2.0945   -3.1324    1.9355 H   0  0  0  0  0  0  0  0  0  0  0  0
    2.5310   -2.7291    3.6004 H   0  0  0  0  0  0  0  0  0  0  0  0
    0.8266   -2.7551    3.1102 H   0  0  0  0  0  0  0  0  0  0  0  0
    4.2106   -0.4979    2.9666 N   0  0  0  0  0  0  0  0  0  0  0  0
    5.6008   -0.1655    2.7598 C   0  0  0  0  0  0  0  0  0  0  0  0
    3.8797   -0.5779    3.9236 H   0  0  0  0  0  0  0  0  0  0  0  0
    6.1953   -1.0894    2.7063 H   0  0  0  0  0  0  0  0  0  0  0  0
    5.7078    0.3942    1.8188 H   0  0  0  0  0  0  0  0  0  0  0  0
    5.9583    0.4525    3.5966 H   0  0  0  0  0  0  0  0  0  0  0  0
 29 30  2  0  0  0  0
 27 29  1  0  0  0  0
 28 30  1  0  0  0  0
 24 27  2  0  0  0  0
 26 28  2  0  0  0  0
 22 23  2  0  0  0  0
 23 25  1  0  0  0  0
 22 24  1  0  0  0  0
 24 26  1  0  0  0  0
 21 22  1  0  0  0  0
 25 26  1  0  0  0  0
  1  3  1  0  0  0  0
  1  7  1  0  0  0  0
  1  2  2  0  0  0  0
 42 43  1  0  0  0  0
 43 51  1  0  0  0  0
 43 44  2  0  0  0  0
  8  9  1  0  0  0  0
  9 17  1  0  0  0  0
  9 10  2  0  0  0  0
 18 19  1  0  0  0  0
 19 41  1  0  0  0  0
 19 20  2  0  0  0  0
 42 45  1  0  0  0  0
  8 11  1  0  0  0  0
 51 52  1  0  0  0  0
 18 21  1  0  0  0  0
 41 42  1  0  0  0  0
  7  8  1  0  0  0  0
 17 18  1  0  0  0  0
 29 39  1  0  0  0  0
 30 40  1  0  0  0  0
 27 37  1  0  0  0  0
 28 38  1  0  0  0  0
 23 35  1  0  0  0  0
  3  4  1  0  0  0  0
  3  5  1  0  0  0  0
  3  6  1  0  0  0  0
 45 48  1  0  0  0  0
 45 49  1  0  0  0  0
 45 50  1  0  0  0  0
 11 14  1  0  0  0  0
 11 15  1  0  0  0  0
 11 16  1  0  0  0  0
 52 54  1  0  0  0  0
 52 55  1  0  0  0  0
 52 56  1  0  0  0  0
 21 33  1  0  0  0  0
 21 34  1  0  0  0  0
 42 47  1  0  0  0  0
  8 13  1  0  0  0  0
 18 32  1  0  0  0  0
 25 36  1  0  0  0  0
 51 53  1  0  0  0  0
  7 12  1  0  0  0  0
 41 46  1  0  0  0  0
 17 31  1  0  0  0  0
M  END
$$$$

  -OEChem-05262214473D

 56 57  0     1  0  0  0  0  0999 V2000
   -2.2900    0.3401    4.1553 C   0  0  0  0  0  0  0  0  0  0  0  0
   -1.3426   -0.2746    3.6796 O   0  0  0  0  0  0  0  0  0  0  0  0
   -2.7219    0.0577    5.5560 C   0  0  0  0  0  0  0  0  0  0  0  0
   -3.4815   -0.7386    5.6094 H   0  0  0  0  0  0  0  0  0  0  0  0
   -1.8906   -0.2899    6.1903 H   0  0  0  0  0  0  0  0  0  0  0  0
   -3.1599    0.9126    6.0956 H   0  0  0  0  0  0  0  0  0  0  0  0
   -3.0397    1.3125    3.5142 N   0  0  0  0  0  0  0  0  0  0  0  0
   -2.7928    1.7385    2.1618 C   0  0  2  0  0  0  0  0  0  0  0  0
   -1.4579    1.1532    1.7206 C   0  0  0  0  0  0  0  0  0  0  0  0
   -0.5858    0.8004    2.5118 O   0  0  0  0  0  0  0  0  0  0  0  0
   -2.7841    3.2553    2.0523 C   0  0  0  0  0  0  0  0  0  0  0  0
   -3.8047    1.7484    4.0260 H   0  0  0  0  0  0  0  0  0  0  0  0
   -3.5969    1.3201    1.5466 H   0  0  0  0  0  0  0  0  0  0  0  0
   -1.9850    3.6926    2.6620 H   0  0  0  0  0  0  0  0  0  0  0  0
   -2.6246    3.5776    1.0180 H   0  0  0  0  0  0  0  0  0  0  0  0
   -3.7342    3.6765    2.3981 H   0  0  0  0  0  0  0  0  0  0  0  0
   -1.3352    1.1101    0.3372 N   0  0  0  0  0  0  0  0  0  0  0  0
   -0.1579    0.6093   -0.3265 C   0  0  2  0  0  0  0  0  0  0  0  0
    0.9513    0.5362    0.7169 C   0  0  0  0  0  0  0  0  0  0  0  0
    1.5135    1.5324    1.1667 O   0  0  0  0  0  0  0  0  0  0  0  0
    0.2701    1.5011   -1.4976 C   0  0  0  0  0  0  0  0  0  0  0  0
   -0.7227    1.4882   -2.6342 C   0  0  0  0  0  0  0  0  0  0  0  0
   -1.7070    2.4246   -2.8519 C   0  0  0  0  0  0  0  0  0  0  0  0
   -0.8127    0.5166   -3.6699 C   0  0  0  0  0  0  0  0  0  0  0  0
   -2.3930    2.0606   -3.9794 N   0  0  0  0  0  0  0  0  0  0  0  0
   -1.8685    0.8991   -4.5002 C   0  0  0  0  0  0  0  0  0  0  0  0
   -0.0951   -0.6553   -3.9817 C   0  0  0  0  0  0  0  0  0  0  0  0
   -2.2440    0.1655   -5.6311 C   0  0  0  0  0  0  0  0  0  0  0  0
   -0.4595   -1.3992   -5.1099 C   0  0  0  0  0  0  0  0  0  0  0  0
   -1.5177   -0.9932   -5.9205 C   0  0  0  0  0  0  0  0  0  0  0  0
   -2.1183    1.4068   -0.2401 H   0  0  0  0  0  0  0  0  0  0  0  0
   -0.3984   -0.4050   -0.6663 H   0  0  0  0  0  0  0  0  0  0  0  0
    1.2585    1.1957   -1.8670 H   0  0  0  0  0  0  0  0  0  0  0  0
    0.3961    2.5393   -1.1630 H   0  0  0  0  0  0  0  0  0  0  0  0
   -1.9824    3.3162   -2.3056 H   0  0  0  0  0  0  0  0  0  0  0  0
   -3.1718    2.5703   -4.3733 H   0  0  0  0  0  0  0  0  0  0  0  0
    0.7317   -0.9855   -3.3593 H   0  0  0  0  0  0  0  0  0  0  0  0
   -3.0669    0.4813   -6.2633 H   0  0  0  0  0  0  0  0  0  0  0  0
    0.0900   -2.3041   -5.3551 H   0  0  0  0  0  0  0  0  0  0  0  0
   -1.7836   -1.5860   -6.7920 H   0  0  0  0  0  0  0  0  0  0  0  0
    1.2009   -0.7685    1.1193 N   0  0  0  0  0  0  0  0  0  0  0  0
    2.1882   -1.1165    2.1157 C   0  0  2  0  0  0  0  0  0  0  0  0
    3.4951   -0.4290    1.7430 C   0  0  0  0  0  0  0  0  0  0  0  0
    3.7565   -0.0595    0.6001 O   0  0  0  0  0  0  0  0  0  0  0  0
    2.3737   -2.6231    2.2083 C   0  0  0  0  0  0  0  0  0  0  0  0
    0.6625   -1.5164    0.6920 H   0  0  0  0  0  0  0  0  0  0  0  0
    1.8264   -0.7211    3.0711 H   0  0  0  0  0  0  0  0  0  0  0  0
    2.7359   -3.0373    1.2603 H   0  0  0  0  0  0  0  0  0  0  0  0
    3.1010   -2.8864    2.9834 H   0  0  0  0  0  0  0  0  0  0  0  0
    1.4264   -3.1185    2.4471 H   0  0  0  0  0  0  0  0  0  0  0  0
    4.3530   -0.3155    2.8280 N   0  0  0  0  0  0  0  0  0  0  0  0
    5.6606    0.2895    2.7280 C   0  0  0  0  0  0  0  0  0  0  0  0
    4.0460   -0.6322    3.7430 H   0  0  0  0  0  0  0  0  0  0  0  0
    6.4101   -0.4884    2.5200 H   0  0  0  0  0  0  0  0  0  0  0  0
    5.6618    1.0271    1.9121 H   0  0  0  0  0  0  0  0  0  0  0  0
    5.9061    0.7908    3.6759 H   0  0  0  0  0  0  0  0  0  0  0  0
 29 30  2  0  0  0  0
 27 29  1  0  0  0  0
 28 30  1  0  0  0  0
 24 27  2  0  0  0  0
 26 28  2  0  0  0  0
 22 23  2  0  0  0  0
 23 25  1  0  0  0  0
 22 24  1  0  0  0  0
 24 26  1  0  0  0  0
 21 22  1  0  0  0  0
 25 26  1  0  0  0  0
  1  3  1  0  0  0  0
  1  7  1  0  0  0  0
  1  2  2  0  0  0  0
 42 43  1  0  0  0  0
 43 51  1  0  0  0  0
 43 44  2  0  0  0  0
  8  9  1  0  0  0  0
  9 17  1  0  0  0  0
  9 10  2  0  0  0  0
 18 19  1  0  0  0  0
 19 41  1  0  0  0  0
 19 20  2  0  0  0  0
 42 45  1  0  0  0  0
  8 11  1  0  0  0  0
 51 52  1  0  0  0  0
 18 21  1  0  0  0  0
 41 42  1  0  0  0  0
  7  8  1  0  0  0  0
 17 18  1  0  0  0  0
 29 39  1  0  0  0  0
 30 40  1  0  0  0  0
 27 37  1  0  0  0  0
 28 38  1  0  0  0  0
 23 35  1  0  0  0  0
  3  4  1  0  0  0  0
  3  5  1  0  0  0  0
  3  6  1  0  0  0  0
 45 48  1  0  0  0  0
 45 49  1  0  0  0  0
 45 50  1  0  0  0  0
 11 14  1  0  0  0  0
 11 15  1  0  0  0  0
 11 16  1  0  0  0  0
 52 54  1  0  0  0  0
 52 55  1  0  0  0  0
 52 56  1  0  0  0  0
 21 33  1  0  0  0  0
 21 34  1  0  0  0  0
 42 47  1  0  0  0  0
  8 13  1  0  0  0  0
 18 32  1  0  0  0  0
 25 36  1  0  0  0  0
 51 53  1  0  0  0  0
  7 12  1  0  0  0  0
 41 46  1  0  0  0  0
 17 31  1  0  0  0  0
M  END
$$$$

  -OEChem-05262214473D

 56 57  0     1  0  0  0  0  0999 V2000
   -2.2900    0.3401    4.1553 C   0  0  0  0  0  0  0  0  0  0  0  0
   -1.3426   -0.2746    3.6796 O   0  0  0  0  0  0  0  0  0  0  0  0
   -2.7219    0.0577    5.5560 C   0  0  0  0  0  0  0  0  0  0  0  0
   -3.4815   -0.7386    5.6094 H   0  0  0  0  0  0  0  0  0  0  0  0
   -1.8906   -0.2899    6.1903 H   0  0  0  0  0  0  0  0  0  0  0  0
   -3.1599    0.9126    6.0956 H   0  0  0  0  0  0  0  0  0  0  0  0
   -3.0397    1.3125    3.5142 N   0  0  0  0  0  0  0  0  0  0  0  0
   -2.7928    1.7385    2.1618 C   0  0  2  0  0  0  0  0  0  0  0  0
   -1.4579    1.1532    1.7206 C   0  0  0  0  0  0  0  0  0  0  0  0
   -0.5858    0.8004    2.5118 O   0  0  0  0  0  0  0  0  0  0  0  0
   -2.7841    3.2553    2.0523 C   0  0  0  0  0  0  0  0  0  0  0  0
   -3.8047    1.7484    4.0260 H   0  0  0  0  0  0  0  0  0  0  0  0
   -3.5969    1.3201    1.5466 H   0  0  0  0  0  0  0  0  0  0  0  0
   -1.9850    3.6926    2.6620 H   0  0  0  0  0  0  0  0  0  0  0  0
   -2.6246    3.5776    1.0180 H   0  0  0  0  0  0  0  0  0  0  0  0
   -3.7342    3.6765    2.3981 H   0  0  0  0  0  0  0  0  0  0  0  0
   -1.3352    1.1101    0.3372 N   0  0  0  0  0  0  0  0  0  0  0  0
   -0.1579    0.6093   -0.3265 C   0  0  2  0  0  0  0  0  0  0  0  0
    0.9513    0.5362    0.7169 C   0  0  0  0  0  0  0  0  0  0  0  0
    1.3288    1.5122    1.3616 O   0  0  0  0  0  0  0  0  0  0  0  0
    0.2701    1.5011   -1.4976 C   0  0  0  0  0  0  0  0  0  0  0  0
   -0.7227    1.4882   -2.6342 C   0  0  0  0  0  0  0  0  0  0  0  0
   -1.7070    2.4246   -2.8519 C   0  0  0  0  0  0  0  0  0  0  0  0
   -0.8127    0.5166   -3.6699 C   0  0  0  0  0  0  0  0  0  0  0  0
   -2.3930    2.0606   -3.9794 N   0  0  0  0  0  0  0  0  0  0  0  0
   -1.8685    0.8991   -4.5002 C   0  0  0  0  0  0  0  0  0  0  0  0
   -0.0951   -0.6553   -3.9817 C   0  0  0  0  0  0  0  0  0  0  0  0
   -2.2440    0.1655   -5.6311 C   0  0  0  0  0  0  0  0  0  0  0  0
   -0.4595   -1.3992   -5.1099 C   0  0  0  0  0  0  0  0  0  0  0  0
   -1.5177   -0.9932   -5.9205 C   0  0  0  0  0  0  0  0  0  0  0  0
   -2.1183    1.4068   -0.2401 H   0  0  0  0  0  0  0  0  0  0  0  0
   -0.3984   -0.4050   -0.6663 H   0  0  0  0  0  0  0  0  0  0  0  0
    1.2585    1.1957   -1.8670 H   0  0  0  0  0  0  0  0  0  0  0  0
    0.3961    2.5393   -1.1630 H   0  0  0  0  0  0  0  0  0  0  0  0
   -1.9824    3.3162   -2.3056 H   0  0  0  0  0  0  0  0  0  0  0  0
   -3.1718    2.5703   -4.3733 H   0  0  0  0  0  0  0  0  0  0  0  0
    0.7317   -0.9855   -3.3593 H   0  0  0  0  0  0  0  0  0  0  0  0
   -3.0669    0.4813   -6.2633 H   0  0  0  0  0  0  0  0  0  0  0  0
    0.0900   -2.3041   -5.3551 H   0  0  0  0  0  0  0  0  0  0  0  0
   -1.7836   -1.5860   -6.7920 H   0  0  0  0  0  0  0  0  0  0  0  0
    1.4313   -0.7565    0.8751 N   0  0  0  0  0  0  0  0  0  0  0  0
    2.4694   -1.1077    1.8174 C   0  0  2  0  0  0  0  0  0  0  0  0
    3.6311   -0.1430    1.6185 C   0  0  0  0  0  0  0  0  0  0  0  0
    3.8172    0.4764    0.5731 O   0  0  0  0  0  0  0  0  0  0  0  0
    2.9210   -2.5479    1.6317 C   0  0  0  0  0  0  0  0  0  0  0  0
    1.0330   -1.4927    0.2997 H   0  0  0  0  0  0  0  0  0  0  0  0
    2.0472   -0.9703    2.8188 H   0  0  0  0  0  0  0  0  0  0  0  0
    3.3470   -2.7048    0.6340 H   0  0  0  0  0  0  0  0  0  0  0  0
    3.6872   -2.8211    2.3648 H   0  0  0  0  0  0  0  0  0  0  0  0
    2.0784   -3.2384    1.7457 H   0  0  0  0  0  0  0  0  0  0  0  0
    4.4599   -0.0879    2.7303 N   0  0  0  0  0  0  0  0  0  0  0  0
    5.6383    0.7455    2.7838 C   0  0  0  0  0  0  0  0  0  0  0  0
    4.2185   -0.6212    3.5605 H   0  0  0  0  0  0  0  0  0  0  0  0
    6.5135    0.1653    2.4560 H   0  0  0  0  0  0  0  0  0  0  0  0
    5.5042    1.6128    2.1207 H   0  0  0  0  0  0  0  0  0  0  0  0
    5.7947    1.0934    3.8155 H   0  0  0  0  0  0  0  0  0  0  0  0
 29 30  2  0  0  0  0
 27 29  1  0  0  0  0
 28 30  1  0  0  0  0
 24 27  2  0  0  0  0
 26 28  2  0  0  0  0
 22 23  2  0  0  0  0
 23 25  1  0  0  0  0
 22 24  1  0  0  0  0
 24 26  1  0  0  0  0
 21 22  1  0  0  0  0
 25 26  1  0  0  0  0
  1  3  1  0  0  0  0
  1  7  1  0  0  0  0
  1  2  2  0  0  0  0
 42 43  1  0  0  0  0
 43 51  1  0  0  0  0
 43 44  2  0  0  0  0
  8  9  1  0  0  0  0
  9 17  1  0  0  0  0
  9 10  2  0  0  0  0
 18 19  1  0  0  0  0
 19 41  1  0  0  0  0
 19 20  2  0  0  0  0
 42 45  1  0  0  0  0
  8 11  1  0  0  0  0
 51 52  1  0  0  0  0
 18 21  1  0  0  0  0
 41 42  1  0  0  0  0
  7  8  1  0  0  0  0
 17 18  1  0  0  0  0
 29 39  1  0  0  0  0
 30 40  1  0  0  0  0
 27 37  1  0  0  0  0
 28 38  1  0  0  0  0
 23 35  1  0  0  0  0
  3  4  1  0  0  0  0
  3  5  1  0  0  0  0
  3  6  1  0  0  0  0
 45 48  1  0  0  0  0
 45 49  1  0  0  0  0
 45 50  1  0  0  0  0
 11 14  1  0  0  0  0
 11 15  1  0  0  0  0
 11 16  1  0  0  0  0
 52 54  1  0  0  0  0
 52 55  1  0  0  0  0
 52 56  1  0  0  0  0
 21 33  1  0  0  0  0
 21 34  1  0  0  0  0
 42 47  1  0  0  0  0
  8 13  1  0  0  0  0
 18 32  1  0  0  0  0
 25 36  1  0  0  0  0
 51 53  1  0  0  0  0
  7 12  1  0  0  0  0
 41 46  1  0  0  0  0
 17 31  1  0  0  0  0
M  END
$$$$

  -OEChem-05262214473D

 56 57  0     1  0  0  0  0  0999 V2000
   -2.2900    0.3401    4.1553 C   0  0  0  0  0  0  0  0  0  0  0  0
   -1.3426   -0.2746    3.6796 O   0  0  0  0  0  0  0  0  0  0  0  0
   -2.7219    0.0577    5.5560 C   0  0  0  0  0  0  0  0  0  0  0  0
   -3.4815   -0.7386    5.6094 H   0  0  0  0  0  0  0  0  0  0  0  0
   -1.8906   -0.2899    6.1903 H   0  0  0  0  0  0  0  0  0  0  0  0
   -3.1599    0.9126    6.0956 H   0  0  0  0  0  0  0  0  0  0  0  0
   -3.0397    1.3125    3.5142 N   0  0  0  0  0  0  0  0  0  0  0  0
   -2.7928    1.7385    2.1618 C   0  0  2  0  0  0  0  0  0  0  0  0
   -1.4579    1.1532    1.7206 C   0  0  0  0  0  0  0  0  0  0  0  0
   -0.5858    0.8004    2.5118 O   0  0  0  0  0  0  0  0  0  0  0  0
   -2.7841    3.2553    2.0523 C   0  0  0  0  0  0  0  0  0  0  0  0
   -3.8047    1.7484    4.0260 H   0  0  0  0  0  0  0  0  0  0  0  0
   -3.5969    1.3201    1.5466 H   0  0  0  0  0  0  0  0  0  0  0  0
   -1.9850    3.6926    2.6620 H   0  0  0  0  0  0  0  0  0  0  0  0
   -2.6246    3.5776    1.0180 H   0  0  0  0  0  0  0  0  0  0  0  0
   -3.7342    3.6765    2.3981 H   0  0  0  0  0  0  0  0  0  0  0  0
   -1.3352    1.1101    0.3372 N   0  0  0  0  0  0  0  0  0  0  0  0
   -0.1579    0.6093   -0.3265 C   0  0  2  0  0  0  0  0  0  0  0  0
    0.9513    0.5362    0.7169 C   0  0  0  0  0  0  0  0  0  0  0  0
    1.1517    1.4233    1.5437 O   0  0  0  0  0  0  0  0  0  0  0  0
    0.2701    1.5011   -1.4976 C   0  0  0  0  0  0  0  0  0  0  0  0
   -0.7227    1.4882   -2.6342 C   0  0  0  0  0  0  0  0  0  0  0  0
   -1.7070    2.4246   -2.8519 C   0  0  0  0  0  0  0  0  0  0  0  0
   -0.8127    0.5166   -3.6699 C   0  0  0  0  0  0  0  0  0  0  0  0
   -2.3930    2.0606   -3.9794 N   0  0  0  0  0  0  0  0  0  0  0  0
   -1.8685    0.8991   -4.5002 C   0  0  0  0  0  0  0  0  0  0  0  0
   -0.0951   -0.6553   -3.9817 C   0  0  0  0  0  0  0  0  0  0  0  0
   -2.2440    0.1655   -5.6311 C   0  0  0  0  0  0  0  0  0  0  0  0
   -0.4595   -1.3992   -5.1099 C   0  0  0  0  0  0  0  0  0  0  0  0
   -1.5177   -0.9932   -5.9205 C   0  0  0  0  0  0  0  0  0  0  0  0
   -2.1183    1.4068   -0.2401 H   0  0  0  0  0  0  0  0  0  0  0  0
   -0.3984   -0.4050   -0.6663 H   0  0  0  0  0  0  0  0  0  0  0  0
    1.2585    1.1957   -1.8670 H   0  0  0  0  0  0  0  0  0  0  0  0
    0.3961    2.5393   -1.1630 H   0  0  0  0  0  0  0  0  0  0  0  0
   -1.9824    3.3162   -2.3056 H   0  0  0  0  0  0  0  0  0  0  0  0
   -3.1718    2.5703   -4.3733 H   0  0  0  0  0  0  0  0  0  0  0  0
    0.7317   -0.9855   -3.3593 H   0  0  0  0  0  0  0  0  0  0  0  0
   -3.0669    0.4813   -6.2633 H   0  0  0  0  0  0  0  0  0  0  0  0
    0.0900   -2.3041   -5.3551 H   0  0  0  0  0  0  0  0  0  0  0  0
   -1.7836   -1.5860   -6.7920 H   0  0  0  0  0  0  0  0  0  0  0  0
    1.6549   -0.6580    0.6444 N   0  0  0  0  0  0  0  0  0  0  0  0
    2.7432   -0.9931    1.5343 C   0  0  2  0  0  0  0  0  0  0  0  0
    3.7133    0.1808    1.5538 C   0  0  0  0  0  0  0  0  0  0  0  0
    3.7812    1.0099    0.6488 O   0  0  0  0  0  0  0  0  0  0  0  0
    3.4436   -2.2698    1.0957 C   0  0  0  0  0  0  0  0  0  0  0  0
    1.3916   -1.3303   -0.0701 H   0  0  0  0  0  0  0  0  0  0  0  0
    2.3079   -1.1244    2.5309 H   0  0  0  0  0  0  0  0  0  0  0  0
    3.8861   -2.1574    0.0992 H   0  0  0  0  0  0  0  0  0  0  0  0
    4.2495   -2.5378    1.7869 H   0  0  0  0  0  0  0  0  0  0  0  0
    2.7380   -3.1066    1.0536 H   0  0  0  0  0  0  0  0  0  0  0  0
    4.5240    0.1692    2.6801 N   0  0  0  0  0  0  0  0  0  0  0  0
    5.5352    1.1715    2.9232 C   0  0  0  0  0  0  0  0  0  0  0  0
    4.3854   -0.5456    3.3883 H   0  0  0  0  0  0  0  0  0  0  0  0
    6.4983    0.8271    2.5185 H   0  0  0  0  0  0  0  0  0  0  0  0
    5.2455    2.1114    2.4306 H   0  0  0  0  0  0  0  0  0  0  0  0
    5.6317    1.3396    4.0060 H   0  0  0  0  0  0  0  0  0  0  0  0
 29 30  2  0  0  0  0
 27 29  1  0  0  0  0
 28 30  1  0  0  0  0
 24 27  2  0  0  0  0
 26 28  2  0  0  0  0
 22 23  2  0  0  0  0
 23 25  1  0  0  0  0
 22 24  1  0  0  0  0
 24 26  1  0  0  0  0
 21 22  1  0  0  0  0
 25 26  1  0  0  0  0
  1  3  1  0  0  0  0
  1  7  1  0  0  0  0
  1  2  2  0  0  0  0
 42 43  1  0  0  0  0
 43 51  1  0  0  0  0
 43 44  2  0  0  0  0
  8  9  1  0  0  0  0
  9 17  1  0  0  0  0
  9 10  2  0  0  0  0
 18 19  1  0  0  0  0
 19 41  1  0  0  0  0
 19 20  2  0  0  0  0
 42 45  1  0  0  0  0
  8 11  1  0  0  0  0
 51 52  1  0  0  0  0
 18 21  1  0  0  0  0
 41 42  1  0  0  0  0
  7  8  1  0  0  0  0
 17 18  1  0  0  0  0
 29 39  1  0  0  0  0
 30 40  1  0  0  0  0
 27 37  1  0  0  0  0
 28 38  1  0  0  0  0
 23 35  1  0  0  0  0
  3  4  1  0  0  0  0
  3  5  1  0  0  0  0
  3  6  1  0  0  0  0
 45 48  1  0  0  0  0
 45 49  1  0  0  0  0
 45 50  1  0  0  0  0
 11 14  1  0  0  0  0
 11 15  1  0  0  0  0
 11 16  1  0  0  0  0
 52 54  1  0  0  0  0
 52 55  1  0  0  0  0
 52 56  1  0  0  0  0
 21 33  1  0  0  0  0
 21 34  1  0  0  0  0
 42 47  1  0  0  0  0
  8 13  1  0  0  0  0
 18 32  1  0  0  0  0
 25 36  1  0  0  0  0
 51 53  1  0  0  0  0
  7 12  1  0  0  0  0
 41 46  1  0  0  0  0
 17 31  1  0  0  0  0
M  END
$$$$

  -OEChem-05262214473D

 56 57  0     1  0  0  0  0  0999 V2000
   -2.2900    0.3401    4.1553 C   0  0  0  0  0  0  0  0  0  0  0  0
   -1.3426   -0.2746    3.6796 O   0  0  0  0  0  0  0  0  0  0  0  0
   -2.7219    0.0577    5.5560 C   0  0  0  0  0  0  0  0  0  0  0  0
   -3.4815   -0.7386    5.6094 H   0  0  0  0  0  0  0  0  0  0  0  0
   -1.8906   -0.2899    6.1903 H   0  0  0  0  0  0  0  0  0  0  0  0
   -3.1599    0.9126    6.0956 H   0  0  0  0  0  0  0  0  0  0  0  0
   -3.0397    1.3125    3.5142 N   0  0  0  0  0  0  0  0  0  0  0  0
   -2.7928    1.7385    2.1618 C   0  0  2  0  0  0  0  0  0  0  0  0
   -1.4579    1.1532    1.7206 C   0  0  0  0  0  0  0  0  0  0  0  0
   -0.5858    0.8004    2.5118 O   0  0  0  0  0  0  0  0  0  0  0  0
   -2.7841    3.2553    2.0523 C   0  0  0  0  0  0  0  0  0  0  0  0
   -3.8047    1.7484    4.0260 H   0  0  0  0  0  0  0  0  0  0  0  0
   -3.5969    1.3201    1.5466 H   0  0  0  0  0  0  0  0  0  0  0  0
   -1.9850    3.6926    2.6620 H   0  0  0  0  0  0  0  0  0  0  0  0
   -2.6246    3.5776    1.0180 H   0  0  0  0  0  0  0  0  0  0  0  0
   -3.7342    3.6765    2.3981 H   0  0  0  0  0  0  0  0  0  0  0  0
   -1.3352    1.1101    0.3372 N   0  0  0  0  0  0  0  0  0  0  0  0
   -0.1579    0.6093   -0.3265 C   0  0  2  0  0  0  0  0  0  0  0  0
    0.9513    0.5362    0.7169 C   0  0  0  0  0  0  0  0  0  0  0  0
    0.9940    1.2718    1.7007 O   0  0  0  0  0  0  0  0  0  0  0  0
    0.2701    1.5011   -1.4976 C   0  0  0  0  0  0  0  0  0  0  0  0
   -0.7227    1.4882   -2.6342 C   0  0  0  0  0  0  0  0  0  0  0  0
   -1.7070    2.4246   -2.8519 C   0  0  0  0  0  0  0  0  0  0  0  0
   -0.8127    0.5166   -3.6699 C   0  0  0  0  0  0  0  0  0  0  0  0
   -2.3930    2.0606   -3.9794 N   0  0  0  0  0  0  0  0  0  0  0  0
   -1.8685    0.8991   -4.5002 C   0  0  0  0  0  0  0  0  0  0  0  0
   -0.0951   -0.6553   -3.9817 C   0  0  0  0  0  0  0  0  0  0  0  0
   -2.2440    0.1655   -5.6311 C   0  0  0  0  0  0  0  0  0  0  0  0
   -0.4595   -1.3992   -5.1099 C   0  0  0  0  0  0  0  0  0  0  0  0
   -1.5177   -0.9932   -5.9205 C   0  0  0  0  0  0  0  0  0  0  0  0
   -2.1183    1.4068   -0.2401 H   0  0  0  0  0  0  0  0  0  0  0  0
   -0.3984   -0.4050   -0.6663 H   0  0  0  0  0  0  0  0  0  0  0  0
    1.2585    1.1957   -1.8670 H   0  0  0  0  0  0  0  0  0  0  0  0
    0.3961    2.5393   -1.1630 H   0  0  0  0  0  0  0  0  0  0  0  0
   -1.9824    3.3162   -2.3056 H   0  0  0  0  0  0  0  0  0  0  0  0
   -3.1718    2.5703   -4.3733 H   0  0  0  0  0  0  0  0  0  0  0  0
    0.7317   -0.9855   -3.3593 H   0  0  0  0  0  0  0  0  0  0  0  0
   -3.0669    0.4813   -6.2633 H   0  0  0  0  0  0  0  0  0  0  0  0
    0.0900   -2.3041   -5.3551 H   0  0  0  0  0  0  0  0  0  0  0  0
   -1.7836   -1.5860   -6.7920 H   0  0  0  0  0  0  0  0  0  0  0  0
    1.8562   -0.4799    0.4428 N   0  0  0  0  0  0  0  0  0  0  0  0
    2.9909   -0.7807    1.2859 C   0  0  2  0  0  0  0  0  0  0  0  0
    3.7362    0.5203    1.5532 C   0  0  0  0  0  0  0  0  0  0  0  0
    3.6510    1.5046    0.8218 O   0  0  0  0  0  0  0  0  0  0  0  0
    3.9057   -1.8077    0.6369 C   0  0  0  0  0  0  0  0  0  0  0  0
    1.7138   -1.0403   -0.3923 H   0  0  0  0  0  0  0  0  0  0  0  0
    2.5905   -1.1729    2.2271 H   0  0  0  0  0  0  0  0  0  0  0  0
    4.3165   -1.4325   -0.3076 H   0  0  0  0  0  0  0  0  0  0  0  0
    4.7496   -2.0557    1.2890 H   0  0  0  0  0  0  0  0  0  0  0  0
    3.3605   -2.7322    0.4181 H   0  0  0  0  0  0  0  0  0  0  0  0
    4.5411    0.4384    2.6809 N   0  0  0  0  0  0  0  0  0  0  0  0
    5.3584    1.5384    3.1369 C   0  0  0  0  0  0  0  0  0  0  0  0
    4.5354   -0.4107    3.2383 H   0  0  0  0  0  0  0  0  0  0  0  0
    6.3657    1.4519    2.7033 H   0  0  0  0  0  0  0  0  0  0  0  0
    4.9036    2.4887    2.8206 H   0  0  0  0  0  0  0  0  0  0  0  0
    5.4283    1.5128    4.2343 H   0  0  0  0  0  0  0  0  0  0  0  0
 29 30  2  0  0  0  0
 27 29  1  0  0  0  0
 28 30  1  0  0  0  0
 24 27  2  0  0  0  0
 26 28  2  0  0  0  0
 22 23  2  0  0  0  0
 23 25  1  0  0  0  0
 22 24  1  0  0  0  0
 24 26  1  0  0  0  0
 21 22  1  0  0  0  0
 25 26  1  0  0  0  0
  1  3  1  0  0  0  0
  1  7  1  0  0  0  0
  1  2  2  0  0  0  0
 42 43  1  0  0  0  0
 43 51  1  0  0  0  0
 43 44  2  0  0  0  0
  8  9  1  0  0  0  0
  9 17  1  0  0  0  0
  9 10  2  0  0  0  0
 18 19  1  0  0  0  0
 19 41  1  0  0  0  0
 19 20  2  0  0  0  0
 42 45  1  0  0  0  0
  8 11  1  0  0  0  0
 51 52  1  0  0  0  0
 18 21  1  0  0  0  0
 41 42  1  0  0  0  0
  7  8  1  0  0  0  0
 17 18  1  0  0  0  0
 29 39  1  0  0  0  0
 30 40  1  0  0  0  0
 27 37  1  0  0  0  0
 28 38  1  0  0  0  0
 23 35  1  0  0  0  0
  3  4  1  0  0  0  0
  3  5  1  0  0  0  0
  3  6  1  0  0  0  0
 45 48  1  0  0  0  0
 45 49  1  0  0  0  0
 45 50  1  0  0  0  0
 11 14  1  0  0  0  0
 11 15  1  0  0  0  0
 11 16  1  0  0  0  0
 52 54  1  0  0  0  0
 52 55  1  0  0  0  0
 52 56  1  0  0  0  0
 21 33  1  0  0  0  0
 21 34  1  0  0  0  0
 42 47  1  0  0  0  0
  8 13  1  0  0  0  0
 18 32  1  0  0  0  0
 25 36  1  0  0  0  0
 51 53  1  0  0  0  0
  7 12  1  0  0  0  0
 41 46  1  0  0  0  0
 17 31  1  0  0  0  0
M  END
$$$$

  -OEChem-05262214473D

 56 57  0     1  0  0  0  0  0999 V2000
   -2.2900    0.3401    4.1553 C   0  0  0  0  0  0  0  0  0  0  0  0
   -1.3426   -0.2746    3.6796 O   0  0  0  0  0  0  0  0  0  0  0  0
   -2.7219    0.0577    5.5560 C   0  0  0  0  0  0  0  0  0  0  0  0
   -3.4815   -0.7386    5.6094 H   0  0  0  0  0  0  0  0  0  0  0  0
   -1.8906   -0.2899    6.1903 H   0  0  0  0  0  0  0  0  0  0  0  0
   -3.1599    0.9126    6.0956 H   0  0  0  0  0  0  0  0  0  0  0  0
   -3.0397    1.3125    3.5142 N   0  0  0  0  0  0  0  0  0  0  0  0
   -2.7928    1.7385    2.1618 C   0  0  2  0  0  0  0  0  0  0  0  0
   -1.4579    1.1532    1.7206 C   0  0  0  0  0  0  0  0  0  0  0  0
   -0.5858    0.8004    2.5118 O   0  0  0  0  0  0  0  0  0  0  0  0
   -2.7841    3.2553    2.0523 C   0  0  0  0  0  0  0  0  0  0  0  0
   -3.8047    1.7484    4.0260 H   0  0  0  0  0  0  0  0  0  0  0  0
   -3.5969    1.3201    1.5466 H   0  0  0  0  0  0  0  0  0  0  0  0
   -1.9850    3.6926    2.6620 H   0  0  0  0  0  0  0  0  0  0  0  0
   -2.6246    3.5776    1.0180 H   0  0  0  0  0  0  0  0  0  0  0  0
   -3.7342    3.6765    2.3981 H   0  0  0  0  0  0  0  0  0  0  0  0
   -1.3352    1.1101    0.3372 N   0  0  0  0  0  0  0  0  0  0  0  0
   -0.1579    0.6093   -0.3265 C   0  0  2  0  0  0  0  0  0  0  0  0
    0.9513    0.5362    0.7169 C   0  0  0  0  0  0  0  0  0  0  0  0
    0.8666    1.0680    1.8218 O   0  0  0  0  0  0  0  0  0  0  0  0
    0.2701    1.5011   -1.4976 C   0  0  0  0  0  0  0  0  0  0  0  0
   -0.7227    1.4882   -2.6342 C   0  0  0  0  0  0  0  0  0  0  0  0
   -1.7070    2.4246   -2.8519 C   0  0  0  0  0  0  0  0  0  0  0  0
   -0.8127    0.5166   -3.6699 C   0  0  0  0  0  0  0  0  0  0  0  0
   -2.3930    2.0606   -3.9794 N   0  0  0  0  0  0  0  0  0  0  0  0
   -1.8685    0.8991   -4.5002 C   0  0  0  0  0  0  0  0  0  0  0  0
   -0.0951   -0.6553   -3.9817 C   0  0  0  0  0  0  0  0  0  0  0  0
   -2.2440    0.1655   -5.6311 C   0  0  0  0  0  0  0  0  0  0  0  0
   -0.4595   -1.3992   -5.1099 C   0  0  0  0  0  0  0  0  0  0  0  0
   -1.5177   -0.9932   -5.9205 C   0  0  0  0  0  0  0  0  0  0  0  0
   -2.1183    1.4068   -0.2401 H   0  0  0  0  0  0  0  0  0  0  0  0
   -0.3984   -0.4050   -0.6663 H   0  0  0  0  0  0  0  0  0  0  0  0
    1.2585    1.1957   -1.8670 H   0  0  0  0  0  0  0  0  0  0  0  0
    0.3961    2.5393   -1.1630 H   0  0  0  0  0  0  0  0  0  0  0  0
   -1.9824    3.3162   -2.3056 H   0  0  0  0  0  0  0  0  0  0  0  0
   -3.1718    2.5703   -4.3733 H   0  0  0  0  0  0  0  0  0  0  0  0
    0.7317   -0.9855   -3.3593 H   0  0  0  0  0  0  0  0  0  0  0  0
   -3.0669    0.4813   -6.2633 H   0  0  0  0  0  0  0  0  0  0  0  0
    0.0900   -2.3041   -5.3551 H   0  0  0  0  0  0  0  0  0  0  0  0
   -1.7836   -1.5860   -6.7920 H   0  0  0  0  0  0  0  0  0  0  0  0
    2.0216   -0.2343    0.2842 N   0  0  0  0  0  0  0  0  0  0  0  0
    3.1956   -0.4849    1.0890 C   0  0  2  0  0  0  0  0  0  0  0  0
    3.6982    0.8524    1.6169 C   0  0  0  0  0  0  0  0  0  0  0  0
    3.4355    1.9268    1.0805 O   0  0  0  0  0  0  0  0  0  0  0  0
    4.2759   -1.1930    0.2864 C   0  0  0  0  0  0  0  0  0  0  0  0
    1.9777   -0.6425   -0.6449 H   0  0  0  0  0  0  0  0  0  0  0  0
    2.8758   -1.1125    1.9280 H   0  0  0  0  0  0  0  0  0  0  0  0
    4.6090   -0.5794   -0.5586 H   0  0  0  0  0  0  0  0  0  0  0  0
    5.1535   -1.4077    0.9051 H   0  0  0  0  0  0  0  0  0  0  0  0
    3.9033   -2.1406   -0.1175 H   0  0  0  0  0  0  0  0  0  0  0  0
    4.5099    0.7013    2.7324 N   0  0  0  0  0  0  0  0  0  0  0  0
    5.1200    1.8214    3.4101 C   0  0  0  0  0  0  0  0  0  0  0  0
    4.6582   -0.2255    3.1207 H   0  0  0  0  0  0  0  0  0  0  0  0
    6.1246    1.9971    2.9978 H   0  0  0  0  0  0  0  0  0  0  0  0
    4.5016    2.7193    3.2641 H   0  0  0  0  0  0  0  0  0  0  0  0
    5.1984    1.6010    4.4850 H   0  0  0  0  0  0  0  0  0  0  0  0
 29 30  2  0  0  0  0
 27 29  1  0  0  0  0
 28 30  1  0  0  0  0
 24 27  2  0  0  0  0
 26 28  2  0  0  0  0
 22 23  2  0  0  0  0
 23 25  1  0  0  0  0
 22 24  1  0  0  0  0
 24 26  1  0  0  0  0
 21 22  1  0  0  0  0
 25 26  1  0  0  0  0
  1  3  1  0  0  0  0
  1  7  1  0  0  0  0
  1  2  2  0  0  0  0
 42 43  1  0  0  0  0
 43 51  1  0  0  0  0
 43 44  2  0  0  0  0
  8  9  1  0  0  0  0
  9 17  1  0  0  0  0
  9 10  2  0  0  0  0
 18 19  1  0  0  0  0
 19 41  1  0  0  0  0
 19 20  2  0  0  0  0
 42 45  1  0  0  0  0
  8 11  1  0  0  0  0
 51 52  1  0  0  0  0
 18 21  1  0  0  0  0
 41 42  1  0  0  0  0
  7  8  1  0  0  0  0
 17 18  1  0  0  0  0
 29 39  1  0  0  0  0
 30 40  1  0  0  0  0
 27 37  1  0  0  0  0
 28 38  1  0  0  0  0
 23 35  1  0  0  0  0
  3  4  1  0  0  0  0
  3  5  1  0  0  0  0
  3  6  1  0  0  0  0
 45 48  1  0  0  0  0
 45 49  1  0  0  0  0
 45 50  1  0  0  0  0
 11 14  1  0  0  0  0
 11 15  1  0  0  0  0
 11 16  1  0  0  0  0
 52 54  1  0  0  0  0
 52 55  1  0  0  0  0
 52 56  1  0  0  0  0
 21 33  1  0  0  0  0
 21 34  1  0  0  0  0
 42 47  1  0  0  0  0
  8 13  1  0  0  0  0
 18 32  1  0  0  0  0
 25 36  1  0  0  0  0
 51 53  1  0  0  0  0
  7 12  1  0  0  0  0
 41 46  1  0  0  0  0
 17 31  1  0  0  0  0
M  END
$$$$

  -OEChem-05262214473D

 56 57  0     1  0  0  0  0  0999 V2000
   -2.2900    0.3401    4.1553 C   0  0  0  0  0  0  0  0  0  0  0  0
   -1.3426   -0.2746    3.6796 O   0  0  0  0  0  0  0  0  0  0  0  0
   -2.7219    0.0577    5.5560 C   0  0  0  0  0  0  0  0  0  0  0  0
   -3.4815   -0.7386    5.6094 H   0  0  0  0  0  0  0  0  0  0  0  0
   -1.8906   -0.2899    6.1903 H   0  0  0  0  0  0  0  0  0  0  0  0
   -3.1599    0.9126    6.0956 H   0  0  0  0  0  0  0  0  0  0  0  0
   -3.0397    1.3125    3.5142 N   0  0  0  0  0  0  0  0  0  0  0  0
   -2.7928    1.7385    2.1618 C   0  0  2  0  0  0  0  0  0  0  0  0
   -1.4579    1.1532    1.7206 C   0  0  0  0  0  0  0  0  0  0  0  0
   -0.5858    0.8004    2.5118 O   0  0  0  0  0  0  0  0  0  0  0  0
   -2.7841    3.2553    2.0523 C   0  0  0  0  0  0  0  0  0  0  0  0
   -3.8047    1.7484    4.0260 H   0  0  0  0  0  0  0  0  0  0  0  0
   -3.5969    1.3201    1.5466 H   0  0  0  0  0  0  0  0  0  0  0  0
   -1.9850    3.6926    2.6620 H   0  0  0  0  0  0  0  0  0  0  0  0
   -2.6246    3.5776    1.0180 H   0  0  0  0  0  0  0  0  0  0  0  0
   -3.7342    3.6765    2.3981 H   0  0  0  0  0  0  0  0  0  0  0  0
   -1.3352    1.1101    0.3372 N   0  0  0  0  0  0  0  0  0  0  0  0
   -0.1579    0.6093   -0.3265 C   0  0  2  0  0  0  0  0  0  0  0  0
    0.8235    0.1806    0.7585 C   0  0  0  0  0  0  0  0  0  0  0  0
    0.5626    0.2403    1.9582 O   0  0  0  0  0  0  0  0  0  0  0  0
    0.4832    1.6605   -1.2398 C   0  0  0  0  0  0  0  0  0  0  0  0
   -0.3830    2.0100   -2.4252 C   0  0  0  0  0  0  0  0  0  0  0  0
   -1.2312    3.0899   -2.5098 C   0  0  0  0  0  0  0  0  0  0  0  0
   -0.4719    1.2923   -3.6508 C   0  0  0  0  0  0  0  0  0  0  0  0
   -1.8334    3.0575   -3.7389 N   0  0  0  0  0  0  0  0  0  0  0  0
   -1.3885    1.9705   -4.4572 C   0  0  0  0  0  0  0  0  0  0  0  0
    0.1413    0.1273   -4.1530 C   0  0  0  0  0  0  0  0  0  0  0  0
   -1.7239    1.5401   -5.7458 C   0  0  0  0  0  0  0  0  0  0  0  0
   -0.1845   -0.3149   -5.4403 C   0  0  0  0  0  0  0  0  0  0  0  0
   -1.1030    0.3822   -6.2227 C   0  0  0  0  0  0  0  0  0  0  0  0
   -2.1183    1.4068   -0.2401 H   0  0  0  0  0  0  0  0  0  0  0  0
   -0.4718   -0.2736   -0.8956 H   0  0  0  0  0  0  0  0  0  0  0  0
    1.4649    1.3129   -1.5892 H   0  0  0  0  0  0  0  0  0  0  0  0
    0.6871    2.5824   -0.6793 H   0  0  0  0  0  0  0  0  0  0  0  0
   -1.4620    3.8778   -1.8061 H   0  0  0  0  0  0  0  0  0  0  0  0
   -2.5071    3.7334   -4.0717 H   0  0  0  0  0  0  0  0  0  0  0  0
    0.8586   -0.4277   -3.5551 H   0  0  0  0  0  0  0  0  0  0  0  0
   -2.4380    2.0827   -6.3560 H   0  0  0  0  0  0  0  0  0  0  0  0
    0.2848   -1.2130   -5.8328 H   0  0  0  0  0  0  0  0  0  0  0  0
   -1.3412    0.0209   -7.2198 H   0  0  0  0  0  0  0  0  0  0  0  0
    2.0020   -0.3216    0.2242 N   0  0  0  0  0  0  0  0  0  0  0  0
    3.0913   -0.8193    1.0332 C   0  0  2  0  0  0  0  0  0  0  0  0
    3.4065    0.2279    2.0932 C   0  0  0  0  0  0  0  0  0  0  0  0
    3.1131    1.4154    1.9710 O   0  0  0  0  0  0  0  0  0  0  0  0
    4.3173   -1.1207    0.1854 C   0  0  0  0  0  0  0  0  0  0  0  0
    2.1039   -0.3403   -0.7862 H   0  0  0  0  0  0  0  0  0  0  0  0
    2.7331   -1.7340    1.5179 H   0  0  0  0  0  0  0  0  0  0  0  0
    4.6906   -0.2160   -0.3082 H   0  0  0  0  0  0  0  0  0  0  0  0
    5.1321   -1.5245    0.7955 H   0  0  0  0  0  0  0  0  0  0  0  0
    4.0812   -1.8519   -0.5952 H   0  0  0  0  0  0  0  0  0  0  0  0
    4.0923   -0.3118    3.1723 N   0  0  0  0  0  0  0  0  0  0  0  0
    4.5158    0.4814    4.3025 C   0  0  0  0  0  0  0  0  0  0  0  0
    4.2767   -1.3103    3.1984 H   0  0  0  0  0  0  0  0  0  0  0  0
    5.5419    0.8408    4.1350 H   0  0  0  0  0  0  0  0  0  0  0  0
    3.8407    1.3419    4.4200 H   0  0  0  0  0  0  0  0  0  0  0  0
    4.4872   -0.1342    5.2137 H   0  0  0  0  0  0  0  0  0  0  0  0
 29 30  2  0  0  0  0
 27 29  1  0  0  0  0
 28 30  1  0  0  0  0
 24 27  2  0  0  0  0
 26 28  2  0  0  0  0
 22 23  2  0  0  0  0
 23 25  1  0  0  0  0
 22 24  1  0  0  0  0
 24 26  1  0  0  0  0
 21 22  1  0  0  0  0
 25 26  1  0  0  0  0
  1  3  1  0  0  0  0
  1  7  1  0  0  0  0
  1  2  2  0  0  0  0
 42 43  1  0  0  0  0
 43 51  1  0  0  0  0
 43 44  2  0  0  0  0
  8  9  1  0  0  0  0
  9 17  1  0  0  0  0
  9 10  2  0  0  0  0
 18 19  1  0  0  0  0
 19 41  1  0  0  0  0
 19 20  2  0  0  0  0
 42 45  1  0  0  0  0
  8 11  1  0  0  0  0
 51 52  1  0  0  0  0
 18 21  1  0  0  0  0
 41 42  1  0  0  0  0
  7  8  1  0  0  0  0
 17 18  1  0  0  0  0
 29 39  1  0  0  0  0
 30 40  1  0  0  0  0
 27 37  1  0  0  0  0
 28 38  1  0  0  0  0
 23 35  1  0  0  0  0
  3  4  1  0  0  0  0
  3  5  1  0  0  0  0
  3  6  1  0  0  0  0
 45 48  1  0  0  0  0
 45 49  1  0  0  0  0
 45 50  1  0  0  0  0
 11 14  1  0  0  0  0
 11 15  1  0  0  0  0
 11 16  1  0  0  0  0
 52 54  1  0  0  0  0
 52 55  1  0  0  0  0
 52 56  1  0  0  0  0
 21 33  1  0  0  0  0
 21 34  1  0  0  0  0
 42 47  1  0  0  0  0
  8 13  1  0  0  0  0
 18 32  1  0  0  0  0
 25 36  1  0  0  0  0
 51 53  1  0  0  0  0
  7 12  1  0  0  0  0
 41 46  1  0  0  0  0
 17 31  1  0  0  0  0
M  END
$$$$

  -OEChem-05262214473D

 56 57  0     1  0  0  0  0  0999 V2000
   -2.2900    0.3401    4.1553 C   0  0  0  0  0  0  0  0  0  0  0  0
   -1.3426   -0.2746    3.6796 O   0  0  0  0  0  0  0  0  0  0  0  0
   -2.7219    0.0577    5.5560 C   0  0  0  0  0  0  0  0  0  0  0  0
   -3.4815   -0.7386    5.6094 H   0  0  0  0  0  0  0  0  0  0  0  0
   -1.8906   -0.2899    6.1903 H   0  0  0  0  0  0  0  0  0  0  0  0
   -3.1599    0.9126    6.0956 H   0  0  0  0  0  0  0  0  0  0  0  0
   -3.0397    1.3125    3.5142 N   0  0  0  0  0  0  0  0  0  0  0  0
   -2.7928    1.7385    2.1618 C   0  0  2  0  0  0  0  0  0  0  0  0
   -1.4579    1.1532    1.7206 C   0  0  0  0  0  0  0  0  0  0  0  0
   -0.5858    0.8004    2.5118 O   0  0  0  0  0  0  0  0  0  0  0  0
   -2.7841    3.2553    2.0523 C   0  0  0  0  0  0  0  0  0  0  0  0
   -3.8047    1.7484    4.0260 H   0  0  0  0  0  0  0  0  0  0  0  0
   -3.5969    1.3201    1.5466 H   0  0  0  0  0  0  0  0  0  0  0  0
   -1.9850    3.6926    2.6620 H   0  0  0  0  0  0  0  0  0  0  0  0
   -2.6246    3.5776    1.0180 H   0  0  0  0  0  0  0  0  0  0  0  0
   -3.7342    3.6765    2.3981 H   0  0  0  0  0  0  0  0  0  0  0  0
   -1.3352    1.1101    0.3372 N   0  0  0  0  0  0  0  0  0  0  0  0
   -0.1579    0.6093   -0.3265 C   0  0  2  0  0  0  0  0  0  0  0  0
    0.8235    0.1806    0.7585 C   0  0  0  0  0  0  0  0  0  0  0  0
    0.4879   -0.0161    1.9245 O   0  0  0  0  0  0  0  0  0  0  0  0
    0.4832    1.6605   -1.2398 C   0  0  0  0  0  0  0  0  0  0  0  0
   -0.3830    2.0100   -2.4252 C   0  0  0  0  0  0  0  0  0  0  0  0
   -1.2312    3.0899   -2.5098 C   0  0  0  0  0  0  0  0  0  0  0  0
   -0.4719    1.2923   -3.6508 C   0  0  0  0  0  0  0  0  0  0  0  0
   -1.8334    3.0575   -3.7389 N   0  0  0  0  0  0  0  0  0  0  0  0
   -1.3885    1.9705   -4.4572 C   0  0  0  0  0  0  0  0  0  0  0  0
    0.1413    0.1273   -4.1530 C   0  0  0  0  0  0  0  0  0  0  0  0
   -1.7239    1.5401   -5.7458 C   0  0  0  0  0  0  0  0  0  0  0  0
   -0.1845   -0.3149   -5.4403 C   0  0  0  0  0  0  0  0  0  0  0  0
   -1.1030    0.3822   -6.2227 C   0  0  0  0  0  0  0  0  0  0  0  0
   -2.1183    1.4068   -0.2401 H   0  0  0  0  0  0  0  0  0  0  0  0
   -0.4718   -0.2736   -0.8956 H   0  0  0  0  0  0  0  0  0  0  0  0
    1.4649    1.3129   -1.5892 H   0  0  0  0  0  0  0  0  0  0  0  0
    0.6871    2.5824   -0.6793 H   0  0  0  0  0  0  0  0  0  0  0  0
   -1.4620    3.8778   -1.8061 H   0  0  0  0  0  0  0  0  0  0  0  0
   -2.5071    3.7334   -4.0717 H   0  0  0  0  0  0  0  0  0  0  0  0
    0.8586   -0.4277   -3.5551 H   0  0  0  0  0  0  0  0  0  0  0  0
   -2.4380    2.0827   -6.3560 H   0  0  0  0  0  0  0  0  0  0  0  0
    0.2848   -1.2130   -5.8328 H   0  0  0  0  0  0  0  0  0  0  0  0
   -1.3412    0.0209   -7.2198 H   0  0  0  0  0  0  0  0  0  0  0  0
    2.1046   -0.0034    0.2572 N   0  0  0  0  0  0  0  0  0  0  0  0
    3.2207   -0.4318    1.0693 C   0  0  2  0  0  0  0  0  0  0  0  0
    3.2696    0.4548    2.3066 C   0  0  0  0  0  0  0  0  0  0  0  0
    2.7631    1.5740    2.3503 O   0  0  0  0  0  0  0  0  0  0  0  0
    4.5281   -0.3584    0.2960 C   0  0  0  0  0  0  0  0  0  0  0  0
    2.2659    0.1719   -0.7303 H   0  0  0  0  0  0  0  0  0  0  0  0
    3.0160   -1.4657    1.3680 H   0  0  0  0  0  0  0  0  0  0  0  0
    4.7500    0.6699   -0.0118 H   0  0  0  0  0  0  0  0  0  0  0  0
    5.3686   -0.7103    0.9033 H   0  0  0  0  0  0  0  0  0  0  0  0
    4.4805   -0.9733   -0.6092 H   0  0  0  0  0  0  0  0  0  0  0  0
    3.9828   -0.1330    3.3420 N   0  0  0  0  0  0  0  0  0  0  0  0
    4.1822    0.5147    4.6174 C   0  0  0  0  0  0  0  0  0  0  0  0
    4.3521   -1.0719    3.2244 H   0  0  0  0  0  0  0  0  0  0  0  0
    5.1290    1.0746    4.6009 H   0  0  0  0  0  0  0  0  0  0  0  0
    3.3500    1.2076    4.8108 H   0  0  0  0  0  0  0  0  0  0  0  0
    4.2193   -0.2447    5.4124 H   0  0  0  0  0  0  0  0  0  0  0  0
 29 30  2  0  0  0  0
 27 29  1  0  0  0  0
 28 30  1  0  0  0  0
 24 27  2  0  0  0  0
 26 28  2  0  0  0  0
 22 23  2  0  0  0  0
 23 25  1  0  0  0  0
 22 24  1  0  0  0  0
 24 26  1  0  0  0  0
 21 22  1  0  0  0  0
 25 26  1  0  0  0  0
  1  3  1  0  0  0  0
  1  7  1  0  0  0  0
  1  2  2  0  0  0  0
 42 43  1  0  0  0  0
 43 51  1  0  0  0  0
 43 44  2  0  0  0  0
  8  9  1  0  0  0  0
  9 17  1  0  0  0  0
  9 10  2  0  0  0  0
 18 19  1  0  0  0  0
 19 41  1  0  0  0  0
 19 20  2  0  0  0  0
 42 45  1  0  0  0  0
  8 11  1  0  0  0  0
 51 52  1  0  0  0  0
 18 21  1  0  0  0  0
 41 42  1  0  0  0  0
  7  8  1  0  0  0  0
 17 18  1  0  0  0  0
 29 39  1  0  0  0  0
 30 40  1  0  0  0  0
 27 37  1  0  0  0  0
 28 38  1  0  0  0  0
 23 35  1  0  0  0  0
  3  4  1  0  0  0  0
  3  5  1  0  0  0  0
  3  6  1  0  0  0  0
 45 48  1  0  0  0  0
 45 49  1  0  0  0  0
 45 50  1  0  0  0  0
 11 14  1  0  0  0  0
 11 15  1  0  0  0  0
 11 16  1  0  0  0  0
 52 54  1  0  0  0  0
 52 55  1  0  0  0  0
 52 56  1  0  0  0  0
 21 33  1  0  0  0  0
 21 34  1  0  0  0  0
 42 47  1  0  0  0  0
  8 13  1  0  0  0  0
 18 32  1  0  0  0  0
 25 36  1  0  0  0  0
 51 53  1  0  0  0  0
  7 12  1  0  0  0  0
 41 46  1  0  0  0  0
 17 31  1  0  0  0  0
M  END
$$$$

  -OEChem-05262214473D

 56 57  0     1  0  0  0  0  0999 V2000
   -2.2900    0.3401    4.1553 C   0  0  0  0  0  0  0  0  0  0  0  0
   -1.3426   -0.2746    3.6796 O   0  0  0  0  0  0  0  0  0  0  0  0
   -2.7219    0.0577    5.5560 C   0  0  0  0  0  0  0  0  0  0  0  0
   -3.4815   -0.7386    5.6094 H   0  0  0  0  0  0  0  0  0  0  0  0
   -1.8906   -0.2899    6.1903 H   0  0  0  0  0  0  0  0  0  0  0  0
   -3.1599    0.9126    6.0956 H   0  0  0  0  0  0  0  0  0  0  0  0
   -3.0397    1.3125    3.5142 N   0  0  0  0  0  0  0  0  0  0  0  0
   -2.7928    1.7385    2.1618 C   0  0  2  0  0  0  0  0  0  0  0  0
   -1.4579    1.1532    1.7206 C   0  0  0  0  0  0  0  0  0  0  0  0
   -0.5858    0.8004    2.5118 O   0  0  0  0  0  0  0  0  0  0  0  0
   -2.7841    3.2553    2.0523 C   0  0  0  0  0  0  0  0  0  0  0  0
   -3.8047    1.7484    4.0260 H   0  0  0  0  0  0  0  0  0  0  0  0
   -3.5969    1.3201    1.5466 H   0  0  0  0  0  0  0  0  0  0  0  0
   -1.9850    3.6926    2.6620 H   0  0  0  0  0  0  0  0  0  0  0  0
   -2.6246    3.5776    1.0180 H   0  0  0  0  0  0  0  0  0  0  0  0
   -3.7342    3.6765    2.3981 H   0  0  0  0  0  0  0  0  0  0  0  0
   -1.3352    1.1101    0.3372 N   0  0  0  0  0  0  0  0  0  0  0  0
   -0.1579    0.6093   -0.3265 C   0  0  2  0  0  0  0  0  0  0  0  0
    0.8235    0.1806    0.7585 C   0  0  0  0  0  0  0  0  0  0  0  0
    0.4653   -0.2719    1.8438 O   0  0  0  0  0  0  0  0  0  0  0  0
    0.4832    1.6605   -1.2398 C   0  0  0  0  0  0  0  0  0  0  0  0
   -0.3830    2.0100   -2.4252 C   0  0  0  0  0  0  0  0  0  0  0  0
   -1.2312    3.0899   -2.5098 C   0  0  0  0  0  0  0  0  0  0  0  0
   -0.4719    1.2923   -3.6508 C   0  0  0  0  0  0  0  0  0  0  0  0
   -1.8334    3.0575   -3.7389 N   0  0  0  0  0  0  0  0  0  0  0  0
   -1.3885    1.9705   -4.4572 C   0  0  0  0  0  0  0  0  0  0  0  0
    0.1413    0.1273   -4.1530 C   0  0  0  0  0  0  0  0  0  0  0  0
   -1.7239    1.5401   -5.7458 C   0  0  0  0  0  0  0  0  0  0  0  0
   -0.1845   -0.3149   -5.4403 C   0  0  0  0  0  0  0  0  0  0  0  0
   -1.1030    0.3822   -6.2227 C   0  0  0  0  0  0  0  0  0  0  0  0
   -2.1183    1.4068   -0.2401 H   0  0  0  0  0  0  0  0  0  0  0  0
   -0.4718   -0.2736   -0.8956 H   0  0  0  0  0  0  0  0  0  0  0  0
    1.4649    1.3129   -1.5892 H   0  0  0  0  0  0  0  0  0  0  0  0
    0.6871    2.5824   -0.6793 H   0  0  0  0  0  0  0  0  0  0  0  0
   -1.4620    3.8778   -1.8061 H   0  0  0  0  0  0  0  0  0  0  0  0
   -2.5071    3.7334   -4.0717 H   0  0  0  0  0  0  0  0  0  0  0  0
    0.8586   -0.4277   -3.5551 H   0  0  0  0  0  0  0  0  0  0  0  0
   -2.4380    2.0827   -6.3560 H   0  0  0  0  0  0  0  0  0  0  0  0
    0.2848   -1.2130   -5.8328 H   0  0  0  0  0  0  0  0  0  0  0  0
   -1.3412    0.0209   -7.2198 H   0  0  0  0  0  0  0  0  0  0  0  0
    2.1427    0.3174    0.3494 N   0  0  0  0  0  0  0  0  0  0  0  0
    3.2717   -0.0397    1.1781 C   0  0  2  0  0  0  0  0  0  0  0  0
    3.0801    0.6133    2.5407 C   0  0  0  0  0  0  0  0  0  0  0  0
    2.3681    1.5995    2.7177 O   0  0  0  0  0  0  0  0  0  0  0  0
    4.5832    0.3982    0.5451 C   0  0  0  0  0  0  0  0  0  0  0  0
    2.3238    0.6871   -0.5791 H   0  0  0  0  0  0  0  0  0  0  0  0
    3.2508   -1.1294    1.2885 H   0  0  0  0  0  0  0  0  0  0  0  0
    4.6225    1.4872    0.4265 H   0  0  0  0  0  0  0  0  0  0  0  0
    5.4392    0.1017    1.1603 H   0  0  0  0  0  0  0  0  0  0  0  0
    4.7054   -0.0488   -0.4474 H   0  0  0  0  0  0  0  0  0  0  0  0
    3.8317   -0.0087    3.5278 N   0  0  0  0  0  0  0  0  0  0  0  0
    3.8309    0.4330    4.9029 C   0  0  0  0  0  0  0  0  0  0  0  0
    4.3791   -0.8320    3.2947 H   0  0  0  0  0  0  0  0  0  0  0  0
    4.6532    1.1467    5.0597 H   0  0  0  0  0  0  0  0  0  0  0  0
    2.8724    0.9224    5.1301 H   0  0  0  0  0  0  0  0  0  0  0  0
    3.9664   -0.4339    5.5664 H   0  0  0  0  0  0  0  0  0  0  0  0
 29 30  2  0  0  0  0
 27 29  1  0  0  0  0
 28 30  1  0  0  0  0
 24 27  2  0  0  0  0
 26 28  2  0  0  0  0
 22 23  2  0  0  0  0
 23 25  1  0  0  0  0
 22 24  1  0  0  0  0
 24 26  1  0  0  0  0
 21 22  1  0  0  0  0
 25 26  1  0  0  0  0
  1  3  1  0  0  0  0
  1  7  1  0  0  0  0
  1  2  2  0  0  0  0
 42 43  1  0  0  0  0
 43 51  1  0  0  0  0
 43 44  2  0  0  0  0
  8  9  1  0  0  0  0
  9 17  1  0  0  0  0
  9 10  2  0  0  0  0
 18 19  1  0  0  0  0
 19 41  1  0  0  0  0
 19 20  2  0  0  0  0
 42 45  1  0  0  0  0
  8 11  1  0  0  0  0
 51 52  1  0  0  0  0
 18 21  1  0  0  0  0
 41 42  1  0  0  0  0
  7  8  1  0  0  0  0
 17 18  1  0  0  0  0
 29 39  1  0  0  0  0
 30 40  1  0  0  0  0
 27 37  1  0  0  0  0
 28 38  1  0  0  0  0
 23 35  1  0  0  0  0
  3  4  1  0  0  0  0
  3  5  1  0  0  0  0
  3  6  1  0  0  0  0
 45 48  1  0  0  0  0
 45 49  1  0  0  0  0
 45 50  1  0  0  0  0
 11 14  1  0  0  0  0
 11 15  1  0  0  0  0
 11 16  1  0  0  0  0
 52 54  1  0  0  0  0
 52 55  1  0  0  0  0
 52 56  1  0  0  0  0
 21 33  1  0  0  0  0
 21 34  1  0  0  0  0
 42 47  1  0  0  0  0
  8 13  1  0  0  0  0
 18 32  1  0  0  0  0
 25 36  1  0  0  0  0
 51 53  1  0  0  0  0
  7 12  1  0  0  0  0
 41 46  1  0  0  0  0
 17 31  1  0  0  0  0
M  END
$$$$

  -OEChem-05262214473D

 56 57  0     1  0  0  0  0  0999 V2000
   -2.2900    0.3401    4.1553 C   0  0  0  0  0  0  0  0  0  0  0  0
   -1.3426   -0.2746    3.6796 O   0  0  0  0  0  0  0  0  0  0  0  0
   -2.7219    0.0577    5.5560 C   0  0  0  0  0  0  0  0  0  0  0  0
   -3.4815   -0.7386    5.6094 H   0  0  0  0  0  0  0  0  0  0  0  0
   -1.8906   -0.2899    6.1903 H   0  0  0  0  0  0  0  0  0  0  0  0
   -3.1599    0.9126    6.0956 H   0  0  0  0  0  0  0  0  0  0  0  0
   -3.0397    1.3125    3.5142 N   0  0  0  0  0  0  0  0  0  0  0  0
   -2.7928    1.7385    2.1618 C   0  0  2  0  0  0  0  0  0  0  0  0
   -1.4579    1.1532    1.7206 C   0  0  0  0  0  0  0  0  0  0  0  0
   -0.5858    0.8004    2.5118 O   0  0  0  0  0  0  0  0  0  0  0  0
   -2.7841    3.2553    2.0523 C   0  0  0  0  0  0  0  0  0  0  0  0
   -3.8047    1.7484    4.0260 H   0  0  0  0  0  0  0  0  0  0  0  0
   -3.5969    1.3201    1.5466 H   0  0  0  0  0  0  0  0  0  0  0  0
   -1.9850    3.6926    2.6620 H   0  0  0  0  0  0  0  0  0  0  0  0
   -2.6246    3.5776    1.0180 H   0  0  0  0  0  0  0  0  0  0  0  0
   -3.7342    3.6765    2.3981 H   0  0  0  0  0  0  0  0  0  0  0  0
   -1.3352    1.1101    0.3372 N   0  0  0  0  0  0  0  0  0  0  0  0
   -0.1579    0.6093   -0.3265 C   0  0  2  0  0  0  0  0  0  0  0  0
    0.8235    0.1806    0.7585 C   0  0  0  0  0  0  0  0  0  0  0  0
    0.4966   -0.5097    1.7216 O   0  0  0  0  0  0  0  0  0  0  0  0
    0.4832    1.6605   -1.2398 C   0  0  0  0  0  0  0  0  0  0  0  0
   -0.3830    2.0100   -2.4252 C   0  0  0  0  0  0  0  0  0  0  0  0
   -1.2312    3.0899   -2.5098 C   0  0  0  0  0  0  0  0  0  0  0  0
   -0.4719    1.2923   -3.6508 C   0  0  0  0  0  0  0  0  0  0  0  0
   -1.8334    3.0575   -3.7389 N   0  0  0  0  0  0  0  0  0  0  0  0
   -1.3885    1.9705   -4.4572 C   0  0  0  0  0  0  0  0  0  0  0  0
    0.1413    0.1273   -4.1530 C   0  0  0  0  0  0  0  0  0  0  0  0
   -1.7239    1.5401   -5.7458 C   0  0  0  0  0  0  0  0  0  0  0  0
   -0.1845   -0.3149   -5.4403 C   0  0  0  0  0  0  0  0  0  0  0  0
   -1.1030    0.3822   -6.2227 C   0  0  0  0  0  0  0  0  0  0  0  0
   -2.1183    1.4068   -0.2401 H   0  0  0  0  0  0  0  0  0  0  0  0
   -0.4718   -0.2736   -0.8956 H   0  0  0  0  0  0  0  0  0  0  0  0
    1.4649    1.3129   -1.5892 H   0  0  0  0  0  0  0  0  0  0  0  0
    0.6871    2.5824   -0.6793 H   0  0  0  0  0  0  0  0  0  0  0  0
   -1.4620    3.8778   -1.8061 H   0  0  0  0  0  0  0  0  0  0  0  0
   -2.5071    3.7334   -4.0717 H   0  0  0  0  0  0  0  0  0  0  0  0
    0.8586   -0.4277   -3.5551 H   0  0  0  0  0  0  0  0  0  0  0  0
   -2.4380    2.0827   -6.3560 H   0  0  0  0  0  0  0  0  0  0  0  0
    0.2848   -1.2130   -5.8328 H   0  0  0  0  0  0  0  0  0  0  0  0
   -1.3412    0.0209   -7.2198 H   0  0  0  0  0  0  0  0  0  0  0  0
    2.1137    0.6189    0.4948 N   0  0  0  0  0  0  0  0  0  0  0  0
    3.2407    0.3303    1.3523 C   0  0  2  0  0  0  0  0  0  0  0  0
    2.8508    0.6924    2.7793 C   0  0  0  0  0  0  0  0  0  0  0  0
    1.9551    1.4902    3.0480 O   0  0  0  0  0  0  0  0  0  0  0  0
    4.4790    1.0978    0.9159 C   0  0  0  0  0  0  0  0  0  0  0  0
    2.2740    1.1703   -0.3431 H   0  0  0  0  0  0  0  0  0  0  0  0
    3.4215   -0.7480    1.2849 H   0  0  0  0  0  0  0  0  0  0  0  0
    4.3169    2.1802    0.9767 H   0  0  0  0  0  0  0  0  0  0  0  0
    5.3391    0.8563    1.5490 H   0  0  0  0  0  0  0  0  0  0  0  0
    4.7405    0.8586   -0.1206 H   0  0  0  0  0  0  0  0  0  0  0  0
    3.6494    0.0525    3.7169 N   0  0  0  0  0  0  0  0  0  0  0  0
    3.4859    0.2417    5.1394 C   0  0  0  0  0  0  0  0  0  0  0  0
    4.3559   -0.6071    3.4046 H   0  0  0  0  0  0  0  0  0  0  0  0
    4.1469    1.0522    5.4803 H   0  0  0  0  0  0  0  0  0  0  0  0
    2.4403    0.5058    5.3562 H   0  0  0  0  0  0  0  0  0  0  0  0
    3.7457   -0.6889    5.6652 H   0  0  0  0  0  0  0  0  0  0  0  0
 29 30  2  0  0  0  0
 27 29  1  0  0  0  0
 28 30  1  0  0  0  0
 24 27  2  0  0  0  0
 26 28  2  0  0  0  0
 22 23  2  0  0  0  0
 23 25  1  0  0  0  0
 22 24  1  0  0  0  0
 24 26  1  0  0  0  0
 21 22  1  0  0  0  0
 25 26  1  0  0  0  0
  1  3  1  0  0  0  0
  1  7  1  0  0  0  0
  1  2  2  0  0  0  0
 42 43  1  0  0  0  0
 43 51  1  0  0  0  0
 43 44  2  0  0  0  0
  8  9  1  0  0  0  0
  9 17  1  0  0  0  0
  9 10  2  0  0  0  0
 18 19  1  0  0  0  0
 19 41  1  0  0  0  0
 19 20  2  0  0  0  0
 42 45  1  0  0  0  0
  8 11  1  0  0  0  0
 51 52  1  0  0  0  0
 18 21  1  0  0  0  0
 41 42  1  0  0  0  0
  7  8  1  0  0  0  0
 17 18  1  0  0  0  0
 29 39  1  0  0  0  0
 30 40  1  0  0  0  0
 27 37  1  0  0  0  0
 28 38  1  0  0  0  0
 23 35  1  0  0  0  0
  3  4  1  0  0  0  0
  3  5  1  0  0  0  0
  3  6  1  0  0  0  0
 45 48  1  0  0  0  0
 45 49  1  0  0  0  0
 45 50  1  0  0  0  0
 11 14  1  0  0  0  0
 11 15  1  0  0  0  0
 11 16  1  0  0  0  0
 52 54  1  0  0  0  0
 52 55  1  0  0  0  0
 52 56  1  0  0  0  0
 21 33  1  0  0  0  0
 21 34  1  0  0  0  0
 42 47  1  0  0  0  0
  8 13  1  0  0  0  0
 18 32  1  0  0  0  0
 25 36  1  0  0  0  0
 51 53  1  0  0  0  0
  7 12  1  0  0  0  0
 41 46  1  0  0  0  0
 17 31  1  0  0  0  0
M  END
$$$$

  -OEChem-05262214473D

 56 57  0     1  0  0  0  0  0999 V2000
   -2.2900    0.3401    4.1553 C   0  0  0  0  0  0  0  0  0  0  0  0
   -1.3426   -0.2746    3.6796 O   0  0  0  0  0  0  0  0  0  0  0  0
   -2.7219    0.0577    5.5560 C   0  0  0  0  0  0  0  0  0  0  0  0
   -3.4815   -0.7386    5.6094 H   0  0  0  0  0  0  0  0  0  0  0  0
   -1.8906   -0.2899    6.1903 H   0  0  0  0  0  0  0  0  0  0  0  0
   -3.1599    0.9126    6.0956 H   0  0  0  0  0  0  0  0  0  0  0  0
   -3.0397    1.3125    3.5142 N   0  0  0  0  0  0  0  0  0  0  0  0
   -2.7928    1.7385    2.1618 C   0  0  2  0  0  0  0  0  0  0  0  0
   -1.4579    1.1532    1.7206 C   0  0  0  0  0  0  0  0  0  0  0  0
   -0.5858    0.8004    2.5118 O   0  0  0  0  0  0  0  0  0  0  0  0
   -2.7841    3.2553    2.0523 C   0  0  0  0  0  0  0  0  0  0  0  0
   -3.8047    1.7484    4.0260 H   0  0  0  0  0  0  0  0  0  0  0  0
   -3.5969    1.3201    1.5466 H   0  0  0  0  0  0  0  0  0  0  0  0
   -1.9850    3.6926    2.6620 H   0  0  0  0  0  0  0  0  0  0  0  0
   -2.6246    3.5776    1.0180 H   0  0  0  0  0  0  0  0  0  0  0  0
   -3.7342    3.6765    2.3981 H   0  0  0  0  0  0  0  0  0  0  0  0
   -1.3352    1.1101    0.3372 N   0  0  0  0  0  0  0  0  0  0  0  0
   -0.1579    0.6093   -0.3265 C   0  0  2  0  0  0  0  0  0  0  0  0
    0.8235    0.1806    0.7585 C   0  0  0  0  0  0  0  0  0  0  0  0
    0.5794   -0.7133    1.5662 O   0  0  0  0  0  0  0  0  0  0  0  0
    0.4832    1.6605   -1.2398 C   0  0  0  0  0  0  0  0  0  0  0  0
   -0.3830    2.0100   -2.4252 C   0  0  0  0  0  0  0  0  0  0  0  0
   -1.2312    3.0899   -2.5098 C   0  0  0  0  0  0  0  0  0  0  0  0
   -0.4719    1.2923   -3.6508 C   0  0  0  0  0  0  0  0  0  0  0  0
   -1.8334    3.0575   -3.7389 N   0  0  0  0  0  0  0  0  0  0  0  0
   -1.3885    1.9705   -4.4572 C   0  0  0  0  0  0  0  0  0  0  0  0
    0.1413    0.1273   -4.1530 C   0  0  0  0  0  0  0  0  0  0  0  0
   -1.7239    1.5401   -5.7458 C   0  0  0  0  0  0  0  0  0  0  0  0
   -0.1845   -0.3149   -5.4403 C   0  0  0  0  0  0  0  0  0  0  0  0
   -1.1030    0.3822   -6.2227 C   0  0  0  0  0  0  0  0  0  0  0  0
   -2.1183    1.4068   -0.2401 H   0  0  0  0  0  0  0  0  0  0  0  0
   -0.4718   -0.2736   -0.8956 H   0  0  0  0  0  0  0  0  0  0  0  0
    1.4649    1.3129   -1.5892 H   0  0  0  0  0  0  0  0  0  0  0  0
    0.6871    2.5824   -0.6793 H   0  0  0  0  0  0  0  0  0  0  0  0
   -1.4620    3.8778   -1.8061 H   0  0  0  0  0  0  0  0  0  0  0  0
   -2.5071    3.7334   -4.0717 H   0  0  0  0  0  0  0  0  0  0  0  0
    0.8586   -0.4277   -3.5551 H   0  0  0  0  0  0  0  0  0  0  0  0
   -2.4380    2.0827   -6.3560 H   0  0  0  0  0  0  0  0  0  0  0  0
    0.2848   -1.2130   -5.8328 H   0  0  0  0  0  0  0  0  0  0  0  0
   -1.3412    0.0209   -7.2198 H   0  0  0  0  0  0  0  0  0  0  0  0
    2.0196    0.8806    0.6833 N   0  0  0  0  0  0  0  0  0  0  0  0
    3.1300    0.6530    1.5799 C   0  0  2  0  0  0  0  0  0  0  0  0
    2.5974    0.6868    3.0063 C   0  0  0  0  0  0  0  0  0  0  0  0
    1.5523    1.2535    3.3188 O   0  0  0  0  0  0  0  0  0  0  0  0
    4.2224    1.6925    1.3829 C   0  0  0  0  0  0  0  0  0  0  0  0
    2.1196    1.5886   -0.0382 H   0  0  0  0  0  0  0  0  0  0  0  0
    3.5163   -0.3477    1.3573 H   0  0  0  0  0  0  0  0  0  0  0  0
    3.8541    2.7015    1.6013 H   0  0  0  0  0  0  0  0  0  0  0  0
    5.0752    1.5019    2.0428 H   0  0  0  0  0  0  0  0  0  0  0  0
    4.5836    1.6872    0.3488 H   0  0  0  0  0  0  0  0  0  0  0  0
    3.4482    0.0466    3.8965 N   0  0  0  0  0  0  0  0  0  0  0  0
    3.1706   -0.0459    5.3108 C   0  0  0  0  0  0  0  0  0  0  0  0
    4.2841   -0.4124    3.5465 H   0  0  0  0  0  0  0  0  0  0  0  0
    3.6447    0.7976    5.8340 H   0  0  0  0  0  0  0  0  0  0  0  0
    2.0833   -0.0140    5.4738 H   0  0  0  0  0  0  0  0  0  0  0  0
    3.5724   -0.9923    5.7021 H   0  0  0  0  0  0  0  0  0  0  0  0
 29 30  2  0  0  0  0
 27 29  1  0  0  0  0
 28 30  1  0  0  0  0
 24 27  2  0  0  0  0
 26 28  2  0  0  0  0
 22 23  2  0  0  0  0
 23 25  1  0  0  0  0
 22 24  1  0  0  0  0
 24 26  1  0  0  0  0
 21 22  1  0  0  0  0
 25 26  1  0  0  0  0
  1  3  1  0  0  0  0
  1  7  1  0  0  0  0
  1  2  2  0  0  0  0
 42 43  1  0  0  0  0
 43 51  1  0  0  0  0
 43 44  2  0  0  0  0
  8  9  1  0  0  0  0
  9 17  1  0  0  0  0
  9 10  2  0  0  0  0
 18 19  1  0  0  0  0
 19 41  1  0  0  0  0
 19 20  2  0  0  0  0
 42 45  1  0  0  0  0
  8 11  1  0  0  0  0
 51 52  1  0  0  0  0
 18 21  1  0  0  0  0
 41 42  1  0  0  0  0
  7  8  1  0  0  0  0
 17 18  1  0  0  0  0
 29 39  1  0  0  0  0
 30 40  1  0  0  0  0
 27 37  1  0  0  0  0
 28 38  1  0  0  0  0
 23 35  1  0  0  0  0
  3  4  1  0  0  0  0
  3  5  1  0  0  0  0
  3  6  1  0  0  0  0
 45 48  1  0  0  0  0
 45 49  1  0  0  0  0
 45 50  1  0  0  0  0
 11 14  1  0  0  0  0
 11 15  1  0  0  0  0
 11 16  1  0  0  0  0
 52 54  1  0  0  0  0
 52 55  1  0  0  0  0
 52 56  1  0  0  0  0
 21 33  1  0  0  0  0
 21 34  1  0  0  0  0
 42 47  1  0  0  0  0
  8 13  1  0  0  0  0
 18 32  1  0  0  0  0
 25 36  1  0  0  0  0
 51 53  1  0  0  0  0
  7 12  1  0  0  0  0
 41 46  1  0  0  0  0
 17 31  1  0  0  0  0
M  END
$$$$

  -OEChem-05262214473D

 56 57  0     1  0  0  0  0  0999 V2000
   -2.2900    0.3401    4.1553 C   0  0  0  0  0  0  0  0  0  0  0  0
   -1.3426   -0.2746    3.6796 O   0  0  0  0  0  0  0  0  0  0  0  0
   -2.7219    0.0577    5.5560 C   0  0  0  0  0  0  0  0  0  0  0  0
   -3.4815   -0.7386    5.6094 H   0  0  0  0  0  0  0  0  0  0  0  0
   -1.8906   -0.2899    6.1903 H   0  0  0  0  0  0  0  0  0  0  0  0
   -3.1599    0.9126    6.0956 H   0  0  0  0  0  0  0  0  0  0  0  0
   -3.0397    1.3125    3.5142 N   0  0  0  0  0  0  0  0  0  0  0  0
   -2.7928    1.7385    2.1618 C   0  0  2  0  0  0  0  0  0  0  0  0
   -1.4579    1.1532    1.7206 C   0  0  0  0  0  0  0  0  0  0  0  0
   -0.5858    0.8004    2.5118 O   0  0  0  0  0  0  0  0  0  0  0  0
   -2.7841    3.2553    2.0523 C   0  0  0  0  0  0  0  0  0  0  0  0
   -3.8047    1.7484    4.0260 H   0  0  0  0  0  0  0  0  0  0  0  0
   -3.5969    1.3201    1.5466 H   0  0  0  0  0  0  0  0  0  0  0  0
   -1.9850    3.6926    2.6620 H   0  0  0  0  0  0  0  0  0  0  0  0
   -2.6246    3.5776    1.0180 H   0  0  0  0  0  0  0  0  0  0  0  0
   -3.7342    3.6765    2.3981 H   0  0  0  0  0  0  0  0  0  0  0  0
   -1.3352    1.1101    0.3372 N   0  0  0  0  0  0  0  0  0  0  0  0
   -0.1579    0.6093   -0.3265 C   0  0  2  0  0  0  0  0  0  0  0  0
    0.8235    0.1806    0.7585 C   0  0  0  0  0  0  0  0  0  0  0  0
    0.7083   -0.8688    1.3883 O   0  0  0  0  0  0  0  0  0  0  0  0
    0.4832    1.6605   -1.2398 C   0  0  0  0  0  0  0  0  0  0  0  0
   -0.3830    2.0100   -2.4252 C   0  0  0  0  0  0  0  0  0  0  0  0
   -1.2312    3.0899   -2.5098 C   0  0  0  0  0  0  0  0  0  0  0  0
   -0.4719    1.2923   -3.6508 C   0  0  0  0  0  0  0  0  0  0  0  0
   -1.8334    3.0575   -3.7389 N   0  0  0  0  0  0  0  0  0  0  0  0
   -1.3885    1.9705   -4.4572 C   0  0  0  0  0  0  0  0  0  0  0  0
    0.1413    0.1273   -4.1530 C   0  0  0  0  0  0  0  0  0  0  0  0
   -1.7239    1.5401   -5.7458 C   0  0  0  0  0  0  0  0  0  0  0  0
   -0.1845   -0.3149   -5.4403 C   0  0  0  0  0  0  0  0  0  0  0  0
   -1.1030    0.3822   -6.2227 C   0  0  0  0  0  0  0  0  0  0  0  0
   -2.1183    1.4068   -0.2401 H   0  0  0  0  0  0  0  0  0  0  0  0
   -0.4718   -0.2736   -0.8956 H   0  0  0  0  0  0  0  0  0  0  0  0
    1.4649    1.3129   -1.5892 H   0  0  0  0  0  0  0  0  0  0  0  0
    0.6871    2.5824   -0.6793 H   0  0  0  0  0  0  0  0  0  0  0  0
   -1.4620    3.8778   -1.8061 H   0  0  0  0  0  0  0  0  0  0  0  0
   -2.5071    3.7334   -4.0717 H   0  0  0  0  0  0  0  0  0  0  0  0
    0.8586   -0.4277   -3.5551 H   0  0  0  0  0  0  0  0  0  0  0  0
   -2.4380    2.0827   -6.3560 H   0  0  0  0  0  0  0  0  0  0  0  0
    0.2848   -1.2130   -5.8328 H   0  0  0  0  0  0  0  0  0  0  0  0
   -1.3412    0.0209   -7.2198 H   0  0  0  0  0  0  0  0  0  0  0  0
    1.8668    1.0846    0.9022 N   0  0  0  0  0  0  0  0  0  0  0  0
    2.9471    0.9063    1.8455 C   0  0  2  0  0  0  0  0  0  0  0  0
    2.3371    0.5969    3.2062 C   0  0  0  0  0  0  0  0  0  0  0  0
    1.1871    0.9056    3.5116 O   0  0  0  0  0  0  0  0  0  0  0  0
    3.8310    2.1419    1.9145 C   0  0  0  0  0  0  0  0  0  0  0  0
    1.8712    1.9133    0.3148 H   0  0  0  0  0  0  0  0  0  0  0  0
    3.5289    0.0445    1.5009 H   0  0  0  0  0  0  0  0  0  0  0  0
    3.2655    3.0158    2.2579 H   0  0  0  0  0  0  0  0  0  0  0  0
    4.6653    1.9947    2.6082 H   0  0  0  0  0  0  0  0  0  0  0  0
    4.2451    2.3804    0.9288 H   0  0  0  0  0  0  0  0  0  0  0  0
    3.2419   -0.0262    4.0543 N   0  0  0  0  0  0  0  0  0  0  0  0
    2.9066   -0.4105    5.4056 C   0  0  0  0  0  0  0  0  0  0  0  0
    4.1685   -0.2612    3.7108 H   0  0  0  0  0  0  0  0  0  0  0  0
    3.1807    0.4003    6.0966 H   0  0  0  0  0  0  0  0  0  0  0  0
    1.8255   -0.6013    5.4748 H   0  0  0  0  0  0  0  0  0  0  0  0
    3.4581   -1.3234    5.6745 H   0  0  0  0  0  0  0  0  0  0  0  0
 29 30  2  0  0  0  0
 27 29  1  0  0  0  0
 28 30  1  0  0  0  0
 24 27  2  0  0  0  0
 26 28  2  0  0  0  0
 22 23  2  0  0  0  0
 23 25  1  0  0  0  0
 22 24  1  0  0  0  0
 24 26  1  0  0  0  0
 21 22  1  0  0  0  0
 25 26  1  0  0  0  0
  1  3  1  0  0  0  0
  1  7  1  0  0  0  0
  1  2  2  0  0  0  0
 42 43  1  0  0  0  0
 43 51  1  0  0  0  0
 43 44  2  0  0  0  0
  8  9  1  0  0  0  0
  9 17  1  0  0  0  0
  9 10  2  0  0  0  0
 18 19  1  0  0  0  0
 19 41  1  0  0  0  0
 19 20  2  0  0  0  0
 42 45  1  0  0  0  0
  8 11  1  0  0  0  0
 51 52  1  0  0  0  0
 18 21  1  0  0  0  0
 41 42  1  0  0  0  0
  7  8  1  0  0  0  0
 17 18  1  0  0  0  0
 29 39  1  0  0  0  0
 30 40  1  0  0  0  0
 27 37  1  0  0  0  0
 28 38  1  0  0  0  0
 23 35  1  0  0  0  0
  3  4  1  0  0  0  0
  3  5  1  0  0  0  0
  3  6  1  0  0  0  0
 45 48  1  0  0  0  0
 45 49  1  0  0  0  0
 45 50  1  0  0  0  0
 11 14  1  0  0  0  0
 11 15  1  0  0  0  0
 11 16  1  0  0  0  0
 52 54  1  0  0  0  0
 52 55  1  0  0  0  0
 52 56  1  0  0  0  0
 21 33  1  0  0  0  0
 21 34  1  0  0  0  0
 42 47  1  0  0  0  0
  8 13  1  0  0  0  0
 18 32  1  0  0  0  0
 25 36  1  0  0  0  0
 51 53  1  0  0  0  0
  7 12  1  0  0  0  0
 41 46  1  0  0  0  0
 17 31  1  0  0  0  0
M  END
$$$$

  -OEChem-05262214473D

 56 57  0     1  0  0  0  0  0999 V2000
   -2.2900    0.3401    4.1553 C   0  0  0  0  0  0  0  0  0  0  0  0
   -1.3426   -0.2746    3.6796 O   0  0  0  0  0  0  0  0  0  0  0  0
   -2.7219    0.0577    5.5560 C   0  0  0  0  0  0  0  0  0  0  0  0
   -3.4815   -0.7386    5.6094 H   0  0  0  0  0  0  0  0  0  0  0  0
   -1.8906   -0.2899    6.1903 H   0  0  0  0  0  0  0  0  0  0  0  0
   -3.1599    0.9126    6.0956 H   0  0  0  0  0  0  0  0  0  0  0  0
   -3.0397    1.3125    3.5142 N   0  0  0  0  0  0  0  0  0  0  0  0
   -2.7928    1.7385    2.1618 C   0  0  2  0  0  0  0  0  0  0  0  0
   -1.4579    1.1532    1.7206 C   0  0  0  0  0  0  0  0  0  0  0  0
   -0.5858    0.8004    2.5118 O   0  0  0  0  0  0  0  0  0  0  0  0
   -2.7841    3.2553    2.0523 C   0  0  0  0  0  0  0  0  0  0  0  0
   -3.8047    1.7484    4.0260 H   0  0  0  0  0  0  0  0  0  0  0  0
   -3.5969    1.3201    1.5466 H   0  0  0  0  0  0  0  0  0  0  0  0
   -1.9850    3.6926    2.6620 H   0  0  0  0  0  0  0  0  0  0  0  0
   -2.6246    3.5776    1.0180 H   0  0  0  0  0  0  0  0  0  0  0  0
   -3.7342    3.6765    2.3981 H   0  0  0  0  0  0  0  0  0  0  0  0
   -1.3352    1.1101    0.3372 N   0  0  0  0  0  0  0  0  0  0  0  0
   -0.1579    0.6093   -0.3265 C   0  0  2  0  0  0  0  0  0  0  0  0
    0.8235    0.1806    0.7585 C   0  0  0  0  0  0  0  0  0  0  0  0
    0.8743   -0.9656    1.1998 O   0  0  0  0  0  0  0  0  0  0  0  0
    0.4832    1.6605   -1.2398 C   0  0  0  0  0  0  0  0  0  0  0  0
   -0.3830    2.0100   -2.4252 C   0  0  0  0  0  0  0  0  0  0  0  0
   -1.2312    3.0899   -2.5098 C   0  0  0  0  0  0  0  0  0  0  0  0
   -0.4719    1.2923   -3.6508 C   0  0  0  0  0  0  0  0  0  0  0  0
   -1.8334    3.0575   -3.7389 N   0  0  0  0  0  0  0  0  0  0  0  0
   -1.3885    1.9705   -4.4572 C   0  0  0  0  0  0  0  0  0  0  0  0
    0.1413    0.1273   -4.1530 C   0  0  0  0  0  0  0  0  0  0  0  0
   -1.7239    1.5401   -5.7458 C   0  0  0  0  0  0  0  0  0  0  0  0
   -0.1845   -0.3149   -5.4403 C   0  0  0  0  0  0  0  0  0  0  0  0
   -1.1030    0.3822   -6.2227 C   0  0  0  0  0  0  0  0  0  0  0  0
   -2.1183    1.4068   -0.2401 H   0  0  0  0  0  0  0  0  0  0  0  0
   -0.4718   -0.2736   -0.8956 H   0  0  0  0  0  0  0  0  0  0  0  0
    1.4649    1.3129   -1.5892 H   0  0  0  0  0  0  0  0  0  0  0  0
    0.6871    2.5824   -0.6793 H   0  0  0  0  0  0  0  0  0  0  0  0
   -1.4620    3.8778   -1.8061 H   0  0  0  0  0  0  0  0  0  0  0  0
   -2.5071    3.7334   -4.0717 H   0  0  0  0  0  0  0  0  0  0  0  0
    0.8586   -0.4277   -3.5551 H   0  0  0  0  0  0  0  0  0  0  0  0
   -2.4380    2.0827   -6.3560 H   0  0  0  0  0  0  0  0  0  0  0  0
    0.2848   -1.2130   -5.8328 H   0  0  0  0  0  0  0  0  0  0  0  0
   -1.3412    0.0209   -7.2198 H   0  0  0  0  0  0  0  0  0  0  0  0
    1.6656    1.2171    1.1365 N   0  0  0  0  0  0  0  0  0  0  0  0
    2.7044    1.0731    2.1309 C   0  0  2  0  0  0  0  0  0  0  0  0
    2.0877    0.4288    3.3654 C   0  0  0  0  0  0  0  0  0  0  0  0
    0.8844    0.4701    3.6133 O   0  0  0  0  0  0  0  0  0  0  0  0
    3.3316    2.4153    2.4743 C   0  0  0  0  0  0  0  0  0  0  0  0
    1.5458    2.1224    0.6917 H   0  0  0  0  0  0  0  0  0  0  0  0
    3.4584    0.4017    1.7058 H   0  0  0  0  0  0  0  0  0  0  0  0
    2.5913    3.1016    2.9016 H   0  0  0  0  0  0  0  0  0  0  0  0
    4.1376    2.3010    3.2066 H   0  0  0  0  0  0  0  0  0  0  0  0
    3.7483    2.8910    1.5799 H   0  0  0  0  0  0  0  0  0  0  0  0
    3.0446   -0.1607    4.1797 N   0  0  0  0  0  0  0  0  0  0  0  0
    2.7119   -0.8270    5.4171 C   0  0  0  0  0  0  0  0  0  0  0  0
    4.0170   -0.1638    3.8863 H   0  0  0  0  0  0  0  0  0  0  0  0
    2.7866   -0.1127    6.2504 H   0  0  0  0  0  0  0  0  0  0  0  0
    1.6847   -1.2163    5.3592 H   0  0  0  0  0  0  0  0  0  0  0  0
    3.4108   -1.6597    5.5845 H   0  0  0  0  0  0  0  0  0  0  0  0
 29 30  2  0  0  0  0
 27 29  1  0  0  0  0
 28 30  1  0  0  0  0
 24 27  2  0  0  0  0
 26 28  2  0  0  0  0
 22 23  2  0  0  0  0
 23 25  1  0  0  0  0
 22 24  1  0  0  0  0
 24 26  1  0  0  0  0
 21 22  1  0  0  0  0
 25 26  1  0  0  0  0
  1  3  1  0  0  0  0
  1  7  1  0  0  0  0
  1  2  2  0  0  0  0
 42 43  1  0  0  0  0
 43 51  1  0  0  0  0
 43 44  2  0  0  0  0
  8  9  1  0  0  0  0
  9 17  1  0  0  0  0
  9 10  2  0  0  0  0
 18 19  1  0  0  0  0
 19 41  1  0  0  0  0
 19 20  2  0  0  0  0
 42 45  1  0  0  0  0
  8 11  1  0  0  0  0
 51 52  1  0  0  0  0
 18 21  1  0  0  0  0
 41 42  1  0  0  0  0
  7  8  1  0  0  0  0
 17 18  1  0  0  0  0
 29 39  1  0  0  0  0
 30 40  1  0  0  0  0
 27 37  1  0  0  0  0
 28 38  1  0  0  0  0
 23 35  1  0  0  0  0
  3  4  1  0  0  0  0
  3  5  1  0  0  0  0
  3  6  1  0  0  0  0
 45 48  1  0  0  0  0
 45 49  1  0  0  0  0
 45 50  1  0  0  0  0
 11 14  1  0  0  0  0
 11 15  1  0  0  0  0
 11 16  1  0  0  0  0
 52 54  1  0  0  0  0
 52 55  1  0  0  0  0
 52 56  1  0  0  0  0
 21 33  1  0  0  0  0
 21 34  1  0  0  0  0
 42 47  1  0  0  0  0
  8 13  1  0  0  0  0
 18 32  1  0  0  0  0
 25 36  1  0  0  0  0
 51 53  1  0  0  0  0
  7 12  1  0  0  0  0
 41 46  1  0  0  0  0
 17 31  1  0  0  0  0
M  END
$$$$

  -OEChem-05262214473D

 56 57  0     1  0  0  0  0  0999 V2000
   -2.2900    0.3401    4.1553 C   0  0  0  0  0  0  0  0  0  0  0  0
   -1.3426   -0.2746    3.6796 O   0  0  0  0  0  0  0  0  0  0  0  0
   -2.7219    0.0577    5.5560 C   0  0  0  0  0  0  0  0  0  0  0  0
   -3.4815   -0.7386    5.6094 H   0  0  0  0  0  0  0  0  0  0  0  0
   -1.8906   -0.2899    6.1903 H   0  0  0  0  0  0  0  0  0  0  0  0
   -3.1599    0.9126    6.0956 H   0  0  0  0  0  0  0  0  0  0  0  0
   -3.0397    1.3125    3.5142 N   0  0  0  0  0  0  0  0  0  0  0  0
   -2.7928    1.7385    2.1618 C   0  0  2  0  0  0  0  0  0  0  0  0
   -1.4579    1.1532    1.7206 C   0  0  0  0  0  0  0  0  0  0  0  0
   -0.5858    0.8004    2.5118 O   0  0  0  0  0  0  0  0  0  0  0  0
   -2.7841    3.2553    2.0523 C   0  0  0  0  0  0  0  0  0  0  0  0
   -3.8047    1.7484    4.0260 H   0  0  0  0  0  0  0  0  0  0  0  0
   -3.5969    1.3201    1.5466 H   0  0  0  0  0  0  0  0  0  0  0  0
   -1.9850    3.6926    2.6620 H   0  0  0  0  0  0  0  0  0  0  0  0
   -2.6246    3.5776    1.0180 H   0  0  0  0  0  0  0  0  0  0  0  0
   -3.7342    3.6765    2.3981 H   0  0  0  0  0  0  0  0  0  0  0  0
   -1.3352    1.1101    0.3372 N   0  0  0  0  0  0  0  0  0  0  0  0
   -0.1579    0.6093   -0.3265 C   0  0  2  0  0  0  0  0  0  0  0  0
    0.8235    0.1806    0.7585 C   0  0  0  0  0  0  0  0  0  0  0  0
    1.0663   -0.9971    1.0138 O   0  0  0  0  0  0  0  0  0  0  0  0
    0.4832    1.6605   -1.2398 C   0  0  0  0  0  0  0  0  0  0  0  0
   -0.3830    2.0100   -2.4252 C   0  0  0  0  0  0  0  0  0  0  0  0
   -1.2312    3.0899   -2.5098 C   0  0  0  0  0  0  0  0  0  0  0  0
   -0.4719    1.2923   -3.6508 C   0  0  0  0  0  0  0  0  0  0  0  0
   -1.8334    3.0575   -3.7389 N   0  0  0  0  0  0  0  0  0  0  0  0
   -1.3885    1.9705   -4.4572 C   0  0  0  0  0  0  0  0  0  0  0  0
    0.1413    0.1273   -4.1530 C   0  0  0  0  0  0  0  0  0  0  0  0
   -1.7239    1.5401   -5.7458 C   0  0  0  0  0  0  0  0  0  0  0  0
   -0.1845   -0.3149   -5.4403 C   0  0  0  0  0  0  0  0  0  0  0  0
   -1.1030    0.3822   -6.2227 C   0  0  0  0  0  0  0  0  0  0  0  0
   -2.1183    1.4068   -0.2401 H   0  0  0  0  0  0  0  0  0  0  0  0
   -0.4718   -0.2736   -0.8956 H   0  0  0  0  0  0  0  0  0  0  0  0
    1.4649    1.3129   -1.5892 H   0  0  0  0  0  0  0  0  0  0  0  0
    0.6871    2.5824   -0.6793 H   0  0  0  0  0  0  0  0  0  0  0  0
   -1.4620    3.8778   -1.8061 H   0  0  0  0  0  0  0  0  0  0  0  0
   -2.5071    3.7334   -4.0717 H   0  0  0  0  0  0  0  0  0  0  0  0
    0.8586   -0.4277   -3.5551 H   0  0  0  0  0  0  0  0  0  0  0  0
   -2.4380    2.0827   -6.3560 H   0  0  0  0  0  0  0  0  0  0  0  0
    0.2848   -1.2130   -5.8328 H   0  0  0  0  0  0  0  0  0  0  0  0
   -1.3412    0.0209   -7.2198 H   0  0  0  0  0  0  0  0  0  0  0  0
    1.4299    1.2690    1.3702 N   0  0  0  0  0  0  0  0  0  0  0  0
    2.4185    1.1420    2.4168 C   0  0  2  0  0  0  0  0  0  0  0  0
    1.8661    0.1939    3.4730 C   0  0  0  0  0  0  0  0  0  0  0  0
    0.6648   -0.0233    3.6170 O   0  0  0  0  0  0  0  0  0  0  0  0
    2.7580    2.4942    3.0243 C   0  0  0  0  0  0  0  0  0  0  0  0
    1.1655    2.2017    1.0670 H   0  0  0  0  0  0  0  0  0  0  0  0
    3.3095    0.6995    1.9581 H   0  0  0  0  0  0  0  0  0  0  0  0
    1.8774    2.9530    3.4886 H   0  0  0  0  0  0  0  0  0  0  0  0
    3.5278    2.3999    3.7972 H   0  0  0  0  0  0  0  0  0  0  0  0
    3.1270    3.1842    2.2578 H   0  0  0  0  0  0  0  0  0  0  0  0
    2.8696   -0.3479    4.2639 N   0  0  0  0  0  0  0  0  0  0  0  0
    2.5996   -1.2671    5.3448 C   0  0  0  0  0  0  0  0  0  0  0  0
    3.8400   -0.1269    4.0609 H   0  0  0  0  0  0  0  0  0  0  0  0
    2.4892   -0.7064    6.2847 H   0  0  0  0  0  0  0  0  0  0  0  0
    1.6704   -1.8171    5.1347 H   0  0  0  0  0  0  0  0  0  0  0  0
    3.4336   -1.9783    5.4380 H   0  0  0  0  0  0  0  0  0  0  0  0
 29 30  2  0  0  0  0
 27 29  1  0  0  0  0
 28 30  1  0  0  0  0
 24 27  2  0  0  0  0
 26 28  2  0  0  0  0
 22 23  2  0  0  0  0
 23 25  1  0  0  0  0
 22 24  1  0  0  0  0
 24 26  1  0  0  0  0
 21 22  1  0  0  0  0
 25 26  1  0  0  0  0
  1  3  1  0  0  0  0
  1  7  1  0  0  0  0
  1  2  2  0  0  0  0
 42 43  1  0  0  0  0
 43 51  1  0  0  0  0
 43 44  2  0  0  0  0
  8  9  1  0  0  0  0
  9 17  1  0  0  0  0
  9 10  2  0  0  0  0
 18 19  1  0  0  0  0
 19 41  1  0  0  0  0
 19 20  2  0  0  0  0
 42 45  1  0  0  0  0
  8 11  1  0  0  0  0
 51 52  1  0  0  0  0
 18 21  1  0  0  0  0
 41 42  1  0  0  0  0
  7  8  1  0  0  0  0
 17 18  1  0  0  0  0
 29 39  1  0  0  0  0
 30 40  1  0  0  0  0
 27 37  1  0  0  0  0
 28 38  1  0  0  0  0
 23 35  1  0  0  0  0
  3  4  1  0  0  0  0
  3  5  1  0  0  0  0
  3  6  1  0  0  0  0
 45 48  1  0  0  0  0
 45 49  1  0  0  0  0
 45 50  1  0  0  0  0
 11 14  1  0  0  0  0
 11 15  1  0  0  0  0
 11 16  1  0  0  0  0
 52 54  1  0  0  0  0
 52 55  1  0  0  0  0
 52 56  1  0  0  0  0
 21 33  1  0  0  0  0
 21 34  1  0  0  0  0
 42 47  1  0  0  0  0
  8 13  1  0  0  0  0
 18 32  1  0  0  0  0
 25 36  1  0  0  0  0
 51 53  1  0  0  0  0
  7 12  1  0  0  0  0
 41 46  1  0  0  0  0
 17 31  1  0  0  0  0
M  END
$$$$

  -OEChem-05262214473D

 56 57  0     1  0  0  0  0  0999 V2000
   -2.2900    0.3401    4.1553 C   0  0  0  0  0  0  0  0  0  0  0  0
   -1.3426   -0.2746    3.6796 O   0  0  0  0  0  0  0  0  0  0  0  0
   -2.7219    0.0577    5.5560 C   0  0  0  0  0  0  0  0  0  0  0  0
   -3.4815   -0.7386    5.6094 H   0  0  0  0  0  0  0  0  0  0  0  0
   -1.8906   -0.2899    6.1903 H   0  0  0  0  0  0  0  0  0  0  0  0
   -3.1599    0.9126    6.0956 H   0  0  0  0  0  0  0  0  0  0  0  0
   -3.0397    1.3125    3.5142 N   0  0  0  0  0  0  0  0  0  0  0  0
   -2.7928    1.7385    2.1618 C   0  0  2  0  0  0  0  0  0  0  0  0
   -1.4579    1.1532    1.7206 C   0  0  0  0  0  0  0  0  0  0  0  0
   -0.5858    0.8004    2.5118 O   0  0  0  0  0  0  0  0  0  0  0  0
   -2.7841    3.2553    2.0523 C   0  0  0  0  0  0  0  0  0  0  0  0
   -3.8047    1.7484    4.0260 H   0  0  0  0  0  0  0  0  0  0  0  0
   -3.5969    1.3201    1.5466 H   0  0  0  0  0  0  0  0  0  0  0  0
   -1.9850    3.6926    2.6620 H   0  0  0  0  0  0  0  0  0  0  0  0
   -2.6246    3.5776    1.0180 H   0  0  0  0  0  0  0  0  0  0  0  0
   -3.7342    3.6765    2.3981 H   0  0  0  0  0  0  0  0  0  0  0  0
   -1.3352    1.1101    0.3372 N   0  0  0  0  0  0  0  0  0  0  0  0
   -0.1579    0.6093   -0.3265 C   0  0  2  0  0  0  0  0  0  0  0  0
    0.8235    0.1806    0.7585 C   0  0  0  0  0  0  0  0  0  0  0  0
    1.2710   -0.9612    0.8428 O   0  0  0  0  0  0  0  0  0  0  0  0
    0.4832    1.6605   -1.2398 C   0  0  0  0  0  0  0  0  0  0  0  0
   -0.3830    2.0100   -2.4252 C   0  0  0  0  0  0  0  0  0  0  0  0
   -1.2312    3.0899   -2.5098 C   0  0  0  0  0  0  0  0  0  0  0  0
   -0.4719    1.2923   -3.6508 C   0  0  0  0  0  0  0  0  0  0  0  0
   -1.8334    3.0575   -3.7389 N   0  0  0  0  0  0  0  0  0  0  0  0
   -1.3885    1.9705   -4.4572 C   0  0  0  0  0  0  0  0  0  0  0  0
    0.1413    0.1273   -4.1530 C   0  0  0  0  0  0  0  0  0  0  0  0
   -1.7239    1.5401   -5.7458 C   0  0  0  0  0  0  0  0  0  0  0  0
   -0.1845   -0.3149   -5.4403 C   0  0  0  0  0  0  0  0  0  0  0  0
   -1.1030    0.3822   -6.2227 C   0  0  0  0  0  0  0  0  0  0  0  0
   -2.1183    1.4068   -0.2401 H   0  0  0  0  0  0  0  0  0  0  0  0
   -0.4718   -0.2736   -0.8956 H   0  0  0  0  0  0  0  0  0  0  0  0
    1.4649    1.3129   -1.5892 H   0  0  0  0  0  0  0  0  0  0  0  0
    0.6871    2.5824   -0.6793 H   0  0  0  0  0  0  0  0  0  0  0  0
   -1.4620    3.8778   -1.8061 H   0  0  0  0  0  0  0  0  0  0  0  0
   -2.5071    3.7334   -4.0717 H   0  0  0  0  0  0  0  0  0  0  0  0
    0.8586   -0.4277   -3.5551 H   0  0  0  0  0  0  0  0  0  0  0  0
   -2.4380    2.0827   -6.3560 H   0  0  0  0  0  0  0  0  0  0  0  0
    0.2848   -1.2130   -5.8328 H   0  0  0  0  0  0  0  0  0  0  0  0
   -1.3412    0.0209   -7.2198 H   0  0  0  0  0  0  0  0  0  0  0  0
    1.1756    1.2367    1.5874 N   0  0  0  0  0  0  0  0  0  0  0  0
    2.1088    1.1082    2.6835 C   0  0  2  0  0  0  0  0  0  0  0  0
    1.6876   -0.0916    3.5216 C   0  0  0  0  0  0  0  0  0  0  0  0
    0.5433   -0.5409    3.5223 O   0  0  0  0  0  0  0  0  0  0  0  0
    2.1494    2.3730    3.5269 C   0  0  0  0  0  0  0  0  0  0  0  0
    0.7563    2.1456    1.4150 H   0  0  0  0  0  0  0  0  0  0  0  0
    3.0925    0.9178    2.2407 H   0  0  0  0  0  0  0  0  0  0  0  0
    1.1725    2.5801    3.9788 H   0  0  0  0  0  0  0  0  0  0  0  0
    2.8776    2.2847    4.3398 H   0  0  0  0  0  0  0  0  0  0  0  0
    2.4235    3.2400    2.9161 H   0  0  0  0  0  0  0  0  0  0  0  0
    2.7289   -0.5750    4.3014 N   0  0  0  0  0  0  0  0  0  0  0  0
    2.5776   -1.7008    5.1933 C   0  0  0  0  0  0  0  0  0  0  0  0
    3.6495   -0.1529    4.2230 H   0  0  0  0  0  0  0  0  0  0  0  0
    2.3089   -1.3404    6.1973 H   0  0  0  0  0  0  0  0  0  0  0  0
    1.7836   -2.3625    4.8168 H   0  0  0  0  0  0  0  0  0  0  0  0
    3.5249   -2.2574    5.2451 H   0  0  0  0  0  0  0  0  0  0  0  0
 29 30  2  0  0  0  0
 27 29  1  0  0  0  0
 28 30  1  0  0  0  0
 24 27  2  0  0  0  0
 26 28  2  0  0  0  0
 22 23  2  0  0  0  0
 23 25  1  0  0  0  0
 22 24  1  0  0  0  0
 24 26  1  0  0  0  0
 21 22  1  0  0  0  0
 25 26  1  0  0  0  0
  1  3  1  0  0  0  0
  1  7  1  0  0  0  0
  1  2  2  0  0  0  0
 42 43  1  0  0  0  0
 43 51  1  0  0  0  0
 43 44  2  0  0  0  0
  8  9  1  0  0  0  0
  9 17  1  0  0  0  0
  9 10  2  0  0  0  0
 18 19  1  0  0  0  0
 19 41  1  0  0  0  0
 19 20  2  0  0  0  0
 42 45  1  0  0  0  0
  8 11  1  0  0  0  0
 51 52  1  0  0  0  0
 18 21  1  0  0  0  0
 41 42  1  0  0  0  0
  7  8  1  0  0  0  0
 17 18  1  0  0  0  0
 29 39  1  0  0  0  0
 30 40  1  0  0  0  0
 27 37  1  0  0  0  0
 28 38  1  0  0  0  0
 23 35  1  0  0  0  0
  3  4  1  0  0  0  0
  3  5  1  0  0  0  0
  3  6  1  0  0  0  0
 45 48  1  0  0  0  0
 45 49  1  0  0  0  0
 45 50  1  0  0  0  0
 11 14  1  0  0  0  0
 11 15  1  0  0  0  0
 11 16  1  0  0  0  0
 52 54  1  0  0  0  0
 52 55  1  0  0  0  0
 52 56  1  0  0  0  0
 21 33  1  0  0  0  0
 21 34  1  0  0  0  0
 42 47  1  0  0  0  0
  8 13  1  0  0  0  0
 18 32  1  0  0  0  0
 25 36  1  0  0  0  0
 51 53  1  0  0  0  0
  7 12  1  0  0  0  0
 41 46  1  0  0  0  0
 17 31  1  0  0  0  0
M  END
$$$$

  -OEChem-05262214473D

 56 57  0     1  0  0  0  0  0999 V2000
   -2.2900    0.3401    4.1553 C   0  0  0  0  0  0  0  0  0  0  0  0
   -1.3426   -0.2746    3.6796 O   0  0  0  0  0  0  0  0  0  0  0  0
   -2.7219    0.0577    5.5560 C   0  0  0  0  0  0  0  0  0  0  0  0
   -3.4815   -0.7386    5.6094 H   0  0  0  0  0  0  0  0  0  0  0  0
   -1.8906   -0.2899    6.1903 H   0  0  0  0  0  0  0  0  0  0  0  0
   -3.1599    0.9126    6.0956 H   0  0  0  0  0  0  0  0  0  0  0  0
   -3.0397    1.3125    3.5142 N   0  0  0  0  0  0  0  0  0  0  0  0
   -2.7928    1.7385    2.1618 C   0  0  2  0  0  0  0  0  0  0  0  0
   -1.4579    1.1532    1.7206 C   0  0  0  0  0  0  0  0  0  0  0  0
   -0.5858    0.8004    2.5118 O   0  0  0  0  0  0  0  0  0  0  0  0
   -2.7841    3.2553    2.0523 C   0  0  0  0  0  0  0  0  0  0  0  0
   -3.8047    1.7484    4.0260 H   0  0  0  0  0  0  0  0  0  0  0  0
   -3.5969    1.3201    1.5466 H   0  0  0  0  0  0  0  0  0  0  0  0
   -1.9850    3.6926    2.6620 H   0  0  0  0  0  0  0  0  0  0  0  0
   -2.6246    3.5776    1.0180 H   0  0  0  0  0  0  0  0  0  0  0  0
   -3.7342    3.6765    2.3981 H   0  0  0  0  0  0  0  0  0  0  0  0
   -1.3352    1.1101    0.3372 N   0  0  0  0  0  0  0  0  0  0  0  0
   -0.1579    0.6093   -0.3265 C   0  0  2  0  0  0  0  0  0  0  0  0
    0.8235    0.1806    0.7585 C   0  0  0  0  0  0  0  0  0  0  0  0
    1.4746   -0.8603    0.6985 O   0  0  0  0  0  0  0  0  0  0  0  0
    0.4832    1.6605   -1.2398 C   0  0  0  0  0  0  0  0  0  0  0  0
   -0.3830    2.0100   -2.4252 C   0  0  0  0  0  0  0  0  0  0  0  0
   -1.2312    3.0899   -2.5098 C   0  0  0  0  0  0  0  0  0  0  0  0
   -0.4719    1.2923   -3.6508 C   0  0  0  0  0  0  0  0  0  0  0  0
   -1.8334    3.0575   -3.7389 N   0  0  0  0  0  0  0  0  0  0  0  0
   -1.3885    1.9705   -4.4572 C   0  0  0  0  0  0  0  0  0  0  0  0
    0.1413    0.1273   -4.1530 C   0  0  0  0  0  0  0  0  0  0  0  0
   -1.7239    1.5401   -5.7458 C   0  0  0  0  0  0  0  0  0  0  0  0
   -0.1845   -0.3149   -5.4403 C   0  0  0  0  0  0  0  0  0  0  0  0
   -1.1030    0.3822   -6.2227 C   0  0  0  0  0  0  0  0  0  0  0  0
   -2.1183    1.4068   -0.2401 H   0  0  0  0  0  0  0  0  0  0  0  0
   -0.4718   -0.2736   -0.8956 H   0  0  0  0  0  0  0  0  0  0  0  0
    1.4649    1.3129   -1.5892 H   0  0  0  0  0  0  0  0  0  0  0  0
    0.6871    2.5824   -0.6793 H   0  0  0  0  0  0  0  0  0  0  0  0
   -1.4620    3.8778   -1.8061 H   0  0  0  0  0  0  0  0  0  0  0  0
   -2.5071    3.7334   -4.0717 H   0  0  0  0  0  0  0  0  0  0  0  0
    0.8586   -0.4277   -3.5551 H   0  0  0  0  0  0  0  0  0  0  0  0
   -2.4380    2.0827   -6.3560 H   0  0  0  0  0  0  0  0  0  0  0  0
    0.2848   -1.2130   -5.8328 H   0  0  0  0  0  0  0  0  0  0  0  0
   -1.3412    0.0209   -7.2198 H   0  0  0  0  0  0  0  0  0  0  0  0
    0.9201    1.1225    1.7734 N   0  0  0  0  0  0  0  0  0  0  0  0
    1.7965    0.9741    2.9130 C   0  0  2  0  0  0  0  0  0  0  0  0
    1.5642   -0.4084    3.5081 C   0  0  0  0  0  0  0  0  0  0  0  0
    0.5282   -1.0474    3.3358 O   0  0  0  0  0  0  0  0  0  0  0  0
    1.5472    2.0602    3.9478 C   0  0  0  0  0  0  0  0  0  0  0  0
    0.3460    1.9582    1.7120 H   0  0  0  0  0  0  0  0  0  0  0  0
    2.8222    1.0416    2.5341 H   0  0  0  0  0  0  0  0  0  0  0  0
    0.5246    2.0085    4.3389 H   0  0  0  0  0  0  0  0  0  0  0  0
    2.2313    1.9633    4.7974 H   0  0  0  0  0  0  0  0  0  0  0  0
    1.6858    3.0547    3.5102 H   0  0  0  0  0  0  0  0  0  0  0  0
    2.6322   -0.8265    4.2896 N   0  0  0  0  0  0  0  0  0  0  0  0
    2.6471   -2.0986    4.9732 C   0  0  0  0  0  0  0  0  0  0  0  0
    3.4585   -0.2402    4.3612 H   0  0  0  0  0  0  0  0  0  0  0  0
    2.2578   -1.9715    5.9941 H   0  0  0  0  0  0  0  0  0  0  0  0
    2.0165   -2.8156    4.4271 H   0  0  0  0  0  0  0  0  0  0  0  0
    3.6786   -2.4781    5.0189 H   0  0  0  0  0  0  0  0  0  0  0  0
 29 30  2  0  0  0  0
 27 29  1  0  0  0  0
 28 30  1  0  0  0  0
 24 27  2  0  0  0  0
 26 28  2  0  0  0  0
 22 23  2  0  0  0  0
 23 25  1  0  0  0  0
 22 24  1  0  0  0  0
 24 26  1  0  0  0  0
 21 22  1  0  0  0  0
 25 26  1  0  0  0  0
  1  3  1  0  0  0  0
  1  7  1  0  0  0  0
  1  2  2  0  0  0  0
 42 43  1  0  0  0  0
 43 51  1  0  0  0  0
 43 44  2  0  0  0  0
  8  9  1  0  0  0  0
  9 17  1  0  0  0  0
  9 10  2  0  0  0  0
 18 19  1  0  0  0  0
 19 41  1  0  0  0  0
 19 20  2  0  0  0  0
 42 45  1  0  0  0  0
  8 11  1  0  0  0  0
 51 52  1  0  0  0  0
 18 21  1  0  0  0  0
 41 42  1  0  0  0  0
  7  8  1  0  0  0  0
 17 18  1  0  0  0  0
 29 39  1  0  0  0  0
 30 40  1  0  0  0  0
 27 37  1  0  0  0  0
 28 38  1  0  0  0  0
 23 35  1  0  0  0  0
  3  4  1  0  0  0  0
  3  5  1  0  0  0  0
  3  6  1  0  0  0  0
 45 48  1  0  0  0  0
 45 49  1  0  0  0  0
 45 50  1  0  0  0  0
 11 14  1  0  0  0  0
 11 15  1  0  0  0  0
 11 16  1  0  0  0  0
 52 54  1  0  0  0  0
 52 55  1  0  0  0  0
 52 56  1  0  0  0  0
 21 33  1  0  0  0  0
 21 34  1  0  0  0  0
 42 47  1  0  0  0  0
  8 13  1  0  0  0  0
 18 32  1  0  0  0  0
 25 36  1  0  0  0  0
 51 53  1  0  0  0  0
  7 12  1  0  0  0  0
 41 46  1  0  0  0  0
 17 31  1  0  0  0  0
M  END
$$$$

  -OEChem-05262214473D

 56 57  0     1  0  0  0  0  0999 V2000
   -2.2900    0.3401    4.1553 C   0  0  0  0  0  0  0  0  0  0  0  0
   -1.3426   -0.2746    3.6796 O   0  0  0  0  0  0  0  0  0  0  0  0
   -2.7219    0.0577    5.5560 C   0  0  0  0  0  0  0  0  0  0  0  0
   -3.4815   -0.7386    5.6094 H   0  0  0  0  0  0  0  0  0  0  0  0
   -1.8906   -0.2899    6.1903 H   0  0  0  0  0  0  0  0  0  0  0  0
   -3.1599    0.9126    6.0956 H   0  0  0  0  0  0  0  0  0  0  0  0
   -3.0397    1.3125    3.5142 N   0  0  0  0  0  0  0  0  0  0  0  0
   -2.7928    1.7385    2.1618 C   0  0  2  0  0  0  0  0  0  0  0  0
   -1.4579    1.1532    1.7206 C   0  0  0  0  0  0  0  0  0  0  0  0
   -0.5858    0.8004    2.5118 O   0  0  0  0  0  0  0  0  0  0  0  0
   -2.7841    3.2553    2.0523 C   0  0  0  0  0  0  0  0  0  0  0  0
   -3.8047    1.7484    4.0260 H   0  0  0  0  0  0  0  0  0  0  0  0
   -3.5969    1.3201    1.5466 H   0  0  0  0  0  0  0  0  0  0  0  0
   -1.9850    3.6926    2.6620 H   0  0  0  0  0  0  0  0  0  0  0  0
   -2.6246    3.5776    1.0180 H   0  0  0  0  0  0  0  0  0  0  0  0
   -3.7342    3.6765    2.3981 H   0  0  0  0  0  0  0  0  0  0  0  0
   -1.3352    1.1101    0.3372 N   0  0  0  0  0  0  0  0  0  0  0  0
   -0.1579    0.6093   -0.3265 C   0  0  2  0  0  0  0  0  0  0  0  0
    0.8235    0.1806    0.7585 C   0  0  0  0  0  0  0  0  0  0  0  0
    1.6632   -0.7013    0.5907 O   0  0  0  0  0  0  0  0  0  0  0  0
    0.4832    1.6605   -1.2398 C   0  0  0  0  0  0  0  0  0  0  0  0
   -0.3830    2.0100   -2.4252 C   0  0  0  0  0  0  0  0  0  0  0  0
   -1.2312    3.0899   -2.5098 C   0  0  0  0  0  0  0  0  0  0  0  0
   -0.4719    1.2923   -3.6508 C   0  0  0  0  0  0  0  0  0  0  0  0
   -1.8334    3.0575   -3.7389 N   0  0  0  0  0  0  0  0  0  0  0  0
   -1.3885    1.9705   -4.4572 C   0  0  0  0  0  0  0  0  0  0  0  0
    0.1413    0.1273   -4.1530 C   0  0  0  0  0  0  0  0  0  0  0  0
   -1.7239    1.5401   -5.7458 C   0  0  0  0  0  0  0  0  0  0  0  0
   -0.1845   -0.3149   -5.4403 C   0  0  0  0  0  0  0  0  0  0  0  0
   -1.1030    0.3822   -6.2227 C   0  0  0  0  0  0  0  0  0  0  0  0
   -2.1183    1.4068   -0.2401 H   0  0  0  0  0  0  0  0  0  0  0  0
   -0.4718   -0.2736   -0.8956 H   0  0  0  0  0  0  0  0  0  0  0  0
    1.4649    1.3129   -1.5892 H   0  0  0  0  0  0  0  0  0  0  0  0
    0.6871    2.5824   -0.6793 H   0  0  0  0  0  0  0  0  0  0  0  0
   -1.4620    3.8778   -1.8061 H   0  0  0  0  0  0  0  0  0  0  0  0
   -2.5071    3.7334   -4.0717 H   0  0  0  0  0  0  0  0  0  0  0  0
    0.8586   -0.4277   -3.5551 H   0  0  0  0  0  0  0  0  0  0  0  0
   -2.4380    2.0827   -6.3560 H   0  0  0  0  0  0  0  0  0  0  0  0
    0.2848   -1.2130   -5.8328 H   0  0  0  0  0  0  0  0  0  0  0  0
   -1.3412    0.0209   -7.2198 H   0  0  0  0  0  0  0  0  0  0  0  0
    0.6809    0.9341    1.9154 N   0  0  0  0  0  0  0  0  0  0  0  0
    1.5028    0.7488    3.0896 C   0  0  2  0  0  0  0  0  0  0  0  0
    1.5043   -0.7349    3.4332 C   0  0  0  0  0  0  0  0  0  0  0  0
    0.6205   -1.5084    3.0702 O   0  0  0  0  0  0  0  0  0  0  0  0
    0.9926    1.5769    4.2585 C   0  0  0  0  0  0  0  0  0  0  0  0
   -0.0374    1.6520    1.9378 H   0  0  0  0  0  0  0  0  0  0  0  0
    2.5168    1.0625    2.8185 H   0  0  0  0  0  0  0  0  0  0  0  0
   -0.0222    1.2770    4.5444 H   0  0  0  0  0  0  0  0  0  0  0  0
    1.6329    1.4575    5.1388 H   0  0  0  0  0  0  0  0  0  0  0  0
    0.9641    2.6408    3.9994 H   0  0  0  0  0  0  0  0  0  0  0  0
    2.5859   -1.0852    4.2292 N   0  0  0  0  0  0  0  0  0  0  0  0
    2.8037   -2.4334    4.6993 C   0  0  0  0  0  0  0  0  0  0  0  0
    3.2801   -0.3826    4.4664 H   0  0  0  0  0  0  0  0  0  0  0  0
    2.3395   -2.5566    5.6890 H   0  0  0  0  0  0  0  0  0  0  0  0
    2.3534   -3.1454    3.9921 H   0  0  0  0  0  0  0  0  0  0  0  0
    3.8842   -2.6252    4.7748 H   0  0  0  0  0  0  0  0  0  0  0  0
 29 30  2  0  0  0  0
 27 29  1  0  0  0  0
 28 30  1  0  0  0  0
 24 27  2  0  0  0  0
 26 28  2  0  0  0  0
 22 23  2  0  0  0  0
 23 25  1  0  0  0  0
 22 24  1  0  0  0  0
 24 26  1  0  0  0  0
 21 22  1  0  0  0  0
 25 26  1  0  0  0  0
  1  3  1  0  0  0  0
  1  7  1  0  0  0  0
  1  2  2  0  0  0  0
 42 43  1  0  0  0  0
 43 51  1  0  0  0  0
 43 44  2  0  0  0  0
  8  9  1  0  0  0  0
  9 17  1  0  0  0  0
  9 10  2  0  0  0  0
 18 19  1  0  0  0  0
 19 41  1  0  0  0  0
 19 20  2  0  0  0  0
 42 45  1  0  0  0  0
  8 11  1  0  0  0  0
 51 52  1  0  0  0  0
 18 21  1  0  0  0  0
 41 42  1  0  0  0  0
  7  8  1  0  0  0  0
 17 18  1  0  0  0  0
 29 39  1  0  0  0  0
 30 40  1  0  0  0  0
 27 37  1  0  0  0  0
 28 38  1  0  0  0  0
 23 35  1  0  0  0  0
  3  4  1  0  0  0  0
  3  5  1  0  0  0  0
  3  6  1  0  0  0  0
 45 48  1  0  0  0  0
 45 49  1  0  0  0  0
 45 50  1  0  0  0  0
 11 14  1  0  0  0  0
 11 15  1  0  0  0  0
 11 16  1  0  0  0  0
 52 54  1  0  0  0  0
 52 55  1  0  0  0  0
 52 56  1  0  0  0  0
 21 33  1  0  0  0  0
 21 34  1  0  0  0  0
 42 47  1  0  0  0  0
  8 13  1  0  0  0  0
 18 32  1  0  0  0  0
 25 36  1  0  0  0  0
 51 53  1  0  0  0  0
  7 12  1  0  0  0  0
 41 46  1  0  0  0  0
 17 31  1  0  0  0  0
M  END
$$$$

  -OEChem-05262214473D

 56 57  0     1  0  0  0  0  0999 V2000
   -2.2900    0.3401    4.1553 C   0  0  0  0  0  0  0  0  0  0  0  0
   -1.3426   -0.2746    3.6796 O   0  0  0  0  0  0  0  0  0  0  0  0
   -2.7219    0.0577    5.5560 C   0  0  0  0  0  0  0  0  0  0  0  0
   -3.4815   -0.7386    5.6094 H   0  0  0  0  0  0  0  0  0  0  0  0
   -1.8906   -0.2899    6.1903 H   0  0  0  0  0  0  0  0  0  0  0  0
   -3.1599    0.9126    6.0956 H   0  0  0  0  0  0  0  0  0  0  0  0
   -3.0397    1.3125    3.5142 N   0  0  0  0  0  0  0  0  0  0  0  0
   -2.7928    1.7385    2.1618 C   0  0  2  0  0  0  0  0  0  0  0  0
   -1.4579    1.1532    1.7206 C   0  0  0  0  0  0  0  0  0  0  0  0
   -0.5858    0.8004    2.5118 O   0  0  0  0  0  0  0  0  0  0  0  0
   -2.7841    3.2553    2.0523 C   0  0  0  0  0  0  0  0  0  0  0  0
   -3.8047    1.7484    4.0260 H   0  0  0  0  0  0  0  0  0  0  0  0
   -3.5969    1.3201    1.5466 H   0  0  0  0  0  0  0  0  0  0  0  0
   -1.9850    3.6926    2.6620 H   0  0  0  0  0  0  0  0  0  0  0  0
   -2.6246    3.5776    1.0180 H   0  0  0  0  0  0  0  0  0  0  0  0
   -3.7342    3.6765    2.3981 H   0  0  0  0  0  0  0  0  0  0  0  0
   -1.3352    1.1101    0.3372 N   0  0  0  0  0  0  0  0  0  0  0  0
   -0.1579    0.6093   -0.3265 C   0  0  2  0  0  0  0  0  0  0  0  0
    0.8235    0.1806    0.7585 C   0  0  0  0  0  0  0  0  0  0  0  0
    1.8239   -0.4950    0.5269 O   0  0  0  0  0  0  0  0  0  0  0  0
    0.4832    1.6605   -1.2398 C   0  0  0  0  0  0  0  0  0  0  0  0
   -0.3830    2.0100   -2.4252 C   0  0  0  0  0  0  0  0  0  0  0  0
   -1.2312    3.0899   -2.5098 C   0  0  0  0  0  0  0  0  0  0  0  0
   -0.4719    1.2923   -3.6508 C   0  0  0  0  0  0  0  0  0  0  0  0
   -1.8334    3.0575   -3.7389 N   0  0  0  0  0  0  0  0  0  0  0  0
   -1.3885    1.9705   -4.4572 C   0  0  0  0  0  0  0  0  0  0  0  0
    0.1413    0.1273   -4.1530 C   0  0  0  0  0  0  0  0  0  0  0  0
   -1.7239    1.5401   -5.7458 C   0  0  0  0  0  0  0  0  0  0  0  0
   -0.1845   -0.3149   -5.4403 C   0  0  0  0  0  0  0  0  0  0  0  0
   -1.1030    0.3822   -6.2227 C   0  0  0  0  0  0  0  0  0  0  0  0
   -2.1183    1.4068   -0.2401 H   0  0  0  0  0  0  0  0  0  0  0  0
   -0.4718   -0.2736   -0.8956 H   0  0  0  0  0  0  0  0  0  0  0  0
    1.4649    1.3129   -1.5892 H   0  0  0  0  0  0  0  0  0  0  0  0
    0.6871    2.5824   -0.6793 H   0  0  0  0  0  0  0  0  0  0  0  0
   -1.4620    3.8778   -1.8061 H   0  0  0  0  0  0  0  0  0  0  0  0
   -2.5071    3.7334   -4.0717 H   0  0  0  0  0  0  0  0  0  0  0  0
    0.8586   -0.4277   -3.5551 H   0  0  0  0  0  0  0  0  0  0  0  0
   -2.4380    2.0827   -6.3560 H   0  0  0  0  0  0  0  0  0  0  0  0
    0.2848   -1.2130   -5.8328 H   0  0  0  0  0  0  0  0  0  0  0  0
   -1.3412    0.0209   -7.2198 H   0  0  0  0  0  0  0  0  0  0  0  0
    0.4741    0.6845    2.0037 N   0  0  0  0  0  0  0  0  0  0  0  0
    1.2478    0.4476    3.2012 C   0  0  2  0  0  0  0  0  0  0  0  0
    1.5121   -1.0489    3.3021 C   0  0  0  0  0  0  0  0  0  0  0  0
    0.8140   -1.8925    2.7435 O   0  0  0  0  0  0  0  0  0  0  0  0
    0.5233    0.9562    4.4378 C   0  0  0  0  0  0  0  0  0  0  0  0
   -0.3678    1.2481    2.0770 H   0  0  0  0  0  0  0  0  0  0  0  0
    2.1974    0.9790    3.0745 H   0  0  0  0  0  0  0  0  0  0  0  0
   -0.4305    0.4354    4.5812 H   0  0  0  0  0  0  0  0  0  0  0  0
    1.1232    0.8019    5.3407 H   0  0  0  0  0  0  0  0  0  0  0  0
    0.3076    2.0266    4.3504 H   0  0  0  0  0  0  0  0  0  0  0  0
    2.5933   -1.3337    4.1244 N   0  0  0  0  0  0  0  0  0  0  0  0
    3.0364   -2.6823    4.3905 C   0  0  0  0  0  0  0  0  0  0  0  0
    3.1262   -0.5707    4.5312 H   0  0  0  0  0  0  0  0  0  0  0  0
    2.5484   -3.0559    5.3027 H   0  0  0  0  0  0  0  0  0  0  0  0
    2.7711   -3.3295    3.5415 H   0  0  0  0  0  0  0  0  0  0  0  0
    4.1276   -2.6888    4.5295 H   0  0  0  0  0  0  0  0  0  0  0  0
 29 30  2  0  0  0  0
 27 29  1  0  0  0  0
 28 30  1  0  0  0  0
 24 27  2  0  0  0  0
 26 28  2  0  0  0  0
 22 23  2  0  0  0  0
 23 25  1  0  0  0  0
 22 24  1  0  0  0  0
 24 26  1  0  0  0  0
 21 22  1  0  0  0  0
 25 26  1  0  0  0  0
  1  3  1  0  0  0  0
  1  7  1  0  0  0  0
  1  2  2  0  0  0  0
 42 43  1  0  0  0  0
 43 51  1  0  0  0  0
 43 44  2  0  0  0  0
  8  9  1  0  0  0  0
  9 17  1  0  0  0  0
  9 10  2  0  0  0  0
 18 19  1  0  0  0  0
 19 41  1  0  0  0  0
 19 20  2  0  0  0  0
 42 45  1  0  0  0  0
  8 11  1  0  0  0  0
 51 52  1  0  0  0  0
 18 21  1  0  0  0  0
 41 42  1  0  0  0  0
  7  8  1  0  0  0  0
 17 18  1  0  0  0  0
 29 39  1  0  0  0  0
 30 40  1  0  0  0  0
 27 37  1  0  0  0  0
 28 38  1  0  0  0  0
 23 35  1  0  0  0  0
  3  4  1  0  0  0  0
  3  5  1  0  0  0  0
  3  6  1  0  0  0  0
 45 48  1  0  0  0  0
 45 49  1  0  0  0  0
 45 50  1  0  0  0  0
 11 14  1  0  0  0  0
 11 15  1  0  0  0  0
 11 16  1  0  0  0  0
 52 54  1  0  0  0  0
 52 55  1  0  0  0  0
 52 56  1  0  0  0  0
 21 33  1  0  0  0  0
 21 34  1  0  0  0  0
 42 47  1  0  0  0  0
  8 13  1  0  0  0  0
 18 32  1  0  0  0  0
 25 36  1  0  0  0  0
 51 53  1  0  0  0  0
  7 12  1  0  0  0  0
 41 46  1  0  0  0  0
 17 31  1  0  0  0  0
M  END
$$$$

  -OEChem-05262214473D

 56 57  0     1  0  0  0  0  0999 V2000
   -2.2900    0.3401    4.1553 C   0  0  0  0  0  0  0  0  0  0  0  0
   -1.3426   -0.2746    3.6796 O   0  0  0  0  0  0  0  0  0  0  0  0
   -2.7219    0.0577    5.5560 C   0  0  0  0  0  0  0  0  0  0  0  0
   -3.4815   -0.7386    5.6094 H   0  0  0  0  0  0  0  0  0  0  0  0
   -1.8906   -0.2899    6.1903 H   0  0  0  0  0  0  0  0  0  0  0  0
   -3.1599    0.9126    6.0956 H   0  0  0  0  0  0  0  0  0  0  0  0
   -3.0397    1.3125    3.5142 N   0  0  0  0  0  0  0  0  0  0  0  0
   -2.7928    1.7385    2.1618 C   0  0  2  0  0  0  0  0  0  0  0  0
   -1.4579    1.1532    1.7206 C   0  0  0  0  0  0  0  0  0  0  0  0
   -0.5858    0.8004    2.5118 O   0  0  0  0  0  0  0  0  0  0  0  0
   -2.7841    3.2553    2.0523 C   0  0  0  0  0  0  0  0  0  0  0  0
   -3.8047    1.7484    4.0260 H   0  0  0  0  0  0  0  0  0  0  0  0
   -3.5969    1.3201    1.5466 H   0  0  0  0  0  0  0  0  0  0  0  0
   -1.9850    3.6926    2.6620 H   0  0  0  0  0  0  0  0  0  0  0  0
   -2.6246    3.5776    1.0180 H   0  0  0  0  0  0  0  0  0  0  0  0
   -3.7342    3.6765    2.3981 H   0  0  0  0  0  0  0  0  0  0  0  0
   -1.3352    1.1101    0.3372 N   0  0  0  0  0  0  0  0  0  0  0  0
   -0.1579    0.6093   -0.3265 C   0  0  2  0  0  0  0  0  0  0  0  0
    0.8235    0.1806    0.7585 C   0  0  0  0  0  0  0  0  0  0  0  0
    1.9458   -0.2555    0.5113 O   0  0  0  0  0  0  0  0  0  0  0  0
    0.4832    1.6605   -1.2398 C   0  0  0  0  0  0  0  0  0  0  0  0
   -0.3830    2.0100   -2.4252 C   0  0  0  0  0  0  0  0  0  0  0  0
   -1.2312    3.0899   -2.5098 C   0  0  0  0  0  0  0  0  0  0  0  0
   -0.4719    1.2923   -3.6508 C   0  0  0  0  0  0  0  0  0  0  0  0
   -1.8334    3.0575   -3.7389 N   0  0  0  0  0  0  0  0  0  0  0  0
   -1.3885    1.9705   -4.4572 C   0  0  0  0  0  0  0  0  0  0  0  0
    0.1413    0.1273   -4.1530 C   0  0  0  0  0  0  0  0  0  0  0  0
   -1.7239    1.5401   -5.7458 C   0  0  0  0  0  0  0  0  0  0  0  0
   -0.1845   -0.3149   -5.4403 C   0  0  0  0  0  0  0  0  0  0  0  0
   -1.1030    0.3822   -6.2227 C   0  0  0  0  0  0  0  0  0  0  0  0
   -2.1183    1.4068   -0.2401 H   0  0  0  0  0  0  0  0  0  0  0  0
   -0.4718   -0.2736   -0.8956 H   0  0  0  0  0  0  0  0  0  0  0  0
    1.4649    1.3129   -1.5892 H   0  0  0  0  0  0  0  0  0  0  0  0
    0.6871    2.5824   -0.6793 H   0  0  0  0  0  0  0  0  0  0  0  0
   -1.4620    3.8778   -1.8061 H   0  0  0  0  0  0  0  0  0  0  0  0
   -2.5071    3.7334   -4.0717 H   0  0  0  0  0  0  0  0  0  0  0  0
    0.8586   -0.4277   -3.5551 H   0  0  0  0  0  0  0  0  0  0  0  0
   -2.4380    2.0827   -6.3560 H   0  0  0  0  0  0  0  0  0  0  0  0
    0.2848   -1.2130   -5.8328 H   0  0  0  0  0  0  0  0  0  0  0  0
   -1.3412    0.0209   -7.2198 H   0  0  0  0  0  0  0  0  0  0  0  0
    0.3140    0.3905    2.0324 N   0  0  0  0  0  0  0  0  0  0  0  0
    1.0489    0.0912    3.2403 C   0  0  2  0  0  0  0  0  0  0  0  0
    1.5869   -1.3288    3.1238 C   0  0  0  0  0  0  0  0  0  0  0  0
    1.0953   -2.1734    2.3780 O   0  0  0  0  0  0  0  0  0  0  0  0
    0.1712    0.2404    4.4733 C   0  0  0  0  0  0  0  0  0  0  0  0
   -0.6226    0.7738    2.1201 H   0  0  0  0  0  0  0  0  0  0  0  0
    1.8855    0.7969    3.2846 H   0  0  0  0  0  0  0  0  0  0  0  0
   -0.6726   -0.4588    4.4468 H   0  0  0  0  0  0  0  0  0  0  0  0
    0.7369    0.0410    5.3894 H   0  0  0  0  0  0  0  0  0  0  0  0
   -0.2389    1.2539    4.5394 H   0  0  0  0  0  0  0  0  0  0  0  0
    2.6537   -1.5548    3.9823 N   0  0  0  0  0  0  0  0  0  0  0  0
    3.3296   -2.8283    4.0676 C   0  0  0  0  0  0  0  0  0  0  0  0
    3.0076   -0.7914    4.5513 H   0  0  0  0  0  0  0  0  0  0  0  0
    2.8703   -3.4353    4.8617 H   0  0  0  0  0  0  0  0  0  0  0  0
    3.2413   -3.3553    3.1060 H   0  0  0  0  0  0  0  0  0  0  0  0
    4.3923   -2.6645    4.2997 H   0  0  0  0  0  0  0  0  0  0  0  0
 29 30  2  0  0  0  0
 27 29  1  0  0  0  0
 28 30  1  0  0  0  0
 24 27  2  0  0  0  0
 26 28  2  0  0  0  0
 22 23  2  0  0  0  0
 23 25  1  0  0  0  0
 22 24  1  0  0  0  0
 24 26  1  0  0  0  0
 21 22  1  0  0  0  0
 25 26  1  0  0  0  0
  1  3  1  0  0  0  0
  1  7  1  0  0  0  0
  1  2  2  0  0  0  0
 42 43  1  0  0  0  0
 43 51  1  0  0  0  0
 43 44  2  0  0  0  0
  8  9  1  0  0  0  0
  9 17  1  0  0  0  0
  9 10  2  0  0  0  0
 18 19  1  0  0  0  0
 19 41  1  0  0  0  0
 19 20  2  0  0  0  0
 42 45  1  0  0  0  0
  8 11  1  0  0  0  0
 51 52  1  0  0  0  0
 18 21  1  0  0  0  0
 41 42  1  0  0  0  0
  7  8  1  0  0  0  0
 17 18  1  0  0  0  0
 29 39  1  0  0  0  0
 30 40  1  0  0  0  0
 27 37  1  0  0  0  0
 28 38  1  0  0  0  0
 23 35  1  0  0  0  0
  3  4  1  0  0  0  0
  3  5  1  0  0  0  0
  3  6  1  0  0  0  0
 45 48  1  0  0  0  0
 45 49  1  0  0  0  0
 45 50  1  0  0  0  0
 11 14  1  0  0  0  0
 11 15  1  0  0  0  0
 11 16  1  0  0  0  0
 52 54  1  0  0  0  0
 52 55  1  0  0  0  0
 52 56  1  0  0  0  0
 21 33  1  0  0  0  0
 21 34  1  0  0  0  0
 42 47  1  0  0  0  0
  8 13  1  0  0  0  0
 18 32  1  0  0  0  0
 25 36  1  0  0  0  0
 51 53  1  0  0  0  0
  7 12  1  0  0  0  0
 41 46  1  0  0  0  0
 17 31  1  0  0  0  0
M  END
$$$$

  -OEChem-05262214473D

 56 57  0     1  0  0  0  0  0999 V2000
   -2.2900    0.3401    4.1553 C   0  0  0  0  0  0  0  0  0  0  0  0
   -1.3426   -0.2746    3.6796 O   0  0  0  0  0  0  0  0  0  0  0  0
   -2.7219    0.0577    5.5560 C   0  0  0  0  0  0  0  0  0  0  0  0
   -3.4815   -0.7386    5.6094 H   0  0  0  0  0  0  0  0  0  0  0  0
   -1.8906   -0.2899    6.1903 H   0  0  0  0  0  0  0  0  0  0  0  0
   -3.1599    0.9126    6.0956 H   0  0  0  0  0  0  0  0  0  0  0  0
   -3.0397    1.3125    3.5142 N   0  0  0  0  0  0  0  0  0  0  0  0
   -2.7928    1.7385    2.1618 C   0  0  2  0  0  0  0  0  0  0  0  0
   -1.4579    1.1532    1.7206 C   0  0  0  0  0  0  0  0  0  0  0  0
   -0.5858    0.8004    2.5118 O   0  0  0  0  0  0  0  0  0  0  0  0
   -2.7841    3.2553    2.0523 C   0  0  0  0  0  0  0  0  0  0  0  0
   -3.8047    1.7484    4.0260 H   0  0  0  0  0  0  0  0  0  0  0  0
   -3.5969    1.3201    1.5466 H   0  0  0  0  0  0  0  0  0  0  0  0
   -1.9850    3.6926    2.6620 H   0  0  0  0  0  0  0  0  0  0  0  0
   -2.6246    3.5776    1.0180 H   0  0  0  0  0  0  0  0  0  0  0  0
   -3.7342    3.6765    2.3981 H   0  0  0  0  0  0  0  0  0  0  0  0
   -1.3352    1.1101    0.3372 N   0  0  0  0  0  0  0  0  0  0  0  0
   -0.1579    0.6093   -0.3265 C   0  0  2  0  0  0  0  0  0  0  0  0
    0.8235    0.1806    0.7585 C   0  0  0  0  0  0  0  0  0  0  0  0
    2.0206    0.0009    0.5450 O   0  0  0  0  0  0  0  0  0  0  0  0
    0.4832    1.6605   -1.2398 C   0  0  0  0  0  0  0  0  0  0  0  0
   -0.3830    2.0100   -2.4252 C   0  0  0  0  0  0  0  0  0  0  0  0
   -1.2312    3.0899   -2.5098 C   0  0  0  0  0  0  0  0  0  0  0  0
   -0.4719    1.2923   -3.6508 C   0  0  0  0  0  0  0  0  0  0  0  0
   -1.8334    3.0575   -3.7389 N   0  0  0  0  0  0  0  0  0  0  0  0
   -1.3885    1.9705   -4.4572 C   0  0  0  0  0  0  0  0  0  0  0  0
    0.1413    0.1273   -4.1530 C   0  0  0  0  0  0  0  0  0  0  0  0
   -1.7239    1.5401   -5.7458 C   0  0  0  0  0  0  0  0  0  0  0  0
   -0.1845   -0.3149   -5.4403 C   0  0  0  0  0  0  0  0  0  0  0  0
   -1.1030    0.3822   -6.2227 C   0  0  0  0  0  0  0  0  0  0  0  0
   -2.1183    1.4068   -0.2401 H   0  0  0  0  0  0  0  0  0  0  0  0
   -0.4718   -0.2736   -0.8956 H   0  0  0  0  0  0  0  0  0  0  0  0
    1.4649    1.3129   -1.5892 H   0  0  0  0  0  0  0  0  0  0  0  0
    0.6871    2.5824   -0.6793 H   0  0  0  0  0  0  0  0  0  0  0  0
   -1.4620    3.8778   -1.8061 H   0  0  0  0  0  0  0  0  0  0  0  0
   -2.5071    3.7334   -4.0717 H   0  0  0  0  0  0  0  0  0  0  0  0
    0.8586   -0.4277   -3.5551 H   0  0  0  0  0  0  0  0  0  0  0  0
   -2.4380    2.0827   -6.3560 H   0  0  0  0  0  0  0  0  0  0  0  0
    0.2848   -1.2130   -5.8328 H   0  0  0  0  0  0  0  0  0  0  0  0
   -1.3412    0.0209   -7.2198 H   0  0  0  0  0  0  0  0  0  0  0  0
    0.2113    0.0723    1.9995 N   0  0  0  0  0  0  0  0  0  0  0  0
    0.9195   -0.2963    3.2042 C   0  0  2  0  0  0  0  0  0  0  0  0
    1.7238   -1.5557    2.9103 C   0  0  0  0  0  0  0  0  0  0  0  0
    1.4454   -2.3320    1.9987 O   0  0  0  0  0  0  0  0  0  0  0  0
   -0.0395   -0.5219    4.3627 C   0  0  0  0  0  0  0  0  0  0  0  0
   -0.7845    0.2616    2.0642 H   0  0  0  0  0  0  0  0  0  0  0  0
    1.6026    0.5285    3.4345 H   0  0  0  0  0  0  0  0  0  0  0  0
   -0.7319   -1.3447    4.1504 H   0  0  0  0  0  0  0  0  0  0  0  0
    0.5004   -0.7731    5.2816 H   0  0  0  0  0  0  0  0  0  0  0  0
   -0.6382    0.3753    4.5534 H   0  0  0  0  0  0  0  0  0  0  0  0
    2.7633   -1.7336    3.8126 N   0  0  0  0  0  0  0  0  0  0  0  0
    3.6632   -2.8616    3.7527 C   0  0  0  0  0  0  0  0  0  0  0  0
    2.9322   -1.0298    4.5253 H   0  0  0  0  0  0  0  0  0  0  0  0
    3.2832   -3.6691    4.3958 H   0  0  0  0  0  0  0  0  0  0  0  0
    3.7320   -3.2210    2.7153 H   0  0  0  0  0  0  0  0  0  0  0  0
    4.6602   -2.5540    4.1010 H   0  0  0  0  0  0  0  0  0  0  0  0
 29 30  2  0  0  0  0
 27 29  1  0  0  0  0
 28 30  1  0  0  0  0
 24 27  2  0  0  0  0
 26 28  2  0  0  0  0
 22 23  2  0  0  0  0
 23 25  1  0  0  0  0
 22 24  1  0  0  0  0
 24 26  1  0  0  0  0
 21 22  1  0  0  0  0
 25 26  1  0  0  0  0
  1  3  1  0  0  0  0
  1  7  1  0  0  0  0
  1  2  2  0  0  0  0
 42 43  1  0  0  0  0
 43 51  1  0  0  0  0
 43 44  2  0  0  0  0
  8  9  1  0  0  0  0
  9 17  1  0  0  0  0
  9 10  2  0  0  0  0
 18 19  1  0  0  0  0
 19 41  1  0  0  0  0
 19 20  2  0  0  0  0
 42 45  1  0  0  0  0
  8 11  1  0  0  0  0
 51 52  1  0  0  0  0
 18 21  1  0  0  0  0
 41 42  1  0  0  0  0
  7  8  1  0  0  0  0
 17 18  1  0  0  0  0
 29 39  1  0  0  0  0
 30 40  1  0  0  0  0
 27 37  1  0  0  0  0
 28 38  1  0  0  0  0
 23 35  1  0  0  0  0
  3  4  1  0  0  0  0
  3  5  1  0  0  0  0
  3  6  1  0  0  0  0
 45 48  1  0  0  0  0
 45 49  1  0  0  0  0
 45 50  1  0  0  0  0
 11 14  1  0  0  0  0
 11 15  1  0  0  0  0
 11 16  1  0  0  0  0
 52 54  1  0  0  0  0
 52 55  1  0  0  0  0
 52 56  1  0  0  0  0
 21 33  1  0  0  0  0
 21 34  1  0  0  0  0
 42 47  1  0  0  0  0
  8 13  1  0  0  0  0
 18 32  1  0  0  0  0
 25 36  1  0  0  0  0
 51 53  1  0  0  0  0
  7 12  1  0  0  0  0
 41 46  1  0  0  0  0
 17 31  1  0  0  0  0
M  END
$$$$

  -OEChem-05262214473D

 56 57  0     1  0  0  0  0  0999 V2000
   -2.2900    0.3401    4.1553 C   0  0  0  0  0  0  0  0  0  0  0  0
   -1.3426   -0.2746    3.6796 O   0  0  0  0  0  0  0  0  0  0  0  0
   -2.7219    0.0577    5.5560 C   0  0  0  0  0  0  0  0  0  0  0  0
   -3.4815   -0.7386    5.6094 H   0  0  0  0  0  0  0  0  0  0  0  0
   -1.8906   -0.2899    6.1903 H   0  0  0  0  0  0  0  0  0  0  0  0
   -3.1599    0.9126    6.0956 H   0  0  0  0  0  0  0  0  0  0  0  0
   -3.0397    1.3125    3.5142 N   0  0  0  0  0  0  0  0  0  0  0  0
   -2.7928    1.7385    2.1618 C   0  0  2  0  0  0  0  0  0  0  0  0
   -1.4579    1.1532    1.7206 C   0  0  0  0  0  0  0  0  0  0  0  0
   -0.5858    0.8004    2.5118 O   0  0  0  0  0  0  0  0  0  0  0  0
   -2.7841    3.2553    2.0523 C   0  0  0  0  0  0  0  0  0  0  0  0
   -3.8047    1.7484    4.0260 H   0  0  0  0  0  0  0  0  0  0  0  0
   -3.5969    1.3201    1.5466 H   0  0  0  0  0  0  0  0  0  0  0  0
   -1.9850    3.6926    2.6620 H   0  0  0  0  0  0  0  0  0  0  0  0
   -2.6246    3.5776    1.0180 H   0  0  0  0  0  0  0  0  0  0  0  0
   -3.7342    3.6765    2.3981 H   0  0  0  0  0  0  0  0  0  0  0  0
   -1.3352    1.1101    0.3372 N   0  0  0  0  0  0  0  0  0  0  0  0
   -0.1579    0.6093   -0.3265 C   0  0  2  0  0  0  0  0  0  0  0  0
    0.8235    0.1806    0.7585 C   0  0  0  0  0  0  0  0  0  0  0  0
    2.0431    0.2567    0.6256 O   0  0  0  0  0  0  0  0  0  0  0  0
    0.4832    1.6605   -1.2398 C   0  0  0  0  0  0  0  0  0  0  0  0
   -0.3830    2.0100   -2.4252 C   0  0  0  0  0  0  0  0  0  0  0  0
   -1.2312    3.0899   -2.5098 C   0  0  0  0  0  0  0  0  0  0  0  0
   -0.4719    1.2923   -3.6508 C   0  0  0  0  0  0  0  0  0  0  0  0
   -1.8334    3.0575   -3.7389 N   0  0  0  0  0  0  0  0  0  0  0  0
   -1.3885    1.9705   -4.4572 C   0  0  0  0  0  0  0  0  0  0  0  0
    0.1413    0.1273   -4.1530 C   0  0  0  0  0  0  0  0  0  0  0  0
   -1.7239    1.5401   -5.7458 C   0  0  0  0  0  0  0  0  0  0  0  0
   -0.1845   -0.3149   -5.4403 C   0  0  0  0  0  0  0  0  0  0  0  0
   -1.1030    0.3822   -6.2227 C   0  0  0  0  0  0  0  0  0  0  0  0
   -2.1183    1.4068   -0.2401 H   0  0  0  0  0  0  0  0  0  0  0  0
   -0.4718   -0.2736   -0.8956 H   0  0  0  0  0  0  0  0  0  0  0  0
    1.4649    1.3129   -1.5892 H   0  0  0  0  0  0  0  0  0  0  0  0
    0.6871    2.5824   -0.6793 H   0  0  0  0  0  0  0  0  0  0  0  0
   -1.4620    3.8778   -1.8061 H   0  0  0  0  0  0  0  0  0  0  0  0
   -2.5071    3.7334   -4.0717 H   0  0  0  0  0  0  0  0  0  0  0  0
    0.8586   -0.4277   -3.5551 H   0  0  0  0  0  0  0  0  0  0  0  0
   -2.4380    2.0827   -6.3560 H   0  0  0  0  0  0  0  0  0  0  0  0
    0.2848   -1.2130   -5.8328 H   0  0  0  0  0  0  0  0  0  0  0  0
   -1.3412    0.0209   -7.2198 H   0  0  0  0  0  0  0  0  0  0  0  0
    0.1732   -0.2485    1.9072 N   0  0  0  0  0  0  0  0  0  0  0  0
    0.8685   -0.6884    3.0954 C   0  0  2  0  0  0  0  0  0  0  0  0
    1.9134   -1.7142    2.6763 C   0  0  0  0  0  0  0  0  0  0  0  0
    1.8404   -2.3575    1.6313 O   0  0  0  0  0  0  0  0  0  0  0  0
   -0.0947   -1.2786    4.1136 C   0  0  0  0  0  0  0  0  0  0  0  0
   -0.8425   -0.2537    1.9130 H   0  0  0  0  0  0  0  0  0  0  0  0
    1.3678    0.1922    3.5140 H   0  0  0  0  0  0  0  0  0  0  0  0
   -0.6044   -2.1620    3.7121 H   0  0  0  0  0  0  0  0  0  0  0  0
    0.4298   -1.5852    5.0246 H   0  0  0  0  0  0  0  0  0  0  0  0
   -0.8631   -0.5491    4.3915 H   0  0  0  0  0  0  0  0  0  0  0  0
    2.9143   -1.8578    3.6268 N   0  0  0  0  0  0  0  0  0  0  0  0
    4.0145   -2.7799    3.4673 C   0  0  0  0  0  0  0  0  0  0  0  0
    2.9052   -1.2697    4.4549 H   0  0  0  0  0  0  0  0  0  0  0  0
    3.7590   -3.7412    3.9370 H   0  0  0  0  0  0  0  0  0  0  0  0
    4.2096   -2.9358    2.3960 H   0  0  0  0  0  0  0  0  0  0  0  0
    4.9131   -2.3648    3.9470 H   0  0  0  0  0  0  0  0  0  0  0  0
 29 30  2  0  0  0  0
 27 29  1  0  0  0  0
 28 30  1  0  0  0  0
 24 27  2  0  0  0  0
 26 28  2  0  0  0  0
 22 23  2  0  0  0  0
 23 25  1  0  0  0  0
 22 24  1  0  0  0  0
 24 26  1  0  0  0  0
 21 22  1  0  0  0  0
 25 26  1  0  0  0  0
  1  3  1  0  0  0  0
  1  7  1  0  0  0  0
  1  2  2  0  0  0  0
 42 43  1  0  0  0  0
 43 51  1  0  0  0  0
 43 44  2  0  0  0  0
  8  9  1  0  0  0  0
  9 17  1  0  0  0  0
  9 10  2  0  0  0  0
 18 19  1  0  0  0  0
 19 41  1  0  0  0  0
 19 20  2  0  0  0  0
 42 45  1  0  0  0  0
  8 11  1  0  0  0  0
 51 52  1  0  0  0  0
 18 21  1  0  0  0  0
 41 42  1  0  0  0  0
  7  8  1  0  0  0  0
 17 18  1  0  0  0  0
 29 39  1  0  0  0  0
 30 40  1  0  0  0  0
 27 37  1  0  0  0  0
 28 38  1  0  0  0  0
 23 35  1  0  0  0  0
  3  4  1  0  0  0  0
  3  5  1  0  0  0  0
  3  6  1  0  0  0  0
 45 48  1  0  0  0  0
 45 49  1  0  0  0  0
 45 50  1  0  0  0  0
 11 14  1  0  0  0  0
 11 15  1  0  0  0  0
 11 16  1  0  0  0  0
 52 54  1  0  0  0  0
 52 55  1  0  0  0  0
 52 56  1  0  0  0  0
 21 33  1  0  0  0  0
 21 34  1  0  0  0  0
 42 47  1  0  0  0  0
  8 13  1  0  0  0  0
 18 32  1  0  0  0  0
 25 36  1  0  0  0  0
 51 53  1  0  0  0  0
  7 12  1  0  0  0  0
 41 46  1  0  0  0  0
 17 31  1  0  0  0  0
M  END
$$$$

  -OEChem-05262214473D

 56 57  0     1  0  0  0  0  0999 V2000
   -2.2900    0.3401    4.1553 C   0  0  0  0  0  0  0  0  0  0  0  0
   -1.3426   -0.2746    3.6796 O   0  0  0  0  0  0  0  0  0  0  0  0
   -2.7219    0.0577    5.5560 C   0  0  0  0  0  0  0  0  0  0  0  0
   -3.4815   -0.7386    5.6094 H   0  0  0  0  0  0  0  0  0  0  0  0
   -1.8906   -0.2899    6.1903 H   0  0  0  0  0  0  0  0  0  0  0  0
   -3.1599    0.9126    6.0956 H   0  0  0  0  0  0  0  0  0  0  0  0
   -3.0397    1.3125    3.5142 N   0  0  0  0  0  0  0  0  0  0  0  0
   -2.7928    1.7385    2.1618 C   0  0  2  0  0  0  0  0  0  0  0  0
   -1.4579    1.1532    1.7206 C   0  0  0  0  0  0  0  0  0  0  0  0
   -0.5858    0.8004    2.5118 O   0  0  0  0  0  0  0  0  0  0  0  0
   -2.7841    3.2553    2.0523 C   0  0  0  0  0  0  0  0  0  0  0  0
   -3.8047    1.7484    4.0260 H   0  0  0  0  0  0  0  0  0  0  0  0
   -3.5969    1.3201    1.5466 H   0  0  0  0  0  0  0  0  0  0  0  0
   -1.9850    3.6926    2.6620 H   0  0  0  0  0  0  0  0  0  0  0  0
   -2.6246    3.5776    1.0180 H   0  0  0  0  0  0  0  0  0  0  0  0
   -3.7342    3.6765    2.3981 H   0  0  0  0  0  0  0  0  0  0  0  0
   -1.3352    1.1101    0.3372 N   0  0  0  0  0  0  0  0  0  0  0  0
   -0.1579    0.6093   -0.3265 C   0  0  2  0  0  0  0  0  0  0  0  0
    0.8235    0.1806    0.7585 C   0  0  0  0  0  0  0  0  0  0  0  0
    2.0119    0.4944    0.7479 O   0  0  0  0  0  0  0  0  0  0  0  0
    0.4832    1.6605   -1.2398 C   0  0  0  0  0  0  0  0  0  0  0  0
   -0.3830    2.0100   -2.4252 C   0  0  0  0  0  0  0  0  0  0  0  0
   -1.2312    3.0899   -2.5098 C   0  0  0  0  0  0  0  0  0  0  0  0
   -0.4719    1.2923   -3.6508 C   0  0  0  0  0  0  0  0  0  0  0  0
   -1.8334    3.0575   -3.7389 N   0  0  0  0  0  0  0  0  0  0  0  0
   -1.3885    1.9705   -4.4572 C   0  0  0  0  0  0  0  0  0  0  0  0
    0.1413    0.1273   -4.1530 C   0  0  0  0  0  0  0  0  0  0  0  0
   -1.7239    1.5401   -5.7458 C   0  0  0  0  0  0  0  0  0  0  0  0
   -0.1845   -0.3149   -5.4403 C   0  0  0  0  0  0  0  0  0  0  0  0
   -1.1030    0.3822   -6.2227 C   0  0  0  0  0  0  0  0  0  0  0  0
   -2.1183    1.4068   -0.2401 H   0  0  0  0  0  0  0  0  0  0  0  0
   -0.4718   -0.2736   -0.8956 H   0  0  0  0  0  0  0  0  0  0  0  0
    1.4649    1.3129   -1.5892 H   0  0  0  0  0  0  0  0  0  0  0  0
    0.6871    2.5824   -0.6793 H   0  0  0  0  0  0  0  0  0  0  0  0
   -1.4620    3.8778   -1.8061 H   0  0  0  0  0  0  0  0  0  0  0  0
   -2.5071    3.7334   -4.0717 H   0  0  0  0  0  0  0  0  0  0  0  0
    0.8586   -0.4277   -3.5551 H   0  0  0  0  0  0  0  0  0  0  0  0
   -2.4380    2.0827   -6.3560 H   0  0  0  0  0  0  0  0  0  0  0  0
    0.2848   -1.2130   -5.8328 H   0  0  0  0  0  0  0  0  0  0  0  0
   -1.3412    0.0209   -7.2198 H   0  0  0  0  0  0  0  0  0  0  0  0
    0.2022   -0.5501    1.7618 N   0  0  0  0  0  0  0  0  0  0  0  0
    0.8994   -1.0584    2.9212 C   0  0  2  0  0  0  0  0  0  0  0  0
    2.1427   -1.7933    2.4376 C   0  0  0  0  0  0  0  0  0  0  0  0
    2.2534   -2.2482    1.3010 O   0  0  0  0  0  0  0  0  0  0  0  0
    0.0096   -1.9781    3.7429 C   0  0  0  0  0  0  0  0  0  0  0  0
   -0.7926   -0.7369    1.6770 H   0  0  0  0  0  0  0  0  0  0  0  0
    1.1971   -0.1891    3.5176 H   0  0  0  0  0  0  0  0  0  0  0  0
   -0.2988   -2.8549    3.1619 H   0  0  0  0  0  0  0  0  0  0  0  0
    0.5299   -2.3397    4.6360 H   0  0  0  0  0  0  0  0  0  0  0  0
   -0.8983   -1.4566    4.0648 H   0  0  0  0  0  0  0  0  0  0  0  0
    3.0967   -1.9191    3.4377 N   0  0  0  0  0  0  0  0  0  0  0  0
    4.3595   -2.5886    3.2308 C   0  0  0  0  0  0  0  0  0  0  0  0
    2.9284   -1.4946    4.3451 H   0  0  0  0  0  0  0  0  0  0  0  0
    4.2653   -3.6467    3.5164 H   0  0  0  0  0  0  0  0  0  0  0  0
    4.6417   -2.5191    2.1698 H   0  0  0  0  0  0  0  0  0  0  0  0
    5.1338   -2.1098    3.8482 H   0  0  0  0  0  0  0  0  0  0  0  0
 29 30  2  0  0  0  0
 27 29  1  0  0  0  0
 28 30  1  0  0  0  0
 24 27  2  0  0  0  0
 26 28  2  0  0  0  0
 22 23  2  0  0  0  0
 23 25  1  0  0  0  0
 22 24  1  0  0  0  0
 24 26  1  0  0  0  0
 21 22  1  0  0  0  0
 25 26  1  0  0  0  0
  1  3  1  0  0  0  0
  1  7  1  0  0  0  0
  1  2  2  0  0  0  0
 42 43  1  0  0  0  0
 43 51  1  0  0  0  0
 43 44  2  0  0  0  0
  8  9  1  0  0  0  0
  9 17  1  0  0  0  0
  9 10  2  0  0  0  0
 18 19  1  0  0  0  0
 19 41  1  0  0  0  0
 19 20  2  0  0  0  0
 42 45  1  0  0  0  0
  8 11  1  0  0  0  0
 51 52  1  0  0  0  0
 18 21  1  0  0  0  0
 41 42  1  0  0  0  0
  7  8  1  0  0  0  0
 17 18  1  0  0  0  0
 29 39  1  0  0  0  0
 30 40  1  0  0  0  0
 27 37  1  0  0  0  0
 28 38  1  0  0  0  0
 23 35  1  0  0  0  0
  3  4  1  0  0  0  0
  3  5  1  0  0  0  0
  3  6  1  0  0  0  0
 45 48  1  0  0  0  0
 45 49  1  0  0  0  0
 45 50  1  0  0  0  0
 11 14  1  0  0  0  0
 11 15  1  0  0  0  0
 11 16  1  0  0  0  0
 52 54  1  0  0  0  0
 52 55  1  0  0  0  0
 52 56  1  0  0  0  0
 21 33  1  0  0  0  0
 21 34  1  0  0  0  0
 42 47  1  0  0  0  0
  8 13  1  0  0  0  0
 18 32  1  0  0  0  0
 25 36  1  0  0  0  0
 51 53  1  0  0  0  0
  7 12  1  0  0  0  0
 41 46  1  0  0  0  0
 17 31  1  0  0  0  0
M  END
$$$$

  -OEChem-05262214473D

 56 57  0     1  0  0  0  0  0999 V2000
   -2.2900    0.3401    4.1553 C   0  0  0  0  0  0  0  0  0  0  0  0
   -1.3426   -0.2746    3.6796 O   0  0  0  0  0  0  0  0  0  0  0  0
   -2.7219    0.0577    5.5560 C   0  0  0  0  0  0  0  0  0  0  0  0
   -3.4815   -0.7386    5.6094 H   0  0  0  0  0  0  0  0  0  0  0  0
   -1.8906   -0.2899    6.1903 H   0  0  0  0  0  0  0  0  0  0  0  0
   -3.1599    0.9126    6.0956 H   0  0  0  0  0  0  0  0  0  0  0  0
   -3.0397    1.3125    3.5142 N   0  0  0  0  0  0  0  0  0  0  0  0
   -2.7928    1.7385    2.1618 C   0  0  2  0  0  0  0  0  0  0  0  0
   -1.4579    1.1532    1.7206 C   0  0  0  0  0  0  0  0  0  0  0  0
   -0.5858    0.8004    2.5118 O   0  0  0  0  0  0  0  0  0  0  0  0
   -2.7841    3.2553    2.0523 C   0  0  0  0  0  0  0  0  0  0  0  0
   -3.8047    1.7484    4.0260 H   0  0  0  0  0  0  0  0  0  0  0  0
   -3.5969    1.3201    1.5466 H   0  0  0  0  0  0  0  0  0  0  0  0
   -1.9850    3.6926    2.6620 H   0  0  0  0  0  0  0  0  0  0  0  0
   -2.6246    3.5776    1.0180 H   0  0  0  0  0  0  0  0  0  0  0  0
   -3.7342    3.6765    2.3981 H   0  0  0  0  0  0  0  0  0  0  0  0
   -1.3352    1.1101    0.3372 N   0  0  0  0  0  0  0  0  0  0  0  0
   -0.1579    0.6093   -0.3265 C   0  0  2  0  0  0  0  0  0  0  0  0
    0.8235    0.1806    0.7585 C   0  0  0  0  0  0  0  0  0  0  0  0
    1.9290    0.6980    0.9032 O   0  0  0  0  0  0  0  0  0  0  0  0
    0.4832    1.6605   -1.2398 C   0  0  0  0  0  0  0  0  0  0  0  0
   -0.3830    2.0100   -2.4252 C   0  0  0  0  0  0  0  0  0  0  0  0
   -1.2312    3.0899   -2.5098 C   0  0  0  0  0  0  0  0  0  0  0  0
   -0.4719    1.2923   -3.6508 C   0  0  0  0  0  0  0  0  0  0  0  0
   -1.8334    3.0575   -3.7389 N   0  0  0  0  0  0  0  0  0  0  0  0
   -1.3885    1.9705   -4.4572 C   0  0  0  0  0  0  0  0  0  0  0  0
    0.1413    0.1273   -4.1530 C   0  0  0  0  0  0  0  0  0  0  0  0
   -1.7239    1.5401   -5.7458 C   0  0  0  0  0  0  0  0  0  0  0  0
   -0.1845   -0.3149   -5.4403 C   0  0  0  0  0  0  0  0  0  0  0  0
   -1.1030    0.3822   -6.2227 C   0  0  0  0  0  0  0  0  0  0  0  0
   -2.1183    1.4068   -0.2401 H   0  0  0  0  0  0  0  0  0  0  0  0
   -0.4718   -0.2736   -0.8956 H   0  0  0  0  0  0  0  0  0  0  0  0
    1.4649    1.3129   -1.5892 H   0  0  0  0  0  0  0  0  0  0  0  0
    0.6871    2.5824   -0.6793 H   0  0  0  0  0  0  0  0  0  0  0  0
   -1.4620    3.8778   -1.8061 H   0  0  0  0  0  0  0  0  0  0  0  0
   -2.5071    3.7334   -4.0717 H   0  0  0  0  0  0  0  0  0  0  0  0
    0.8586   -0.4277   -3.5551 H   0  0  0  0  0  0  0  0  0  0  0  0
   -2.4380    2.0827   -6.3560 H   0  0  0  0  0  0  0  0  0  0  0  0
    0.2848   -1.2130   -5.8328 H   0  0  0  0  0  0  0  0  0  0  0  0
   -1.3412    0.0209   -7.2198 H   0  0  0  0  0  0  0  0  0  0  0  0
    0.2963   -0.8118    1.5733 N   0  0  0  0  0  0  0  0  0  0  0  0
    1.0101   -1.3811    2.6936 C   0  0  2  0  0  0  0  0  0  0  0  0
    2.3961   -1.7877    2.2106 C   0  0  0  0  0  0  0  0  0  0  0  0
    2.6562   -2.0115    1.0302 O   0  0  0  0  0  0  0  0  0  0  0  0
    0.2661   -2.5728    3.2758 C   0  0  0  0  0  0  0  0  0  0  0  0
   -0.6383   -1.1551    1.3721 H   0  0  0  0  0  0  0  0  0  0  0  0
    1.1023   -0.5895    3.4452 H   0  0  0  0  0  0  0  0  0  0  0  0
    0.1640   -3.3763    2.5372 H   0  0  0  0  0  0  0  0  0  0  0  0
    0.7938   -2.9854    4.1421 H   0  0  0  0  0  0  0  0  0  0  0  0
   -0.7413   -2.2851    3.5954 H   0  0  0  0  0  0  0  0  0  0  0  0
    3.2978   -1.9131    3.2581 N   0  0  0  0  0  0  0  0  0  0  0  0
    4.6748   -2.3009    3.0593 C   0  0  0  0  0  0  0  0  0  0  0  0
    3.0002   -1.6893    4.2032 H   0  0  0  0  0  0  0  0  0  0  0  0
    4.7675   -3.3921    3.1628 H   0  0  0  0  0  0  0  0  0  0  0  0
    4.9988   -1.9994    2.0523 H   0  0  0  0  0  0  0  0  0  0  0  0
    5.3071   -1.8064    3.8113 H   0  0  0  0  0  0  0  0  0  0  0  0
 29 30  2  0  0  0  0
 27 29  1  0  0  0  0
 28 30  1  0  0  0  0
 24 27  2  0  0  0  0
 26 28  2  0  0  0  0
 22 23  2  0  0  0  0
 23 25  1  0  0  0  0
 22 24  1  0  0  0  0
 24 26  1  0  0  0  0
 21 22  1  0  0  0  0
 25 26  1  0  0  0  0
  1  3  1  0  0  0  0
  1  7  1  0  0  0  0
  1  2  2  0  0  0  0
 42 43  1  0  0  0  0
 43 51  1  0  0  0  0
 43 44  2  0  0  0  0
  8  9  1  0  0  0  0
  9 17  1  0  0  0  0
  9 10  2  0  0  0  0
 18 19  1  0  0  0  0
 19 41  1  0  0  0  0
 19 20  2  0  0  0  0
 42 45  1  0  0  0  0
  8 11  1  0  0  0  0
 51 52  1  0  0  0  0
 18 21  1  0  0  0  0
 41 42  1  0  0  0  0
  7  8  1  0  0  0  0
 17 18  1  0  0  0  0
 29 39  1  0  0  0  0
 30 40  1  0  0  0  0
 27 37  1  0  0  0  0
 28 38  1  0  0  0  0
 23 35  1  0  0  0  0
  3  4  1  0  0  0  0
  3  5  1  0  0  0  0
  3  6  1  0  0  0  0
 45 48  1  0  0  0  0
 45 49  1  0  0  0  0
 45 50  1  0  0  0  0
 11 14  1  0  0  0  0
 11 15  1  0  0  0  0
 11 16  1  0  0  0  0
 52 54  1  0  0  0  0
 52 55  1  0  0  0  0
 52 56  1  0  0  0  0
 21 33  1  0  0  0  0
 21 34  1  0  0  0  0
 42 47  1  0  0  0  0
  8 13  1  0  0  0  0
 18 32  1  0  0  0  0
 25 36  1  0  0  0  0
 51 53  1  0  0  0  0
  7 12  1  0  0  0  0
 41 46  1  0  0  0  0
 17 31  1  0  0  0  0
M  END
$$$$

  -OEChem-05262214473D

 56 57  0     1  0  0  0  0  0999 V2000
   -2.2900    0.3401    4.1553 C   0  0  0  0  0  0  0  0  0  0  0  0
   -1.3426   -0.2746    3.6796 O   0  0  0  0  0  0  0  0  0  0  0  0
   -2.7219    0.0577    5.5560 C   0  0  0  0  0  0  0  0  0  0  0  0
   -3.4815   -0.7386    5.6094 H   0  0  0  0  0  0  0  0  0  0  0  0
   -1.8906   -0.2899    6.1903 H   0  0  0  0  0  0  0  0  0  0  0  0
   -3.1599    0.9126    6.0956 H   0  0  0  0  0  0  0  0  0  0  0  0
   -3.0397    1.3125    3.5142 N   0  0  0  0  0  0  0  0  0  0  0  0
   -2.7928    1.7385    2.1618 C   0  0  2  0  0  0  0  0  0  0  0  0
   -1.4579    1.1532    1.7206 C   0  0  0  0  0  0  0  0  0  0  0  0
   -0.5858    0.8004    2.5118 O   0  0  0  0  0  0  0  0  0  0  0  0
   -2.7841    3.2553    2.0523 C   0  0  0  0  0  0  0  0  0  0  0  0
   -3.8047    1.7484    4.0260 H   0  0  0  0  0  0  0  0  0  0  0  0
   -3.5969    1.3201    1.5466 H   0  0  0  0  0  0  0  0  0  0  0  0
   -1.9850    3.6926    2.6620 H   0  0  0  0  0  0  0  0  0  0  0  0
   -2.6246    3.5776    1.0180 H   0  0  0  0  0  0  0  0  0  0  0  0
   -3.7342    3.6765    2.3981 H   0  0  0  0  0  0  0  0  0  0  0  0
   -1.3352    1.1101    0.3372 N   0  0  0  0  0  0  0  0  0  0  0  0
   -0.1579    0.6093   -0.3265 C   0  0  2  0  0  0  0  0  0  0  0  0
    0.8235    0.1806    0.7585 C   0  0  0  0  0  0  0  0  0  0  0  0
    1.8002    0.8535    1.0812 O   0  0  0  0  0  0  0  0  0  0  0  0
    0.4832    1.6605   -1.2398 C   0  0  0  0  0  0  0  0  0  0  0  0
   -0.3830    2.0100   -2.4252 C   0  0  0  0  0  0  0  0  0  0  0  0
   -1.2312    3.0899   -2.5098 C   0  0  0  0  0  0  0  0  0  0  0  0
   -0.4719    1.2923   -3.6508 C   0  0  0  0  0  0  0  0  0  0  0  0
   -1.8334    3.0575   -3.7389 N   0  0  0  0  0  0  0  0  0  0  0  0
   -1.3885    1.9705   -4.4572 C   0  0  0  0  0  0  0  0  0  0  0  0
    0.1413    0.1273   -4.1530 C   0  0  0  0  0  0  0  0  0  0  0  0
   -1.7239    1.5401   -5.7458 C   0  0  0  0  0  0  0  0  0  0  0  0
   -0.1845   -0.3149   -5.4403 C   0  0  0  0  0  0  0  0  0  0  0  0
   -1.1030    0.3822   -6.2227 C   0  0  0  0  0  0  0  0  0  0  0  0
   -2.1183    1.4068   -0.2401 H   0  0  0  0  0  0  0  0  0  0  0  0
   -0.4718   -0.2736   -0.8956 H   0  0  0  0  0  0  0  0  0  0  0  0
    1.4649    1.3129   -1.5892 H   0  0  0  0  0  0  0  0  0  0  0  0
    0.6871    2.5824   -0.6793 H   0  0  0  0  0  0  0  0  0  0  0  0
   -1.4620    3.8778   -1.8061 H   0  0  0  0  0  0  0  0  0  0  0  0
   -2.5071    3.7334   -4.0717 H   0  0  0  0  0  0  0  0  0  0  0  0
    0.8586   -0.4277   -3.5551 H   0  0  0  0  0  0  0  0  0  0  0  0
   -2.4380    2.0827   -6.3560 H   0  0  0  0  0  0  0  0  0  0  0  0
    0.2848   -1.2130   -5.8328 H   0  0  0  0  0  0  0  0  0  0  0  0
   -1.3412    0.0209   -7.2198 H   0  0  0  0  0  0  0  0  0  0  0  0
    0.4491   -1.0158    1.3544 N   0  0  0  0  0  0  0  0  0  0  0  0
    1.1930   -1.6345    2.4280 C   0  0  2  0  0  0  0  0  0  0  0  0
    2.6564   -1.6978    2.0107 C   0  0  0  0  0  0  0  0  0  0  0  0
    3.0214   -1.6635    0.8374 O   0  0  0  0  0  0  0  0  0  0  0  0
    0.6575   -3.0222    2.7443 C   0  0  0  0  0  0  0  0  0  0  0  0
   -0.3899   -1.4798    1.0191 H   0  0  0  0  0  0  0  0  0  0  0  0
    1.0897   -0.9816    3.3016 H   0  0  0  0  0  0  0  0  0  0  0  0
    0.7526   -3.6906    1.8807 H   0  0  0  0  0  0  0  0  0  0  0  0
    1.2036   -3.4781    3.5767 H   0  0  0  0  0  0  0  0  0  0  0  0
   -0.4029   -2.9783    3.0154 H   0  0  0  0  0  0  0  0  0  0  0  0
    3.5041   -1.8404    3.1003 N   0  0  0  0  0  0  0  0  0  0  0  0
    4.9388   -1.9364    2.9645 C   0  0  0  0  0  0  0  0  0  0  0  0
    3.1158   -1.8405    4.0389 H   0  0  0  0  0  0  0  0  0  0  0  0
    5.2315   -2.9948    2.9001 H   0  0  0  0  0  0  0  0  0  0  0  0
    5.2565   -1.4120    2.0513 H   0  0  0  0  0  0  0  0  0  0  0  0
    5.4214   -1.4752    3.8388 H   0  0  0  0  0  0  0  0  0  0  0  0
 29 30  2  0  0  0  0
 27 29  1  0  0  0  0
 28 30  1  0  0  0  0
 24 27  2  0  0  0  0
 26 28  2  0  0  0  0
 22 23  2  0  0  0  0
 23 25  1  0  0  0  0
 22 24  1  0  0  0  0
 24 26  1  0  0  0  0
 21 22  1  0  0  0  0
 25 26  1  0  0  0  0
  1  3  1  0  0  0  0
  1  7  1  0  0  0  0
  1  2  2  0  0  0  0
 42 43  1  0  0  0  0
 43 51  1  0  0  0  0
 43 44  2  0  0  0  0
  8  9  1  0  0  0  0
  9 17  1  0  0  0  0
  9 10  2  0  0  0  0
 18 19  1  0  0  0  0
 19 41  1  0  0  0  0
 19 20  2  0  0  0  0
 42 45  1  0  0  0  0
  8 11  1  0  0  0  0
 51 52  1  0  0  0  0
 18 21  1  0  0  0  0
 41 42  1  0  0  0  0
  7  8  1  0  0  0  0
 17 18  1  0  0  0  0
 29 39  1  0  0  0  0
 30 40  1  0  0  0  0
 27 37  1  0  0  0  0
 28 38  1  0  0  0  0
 23 35  1  0  0  0  0
  3  4  1  0  0  0  0
  3  5  1  0  0  0  0
  3  6  1  0  0  0  0
 45 48  1  0  0  0  0
 45 49  1  0  0  0  0
 45 50  1  0  0  0  0
 11 14  1  0  0  0  0
 11 15  1  0  0  0  0
 11 16  1  0  0  0  0
 52 54  1  0  0  0  0
 52 55  1  0  0  0  0
 52 56  1  0  0  0  0
 21 33  1  0  0  0  0
 21 34  1  0  0  0  0
 42 47  1  0  0  0  0
  8 13  1  0  0  0  0
 18 32  1  0  0  0  0
 25 36  1  0  0  0  0
 51 53  1  0  0  0  0
  7 12  1  0  0  0  0
 41 46  1  0  0  0  0
 17 31  1  0  0  0  0
M  END
$$$$

  -OEChem-05262214473D

 56 57  0     1  0  0  0  0  0999 V2000
   -2.2900    0.3401    4.1553 C   0  0  0  0  0  0  0  0  0  0  0  0
   -1.3426   -0.2746    3.6796 O   0  0  0  0  0  0  0  0  0  0  0  0
   -2.7219    0.0577    5.5560 C   0  0  0  0  0  0  0  0  0  0  0  0
   -3.4815   -0.7386    5.6094 H   0  0  0  0  0  0  0  0  0  0  0  0
   -1.8906   -0.2899    6.1903 H   0  0  0  0  0  0  0  0  0  0  0  0
   -3.1599    0.9126    6.0956 H   0  0  0  0  0  0  0  0  0  0  0  0
   -3.0397    1.3125    3.5142 N   0  0  0  0  0  0  0  0  0  0  0  0
   -2.7928    1.7385    2.1618 C   0  0  2  0  0  0  0  0  0  0  0  0
   -1.4579    1.1532    1.7206 C   0  0  0  0  0  0  0  0  0  0  0  0
   -0.5858    0.8004    2.5118 O   0  0  0  0  0  0  0  0  0  0  0  0
   -2.7841    3.2553    2.0523 C   0  0  0  0  0  0  0  0  0  0  0  0
   -3.8047    1.7484    4.0260 H   0  0  0  0  0  0  0  0  0  0  0  0
   -3.5969    1.3201    1.5466 H   0  0  0  0  0  0  0  0  0  0  0  0
   -1.9850    3.6926    2.6620 H   0  0  0  0  0  0  0  0  0  0  0  0
   -2.6246    3.5776    1.0180 H   0  0  0  0  0  0  0  0  0  0  0  0
   -3.7342    3.6765    2.3981 H   0  0  0  0  0  0  0  0  0  0  0  0
   -1.3352    1.1101    0.3372 N   0  0  0  0  0  0  0  0  0  0  0  0
   -0.1579    0.6093   -0.3265 C   0  0  2  0  0  0  0  0  0  0  0  0
    0.8235    0.1806    0.7585 C   0  0  0  0  0  0  0  0  0  0  0  0
    1.6341    0.9503    1.2697 O   0  0  0  0  0  0  0  0  0  0  0  0
    0.4832    1.6605   -1.2398 C   0  0  0  0  0  0  0  0  0  0  0  0
   -0.3830    2.0100   -2.4252 C   0  0  0  0  0  0  0  0  0  0  0  0
   -1.2312    3.0899   -2.5098 C   0  0  0  0  0  0  0  0  0  0  0  0
   -0.4719    1.2923   -3.6508 C   0  0  0  0  0  0  0  0  0  0  0  0
   -1.8334    3.0575   -3.7389 N   0  0  0  0  0  0  0  0  0  0  0  0
   -1.3885    1.9705   -4.4572 C   0  0  0  0  0  0  0  0  0  0  0  0
    0.1413    0.1273   -4.1530 C   0  0  0  0  0  0  0  0  0  0  0  0
   -1.7239    1.5401   -5.7458 C   0  0  0  0  0  0  0  0  0  0  0  0
   -0.1845   -0.3149   -5.4403 C   0  0  0  0  0  0  0  0  0  0  0  0
   -1.1030    0.3822   -6.2227 C   0  0  0  0  0  0  0  0  0  0  0  0
   -2.1183    1.4068   -0.2401 H   0  0  0  0  0  0  0  0  0  0  0  0
   -0.4718   -0.2736   -0.8956 H   0  0  0  0  0  0  0  0  0  0  0  0
    1.4649    1.3129   -1.5892 H   0  0  0  0  0  0  0  0  0  0  0  0
    0.6871    2.5824   -0.6793 H   0  0  0  0  0  0  0  0  0  0  0  0
   -1.4620    3.8778   -1.8061 H   0  0  0  0  0  0  0  0  0  0  0  0
   -2.5071    3.7334   -4.0717 H   0  0  0  0  0  0  0  0  0  0  0  0
    0.8586   -0.4277   -3.5551 H   0  0  0  0  0  0  0  0  0  0  0  0
   -2.4380    2.0827   -6.3560 H   0  0  0  0  0  0  0  0  0  0  0  0
    0.2848   -1.2130   -5.8328 H   0  0  0  0  0  0  0  0  0  0  0  0
   -1.3412    0.0209   -7.2198 H   0  0  0  0  0  0  0  0  0  0  0  0
    0.6503   -1.1482    1.1202 N   0  0  0  0  0  0  0  0  0  0  0  0
    1.4357   -1.8013    2.1426 C   0  0  2  0  0  0  0  0  0  0  0  0
    2.9058   -1.5297    1.8515 C   0  0  0  0  0  0  0  0  0  0  0  0
    3.3241   -1.2280    0.7357 O   0  0  0  0  0  0  0  0  0  0  0  0
    1.1570   -3.2957    2.1844 C   0  0  0  0  0  0  0  0  0  0  0  0
   -0.0645   -1.6889    0.6422 H   0  0  0  0  0  0  0  0  0  0  0  0
    1.1602   -1.3388    3.0967 H   0  0  0  0  0  0  0  0  0  0  0  0
    1.4268   -3.7764    1.2370 H   0  0  0  0  0  0  0  0  0  0  0  0
    1.7314   -3.7844    2.9783 H   0  0  0  0  0  0  0  0  0  0  0  0
    0.0939   -3.4890    2.3642 H   0  0  0  0  0  0  0  0  0  0  0  0
    3.7015   -1.7059    2.9749 N   0  0  0  0  0  0  0  0  0  0  0  0
    5.1336   -1.5199    2.9530 C   0  0  0  0  0  0  0  0  0  0  0  0
    3.2672   -1.9379    3.8634 H   0  0  0  0  0  0  0  0  0  0  0  0
    5.6256   -2.4818    2.7464 H   0  0  0  0  0  0  0  0  0  0  0  0
    5.3973   -0.7970    2.1669 H   0  0  0  0  0  0  0  0  0  0  0  0
    5.4687   -1.1389    3.9289 H   0  0  0  0  0  0  0  0  0  0  0  0
 29 30  2  0  0  0  0
 27 29  1  0  0  0  0
 28 30  1  0  0  0  0
 24 27  2  0  0  0  0
 26 28  2  0  0  0  0
 22 23  2  0  0  0  0
 23 25  1  0  0  0  0
 22 24  1  0  0  0  0
 24 26  1  0  0  0  0
 21 22  1  0  0  0  0
 25 26  1  0  0  0  0
  1  3  1  0  0  0  0
  1  7  1  0  0  0  0
  1  2  2  0  0  0  0
 42 43  1  0  0  0  0
 43 51  1  0  0  0  0
 43 44  2  0  0  0  0
  8  9  1  0  0  0  0
  9 17  1  0  0  0  0
  9 10  2  0  0  0  0
 18 19  1  0  0  0  0
 19 41  1  0  0  0  0
 19 20  2  0  0  0  0
 42 45  1  0  0  0  0
  8 11  1  0  0  0  0
 51 52  1  0  0  0  0
 18 21  1  0  0  0  0
 41 42  1  0  0  0  0
  7  8  1  0  0  0  0
 17 18  1  0  0  0  0
 29 39  1  0  0  0  0
 30 40  1  0  0  0  0
 27 37  1  0  0  0  0
 28 38  1  0  0  0  0
 23 35  1  0  0  0  0
  3  4  1  0  0  0  0
  3  5  1  0  0  0  0
  3  6  1  0  0  0  0
 45 48  1  0  0  0  0
 45 49  1  0  0  0  0
 45 50  1  0  0  0  0
 11 14  1  0  0  0  0
 11 15  1  0  0  0  0
 11 16  1  0  0  0  0
 52 54  1  0  0  0  0
 52 55  1  0  0  0  0
 52 56  1  0  0  0  0
 21 33  1  0  0  0  0
 21 34  1  0  0  0  0
 42 47  1  0  0  0  0
  8 13  1  0  0  0  0
 18 32  1  0  0  0  0
 25 36  1  0  0  0  0
 51 53  1  0  0  0  0
  7 12  1  0  0  0  0
 41 46  1  0  0  0  0
 17 31  1  0  0  0  0
M  END
$$$$

  -OEChem-05262214473D

 56 57  0     1  0  0  0  0  0999 V2000
   -2.2900    0.3401    4.1553 C   0  0  0  0  0  0  0  0  0  0  0  0
   -1.3426   -0.2746    3.6796 O   0  0  0  0  0  0  0  0  0  0  0  0
   -2.7219    0.0577    5.5560 C   0  0  0  0  0  0  0  0  0  0  0  0
   -3.4815   -0.7386    5.6094 H   0  0  0  0  0  0  0  0  0  0  0  0
   -1.8906   -0.2899    6.1903 H   0  0  0  0  0  0  0  0  0  0  0  0
   -3.1599    0.9126    6.0956 H   0  0  0  0  0  0  0  0  0  0  0  0
   -3.0397    1.3125    3.5142 N   0  0  0  0  0  0  0  0  0  0  0  0
   -2.7928    1.7385    2.1618 C   0  0  2  0  0  0  0  0  0  0  0  0
   -1.4579    1.1532    1.7206 C   0  0  0  0  0  0  0  0  0  0  0  0
   -0.5858    0.8004    2.5118 O   0  0  0  0  0  0  0  0  0  0  0  0
   -2.7841    3.2553    2.0523 C   0  0  0  0  0  0  0  0  0  0  0  0
   -3.8047    1.7484    4.0260 H   0  0  0  0  0  0  0  0  0  0  0  0
   -3.5969    1.3201    1.5466 H   0  0  0  0  0  0  0  0  0  0  0  0
   -1.9850    3.6926    2.6620 H   0  0  0  0  0  0  0  0  0  0  0  0
   -2.6246    3.5776    1.0180 H   0  0  0  0  0  0  0  0  0  0  0  0
   -3.7342    3.6765    2.3981 H   0  0  0  0  0  0  0  0  0  0  0  0
   -1.3352    1.1101    0.3372 N   0  0  0  0  0  0  0  0  0  0  0  0
   -0.1579    0.6093   -0.3265 C   0  0  2  0  0  0  0  0  0  0  0  0
    0.8235    0.1806    0.7585 C   0  0  0  0  0  0  0  0  0  0  0  0
    1.4422    0.9818    1.4557 O   0  0  0  0  0  0  0  0  0  0  0  0
    0.4832    1.6605   -1.2398 C   0  0  0  0  0  0  0  0  0  0  0  0
   -0.3830    2.0100   -2.4252 C   0  0  0  0  0  0  0  0  0  0  0  0
   -1.2312    3.0899   -2.5098 C   0  0  0  0  0  0  0  0  0  0  0  0
   -0.4719    1.2923   -3.6508 C   0  0  0  0  0  0  0  0  0  0  0  0
   -1.8334    3.0575   -3.7389 N   0  0  0  0  0  0  0  0  0  0  0  0
   -1.3885    1.9705   -4.4572 C   0  0  0  0  0  0  0  0  0  0  0  0
    0.1413    0.1273   -4.1530 C   0  0  0  0  0  0  0  0  0  0  0  0
   -1.7239    1.5401   -5.7458 C   0  0  0  0  0  0  0  0  0  0  0  0
   -0.1845   -0.3149   -5.4403 C   0  0  0  0  0  0  0  0  0  0  0  0
   -1.1030    0.3822   -6.2227 C   0  0  0  0  0  0  0  0  0  0  0  0
   -2.1183    1.4068   -0.2401 H   0  0  0  0  0  0  0  0  0  0  0  0
   -0.4718   -0.2736   -0.8956 H   0  0  0  0  0  0  0  0  0  0  0  0
    1.4649    1.3129   -1.5892 H   0  0  0  0  0  0  0  0  0  0  0  0
    0.6871    2.5824   -0.6793 H   0  0  0  0  0  0  0  0  0  0  0  0
   -1.4620    3.8778   -1.8061 H   0  0  0  0  0  0  0  0  0  0  0  0
   -2.5071    3.7334   -4.0717 H   0  0  0  0  0  0  0  0  0  0  0  0
    0.8586   -0.4277   -3.5551 H   0  0  0  0  0  0  0  0  0  0  0  0
   -2.4380    2.0827   -6.3560 H   0  0  0  0  0  0  0  0  0  0  0  0
    0.2848   -1.2130   -5.8328 H   0  0  0  0  0  0  0  0  0  0  0  0
   -1.3412    0.0209   -7.2198 H   0  0  0  0  0  0  0  0  0  0  0  0
    0.8860   -1.2001    0.8864 N   0  0  0  0  0  0  0  0  0  0  0  0
    1.7217   -1.8701    1.8568 C   0  0  2  0  0  0  0  0  0  0  0  0
    3.1273   -1.2948    1.7440 C   0  0  0  0  0  0  0  0  0  0  0  0
    3.5436   -0.7347    0.7320 O   0  0  0  0  0  0  0  0  0  0  0  0
    1.7306   -3.3745    1.6345 C   0  0  0  0  0  0  0  0  0  0  0  0
    0.3158   -1.7682    0.2669 H   0  0  0  0  0  0  0  0  0  0  0  0
    1.3091   -1.6367    2.8444 H   0  0  0  0  0  0  0  0  0  0  0  0
    2.1407   -3.6278    0.6500 H   0  0  0  0  0  0  0  0  0  0  0  0
    2.3412   -3.8833    2.3877 H   0  0  0  0  0  0  0  0  0  0  0  0
    0.7153   -3.7822    1.6864 H   0  0  0  0  0  0  0  0  0  0  0  0
    3.8764   -1.5187    2.8906 N   0  0  0  0  0  0  0  0  0  0  0  0
    5.2458   -1.0798    3.0254 C   0  0  0  0  0  0  0  0  0  0  0  0
    3.4442   -1.9748    3.6887 H   0  0  0  0  0  0  0  0  0  0  0  0
    5.9230   -1.8881    2.7120 H   0  0  0  0  0  0  0  0  0  0  0  0
    5.4116   -0.1963    2.3913 H   0  0  0  0  0  0  0  0  0  0  0  0
    5.4459   -0.8203    4.0754 H   0  0  0  0  0  0  0  0  0  0  0  0
 29 30  2  0  0  0  0
 27 29  1  0  0  0  0
 28 30  1  0  0  0  0
 24 27  2  0  0  0  0
 26 28  2  0  0  0  0
 22 23  2  0  0  0  0
 23 25  1  0  0  0  0
 22 24  1  0  0  0  0
 24 26  1  0  0  0  0
 21 22  1  0  0  0  0
 25 26  1  0  0  0  0
  1  3  1  0  0  0  0
  1  7  1  0  0  0  0
  1  2  2  0  0  0  0
 42 43  1  0  0  0  0
 43 51  1  0  0  0  0
 43 44  2  0  0  0  0
  8  9  1  0  0  0  0
  9 17  1  0  0  0  0
  9 10  2  0  0  0  0
 18 19  1  0  0  0  0
 19 41  1  0  0  0  0
 19 20  2  0  0  0  0
 42 45  1  0  0  0  0
  8 11  1  0  0  0  0
 51 52  1  0  0  0  0
 18 21  1  0  0  0  0
 41 42  1  0  0  0  0
  7  8  1  0  0  0  0
 17 18  1  0  0  0  0
 29 39  1  0  0  0  0
 30 40  1  0  0  0  0
 27 37  1  0  0  0  0
 28 38  1  0  0  0  0
 23 35  1  0  0  0  0
  3  4  1  0  0  0  0
  3  5  1  0  0  0  0
  3  6  1  0  0  0  0
 45 48  1  0  0  0  0
 45 49  1  0  0  0  0
 45 50  1  0  0  0  0
 11 14  1  0  0  0  0
 11 15  1  0  0  0  0
 11 16  1  0  0  0  0
 52 54  1  0  0  0  0
 52 55  1  0  0  0  0
 52 56  1  0  0  0  0
 21 33  1  0  0  0  0
 21 34  1  0  0  0  0
 42 47  1  0  0  0  0
  8 13  1  0  0  0  0
 18 32  1  0  0  0  0
 25 36  1  0  0  0  0
 51 53  1  0  0  0  0
  7 12  1  0  0  0  0
 41 46  1  0  0  0  0
 17 31  1  0  0  0  0
M  END
$$$$

  -OEChem-05262214473D

 56 57  0     1  0  0  0  0  0999 V2000
   -2.2900    0.3401    4.1553 C   0  0  0  0  0  0  0  0  0  0  0  0
   -1.3426   -0.2746    3.6796 O   0  0  0  0  0  0  0  0  0  0  0  0
   -2.7219    0.0577    5.5560 C   0  0  0  0  0  0  0  0  0  0  0  0
   -3.4815   -0.7386    5.6094 H   0  0  0  0  0  0  0  0  0  0  0  0
   -1.8906   -0.2899    6.1903 H   0  0  0  0  0  0  0  0  0  0  0  0
   -3.1599    0.9126    6.0956 H   0  0  0  0  0  0  0  0  0  0  0  0
   -3.0397    1.3125    3.5142 N   0  0  0  0  0  0  0  0  0  0  0  0
   -2.7928    1.7385    2.1618 C   0  0  2  0  0  0  0  0  0  0  0  0
   -1.4579    1.1532    1.7206 C   0  0  0  0  0  0  0  0  0  0  0  0
   -0.5858    0.8004    2.5118 O   0  0  0  0  0  0  0  0  0  0  0  0
   -2.7841    3.2553    2.0523 C   0  0  0  0  0  0  0  0  0  0  0  0
   -3.8047    1.7484    4.0260 H   0  0  0  0  0  0  0  0  0  0  0  0
   -3.5969    1.3201    1.5466 H   0  0  0  0  0  0  0  0  0  0  0  0
   -1.9850    3.6926    2.6620 H   0  0  0  0  0  0  0  0  0  0  0  0
   -2.6246    3.5776    1.0180 H   0  0  0  0  0  0  0  0  0  0  0  0
   -3.7342    3.6765    2.3981 H   0  0  0  0  0  0  0  0  0  0  0  0
   -1.3352    1.1101    0.3372 N   0  0  0  0  0  0  0  0  0  0  0  0
   -0.1579    0.6093   -0.3265 C   0  0  2  0  0  0  0  0  0  0  0  0
    0.8235    0.1806    0.7585 C   0  0  0  0  0  0  0  0  0  0  0  0
    1.2374    0.9459    1.6267 O   0  0  0  0  0  0  0  0  0  0  0  0
    0.4832    1.6605   -1.2398 C   0  0  0  0  0  0  0  0  0  0  0  0
   -0.3830    2.0100   -2.4252 C   0  0  0  0  0  0  0  0  0  0  0  0
   -1.2312    3.0899   -2.5098 C   0  0  0  0  0  0  0  0  0  0  0  0
   -0.4719    1.2923   -3.6508 C   0  0  0  0  0  0  0  0  0  0  0  0
   -1.8334    3.0575   -3.7389 N   0  0  0  0  0  0  0  0  0  0  0  0
   -1.3885    1.9705   -4.4572 C   0  0  0  0  0  0  0  0  0  0  0  0
    0.1413    0.1273   -4.1530 C   0  0  0  0  0  0  0  0  0  0  0  0
   -1.7239    1.5401   -5.7458 C   0  0  0  0  0  0  0  0  0  0  0  0
   -0.1845   -0.3149   -5.4403 C   0  0  0  0  0  0  0  0  0  0  0  0
   -1.1030    0.3822   -6.2227 C   0  0  0  0  0  0  0  0  0  0  0  0
   -2.1183    1.4068   -0.2401 H   0  0  0  0  0  0  0  0  0  0  0  0
   -0.4718   -0.2736   -0.8956 H   0  0  0  0  0  0  0  0  0  0  0  0
    1.4649    1.3129   -1.5892 H   0  0  0  0  0  0  0  0  0  0  0  0
    0.6871    2.5824   -0.6793 H   0  0  0  0  0  0  0  0  0  0  0  0
   -1.4620    3.8778   -1.8061 H   0  0  0  0  0  0  0  0  0  0  0  0
   -2.5071    3.7334   -4.0717 H   0  0  0  0  0  0  0  0  0  0  0  0
    0.8586   -0.4277   -3.5551 H   0  0  0  0  0  0  0  0  0  0  0  0
   -2.4380    2.0827   -6.3560 H   0  0  0  0  0  0  0  0  0  0  0  0
    0.2848   -1.2130   -5.8328 H   0  0  0  0  0  0  0  0  0  0  0  0
   -1.3412    0.0209   -7.2198 H   0  0  0  0  0  0  0  0  0  0  0  0
    1.1403   -1.1678    0.6692 N   0  0  0  0  0  0  0  0  0  0  0  0
    2.0313   -1.8363    1.5900 C   0  0  2  0  0  0  0  0  0  0  0  0
    3.3059   -1.0093    1.6953 C   0  0  0  0  0  0  0  0  0  0  0  0
    3.6651   -0.2171    0.8267 O   0  0  0  0  0  0  0  0  0  0  0  0
    2.3392   -3.2534    1.1319 C   0  0  0  0  0  0  0  0  0  0  0  0
    0.7250   -1.7122   -0.0811 H   0  0  0  0  0  0  0  0  0  0  0  0
    1.5261   -1.8549    2.5618 H   0  0  0  0  0  0  0  0  0  0  0  0
    2.8456   -3.2549    0.1598 H   0  0  0  0  0  0  0  0  0  0  0  0
    2.9914   -3.7681    1.8451 H   0  0  0  0  0  0  0  0  0  0  0  0
    1.4188   -3.8380    1.0280 H   0  0  0  0  0  0  0  0  0  0  0  0
    4.0171   -1.2916    2.8532 N   0  0  0  0  0  0  0  0  0  0  0  0
    5.2679   -0.6461    3.1768 C   0  0  0  0  0  0  0  0  0  0  0  0
    3.6347   -1.9488    3.5267 H   0  0  0  0  0  0  0  0  0  0  0  0
    6.1033   -1.2541    2.7994 H   0  0  0  0  0  0  0  0  0  0  0  0
    5.2984    0.3492    2.7093 H   0  0  0  0  0  0  0  0  0  0  0  0
    5.3546   -0.5412    4.2683 H   0  0  0  0  0  0  0  0  0  0  0  0
 29 30  2  0  0  0  0
 27 29  1  0  0  0  0
 28 30  1  0  0  0  0
 24 27  2  0  0  0  0
 26 28  2  0  0  0  0
 22 23  2  0  0  0  0
 23 25  1  0  0  0  0
 22 24  1  0  0  0  0
 24 26  1  0  0  0  0
 21 22  1  0  0  0  0
 25 26  1  0  0  0  0
  1  3  1  0  0  0  0
  1  7  1  0  0  0  0
  1  2  2  0  0  0  0
 42 43  1  0  0  0  0
 43 51  1  0  0  0  0
 43 44  2  0  0  0  0
  8  9  1  0  0  0  0
  9 17  1  0  0  0  0
  9 10  2  0  0  0  0
 18 19  1  0  0  0  0
 19 41  1  0  0  0  0
 19 20  2  0  0  0  0
 42 45  1  0  0  0  0
  8 11  1  0  0  0  0
 51 52  1  0  0  0  0
 18 21  1  0  0  0  0
 41 42  1  0  0  0  0
  7  8  1  0  0  0  0
 17 18  1  0  0  0  0
 29 39  1  0  0  0  0
 30 40  1  0  0  0  0
 27 37  1  0  0  0  0
 28 38  1  0  0  0  0
 23 35  1  0  0  0  0
  3  4  1  0  0  0  0
  3  5  1  0  0  0  0
  3  6  1  0  0  0  0
 45 48  1  0  0  0  0
 45 49  1  0  0  0  0
 45 50  1  0  0  0  0
 11 14  1  0  0  0  0
 11 15  1  0  0  0  0
 11 16  1  0  0  0  0
 52 54  1  0  0  0  0
 52 55  1  0  0  0  0
 52 56  1  0  0  0  0
 21 33  1  0  0  0  0
 21 34  1  0  0  0  0
 42 47  1  0  0  0  0
  8 13  1  0  0  0  0
 18 32  1  0  0  0  0
 25 36  1  0  0  0  0
 51 53  1  0  0  0  0
  7 12  1  0  0  0  0
 41 46  1  0  0  0  0
 17 31  1  0  0  0  0
M  END
$$$$

  -OEChem-05262214473D

 56 57  0     1  0  0  0  0  0999 V2000
   -2.2900    0.3401    4.1553 C   0  0  0  0  0  0  0  0  0  0  0  0
   -1.3426   -0.2746    3.6796 O   0  0  0  0  0  0  0  0  0  0  0  0
   -2.7219    0.0577    5.5560 C   0  0  0  0  0  0  0  0  0  0  0  0
   -3.4815   -0.7386    5.6094 H   0  0  0  0  0  0  0  0  0  0  0  0
   -1.8906   -0.2899    6.1903 H   0  0  0  0  0  0  0  0  0  0  0  0
   -3.1599    0.9126    6.0956 H   0  0  0  0  0  0  0  0  0  0  0  0
   -3.0397    1.3125    3.5142 N   0  0  0  0  0  0  0  0  0  0  0  0
   -2.7928    1.7385    2.1618 C   0  0  2  0  0  0  0  0  0  0  0  0
   -1.4579    1.1532    1.7206 C   0  0  0  0  0  0  0  0  0  0  0  0
   -0.5858    0.8004    2.5118 O   0  0  0  0  0  0  0  0  0  0  0  0
   -2.7841    3.2553    2.0523 C   0  0  0  0  0  0  0  0  0  0  0  0
   -3.8047    1.7484    4.0260 H   0  0  0  0  0  0  0  0  0  0  0  0
   -3.5969    1.3201    1.5466 H   0  0  0  0  0  0  0  0  0  0  0  0
   -1.9850    3.6926    2.6620 H   0  0  0  0  0  0  0  0  0  0  0  0
   -2.6246    3.5776    1.0180 H   0  0  0  0  0  0  0  0  0  0  0  0
   -3.7342    3.6765    2.3981 H   0  0  0  0  0  0  0  0  0  0  0  0
   -1.3352    1.1101    0.3372 N   0  0  0  0  0  0  0  0  0  0  0  0
   -0.1579    0.6093   -0.3265 C   0  0  2  0  0  0  0  0  0  0  0  0
    0.8235    0.1806    0.7585 C   0  0  0  0  0  0  0  0  0  0  0  0
    1.0338    0.8450    1.7710 O   0  0  0  0  0  0  0  0  0  0  0  0
    0.4832    1.6605   -1.2398 C   0  0  0  0  0  0  0  0  0  0  0  0
   -0.3830    2.0100   -2.4252 C   0  0  0  0  0  0  0  0  0  0  0  0
   -1.2312    3.0899   -2.5098 C   0  0  0  0  0  0  0  0  0  0  0  0
   -0.4719    1.2923   -3.6508 C   0  0  0  0  0  0  0  0  0  0  0  0
   -1.8334    3.0575   -3.7389 N   0  0  0  0  0  0  0  0  0  0  0  0
   -1.3885    1.9705   -4.4572 C   0  0  0  0  0  0  0  0  0  0  0  0
    0.1413    0.1273   -4.1530 C   0  0  0  0  0  0  0  0  0  0  0  0
   -1.7239    1.5401   -5.7458 C   0  0  0  0  0  0  0  0  0  0  0  0
   -0.1845   -0.3149   -5.4403 C   0  0  0  0  0  0  0  0  0  0  0  0
   -1.1030    0.3822   -6.2227 C   0  0  0  0  0  0  0  0  0  0  0  0
   -2.1183    1.4068   -0.2401 H   0  0  0  0  0  0  0  0  0  0  0  0
   -0.4718   -0.2736   -0.8956 H   0  0  0  0  0  0  0  0  0  0  0  0
    1.4649    1.3129   -1.5892 H   0  0  0  0  0  0  0  0  0  0  0  0
    0.6871    2.5824   -0.6793 H   0  0  0  0  0  0  0  0  0  0  0  0
   -1.4620    3.8778   -1.8061 H   0  0  0  0  0  0  0  0  0  0  0  0
   -2.5071    3.7334   -4.0717 H   0  0  0  0  0  0  0  0  0  0  0  0
    0.8586   -0.4277   -3.5551 H   0  0  0  0  0  0  0  0  0  0  0  0
   -2.4380    2.0827   -6.3560 H   0  0  0  0  0  0  0  0  0  0  0  0
    0.2848   -1.2130   -5.8328 H   0  0  0  0  0  0  0  0  0  0  0  0
   -1.3412    0.0209   -7.2198 H   0  0  0  0  0  0  0  0  0  0  0  0
    1.3958   -1.0536    0.4833 N   0  0  0  0  0  0  0  0  0  0  0  0
    2.3437   -1.7022    1.3606 C   0  0  2  0  0  0  0  0  0  0  0  0
    3.4293   -0.6925    1.7089 C   0  0  0  0  0  0  0  0  0  0  0  0
    3.6802    0.2895    1.0132 O   0  0  0  0  0  0  0  0  0  0  0  0
    2.9413   -2.9405    0.7109 C   0  0  0  0  0  0  0  0  0  0  0  0
    1.1353   -1.5247   -0.3781 H   0  0  0  0  0  0  0  0  0  0  0  0
    1.7964   -1.9787    2.2684 H   0  0  0  0  0  0  0  0  0  0  0  0
    3.4935   -2.6833   -0.2004 H   0  0  0  0  0  0  0  0  0  0  0  0
    3.6377   -3.4467    1.3875 H   0  0  0  0  0  0  0  0  0  0  0  0
    2.1565   -3.6527    0.4340 H   0  0  0  0  0  0  0  0  0  0  0  0
    4.1138   -1.0401    2.8650 N   0  0  0  0  0  0  0  0  0  0  0  0
    5.1983   -0.2482    3.3969 C   0  0  0  0  0  0  0  0  0  0  0  0
    3.8257   -1.8616    3.3884 H   0  0  0  0  0  0  0  0  0  0  0  0
    6.1544   -0.6230    3.0026 H   0  0  0  0  0  0  0  0  0  0  0  0
    5.0655    0.8023    3.0990 H   0  0  0  0  0  0  0  0  0  0  0  0
    5.2009   -0.3206    4.4945 H   0  0  0  0  0  0  0  0  0  0  0  0
 29 30  2  0  0  0  0
 27 29  1  0  0  0  0
 28 30  1  0  0  0  0
 24 27  2  0  0  0  0
 26 28  2  0  0  0  0
 22 23  2  0  0  0  0
 23 25  1  0  0  0  0
 22 24  1  0  0  0  0
 24 26  1  0  0  0  0
 21 22  1  0  0  0  0
 25 26  1  0  0  0  0
  1  3  1  0  0  0  0
  1  7  1  0  0  0  0
  1  2  2  0  0  0  0
 42 43  1  0  0  0  0
 43 51  1  0  0  0  0
 43 44  2  0  0  0  0
  8  9  1  0  0  0  0
  9 17  1  0  0  0  0
  9 10  2  0  0  0  0
 18 19  1  0  0  0  0
 19 41  1  0  0  0  0
 19 20  2  0  0  0  0
 42 45  1  0  0  0  0
  8 11  1  0  0  0  0
 51 52  1  0  0  0  0
 18 21  1  0  0  0  0
 41 42  1  0  0  0  0
  7  8  1  0  0  0  0
 17 18  1  0  0  0  0
 29 39  1  0  0  0  0
 30 40  1  0  0  0  0
 27 37  1  0  0  0  0
 28 38  1  0  0  0  0
 23 35  1  0  0  0  0
  3  4  1  0  0  0  0
  3  5  1  0  0  0  0
  3  6  1  0  0  0  0
 45 48  1  0  0  0  0
 45 49  1  0  0  0  0
 45 50  1  0  0  0  0
 11 14  1  0  0  0  0
 11 15  1  0  0  0  0
 11 16  1  0  0  0  0
 52 54  1  0  0  0  0
 52 55  1  0  0  0  0
 52 56  1  0  0  0  0
 21 33  1  0  0  0  0
 21 34  1  0  0  0  0
 42 47  1  0  0  0  0
  8 13  1  0  0  0  0
 18 32  1  0  0  0  0
 25 36  1  0  0  0  0
 51 53  1  0  0  0  0
  7 12  1  0  0  0  0
 41 46  1  0  0  0  0
 17 31  1  0  0  0  0
M  END
$$$$

  -OEChem-05262214473D

 56 57  0     1  0  0  0  0  0999 V2000
   -2.2900    0.3401    4.1553 C   0  0  0  0  0  0  0  0  0  0  0  0
   -1.3426   -0.2746    3.6796 O   0  0  0  0  0  0  0  0  0  0  0  0
   -2.7219    0.0577    5.5560 C   0  0  0  0  0  0  0  0  0  0  0  0
   -3.4815   -0.7386    5.6094 H   0  0  0  0  0  0  0  0  0  0  0  0
   -1.8906   -0.2899    6.1903 H   0  0  0  0  0  0  0  0  0  0  0  0
   -3.1599    0.9126    6.0956 H   0  0  0  0  0  0  0  0  0  0  0  0
   -3.0397    1.3125    3.5142 N   0  0  0  0  0  0  0  0  0  0  0  0
   -2.7928    1.7385    2.1618 C   0  0  2  0  0  0  0  0  0  0  0  0
   -1.4579    1.1532    1.7206 C   0  0  0  0  0  0  0  0  0  0  0  0
   -0.5858    0.8004    2.5118 O   0  0  0  0  0  0  0  0  0  0  0  0
   -2.7841    3.2553    2.0523 C   0  0  0  0  0  0  0  0  0  0  0  0
   -3.8047    1.7484    4.0260 H   0  0  0  0  0  0  0  0  0  0  0  0
   -3.5969    1.3201    1.5466 H   0  0  0  0  0  0  0  0  0  0  0  0
   -1.9850    3.6926    2.6620 H   0  0  0  0  0  0  0  0  0  0  0  0
   -2.6246    3.5776    1.0180 H   0  0  0  0  0  0  0  0  0  0  0  0
   -3.7342    3.6765    2.3981 H   0  0  0  0  0  0  0  0  0  0  0  0
   -1.3352    1.1101    0.3372 N   0  0  0  0  0  0  0  0  0  0  0  0
   -0.1579    0.6093   -0.3265 C   0  0  2  0  0  0  0  0  0  0  0  0
    0.8235    0.1806    0.7585 C   0  0  0  0  0  0  0  0  0  0  0  0
    0.8452    0.6860    1.8788 O   0  0  0  0  0  0  0  0  0  0  0  0
    0.4832    1.6605   -1.2398 C   0  0  0  0  0  0  0  0  0  0  0  0
   -0.3830    2.0100   -2.4252 C   0  0  0  0  0  0  0  0  0  0  0  0
   -1.2312    3.0899   -2.5098 C   0  0  0  0  0  0  0  0  0  0  0  0
   -0.4719    1.2923   -3.6508 C   0  0  0  0  0  0  0  0  0  0  0  0
   -1.8334    3.0575   -3.7389 N   0  0  0  0  0  0  0  0  0  0  0  0
   -1.3885    1.9705   -4.4572 C   0  0  0  0  0  0  0  0  0  0  0  0
    0.1413    0.1273   -4.1530 C   0  0  0  0  0  0  0  0  0  0  0  0
   -1.7239    1.5401   -5.7458 C   0  0  0  0  0  0  0  0  0  0  0  0
   -0.1845   -0.3149   -5.4403 C   0  0  0  0  0  0  0  0  0  0  0  0
   -1.1030    0.3822   -6.2227 C   0  0  0  0  0  0  0  0  0  0  0  0
   -2.1183    1.4068   -0.2401 H   0  0  0  0  0  0  0  0  0  0  0  0
   -0.4718   -0.2736   -0.8956 H   0  0  0  0  0  0  0  0  0  0  0  0
    1.4649    1.3129   -1.5892 H   0  0  0  0  0  0  0  0  0  0  0  0
    0.6871    2.5824   -0.6793 H   0  0  0  0  0  0  0  0  0  0  0  0
   -1.4620    3.8778   -1.8061 H   0  0  0  0  0  0  0  0  0  0  0  0
   -2.5071    3.7334   -4.0717 H   0  0  0  0  0  0  0  0  0  0  0  0
    0.8586   -0.4277   -3.5551 H   0  0  0  0  0  0  0  0  0  0  0  0
   -2.4380    2.0827   -6.3560 H   0  0  0  0  0  0  0  0  0  0  0  0
    0.2848   -1.2130   -5.8328 H   0  0  0  0  0  0  0  0  0  0  0  0
   -1.3412    0.0209   -7.2198 H   0  0  0  0  0  0  0  0  0  0  0  0
    1.6350   -0.8653    0.3413 N   0  0  0  0  0  0  0  0  0  0  0  0
    2.6373   -1.4769    1.1840 C   0  0  2  0  0  0  0  0  0  0  0  0
    3.4891   -0.3660    1.7837 C   0  0  0  0  0  0  0  0  0  0  0  0
    3.5879    0.7505    1.2789 O   0  0  0  0  0  0  0  0  0  0  0  0
    3.4959   -2.4573    0.4002 C   0  0  0  0  0  0  0  0  0  0  0  0
    1.5187   -1.2185   -0.6039 H   0  0  0  0  0  0  0  0  0  0  0  0
    2.1018   -1.9996    1.9840 H   0  0  0  0  0  0  0  0  0  0  0  0
    4.0403   -1.9518   -0.4058 H   0  0  0  0  0  0  0  0  0  0  0  0
    4.2361   -2.9409    1.0461 H   0  0  0  0  0  0  0  0  0  0  0  0
    2.8782   -3.2388   -0.0552 H   0  0  0  0  0  0  0  0  0  0  0  0
    4.1601   -0.7813    2.9254 N   0  0  0  0  0  0  0  0  0  0  0  0
    5.0418    0.0865    3.6708 C   0  0  0  0  0  0  0  0  0  0  0  0
    4.0042   -1.7191    3.2833 H   0  0  0  0  0  0  0  0  0  0  0  0
    6.0727   -0.0379    3.3077 H   0  0  0  0  0  0  0  0  0  0  0  0
    4.7287    1.1321    3.5340 H   0  0  0  0  0  0  0  0  0  0  0  0
    4.9953   -0.1734    4.7386 H   0  0  0  0  0  0  0  0  0  0  0  0
 29 30  2  0  0  0  0
 27 29  1  0  0  0  0
 28 30  1  0  0  0  0
 24 27  2  0  0  0  0
 26 28  2  0  0  0  0
 22 23  2  0  0  0  0
 23 25  1  0  0  0  0
 22 24  1  0  0  0  0
 24 26  1  0  0  0  0
 21 22  1  0  0  0  0
 25 26  1  0  0  0  0
  1  3  1  0  0  0  0
  1  7  1  0  0  0  0
  1  2  2  0  0  0  0
 42 43  1  0  0  0  0
 43 51  1  0  0  0  0
 43 44  2  0  0  0  0
  8  9  1  0  0  0  0
  9 17  1  0  0  0  0
  9 10  2  0  0  0  0
 18 19  1  0  0  0  0
 19 41  1  0  0  0  0
 19 20  2  0  0  0  0
 42 45  1  0  0  0  0
  8 11  1  0  0  0  0
 51 52  1  0  0  0  0
 18 21  1  0  0  0  0
 41 42  1  0  0  0  0
  7  8  1  0  0  0  0
 17 18  1  0  0  0  0
 29 39  1  0  0  0  0
 30 40  1  0  0  0  0
 27 37  1  0  0  0  0
 28 38  1  0  0  0  0
 23 35  1  0  0  0  0
  3  4  1  0  0  0  0
  3  5  1  0  0  0  0
  3  6  1  0  0  0  0
 45 48  1  0  0  0  0
 45 49  1  0  0  0  0
 45 50  1  0  0  0  0
 11 14  1  0  0  0  0
 11 15  1  0  0  0  0
 11 16  1  0  0  0  0
 52 54  1  0  0  0  0
 52 55  1  0  0  0  0
 52 56  1  0  0  0  0
 21 33  1  0  0  0  0
 21 34  1  0  0  0  0
 42 47  1  0  0  0  0
  8 13  1  0  0  0  0
 18 32  1  0  0  0  0
 25 36  1  0  0  0  0
 51 53  1  0  0  0  0
  7 12  1  0  0  0  0
 41 46  1  0  0  0  0
 17 31  1  0  0  0  0
M  END
$$$$

  -OEChem-05262214473D

 56 57  0     1  0  0  0  0  0999 V2000
   -2.2900    0.3401    4.1553 C   0  0  0  0  0  0  0  0  0  0  0  0
   -1.3426   -0.2746    3.6796 O   0  0  0  0  0  0  0  0  0  0  0  0
   -2.7219    0.0577    5.5560 C   0  0  0  0  0  0  0  0  0  0  0  0
   -3.4815   -0.7386    5.6094 H   0  0  0  0  0  0  0  0  0  0  0  0
   -1.8906   -0.2899    6.1903 H   0  0  0  0  0  0  0  0  0  0  0  0
   -3.1599    0.9126    6.0956 H   0  0  0  0  0  0  0  0  0  0  0  0
   -3.0397    1.3125    3.5142 N   0  0  0  0  0  0  0  0  0  0  0  0
   -2.7928    1.7385    2.1618 C   0  0  2  0  0  0  0  0  0  0  0  0
   -1.4579    1.1532    1.7206 C   0  0  0  0  0  0  0  0  0  0  0  0
   -0.5858    0.8004    2.5118 O   0  0  0  0  0  0  0  0  0  0  0  0
   -2.7841    3.2553    2.0523 C   0  0  0  0  0  0  0  0  0  0  0  0
   -3.8047    1.7484    4.0260 H   0  0  0  0  0  0  0  0  0  0  0  0
   -3.5969    1.3201    1.5466 H   0  0  0  0  0  0  0  0  0  0  0  0
   -1.9850    3.6926    2.6620 H   0  0  0  0  0  0  0  0  0  0  0  0
   -2.6246    3.5776    1.0180 H   0  0  0  0  0  0  0  0  0  0  0  0
   -3.7342    3.6765    2.3981 H   0  0  0  0  0  0  0  0  0  0  0  0
   -1.3352    1.1101    0.3372 N   0  0  0  0  0  0  0  0  0  0  0  0
   -0.1579    0.6093   -0.3265 C   0  0  2  0  0  0  0  0  0  0  0  0
    0.8235    0.1806    0.7585 C   0  0  0  0  0  0  0  0  0  0  0  0
    0.6845    0.4798    1.9426 O   0  0  0  0  0  0  0  0  0  0  0  0
    0.4832    1.6605   -1.2398 C   0  0  0  0  0  0  0  0  0  0  0  0
   -0.3830    2.0100   -2.4252 C   0  0  0  0  0  0  0  0  0  0  0  0
   -1.2312    3.0899   -2.5098 C   0  0  0  0  0  0  0  0  0  0  0  0
   -0.4719    1.2923   -3.6508 C   0  0  0  0  0  0  0  0  0  0  0  0
   -1.8334    3.0575   -3.7389 N   0  0  0  0  0  0  0  0  0  0  0  0
   -1.3885    1.9705   -4.4572 C   0  0  0  0  0  0  0  0  0  0  0  0
    0.1413    0.1273   -4.1530 C   0  0  0  0  0  0  0  0  0  0  0  0
   -1.7239    1.5401   -5.7458 C   0  0  0  0  0  0  0  0  0  0  0  0
   -0.1845   -0.3149   -5.4403 C   0  0  0  0  0  0  0  0  0  0  0  0
   -1.1030    0.3822   -6.2227 C   0  0  0  0  0  0  0  0  0  0  0  0
   -2.1183    1.4068   -0.2401 H   0  0  0  0  0  0  0  0  0  0  0  0
   -0.4718   -0.2736   -0.8956 H   0  0  0  0  0  0  0  0  0  0  0  0
    1.4649    1.3129   -1.5892 H   0  0  0  0  0  0  0  0  0  0  0  0
    0.6871    2.5824   -0.6793 H   0  0  0  0  0  0  0  0  0  0  0  0
   -1.4620    3.8778   -1.8061 H   0  0  0  0  0  0  0  0  0  0  0  0
   -2.5071    3.7334   -4.0717 H   0  0  0  0  0  0  0  0  0  0  0  0
    0.8586   -0.4277   -3.5551 H   0  0  0  0  0  0  0  0  0  0  0  0
   -2.4380    2.0827   -6.3560 H   0  0  0  0  0  0  0  0  0  0  0  0
    0.2848   -1.2130   -5.8328 H   0  0  0  0  0  0  0  0  0  0  0  0
   -1.3412    0.0209   -7.2198 H   0  0  0  0  0  0  0  0  0  0  0  0
    1.8418   -0.6156    0.2529 N   0  0  0  0  0  0  0  0  0  0  0  0
    2.8923   -1.1757    1.0723 C   0  0  2  0  0  0  0  0  0  0  0  0
    3.4814   -0.0520    1.9148 C   0  0  0  0  0  0  0  0  0  0  0  0
    3.3945    1.1345    1.6056 O   0  0  0  0  0  0  0  0  0  0  0  0
    3.9653   -1.8366    0.2210 C   0  0  0  0  0  0  0  0  0  0  0  0
    1.8491   -0.8146   -0.7431 H   0  0  0  0  0  0  0  0  0  0  0  0
    2.4212   -1.9161    1.7280 H   0  0  0  0  0  0  0  0  0  0  0  0
    4.4486   -1.1102   -0.4426 H   0  0  0  0  0  0  0  0  0  0  0  0
    4.7458   -2.2853    0.8442 H   0  0  0  0  0  0  0  0  0  0  0  0
    3.5347   -2.6246   -0.4063 H   0  0  0  0  0  0  0  0  0  0  0  0
    4.1528   -0.5329    3.0302 N   0  0  0  0  0  0  0  0  0  0  0  0
    4.8090    0.3354    3.9797 C   0  0  0  0  0  0  0  0  0  0  0  0
    4.1580   -1.5311    3.2185 H   0  0  0  0  0  0  0  0  0  0  0  0
    5.8637    0.4614    3.6940 H   0  0  0  0  0  0  0  0  0  0  0  0
    4.3109    1.3161    3.9846 H   0  0  0  0  0  0  0  0  0  0  0  0
    4.7519   -0.1099    4.9839 H   0  0  0  0  0  0  0  0  0  0  0  0
 29 30  2  0  0  0  0
 27 29  1  0  0  0  0
 28 30  1  0  0  0  0
 24 27  2  0  0  0  0
 26 28  2  0  0  0  0
 22 23  2  0  0  0  0
 23 25  1  0  0  0  0
 22 24  1  0  0  0  0
 24 26  1  0  0  0  0
 21 22  1  0  0  0  0
 25 26  1  0  0  0  0
  1  3  1  0  0  0  0
  1  7  1  0  0  0  0
  1  2  2  0  0  0  0
 42 43  1  0  0  0  0
 43 51  1  0  0  0  0
 43 44  2  0  0  0  0
  8  9  1  0  0  0  0
  9 17  1  0  0  0  0
  9 10  2  0  0  0  0
 18 19  1  0  0  0  0
 19 41  1  0  0  0  0
 19 20  2  0  0  0  0
 42 45  1  0  0  0  0
  8 11  1  0  0  0  0
 51 52  1  0  0  0  0
 18 21  1  0  0  0  0
 41 42  1  0  0  0  0
  7  8  1  0  0  0  0
 17 18  1  0  0  0  0
 29 39  1  0  0  0  0
 30 40  1  0  0  0  0
 27 37  1  0  0  0  0
 28 38  1  0  0  0  0
 23 35  1  0  0  0  0
  3  4  1  0  0  0  0
  3  5  1  0  0  0  0
  3  6  1  0  0  0  0
 45 48  1  0  0  0  0
 45 49  1  0  0  0  0
 45 50  1  0  0  0  0
 11 14  1  0  0  0  0
 11 15  1  0  0  0  0
 11 16  1  0  0  0  0
 52 54  1  0  0  0  0
 52 55  1  0  0  0  0
 52 56  1  0  0  0  0
 21 33  1  0  0  0  0
 21 34  1  0  0  0  0
 42 47  1  0  0  0  0
  8 13  1  0  0  0  0
 18 32  1  0  0  0  0
 25 36  1  0  0  0  0
 51 53  1  0  0  0  0
  7 12  1  0  0  0  0
 41 46  1  0  0  0  0
 17 31  1  0  0  0  0
M  END
$$$$

  -OEChem-05262214473D

 56 57  0     1  0  0  0  0  0999 V2000
   -2.2900    0.3401    4.1553 C   0  0  0  0  0  0  0  0  0  0  0  0
   -1.3426   -0.2746    3.6796 O   0  0  0  0  0  0  0  0  0  0  0  0
   -2.7219    0.0577    5.5560 C   0  0  0  0  0  0  0  0  0  0  0  0
   -3.4815   -0.7386    5.6094 H   0  0  0  0  0  0  0  0  0  0  0  0
   -1.8906   -0.2899    6.1903 H   0  0  0  0  0  0  0  0  0  0  0  0
   -3.1599    0.9126    6.0956 H   0  0  0  0  0  0  0  0  0  0  0  0
   -3.0397    1.3125    3.5142 N   0  0  0  0  0  0  0  0  0  0  0  0
   -2.7928    1.7385    2.1618 C   0  0  2  0  0  0  0  0  0  0  0  0
   -1.4579    1.1532    1.7206 C   0  0  0  0  0  0  0  0  0  0  0  0
   -0.5858    0.8004    2.5118 O   0  0  0  0  0  0  0  0  0  0  0  0
   -2.7841    3.2553    2.0523 C   0  0  0  0  0  0  0  0  0  0  0  0
   -3.8047    1.7484    4.0260 H   0  0  0  0  0  0  0  0  0  0  0  0
   -3.5969    1.3201    1.5466 H   0  0  0  0  0  0  0  0  0  0  0  0
   -1.9850    3.6926    2.6620 H   0  0  0  0  0  0  0  0  0  0  0  0
   -2.6246    3.5776    1.0180 H   0  0  0  0  0  0  0  0  0  0  0  0
   -3.7342    3.6765    2.3981 H   0  0  0  0  0  0  0  0  0  0  0  0
   -1.3352    1.1101    0.3372 N   0  0  0  0  0  0  0  0  0  0  0  0
   -0.1579    0.6093   -0.3265 C   0  0  2  0  0  0  0  0  0  0  0  0
    0.6539   -0.1565    0.7121 C   0  0  0  0  0  0  0  0  0  0  0  0
    0.2793   -0.3121    1.8724 O   0  0  0  0  0  0  0  0  0  0  0  0
    0.6849    1.7345   -0.9378 C   0  0  0  0  0  0  0  0  0  0  0  0
   -0.0114    2.4293   -2.0825 C   0  0  0  0  0  0  0  0  0  0  0  0
   -0.7230    3.6036   -1.9960 C   0  0  0  0  0  0  0  0  0  0  0  0
   -0.0520    1.9970   -3.4376 C   0  0  0  0  0  0  0  0  0  0  0  0
   -1.1957    3.9028   -3.2456 N   0  0  0  0  0  0  0  0  0  0  0  0
   -0.8011    2.9390   -4.1460 C   0  0  0  0  0  0  0  0  0  0  0  0
    0.4783    0.8913   -4.1317 C   0  0  0  0  0  0  0  0  0  0  0  0
   -1.0474    2.8302   -5.5192 C   0  0  0  0  0  0  0  0  0  0  0  0
    0.2400    0.7695   -5.5055 C   0  0  0  0  0  0  0  0  0  0  0  0
   -0.5113    1.7252   -6.1866 C   0  0  0  0  0  0  0  0  0  0  0  0
   -2.1183    1.4068   -0.2401 H   0  0  0  0  0  0  0  0  0  0  0  0
   -0.5065   -0.0895   -1.0960 H   0  0  0  0  0  0  0  0  0  0  0  0
    1.6533    1.3428   -1.2776 H   0  0  0  0  0  0  0  0  0  0  0  0
    0.9299    2.4871   -0.1767 H   0  0  0  0  0  0  0  0  0  0  0  0
   -0.9372    4.2527   -1.1581 H   0  0  0  0  0  0  0  0  0  0  0  0
   -1.7535    4.7139   -3.4748 H   0  0  0  0  0  0  0  0  0  0  0  0
    1.0652    0.1373   -3.6149 H   0  0  0  0  0  0  0  0  0  0  0  0
   -1.6312    3.5742   -6.0504 H   0  0  0  0  0  0  0  0  0  0  0  0
    0.6460   -0.0814   -6.0460 H   0  0  0  0  0  0  0  0  0  0  0  0
   -0.6840    1.6107   -7.2536 H   0  0  0  0  0  0  0  0  0  0  0  0
    1.8189   -0.6855    0.1741 N   0  0  0  0  0  0  0  0  0  0  0  0
    2.7583   -1.4752    0.9375 C   0  0  2  0  0  0  0  0  0  0  0  0
    3.0757   -0.7183    2.2204 C   0  0  0  0  0  0  0  0  0  0  0  0
    2.9283    0.4966    2.3364 O   0  0  0  0  0  0  0  0  0  0  0  0
    4.0245   -1.7509    0.1416 C   0  0  0  0  0  0  0  0  0  0  0  0
    2.0215   -0.5086   -0.8054 H   0  0  0  0  0  0  0  0  0  0  0  0
    2.2542   -2.4162    1.1831 H   0  0  0  0  0  0  0  0  0  0  0  0
    4.5434   -0.8198   -0.1138 H   0  0  0  0  0  0  0  0  0  0  0  0
    4.7232   -2.3732    0.7105 H   0  0  0  0  0  0  0  0  0  0  0  0
    3.7912   -2.2690   -0.7949 H   0  0  0  0  0  0  0  0  0  0  0  0
    3.5837   -1.5524    3.2064 N   0  0  0  0  0  0  0  0  0  0  0  0
    3.9732   -1.0703    4.5109 C   0  0  0  0  0  0  0  0  0  0  0  0
    3.6540   -2.5502    3.0294 H   0  0  0  0  0  0  0  0  0  0  0  0
    5.0442   -0.8194    4.5050 H   0  0  0  0  0  0  0  0  0  0  0  0
    3.3879   -0.1729    4.7598 H   0  0  0  0  0  0  0  0  0  0  0  0
    3.7839   -1.8515    5.2619 H   0  0  0  0  0  0  0  0  0  0  0  0
 29 30  2  0  0  0  0
 27 29  1  0  0  0  0
 28 30  1  0  0  0  0
 24 27  2  0  0  0  0
 26 28  2  0  0  0  0
 22 23  2  0  0  0  0
 23 25  1  0  0  0  0
 22 24  1  0  0  0  0
 24 26  1  0  0  0  0
 21 22  1  0  0  0  0
 25 26  1  0  0  0  0
  1  3  1  0  0  0  0
  1  7  1  0  0  0  0
  1  2  2  0  0  0  0
 42 43  1  0  0  0  0
 43 51  1  0  0  0  0
 43 44  2  0  0  0  0
  8  9  1  0  0  0  0
  9 17  1  0  0  0  0
  9 10  2  0  0  0  0
 18 19  1  0  0  0  0
 19 41  1  0  0  0  0
 19 20  2  0  0  0  0
 42 45  1  0  0  0  0
  8 11  1  0  0  0  0
 51 52  1  0  0  0  0
 18 21  1  0  0  0  0
 41 42  1  0  0  0  0
  7  8  1  0  0  0  0
 17 18  1  0  0  0  0
 29 39  1  0  0  0  0
 30 40  1  0  0  0  0
 27 37  1  0  0  0  0
 28 38  1  0  0  0  0
 23 35  1  0  0  0  0
  3  4  1  0  0  0  0
  3  5  1  0  0  0  0
  3  6  1  0  0  0  0
 45 48  1  0  0  0  0
 45 49  1  0  0  0  0
 45 50  1  0  0  0  0
 11 14  1  0  0  0  0
 11 15  1  0  0  0  0
 11 16  1  0  0  0  0
 52 54  1  0  0  0  0
 52 55  1  0  0  0  0
 52 56  1  0  0  0  0
 21 33  1  0  0  0  0
 21 34  1  0  0  0  0
 42 47  1  0  0  0  0
  8 13  1  0  0  0  0
 18 32  1  0  0  0  0
 25 36  1  0  0  0  0
 51 53  1  0  0  0  0
  7 12  1  0  0  0  0
 41 46  1  0  0  0  0
 17 31  1  0  0  0  0
M  END
$$$$

  -OEChem-05262214473D

 56 57  0     1  0  0  0  0  0999 V2000
   -2.2900    0.3401    4.1553 C   0  0  0  0  0  0  0  0  0  0  0  0
   -1.3426   -0.2746    3.6796 O   0  0  0  0  0  0  0  0  0  0  0  0
   -2.7219    0.0577    5.5560 C   0  0  0  0  0  0  0  0  0  0  0  0
   -3.4815   -0.7386    5.6094 H   0  0  0  0  0  0  0  0  0  0  0  0
   -1.8906   -0.2899    6.1903 H   0  0  0  0  0  0  0  0  0  0  0  0
   -3.1599    0.9126    6.0956 H   0  0  0  0  0  0  0  0  0  0  0  0
   -3.0397    1.3125    3.5142 N   0  0  0  0  0  0  0  0  0  0  0  0
   -2.7928    1.7385    2.1618 C   0  0  2  0  0  0  0  0  0  0  0  0
   -1.4579    1.1532    1.7206 C   0  0  0  0  0  0  0  0  0  0  0  0
   -0.5858    0.8004    2.5118 O   0  0  0  0  0  0  0  0  0  0  0  0
   -2.7841    3.2553    2.0523 C   0  0  0  0  0  0  0  0  0  0  0  0
   -3.8047    1.7484    4.0260 H   0  0  0  0  0  0  0  0  0  0  0  0
   -3.5969    1.3201    1.5466 H   0  0  0  0  0  0  0  0  0  0  0  0
   -1.9850    3.6926    2.6620 H   0  0  0  0  0  0  0  0  0  0  0  0
   -2.6246    3.5776    1.0180 H   0  0  0  0  0  0  0  0  0  0  0  0
   -3.7342    3.6765    2.3981 H   0  0  0  0  0  0  0  0  0  0  0  0
   -1.3352    1.1101    0.3372 N   0  0  0  0  0  0  0  0  0  0  0  0
   -0.1579    0.6093   -0.3265 C   0  0  2  0  0  0  0  0  0  0  0  0
    0.6539   -0.1565    0.7121 C   0  0  0  0  0  0  0  0  0  0  0  0
    0.1808   -0.5442    1.7783 O   0  0  0  0  0  0  0  0  0  0  0  0
    0.6849    1.7345   -0.9378 C   0  0  0  0  0  0  0  0  0  0  0  0
   -0.0114    2.4293   -2.0825 C   0  0  0  0  0  0  0  0  0  0  0  0
   -0.7230    3.6036   -1.9960 C   0  0  0  0  0  0  0  0  0  0  0  0
   -0.0520    1.9970   -3.4376 C   0  0  0  0  0  0  0  0  0  0  0  0
   -1.1957    3.9028   -3.2456 N   0  0  0  0  0  0  0  0  0  0  0  0
   -0.8011    2.9390   -4.1460 C   0  0  0  0  0  0  0  0  0  0  0  0
    0.4783    0.8913   -4.1317 C   0  0  0  0  0  0  0  0  0  0  0  0
   -1.0474    2.8302   -5.5192 C   0  0  0  0  0  0  0  0  0  0  0  0
    0.2400    0.7695   -5.5055 C   0  0  0  0  0  0  0  0  0  0  0  0
   -0.5113    1.7252   -6.1866 C   0  0  0  0  0  0  0  0  0  0  0  0
   -2.1183    1.4068   -0.2401 H   0  0  0  0  0  0  0  0  0  0  0  0
   -0.5065   -0.0895   -1.0960 H   0  0  0  0  0  0  0  0  0  0  0  0
    1.6533    1.3428   -1.2776 H   0  0  0  0  0  0  0  0  0  0  0  0
    0.9299    2.4871   -0.1767 H   0  0  0  0  0  0  0  0  0  0  0  0
   -0.9372    4.2527   -1.1581 H   0  0  0  0  0  0  0  0  0  0  0  0
   -1.7535    4.7139   -3.4748 H   0  0  0  0  0  0  0  0  0  0  0  0
    1.0652    0.1373   -3.6149 H   0  0  0  0  0  0  0  0  0  0  0  0
   -1.6312    3.5742   -6.0504 H   0  0  0  0  0  0  0  0  0  0  0  0
    0.6460   -0.0814   -6.0460 H   0  0  0  0  0  0  0  0  0  0  0  0
   -0.6840    1.6107   -7.2536 H   0  0  0  0  0  0  0  0  0  0  0  0
    1.9519   -0.3968    0.2831 N   0  0  0  0  0  0  0  0  0  0  0  0
    2.9250   -1.1234    1.0666 C   0  0  2  0  0  0  0  0  0  0  0  0
    2.9433   -0.5245    2.4667 C   0  0  0  0  0  0  0  0  0  0  0  0
    2.5605    0.6174    2.7129 O   0  0  0  0  0  0  0  0  0  0  0  0
    4.3050   -1.0614    0.4308 C   0  0  0  0  0  0  0  0  0  0  0  0
    2.2320   -0.0442   -0.6274 H   0  0  0  0  0  0  0  0  0  0  0  0
    2.5787   -2.1615    1.1173 H   0  0  0  0  0  0  0  0  0  0  0  0
    4.6686   -0.0291    0.3714 H   0  0  0  0  0  0  0  0  0  0  0  0
    5.0350   -1.6361    1.0103 H   0  0  0  0  0  0  0  0  0  0  0  0
    4.2836   -1.4653   -0.5872 H   0  0  0  0  0  0  0  0  0  0  0  0
    3.4776   -1.3999    3.4019 N   0  0  0  0  0  0  0  0  0  0  0  0
    3.6147   -1.0599    4.7989 C   0  0  0  0  0  0  0  0  0  0  0  0
    3.7520   -2.3340    3.1122 H   0  0  0  0  0  0  0  0  0  0  0  0
    4.6137   -0.6354    4.9772 H   0  0  0  0  0  0  0  0  0  0  0  0
    2.8479   -0.3204    5.0731 H   0  0  0  0  0  0  0  0  0  0  0  0
    3.4865   -1.9651    5.4106 H   0  0  0  0  0  0  0  0  0  0  0  0
 29 30  2  0  0  0  0
 27 29  1  0  0  0  0
 28 30  1  0  0  0  0
 24 27  2  0  0  0  0
 26 28  2  0  0  0  0
 22 23  2  0  0  0  0
 23 25  1  0  0  0  0
 22 24  1  0  0  0  0
 24 26  1  0  0  0  0
 21 22  1  0  0  0  0
 25 26  1  0  0  0  0
  1  3  1  0  0  0  0
  1  7  1  0  0  0  0
  1  2  2  0  0  0  0
 42 43  1  0  0  0  0
 43 51  1  0  0  0  0
 43 44  2  0  0  0  0
  8  9  1  0  0  0  0
  9 17  1  0  0  0  0
  9 10  2  0  0  0  0
 18 19  1  0  0  0  0
 19 41  1  0  0  0  0
 19 20  2  0  0  0  0
 42 45  1  0  0  0  0
  8 11  1  0  0  0  0
 51 52  1  0  0  0  0
 18 21  1  0  0  0  0
 41 42  1  0  0  0  0
  7  8  1  0  0  0  0
 17 18  1  0  0  0  0
 29 39  1  0  0  0  0
 30 40  1  0  0  0  0
 27 37  1  0  0  0  0
 28 38  1  0  0  0  0
 23 35  1  0  0  0  0
  3  4  1  0  0  0  0
  3  5  1  0  0  0  0
  3  6  1  0  0  0  0
 45 48  1  0  0  0  0
 45 49  1  0  0  0  0
 45 50  1  0  0  0  0
 11 14  1  0  0  0  0
 11 15  1  0  0  0  0
 11 16  1  0  0  0  0
 52 54  1  0  0  0  0
 52 55  1  0  0  0  0
 52 56  1  0  0  0  0
 21 33  1  0  0  0  0
 21 34  1  0  0  0  0
 42 47  1  0  0  0  0
  8 13  1  0  0  0  0
 18 32  1  0  0  0  0
 25 36  1  0  0  0  0
 51 53  1  0  0  0  0
  7 12  1  0  0  0  0
 41 46  1  0  0  0  0
 17 31  1  0  0  0  0
M  END
$$$$

  -OEChem-05262214473D

 56 57  0     1  0  0  0  0  0999 V2000
   -2.2900    0.3401    4.1553 C   0  0  0  0  0  0  0  0  0  0  0  0
   -1.3426   -0.2746    3.6796 O   0  0  0  0  0  0  0  0  0  0  0  0
   -2.7219    0.0577    5.5560 C   0  0  0  0  0  0  0  0  0  0  0  0
   -3.4815   -0.7386    5.6094 H   0  0  0  0  0  0  0  0  0  0  0  0
   -1.8906   -0.2899    6.1903 H   0  0  0  0  0  0  0  0  0  0  0  0
   -3.1599    0.9126    6.0956 H   0  0  0  0  0  0  0  0  0  0  0  0
   -3.0397    1.3125    3.5142 N   0  0  0  0  0  0  0  0  0  0  0  0
   -2.7928    1.7385    2.1618 C   0  0  2  0  0  0  0  0  0  0  0  0
   -1.4579    1.1532    1.7206 C   0  0  0  0  0  0  0  0  0  0  0  0
   -0.5858    0.8004    2.5118 O   0  0  0  0  0  0  0  0  0  0  0  0
   -2.7841    3.2553    2.0523 C   0  0  0  0  0  0  0  0  0  0  0  0
   -3.8047    1.7484    4.0260 H   0  0  0  0  0  0  0  0  0  0  0  0
   -3.5969    1.3201    1.5466 H   0  0  0  0  0  0  0  0  0  0  0  0
   -1.9850    3.6926    2.6620 H   0  0  0  0  0  0  0  0  0  0  0  0
   -2.6246    3.5776    1.0180 H   0  0  0  0  0  0  0  0  0  0  0  0
   -3.7342    3.6765    2.3981 H   0  0  0  0  0  0  0  0  0  0  0  0
   -1.3352    1.1101    0.3372 N   0  0  0  0  0  0  0  0  0  0  0  0
   -0.1579    0.6093   -0.3265 C   0  0  2  0  0  0  0  0  0  0  0  0
    0.6539   -0.1565    0.7121 C   0  0  0  0  0  0  0  0  0  0  0  0
    0.1388   -0.7728    1.6425 O   0  0  0  0  0  0  0  0  0  0  0  0
    0.6849    1.7345   -0.9378 C   0  0  0  0  0  0  0  0  0  0  0  0
   -0.0114    2.4293   -2.0825 C   0  0  0  0  0  0  0  0  0  0  0  0
   -0.7230    3.6036   -1.9960 C   0  0  0  0  0  0  0  0  0  0  0  0
   -0.0520    1.9970   -3.4376 C   0  0  0  0  0  0  0  0  0  0  0  0
   -1.1957    3.9028   -3.2456 N   0  0  0  0  0  0  0  0  0  0  0  0
   -0.8011    2.9390   -4.1460 C   0  0  0  0  0  0  0  0  0  0  0  0
    0.4783    0.8913   -4.1317 C   0  0  0  0  0  0  0  0  0  0  0  0
   -1.0474    2.8302   -5.5192 C   0  0  0  0  0  0  0  0  0  0  0  0
    0.2400    0.7695   -5.5055 C   0  0  0  0  0  0  0  0  0  0  0  0
   -0.5113    1.7252   -6.1866 C   0  0  0  0  0  0  0  0  0  0  0  0
   -2.1183    1.4068   -0.2401 H   0  0  0  0  0  0  0  0  0  0  0  0
   -0.5065   -0.0895   -1.0960 H   0  0  0  0  0  0  0  0  0  0  0  0
    1.6533    1.3428   -1.2776 H   0  0  0  0  0  0  0  0  0  0  0  0
    0.9299    2.4871   -0.1767 H   0  0  0  0  0  0  0  0  0  0  0  0
   -0.9372    4.2527   -1.1581 H   0  0  0  0  0  0  0  0  0  0  0  0
   -1.7535    4.7139   -3.4748 H   0  0  0  0  0  0  0  0  0  0  0  0
    1.0652    0.1373   -3.6149 H   0  0  0  0  0  0  0  0  0  0  0  0
   -1.6312    3.5742   -6.0504 H   0  0  0  0  0  0  0  0  0  0  0  0
    0.6460   -0.0814   -6.0460 H   0  0  0  0  0  0  0  0  0  0  0  0
   -0.6840    1.6107   -7.2536 H   0  0  0  0  0  0  0  0  0  0  0  0
    2.0152   -0.1095    0.4454 N   0  0  0  0  0  0  0  0  0  0  0  0
    3.0071   -0.7720    1.2615 C   0  0  2  0  0  0  0  0  0  0  0  0
    2.7492   -0.3946    2.7142 C   0  0  0  0  0  0  0  0  0  0  0  0
    2.1351    0.6174    3.0455 O   0  0  0  0  0  0  0  0  0  0  0  0
    4.4168   -0.3858    0.8416 C   0  0  0  0  0  0  0  0  0  0  0  0
    2.3302    0.4171   -0.3641 H   0  0  0  0  0  0  0  0  0  0  0  0
    2.8558   -1.8491    1.1310 H   0  0  0  0  0  0  0  0  0  0  0  0
    4.5871    0.6899    0.9653 H   0  0  0  0  0  0  0  0  0  0  0  0
    5.1674   -0.9105    1.4419 H   0  0  0  0  0  0  0  0  0  0  0  0
    4.5906   -0.6309   -0.2118 H   0  0  0  0  0  0  0  0  0  0  0  0
    3.3228   -1.2981    3.5979 N   0  0  0  0  0  0  0  0  0  0  0  0
    3.2291   -1.1528    5.0318 C   0  0  0  0  0  0  0  0  0  0  0  0
    3.7977   -2.1193    3.2348 H   0  0  0  0  0  0  0  0  0  0  0  0
    4.1040   -0.5987    5.4026 H   0  0  0  0  0  0  0  0  0  0  0  0
    2.3117   -0.6013    5.2852 H   0  0  0  0  0  0  0  0  0  0  0  0
    3.1999   -2.1477    5.5000 H   0  0  0  0  0  0  0  0  0  0  0  0
 29 30  2  0  0  0  0
 27 29  1  0  0  0  0
 28 30  1  0  0  0  0
 24 27  2  0  0  0  0
 26 28  2  0  0  0  0
 22 23  2  0  0  0  0
 23 25  1  0  0  0  0
 22 24  1  0  0  0  0
 24 26  1  0  0  0  0
 21 22  1  0  0  0  0
 25 26  1  0  0  0  0
  1  3  1  0  0  0  0
  1  7  1  0  0  0  0
  1  2  2  0  0  0  0
 42 43  1  0  0  0  0
 43 51  1  0  0  0  0
 43 44  2  0  0  0  0
  8  9  1  0  0  0  0
  9 17  1  0  0  0  0
  9 10  2  0  0  0  0
 18 19  1  0  0  0  0
 19 41  1  0  0  0  0
 19 20  2  0  0  0  0
 42 45  1  0  0  0  0
  8 11  1  0  0  0  0
 51 52  1  0  0  0  0
 18 21  1  0  0  0  0
 41 42  1  0  0  0  0
  7  8  1  0  0  0  0
 17 18  1  0  0  0  0
 29 39  1  0  0  0  0
 30 40  1  0  0  0  0
 27 37  1  0  0  0  0
 28 38  1  0  0  0  0
 23 35  1  0  0  0  0
  3  4  1  0  0  0  0
  3  5  1  0  0  0  0
  3  6  1  0  0  0  0
 45 48  1  0  0  0  0
 45 49  1  0  0  0  0
 45 50  1  0  0  0  0
 11 14  1  0  0  0  0
 11 15  1  0  0  0  0
 11 16  1  0  0  0  0
 52 54  1  0  0  0  0
 52 55  1  0  0  0  0
 52 56  1  0  0  0  0
 21 33  1  0  0  0  0
 21 34  1  0  0  0  0
 42 47  1  0  0  0  0
  8 13  1  0  0  0  0
 18 32  1  0  0  0  0
 25 36  1  0  0  0  0
 51 53  1  0  0  0  0
  7 12  1  0  0  0  0
 41 46  1  0  0  0  0
 17 31  1  0  0  0  0
M  END
$$$$

  -OEChem-05262214473D

 56 57  0     1  0  0  0  0  0999 V2000
   -2.2900    0.3401    4.1553 C   0  0  0  0  0  0  0  0  0  0  0  0
   -1.3426   -0.2746    3.6796 O   0  0  0  0  0  0  0  0  0  0  0  0
   -2.7219    0.0577    5.5560 C   0  0  0  0  0  0  0  0  0  0  0  0
   -3.4815   -0.7386    5.6094 H   0  0  0  0  0  0  0  0  0  0  0  0
   -1.8906   -0.2899    6.1903 H   0  0  0  0  0  0  0  0  0  0  0  0
   -3.1599    0.9126    6.0956 H   0  0  0  0  0  0  0  0  0  0  0  0
   -3.0397    1.3125    3.5142 N   0  0  0  0  0  0  0  0  0  0  0  0
   -2.7928    1.7385    2.1618 C   0  0  2  0  0  0  0  0  0  0  0  0
   -1.4579    1.1532    1.7206 C   0  0  0  0  0  0  0  0  0  0  0  0
   -0.5858    0.8004    2.5118 O   0  0  0  0  0  0  0  0  0  0  0  0
   -2.7841    3.2553    2.0523 C   0  0  0  0  0  0  0  0  0  0  0  0
   -3.8047    1.7484    4.0260 H   0  0  0  0  0  0  0  0  0  0  0  0
   -3.5969    1.3201    1.5466 H   0  0  0  0  0  0  0  0  0  0  0  0
   -1.9850    3.6926    2.6620 H   0  0  0  0  0  0  0  0  0  0  0  0
   -2.6246    3.5776    1.0180 H   0  0  0  0  0  0  0  0  0  0  0  0
   -3.7342    3.6765    2.3981 H   0  0  0  0  0  0  0  0  0  0  0  0
   -1.3352    1.1101    0.3372 N   0  0  0  0  0  0  0  0  0  0  0  0
   -0.1579    0.6093   -0.3265 C   0  0  2  0  0  0  0  0  0  0  0  0
    0.6539   -0.1565    0.7121 C   0  0  0  0  0  0  0  0  0  0  0  0
    0.1562   -0.9823    1.4744 O   0  0  0  0  0  0  0  0  0  0  0  0
    0.6849    1.7345   -0.9378 C   0  0  0  0  0  0  0  0  0  0  0  0
   -0.0114    2.4293   -2.0825 C   0  0  0  0  0  0  0  0  0  0  0  0
   -0.7230    3.6036   -1.9960 C   0  0  0  0  0  0  0  0  0  0  0  0
   -0.0520    1.9970   -3.4376 C   0  0  0  0  0  0  0  0  0  0  0  0
   -1.1957    3.9028   -3.2456 N   0  0  0  0  0  0  0  0  0  0  0  0
   -0.8011    2.9390   -4.1460 C   0  0  0  0  0  0  0  0  0  0  0  0
    0.4783    0.8913   -4.1317 C   0  0  0  0  0  0  0  0  0  0  0  0
   -1.0474    2.8302   -5.5192 C   0  0  0  0  0  0  0  0  0  0  0  0
    0.2400    0.7695   -5.5055 C   0  0  0  0  0  0  0  0  0  0  0  0
   -0.5113    1.7252   -6.1866 C   0  0  0  0  0  0  0  0  0  0  0  0
   -2.1183    1.4068   -0.2401 H   0  0  0  0  0  0  0  0  0  0  0  0
   -0.5065   -0.0895   -1.0960 H   0  0  0  0  0  0  0  0  0  0  0  0
    1.6533    1.3428   -1.2776 H   0  0  0  0  0  0  0  0  0  0  0  0
    0.9299    2.4871   -0.1767 H   0  0  0  0  0  0  0  0  0  0  0  0
   -0.9372    4.2527   -1.1581 H   0  0  0  0  0  0  0  0  0  0  0  0
   -1.7535    4.7139   -3.4748 H   0  0  0  0  0  0  0  0  0  0  0  0
    1.0652    0.1373   -3.6149 H   0  0  0  0  0  0  0  0  0  0  0  0
   -1.6312    3.5742   -6.0504 H   0  0  0  0  0  0  0  0  0  0  0  0
    0.6460   -0.0814   -6.0460 H   0  0  0  0  0  0  0  0  0  0  0  0
   -0.6840    1.6107   -7.2536 H   0  0  0  0  0  0  0  0  0  0  0  0
    2.0046    0.1568    0.6500 N   0  0  0  0  0  0  0  0  0  0  0  0
    2.9992   -0.4450    1.5088 C   0  0  2  0  0  0  0  0  0  0  0  0
    2.5067   -0.3375    2.9460 C   0  0  0  0  0  0  0  0  0  0  0  0
    1.6809    0.4965    3.3114 O   0  0  0  0  0  0  0  0  0  0  0  0
    4.3522    0.2298    1.3460 C   0  0  0  0  0  0  0  0  0  0  0  0
    2.3095    0.8436   -0.0334 H   0  0  0  0  0  0  0  0  0  0  0  0
    3.0667   -1.5005    1.2233 H   0  0  0  0  0  0  0  0  0  0  0  0
    4.3043    1.2881    1.6274 H   0  0  0  0  0  0  0  0  0  0  0  0
    5.1111   -0.2457    1.9761 H   0  0  0  0  0  0  0  0  0  0  0  0
    4.6911    0.1776    0.3057 H   0  0  0  0  0  0  0  0  0  0  0  0
    3.1298   -1.2542    3.7812 N   0  0  0  0  0  0  0  0  0  0  0  0
    2.8427   -1.3425    5.1939 C   0  0  0  0  0  0  0  0  0  0  0  0
    3.7882   -1.9207    3.3887 H   0  0  0  0  0  0  0  0  0  0  0  0
    3.5499   -0.7117    5.7524 H   0  0  0  0  0  0  0  0  0  0  0  0
    1.8156   -0.9963    5.3816 H   0  0  0  0  0  0  0  0  0  0  0  0
    2.9437   -2.3870    5.5238 H   0  0  0  0  0  0  0  0  0  0  0  0
 29 30  2  0  0  0  0
 27 29  1  0  0  0  0
 28 30  1  0  0  0  0
 24 27  2  0  0  0  0
 26 28  2  0  0  0  0
 22 23  2  0  0  0  0
 23 25  1  0  0  0  0
 22 24  1  0  0  0  0
 24 26  1  0  0  0  0
 21 22  1  0  0  0  0
 25 26  1  0  0  0  0
  1  3  1  0  0  0  0
  1  7  1  0  0  0  0
  1  2  2  0  0  0  0
 42 43  1  0  0  0  0
 43 51  1  0  0  0  0
 43 44  2  0  0  0  0
  8  9  1  0  0  0  0
  9 17  1  0  0  0  0
  9 10  2  0  0  0  0
 18 19  1  0  0  0  0
 19 41  1  0  0  0  0
 19 20  2  0  0  0  0
 42 45  1  0  0  0  0
  8 11  1  0  0  0  0
 51 52  1  0  0  0  0
 18 21  1  0  0  0  0
 41 42  1  0  0  0  0
  7  8  1  0  0  0  0
 17 18  1  0  0  0  0
 29 39  1  0  0  0  0
 30 40  1  0  0  0  0
 27 37  1  0  0  0  0
 28 38  1  0  0  0  0
 23 35  1  0  0  0  0
  3  4  1  0  0  0  0
  3  5  1  0  0  0  0
  3  6  1  0  0  0  0
 45 48  1  0  0  0  0
 45 49  1  0  0  0  0
 45 50  1  0  0  0  0
 11 14  1  0  0  0  0
 11 15  1  0  0  0  0
 11 16  1  0  0  0  0
 52 54  1  0  0  0  0
 52 55  1  0  0  0  0
 52 56  1  0  0  0  0
 21 33  1  0  0  0  0
 21 34  1  0  0  0  0
 42 47  1  0  0  0  0
  8 13  1  0  0  0  0
 18 32  1  0  0  0  0
 25 36  1  0  0  0  0
 51 53  1  0  0  0  0
  7 12  1  0  0  0  0
 41 46  1  0  0  0  0
 17 31  1  0  0  0  0
M  END
$$$$

  -OEChem-05262214473D

 56 57  0     1  0  0  0  0  0999 V2000
   -2.2900    0.3401    4.1553 C   0  0  0  0  0  0  0  0  0  0  0  0
   -1.3426   -0.2746    3.6796 O   0  0  0  0  0  0  0  0  0  0  0  0
   -2.7219    0.0577    5.5560 C   0  0  0  0  0  0  0  0  0  0  0  0
   -3.4815   -0.7386    5.6094 H   0  0  0  0  0  0  0  0  0  0  0  0
   -1.8906   -0.2899    6.1903 H   0  0  0  0  0  0  0  0  0  0  0  0
   -3.1599    0.9126    6.0956 H   0  0  0  0  0  0  0  0  0  0  0  0
   -3.0397    1.3125    3.5142 N   0  0  0  0  0  0  0  0  0  0  0  0
   -2.7928    1.7385    2.1618 C   0  0  2  0  0  0  0  0  0  0  0  0
   -1.4579    1.1532    1.7206 C   0  0  0  0  0  0  0  0  0  0  0  0
   -0.5858    0.8004    2.5118 O   0  0  0  0  0  0  0  0  0  0  0  0
   -2.7841    3.2553    2.0523 C   0  0  0  0  0  0  0  0  0  0  0  0
   -3.8047    1.7484    4.0260 H   0  0  0  0  0  0  0  0  0  0  0  0
   -3.5969    1.3201    1.5466 H   0  0  0  0  0  0  0  0  0  0  0  0
   -1.9850    3.6926    2.6620 H   0  0  0  0  0  0  0  0  0  0  0  0
   -2.6246    3.5776    1.0180 H   0  0  0  0  0  0  0  0  0  0  0  0
   -3.7342    3.6765    2.3981 H   0  0  0  0  0  0  0  0  0  0  0  0
   -1.3352    1.1101    0.3372 N   0  0  0  0  0  0  0  0  0  0  0  0
   -0.1579    0.6093   -0.3265 C   0  0  2  0  0  0  0  0  0  0  0  0
    0.6539   -0.1565    0.7121 C   0  0  0  0  0  0  0  0  0  0  0  0
    0.2318   -1.1585    1.2855 O   0  0  0  0  0  0  0  0  0  0  0  0
    0.6849    1.7345   -0.9378 C   0  0  0  0  0  0  0  0  0  0  0  0
   -0.0114    2.4293   -2.0825 C   0  0  0  0  0  0  0  0  0  0  0  0
   -0.7230    3.6036   -1.9960 C   0  0  0  0  0  0  0  0  0  0  0  0
   -0.0520    1.9970   -3.4376 C   0  0  0  0  0  0  0  0  0  0  0  0
   -1.1957    3.9028   -3.2456 N   0  0  0  0  0  0  0  0  0  0  0  0
   -0.8011    2.9390   -4.1460 C   0  0  0  0  0  0  0  0  0  0  0  0
    0.4783    0.8913   -4.1317 C   0  0  0  0  0  0  0  0  0  0  0  0
   -1.0474    2.8302   -5.5192 C   0  0  0  0  0  0  0  0  0  0  0  0
    0.2400    0.7695   -5.5055 C   0  0  0  0  0  0  0  0  0  0  0  0
   -0.5113    1.7252   -6.1866 C   0  0  0  0  0  0  0  0  0  0  0  0
   -2.1183    1.4068   -0.2401 H   0  0  0  0  0  0  0  0  0  0  0  0
   -0.5065   -0.0895   -1.0960 H   0  0  0  0  0  0  0  0  0  0  0  0
    1.6533    1.3428   -1.2776 H   0  0  0  0  0  0  0  0  0  0  0  0
    0.9299    2.4871   -0.1767 H   0  0  0  0  0  0  0  0  0  0  0  0
   -0.9372    4.2527   -1.1581 H   0  0  0  0  0  0  0  0  0  0  0  0
   -1.7535    4.7139   -3.4748 H   0  0  0  0  0  0  0  0  0  0  0  0
    1.0652    0.1373   -3.6149 H   0  0  0  0  0  0  0  0  0  0  0  0
   -1.6312    3.5742   -6.0504 H   0  0  0  0  0  0  0  0  0  0  0  0
    0.6460   -0.0814   -6.0460 H   0  0  0  0  0  0  0  0  0  0  0  0
   -0.6840    1.6107   -7.2536 H   0  0  0  0  0  0  0  0  0  0  0  0
    1.9209    0.3839    0.8830 N   0  0  0  0  0  0  0  0  0  0  0  0
    2.9017   -0.1646    1.7918 C   0  0  2  0  0  0  0  0  0  0  0  0
    2.2322   -0.3570    3.1461 C   0  0  0  0  0  0  0  0  0  0  0  0
    1.2289    0.2631    3.4925 O   0  0  0  0  0  0  0  0  0  0  0  0
    4.1157    0.7436    1.9097 C   0  0  0  0  0  0  0  0  0  0  0  0
    2.1714    1.2064    0.3421 H   0  0  0  0  0  0  0  0  0  0  0  0
    3.1968   -1.1392    1.3879 H   0  0  0  0  0  0  0  0  0  0  0  0
    3.8396    1.7248    2.3127 H   0  0  0  0  0  0  0  0  0  0  0  0
    4.8702    0.3129    2.5763 H   0  0  0  0  0  0  0  0  0  0  0  0
    4.5784    0.9048    0.9301 H   0  0  0  0  0  0  0  0  0  0  0  0
    2.9118   -1.2710    3.9391 N   0  0  0  0  0  0  0  0  0  0  0  0
    2.4819   -1.6163    5.2740 C   0  0  0  0  0  0  0  0  0  0  0  0
    3.7239   -1.7518    3.5635 H   0  0  0  0  0  0  0  0  0  0  0  0
    2.9892   -0.9668    6.0026 H   0  0  0  0  0  0  0  0  0  0  0  0
    1.3936   -1.4787    5.3557 H   0  0  0  0  0  0  0  0  0  0  0  0
    2.7353   -2.6666    5.4805 H   0  0  0  0  0  0  0  0  0  0  0  0
 29 30  2  0  0  0  0
 27 29  1  0  0  0  0
 28 30  1  0  0  0  0
 24 27  2  0  0  0  0
 26 28  2  0  0  0  0
 22 23  2  0  0  0  0
 23 25  1  0  0  0  0
 22 24  1  0  0  0  0
 24 26  1  0  0  0  0
 21 22  1  0  0  0  0
 25 26  1  0  0  0  0
  1  3  1  0  0  0  0
  1  7  1  0  0  0  0
  1  2  2  0  0  0  0
 42 43  1  0  0  0  0
 43 51  1  0  0  0  0
 43 44  2  0  0  0  0
  8  9  1  0  0  0  0
  9 17  1  0  0  0  0
  9 10  2  0  0  0  0
 18 19  1  0  0  0  0
 19 41  1  0  0  0  0
 19 20  2  0  0  0  0
 42 45  1  0  0  0  0
  8 11  1  0  0  0  0
 51 52  1  0  0  0  0
 18 21  1  0  0  0  0
 41 42  1  0  0  0  0
  7  8  1  0  0  0  0
 17 18  1  0  0  0  0
 29 39  1  0  0  0  0
 30 40  1  0  0  0  0
 27 37  1  0  0  0  0
 28 38  1  0  0  0  0
 23 35  1  0  0  0  0
  3  4  1  0  0  0  0
  3  5  1  0  0  0  0
  3  6  1  0  0  0  0
 45 48  1  0  0  0  0
 45 49  1  0  0  0  0
 45 50  1  0  0  0  0
 11 14  1  0  0  0  0
 11 15  1  0  0  0  0
 11 16  1  0  0  0  0
 52 54  1  0  0  0  0
 52 55  1  0  0  0  0
 52 56  1  0  0  0  0
 21 33  1  0  0  0  0
 21 34  1  0  0  0  0
 42 47  1  0  0  0  0
  8 13  1  0  0  0  0
 18 32  1  0  0  0  0
 25 36  1  0  0  0  0
 51 53  1  0  0  0  0
  7 12  1  0  0  0  0
 41 46  1  0  0  0  0
 17 31  1  0  0  0  0
M  END
$$$$

  -OEChem-05262214473D

 56 57  0     1  0  0  0  0  0999 V2000
   -2.2900    0.3401    4.1553 C   0  0  0  0  0  0  0  0  0  0  0  0
   -1.3426   -0.2746    3.6796 O   0  0  0  0  0  0  0  0  0  0  0  0
   -2.7219    0.0577    5.5560 C   0  0  0  0  0  0  0  0  0  0  0  0
   -3.4815   -0.7386    5.6094 H   0  0  0  0  0  0  0  0  0  0  0  0
   -1.8906   -0.2899    6.1903 H   0  0  0  0  0  0  0  0  0  0  0  0
   -3.1599    0.9126    6.0956 H   0  0  0  0  0  0  0  0  0  0  0  0
   -3.0397    1.3125    3.5142 N   0  0  0  0  0  0  0  0  0  0  0  0
   -2.7928    1.7385    2.1618 C   0  0  2  0  0  0  0  0  0  0  0  0
   -1.4579    1.1532    1.7206 C   0  0  0  0  0  0  0  0  0  0  0  0
   -0.5858    0.8004    2.5118 O   0  0  0  0  0  0  0  0  0  0  0  0
   -2.7841    3.2553    2.0523 C   0  0  0  0  0  0  0  0  0  0  0  0
   -3.8047    1.7484    4.0260 H   0  0  0  0  0  0  0  0  0  0  0  0
   -3.5969    1.3201    1.5466 H   0  0  0  0  0  0  0  0  0  0  0  0
   -1.9850    3.6926    2.6620 H   0  0  0  0  0  0  0  0  0  0  0  0
   -2.6246    3.5776    1.0180 H   0  0  0  0  0  0  0  0  0  0  0  0
   -3.7342    3.6765    2.3981 H   0  0  0  0  0  0  0  0  0  0  0  0
   -1.3352    1.1101    0.3372 N   0  0  0  0  0  0  0  0  0  0  0  0
   -0.1579    0.6093   -0.3265 C   0  0  2  0  0  0  0  0  0  0  0  0
    0.6539   -0.1565    0.7121 C   0  0  0  0  0  0  0  0  0  0  0  0
    0.3604   -1.2893    1.0885 O   0  0  0  0  0  0  0  0  0  0  0  0
    0.6849    1.7345   -0.9378 C   0  0  0  0  0  0  0  0  0  0  0  0
   -0.0114    2.4293   -2.0825 C   0  0  0  0  0  0  0  0  0  0  0  0
   -0.7230    3.6036   -1.9960 C   0  0  0  0  0  0  0  0  0  0  0  0
   -0.0520    1.9970   -3.4376 C   0  0  0  0  0  0  0  0  0  0  0  0
   -1.1957    3.9028   -3.2456 N   0  0  0  0  0  0  0  0  0  0  0  0
   -0.8011    2.9390   -4.1460 C   0  0  0  0  0  0  0  0  0  0  0  0
    0.4783    0.8913   -4.1317 C   0  0  0  0  0  0  0  0  0  0  0  0
   -1.0474    2.8302   -5.5192 C   0  0  0  0  0  0  0  0  0  0  0  0
    0.2400    0.7695   -5.5055 C   0  0  0  0  0  0  0  0  0  0  0  0
   -0.5113    1.7252   -6.1866 C   0  0  0  0  0  0  0  0  0  0  0  0
   -2.1183    1.4068   -0.2401 H   0  0  0  0  0  0  0  0  0  0  0  0
   -0.5065   -0.0895   -1.0960 H   0  0  0  0  0  0  0  0  0  0  0  0
    1.6533    1.3428   -1.2776 H   0  0  0  0  0  0  0  0  0  0  0  0
    0.9299    2.4871   -0.1767 H   0  0  0  0  0  0  0  0  0  0  0  0
   -0.9372    4.2527   -1.1581 H   0  0  0  0  0  0  0  0  0  0  0  0
   -1.7535    4.7139   -3.4748 H   0  0  0  0  0  0  0  0  0  0  0  0
    1.0652    0.1373   -3.6149 H   0  0  0  0  0  0  0  0  0  0  0  0
   -1.6312    3.5742   -6.0504 H   0  0  0  0  0  0  0  0  0  0  0  0
    0.6460   -0.0814   -6.0460 H   0  0  0  0  0  0  0  0  0  0  0  0
   -0.6840    1.6107   -7.2536 H   0  0  0  0  0  0  0  0  0  0  0  0
    1.7696    0.5565    1.1284 N   0  0  0  0  0  0  0  0  0  0  0  0
    2.7213    0.0500    2.0911 C   0  0  2  0  0  0  0  0  0  0  0  0
    1.9444   -0.4519    3.3011 C   0  0  0  0  0  0  0  0  0  0  0  0
    0.8099   -0.0671    3.5766 O   0  0  0  0  0  0  0  0  0  0  0  0
    3.7234    1.1205    2.4943 C   0  0  0  0  0  0  0  0  0  0  0  0
    1.9251    1.4807    0.7368 H   0  0  0  0  0  0  0  0  0  0  0  0
    3.2375   -0.7900    1.6136 H   0  0  0  0  0  0  0  0  0  0  0  0
    3.2247    1.9703    2.9744 H   0  0  0  0  0  0  0  0  0  0  0  0
    4.4608    0.7273    3.2018 H   0  0  0  0  0  0  0  0  0  0  0  0
    4.2602    1.5014    1.6187 H   0  0  0  0  0  0  0  0  0  0  0  0
    2.6837   -1.3475    4.0611 N   0  0  0  0  0  0  0  0  0  0  0  0
    2.1713   -1.9554    5.2668 C   0  0  0  0  0  0  0  0  0  0  0  0
    3.6093   -1.6241    3.7472 H   0  0  0  0  0  0  0  0  0  0  0  0
    2.4600   -1.3465    6.1363 H   0  0  0  0  0  0  0  0  0  0  0  0
    1.0744   -2.0155    5.2095 H   0  0  0  0  0  0  0  0  0  0  0  0
    2.5889   -2.9674    5.3731 H   0  0  0  0  0  0  0  0  0  0  0  0
 29 30  2  0  0  0  0
 27 29  1  0  0  0  0
 28 30  1  0  0  0  0
 24 27  2  0  0  0  0
 26 28  2  0  0  0  0
 22 23  2  0  0  0  0
 23 25  1  0  0  0  0
 22 24  1  0  0  0  0
 24 26  1  0  0  0  0
 21 22  1  0  0  0  0
 25 26  1  0  0  0  0
  1  3  1  0  0  0  0
  1  7  1  0  0  0  0
  1  2  2  0  0  0  0
 42 43  1  0  0  0  0
 43 51  1  0  0  0  0
 43 44  2  0  0  0  0
  8  9  1  0  0  0  0
  9 17  1  0  0  0  0
  9 10  2  0  0  0  0
 18 19  1  0  0  0  0
 19 41  1  0  0  0  0
 19 20  2  0  0  0  0
 42 45  1  0  0  0  0
  8 11  1  0  0  0  0
 51 52  1  0  0  0  0
 18 21  1  0  0  0  0
 41 42  1  0  0  0  0
  7  8  1  0  0  0  0
 17 18  1  0  0  0  0
 29 39  1  0  0  0  0
 30 40  1  0  0  0  0
 27 37  1  0  0  0  0
 28 38  1  0  0  0  0
 23 35  1  0  0  0  0
  3  4  1  0  0  0  0
  3  5  1  0  0  0  0
  3  6  1  0  0  0  0
 45 48  1  0  0  0  0
 45 49  1  0  0  0  0
 45 50  1  0  0  0  0
 11 14  1  0  0  0  0
 11 15  1  0  0  0  0
 11 16  1  0  0  0  0
 52 54  1  0  0  0  0
 52 55  1  0  0  0  0
 52 56  1  0  0  0  0
 21 33  1  0  0  0  0
 21 34  1  0  0  0  0
 42 47  1  0  0  0  0
  8 13  1  0  0  0  0
 18 32  1  0  0  0  0
 25 36  1  0  0  0  0
 51 53  1  0  0  0  0
  7 12  1  0  0  0  0
 41 46  1  0  0  0  0
 17 31  1  0  0  0  0
M  END
$$$$

  -OEChem-05262214473D

 56 57  0     1  0  0  0  0  0999 V2000
   -2.2900    0.3401    4.1553 C   0  0  0  0  0  0  0  0  0  0  0  0
   -1.3426   -0.2746    3.6796 O   0  0  0  0  0  0  0  0  0  0  0  0
   -2.7219    0.0577    5.5560 C   0  0  0  0  0  0  0  0  0  0  0  0
   -3.4815   -0.7386    5.6094 H   0  0  0  0  0  0  0  0  0  0  0  0
   -1.8906   -0.2899    6.1903 H   0  0  0  0  0  0  0  0  0  0  0  0
   -3.1599    0.9126    6.0956 H   0  0  0  0  0  0  0  0  0  0  0  0
   -3.0397    1.3125    3.5142 N   0  0  0  0  0  0  0  0  0  0  0  0
   -2.7928    1.7385    2.1618 C   0  0  2  0  0  0  0  0  0  0  0  0
   -1.4579    1.1532    1.7206 C   0  0  0  0  0  0  0  0  0  0  0  0
   -0.5858    0.8004    2.5118 O   0  0  0  0  0  0  0  0  0  0  0  0
   -2.7841    3.2553    2.0523 C   0  0  0  0  0  0  0  0  0  0  0  0
   -3.8047    1.7484    4.0260 H   0  0  0  0  0  0  0  0  0  0  0  0
   -3.5969    1.3201    1.5466 H   0  0  0  0  0  0  0  0  0  0  0  0
   -1.9850    3.6926    2.6620 H   0  0  0  0  0  0  0  0  0  0  0  0
   -2.6246    3.5776    1.0180 H   0  0  0  0  0  0  0  0  0  0  0  0
   -3.7342    3.6765    2.3981 H   0  0  0  0  0  0  0  0  0  0  0  0
   -1.3352    1.1101    0.3372 N   0  0  0  0  0  0  0  0  0  0  0  0
   -0.1579    0.6093   -0.3265 C   0  0  2  0  0  0  0  0  0  0  0  0
    0.6539   -0.1565    0.7121 C   0  0  0  0  0  0  0  0  0  0  0  0
    0.5333   -1.3657    0.8969 O   0  0  0  0  0  0  0  0  0  0  0  0
    0.6849    1.7345   -0.9378 C   0  0  0  0  0  0  0  0  0  0  0  0
   -0.0114    2.4293   -2.0825 C   0  0  0  0  0  0  0  0  0  0  0  0
   -0.7230    3.6036   -1.9960 C   0  0  0  0  0  0  0  0  0  0  0  0
   -0.0520    1.9970   -3.4376 C   0  0  0  0  0  0  0  0  0  0  0  0
   -1.1957    3.9028   -3.2456 N   0  0  0  0  0  0  0  0  0  0  0  0
   -0.8011    2.9390   -4.1460 C   0  0  0  0  0  0  0  0  0  0  0  0
    0.4783    0.8913   -4.1317 C   0  0  0  0  0  0  0  0  0  0  0  0
   -1.0474    2.8302   -5.5192 C   0  0  0  0  0  0  0  0  0  0  0  0
    0.2400    0.7695   -5.5055 C   0  0  0  0  0  0  0  0  0  0  0  0
   -0.5113    1.7252   -6.1866 C   0  0  0  0  0  0  0  0  0  0  0  0
   -2.1183    1.4068   -0.2401 H   0  0  0  0  0  0  0  0  0  0  0  0
   -0.5065   -0.0895   -1.0960 H   0  0  0  0  0  0  0  0  0  0  0  0
    1.6533    1.3428   -1.2776 H   0  0  0  0  0  0  0  0  0  0  0  0
    0.9299    2.4871   -0.1767 H   0  0  0  0  0  0  0  0  0  0  0  0
   -0.9372    4.2527   -1.1581 H   0  0  0  0  0  0  0  0  0  0  0  0
   -1.7535    4.7139   -3.4748 H   0  0  0  0  0  0  0  0  0  0  0  0
    1.0652    0.1373   -3.6149 H   0  0  0  0  0  0  0  0  0  0  0  0
   -1.6312    3.5742   -6.0504 H   0  0  0  0  0  0  0  0  0  0  0  0
    0.6460   -0.0814   -6.0460 H   0  0  0  0  0  0  0  0  0  0  0  0
   -0.6840    1.6107   -7.2536 H   0  0  0  0  0  0  0  0  0  0  0  0
    1.5612    0.6626    1.3696 N   0  0  0  0  0  0  0  0  0  0  0  0
    2.4703    0.1843    2.3863 C   0  0  2  0  0  0  0  0  0  0  0  0
    1.6631   -0.6156    3.4003 C   0  0  0  0  0  0  0  0  0  0  0  0
    0.4525   -0.4715    3.5577 O   0  0  0  0  0  0  0  0  0  0  0  0
    3.2020    1.3348    3.0599 C   0  0  0  0  0  0  0  0  0  0  0  0
    1.5876    1.6478    1.1239 H   0  0  0  0  0  0  0  0  0  0  0  0
    3.1858   -0.4767    1.8851 H   0  0  0  0  0  0  0  0  0  0  0  0
    2.5014    2.0078    3.5674 H   0  0  0  0  0  0  0  0  0  0  0  0
    3.9111    0.9691    3.8099 H   0  0  0  0  0  0  0  0  0  0  0  0
    3.7580    1.9266    2.3248 H   0  0  0  0  0  0  0  0  0  0  0  0
    2.4609   -1.4784    4.1386 N   0  0  0  0  0  0  0  0  0  0  0  0
    1.9319   -2.3367    5.1728 C   0  0  0  0  0  0  0  0  0  0  0  0
    3.4522   -1.5463    3.9274 H   0  0  0  0  0  0  0  0  0  0  0  0
    1.9984   -1.8251    6.1443 H   0  0  0  0  0  0  0  0  0  0  0  0
    0.8797   -2.5701    4.9527 H   0  0  0  0  0  0  0  0  0  0  0  0
    2.5145   -3.2690    5.2089 H   0  0  0  0  0  0  0  0  0  0  0  0
 29 30  2  0  0  0  0
 27 29  1  0  0  0  0
 28 30  1  0  0  0  0
 24 27  2  0  0  0  0
 26 28  2  0  0  0  0
 22 23  2  0  0  0  0
 23 25  1  0  0  0  0
 22 24  1  0  0  0  0
 24 26  1  0  0  0  0
 21 22  1  0  0  0  0
 25 26  1  0  0  0  0
  1  3  1  0  0  0  0
  1  7  1  0  0  0  0
  1  2  2  0  0  0  0
 42 43  1  0  0  0  0
 43 51  1  0  0  0  0
 43 44  2  0  0  0  0
  8  9  1  0  0  0  0
  9 17  1  0  0  0  0
  9 10  2  0  0  0  0
 18 19  1  0  0  0  0
 19 41  1  0  0  0  0
 19 20  2  0  0  0  0
 42 45  1  0  0  0  0
  8 11  1  0  0  0  0
 51 52  1  0  0  0  0
 18 21  1  0  0  0  0
 41 42  1  0  0  0  0
  7  8  1  0  0  0  0
 17 18  1  0  0  0  0
 29 39  1  0  0  0  0
 30 40  1  0  0  0  0
 27 37  1  0  0  0  0
 28 38  1  0  0  0  0
 23 35  1  0  0  0  0
  3  4  1  0  0  0  0
  3  5  1  0  0  0  0
  3  6  1  0  0  0  0
 45 48  1  0  0  0  0
 45 49  1  0  0  0  0
 45 50  1  0  0  0  0
 11 14  1  0  0  0  0
 11 15  1  0  0  0  0
 11 16  1  0  0  0  0
 52 54  1  0  0  0  0
 52 55  1  0  0  0  0
 52 56  1  0  0  0  0
 21 33  1  0  0  0  0
 21 34  1  0  0  0  0
 42 47  1  0  0  0  0
  8 13  1  0  0  0  0
 18 32  1  0  0  0  0
 25 36  1  0  0  0  0
 51 53  1  0  0  0  0
  7 12  1  0  0  0  0
 41 46  1  0  0  0  0
 17 31  1  0  0  0  0
M  END
$$$$

  -OEChem-05262214473D

 56 57  0     1  0  0  0  0  0999 V2000
   -2.2900    0.3401    4.1553 C   0  0  0  0  0  0  0  0  0  0  0  0
   -1.3426   -0.2746    3.6796 O   0  0  0  0  0  0  0  0  0  0  0  0
   -2.7219    0.0577    5.5560 C   0  0  0  0  0  0  0  0  0  0  0  0
   -3.4815   -0.7386    5.6094 H   0  0  0  0  0  0  0  0  0  0  0  0
   -1.8906   -0.2899    6.1903 H   0  0  0  0  0  0  0  0  0  0  0  0
   -3.1599    0.9126    6.0956 H   0  0  0  0  0  0  0  0  0  0  0  0
   -3.0397    1.3125    3.5142 N   0  0  0  0  0  0  0  0  0  0  0  0
   -2.7928    1.7385    2.1618 C   0  0  2  0  0  0  0  0  0  0  0  0
   -1.4579    1.1532    1.7206 C   0  0  0  0  0  0  0  0  0  0  0  0
   -0.5858    0.8004    2.5118 O   0  0  0  0  0  0  0  0  0  0  0  0
   -2.7841    3.2553    2.0523 C   0  0  0  0  0  0  0  0  0  0  0  0
   -3.8047    1.7484    4.0260 H   0  0  0  0  0  0  0  0  0  0  0  0
   -3.5969    1.3201    1.5466 H   0  0  0  0  0  0  0  0  0  0  0  0
   -1.9850    3.6926    2.6620 H   0  0  0  0  0  0  0  0  0  0  0  0
   -2.6246    3.5776    1.0180 H   0  0  0  0  0  0  0  0  0  0  0  0
   -3.7342    3.6765    2.3981 H   0  0  0  0  0  0  0  0  0  0  0  0
   -1.3352    1.1101    0.3372 N   0  0  0  0  0  0  0  0  0  0  0  0
   -0.1579    0.6093   -0.3265 C   0  0  2  0  0  0  0  0  0  0  0  0
    0.6539   -0.1565    0.7121 C   0  0  0  0  0  0  0  0  0  0  0  0
    0.7388   -1.3827    0.7238 O   0  0  0  0  0  0  0  0  0  0  0  0
    0.6849    1.7345   -0.9378 C   0  0  0  0  0  0  0  0  0  0  0  0
   -0.0114    2.4293   -2.0825 C   0  0  0  0  0  0  0  0  0  0  0  0
   -0.7230    3.6036   -1.9960 C   0  0  0  0  0  0  0  0  0  0  0  0
   -0.0520    1.9970   -3.4376 C   0  0  0  0  0  0  0  0  0  0  0  0
   -1.1957    3.9028   -3.2456 N   0  0  0  0  0  0  0  0  0  0  0  0
   -0.8011    2.9390   -4.1460 C   0  0  0  0  0  0  0  0  0  0  0  0
    0.4783    0.8913   -4.1317 C   0  0  0  0  0  0  0  0  0  0  0  0
   -1.0474    2.8302   -5.5192 C   0  0  0  0  0  0  0  0  0  0  0  0
    0.2400    0.7695   -5.5055 C   0  0  0  0  0  0  0  0  0  0  0  0
   -0.5113    1.7252   -6.1866 C   0  0  0  0  0  0  0  0  0  0  0  0
   -2.1183    1.4068   -0.2401 H   0  0  0  0  0  0  0  0  0  0  0  0
   -0.5065   -0.0895   -1.0960 H   0  0  0  0  0  0  0  0  0  0  0  0
    1.6533    1.3428   -1.2776 H   0  0  0  0  0  0  0  0  0  0  0  0
    0.9299    2.4871   -0.1767 H   0  0  0  0  0  0  0  0  0  0  0  0
   -0.9372    4.2527   -1.1581 H   0  0  0  0  0  0  0  0  0  0  0  0
   -1.7535    4.7139   -3.4748 H   0  0  0  0  0  0  0  0  0  0  0  0
    1.0652    0.1373   -3.6149 H   0  0  0  0  0  0  0  0  0  0  0  0
   -1.6312    3.5742   -6.0504 H   0  0  0  0  0  0  0  0  0  0  0  0
    0.6460   -0.0814   -6.0460 H   0  0  0  0  0  0  0  0  0  0  0  0
   -0.6840    1.6107   -7.2536 H   0  0  0  0  0  0  0  0  0  0  0  0
    1.3098    0.6952    1.5901 N   0  0  0  0  0  0  0  0  0  0  0  0
    2.1658    0.2291    2.6573 C   0  0  2  0  0  0  0  0  0  0  0  0
    1.4073   -0.8370    3.4370 C   0  0  0  0  0  0  0  0  0  0  0  0
    0.1810   -0.9225    3.4374 O   0  0  0  0  0  0  0  0  0  0  0  0
    2.5870    1.3719    3.5679 C   0  0  0  0  0  0  0  0  0  0  0  0
    1.1817    1.6964    1.4770 H   0  0  0  0  0  0  0  0  0  0  0  0
    3.0453   -0.2205    2.1838 H   0  0  0  0  0  0  0  0  0  0  0  0
    1.7190    1.8348    4.0513 H   0  0  0  0  0  0  0  0  0  0  0  0
    3.2584    1.0220    4.3590 H   0  0  0  0  0  0  0  0  0  0  0  0
    3.1062    2.1515    3.0001 H   0  0  0  0  0  0  0  0  0  0  0  0
    2.2588   -1.6548    4.1666 N   0  0  0  0  0  0  0  0  0  0  0  0
    1.7802   -2.7342    4.9982 C   0  0  0  0  0  0  0  0  0  0  0  0
    3.2633   -1.5236    4.0918 H   0  0  0  0  0  0  0  0  0  0  0  0
    1.6359   -2.3698    6.0260 H   0  0  0  0  0  0  0  0  0  0  0  0
    0.8229   -3.1047    4.6029 H   0  0  0  0  0  0  0  0  0  0  0  0
    2.5172   -3.5508    4.9990 H   0  0  0  0  0  0  0  0  0  0  0  0
 29 30  2  0  0  0  0
 27 29  1  0  0  0  0
 28 30  1  0  0  0  0
 24 27  2  0  0  0  0
 26 28  2  0  0  0  0
 22 23  2  0  0  0  0
 23 25  1  0  0  0  0
 22 24  1  0  0  0  0
 24 26  1  0  0  0  0
 21 22  1  0  0  0  0
 25 26  1  0  0  0  0
  1  3  1  0  0  0  0
  1  7  1  0  0  0  0
  1  2  2  0  0  0  0
 42 43  1  0  0  0  0
 43 51  1  0  0  0  0
 43 44  2  0  0  0  0
  8  9  1  0  0  0  0
  9 17  1  0  0  0  0
  9 10  2  0  0  0  0
 18 19  1  0  0  0  0
 19 41  1  0  0  0  0
 19 20  2  0  0  0  0
 42 45  1  0  0  0  0
  8 11  1  0  0  0  0
 51 52  1  0  0  0  0
 18 21  1  0  0  0  0
 41 42  1  0  0  0  0
  7  8  1  0  0  0  0
 17 18  1  0  0  0  0
 29 39  1  0  0  0  0
 30 40  1  0  0  0  0
 27 37  1  0  0  0  0
 28 38  1  0  0  0  0
 23 35  1  0  0  0  0
  3  4  1  0  0  0  0
  3  5  1  0  0  0  0
  3  6  1  0  0  0  0
 45 48  1  0  0  0  0
 45 49  1  0  0  0  0
 45 50  1  0  0  0  0
 11 14  1  0  0  0  0
 11 15  1  0  0  0  0
 11 16  1  0  0  0  0
 52 54  1  0  0  0  0
 52 55  1  0  0  0  0
 52 56  1  0  0  0  0
 21 33  1  0  0  0  0
 21 34  1  0  0  0  0
 42 47  1  0  0  0  0
  8 13  1  0  0  0  0
 18 32  1  0  0  0  0
 25 36  1  0  0  0  0
 51 53  1  0  0  0  0
  7 12  1  0  0  0  0
 41 46  1  0  0  0  0
 17 31  1  0  0  0  0
M  END
$$$$

  -OEChem-05262214473D

 56 57  0     1  0  0  0  0  0999 V2000
   -2.2900    0.3401    4.1553 C   0  0  0  0  0  0  0  0  0  0  0  0
   -1.3426   -0.2746    3.6796 O   0  0  0  0  0  0  0  0  0  0  0  0
   -2.7219    0.0577    5.5560 C   0  0  0  0  0  0  0  0  0  0  0  0
   -3.4815   -0.7386    5.6094 H   0  0  0  0  0  0  0  0  0  0  0  0
   -1.8906   -0.2899    6.1903 H   0  0  0  0  0  0  0  0  0  0  0  0
   -3.1599    0.9126    6.0956 H   0  0  0  0  0  0  0  0  0  0  0  0
   -3.0397    1.3125    3.5142 N   0  0  0  0  0  0  0  0  0  0  0  0
   -2.7928    1.7385    2.1618 C   0  0  2  0  0  0  0  0  0  0  0  0
   -1.4579    1.1532    1.7206 C   0  0  0  0  0  0  0  0  0  0  0  0
   -0.5858    0.8004    2.5118 O   0  0  0  0  0  0  0  0  0  0  0  0
   -2.7841    3.2553    2.0523 C   0  0  0  0  0  0  0  0  0  0  0  0
   -3.8047    1.7484    4.0260 H   0  0  0  0  0  0  0  0  0  0  0  0
   -3.5969    1.3201    1.5466 H   0  0  0  0  0  0  0  0  0  0  0  0
   -1.9850    3.6926    2.6620 H   0  0  0  0  0  0  0  0  0  0  0  0
   -2.6246    3.5776    1.0180 H   0  0  0  0  0  0  0  0  0  0  0  0
   -3.7342    3.6765    2.3981 H   0  0  0  0  0  0  0  0  0  0  0  0
   -1.3352    1.1101    0.3372 N   0  0  0  0  0  0  0  0  0  0  0  0
   -0.1579    0.6093   -0.3265 C   0  0  2  0  0  0  0  0  0  0  0  0
    0.6539   -0.1565    0.7121 C   0  0  0  0  0  0  0  0  0  0  0  0
    0.9627   -1.3391    0.5810 O   0  0  0  0  0  0  0  0  0  0  0  0
    0.6849    1.7345   -0.9378 C   0  0  0  0  0  0  0  0  0  0  0  0
   -0.0114    2.4293   -2.0825 C   0  0  0  0  0  0  0  0  0  0  0  0
   -0.7230    3.6036   -1.9960 C   0  0  0  0  0  0  0  0  0  0  0  0
   -0.0520    1.9970   -3.4376 C   0  0  0  0  0  0  0  0  0  0  0  0
   -1.1957    3.9028   -3.2456 N   0  0  0  0  0  0  0  0  0  0  0  0
   -0.8011    2.9390   -4.1460 C   0  0  0  0  0  0  0  0  0  0  0  0
    0.4783    0.8913   -4.1317 C   0  0  0  0  0  0  0  0  0  0  0  0
   -1.0474    2.8302   -5.5192 C   0  0  0  0  0  0  0  0  0  0  0  0
    0.2400    0.7695   -5.5055 C   0  0  0  0  0  0  0  0  0  0  0  0
   -0.5113    1.7252   -6.1866 C   0  0  0  0  0  0  0  0  0  0  0  0
   -2.1183    1.4068   -0.2401 H   0  0  0  0  0  0  0  0  0  0  0  0
   -0.5065   -0.0895   -1.0960 H   0  0  0  0  0  0  0  0  0  0  0  0
    1.6533    1.3428   -1.2776 H   0  0  0  0  0  0  0  0  0  0  0  0
    0.9299    2.4871   -0.1767 H   0  0  0  0  0  0  0  0  0  0  0  0
   -0.9372    4.2527   -1.1581 H   0  0  0  0  0  0  0  0  0  0  0  0
   -1.7535    4.7139   -3.4748 H   0  0  0  0  0  0  0  0  0  0  0  0
    1.0652    0.1373   -3.6149 H   0  0  0  0  0  0  0  0  0  0  0  0
   -1.6312    3.5742   -6.0504 H   0  0  0  0  0  0  0  0  0  0  0  0
    0.6460   -0.0814   -6.0460 H   0  0  0  0  0  0  0  0  0  0  0  0
   -0.6840    1.6107   -7.2536 H   0  0  0  0  0  0  0  0  0  0  0  0
    1.0325    0.6519    1.7749 N   0  0  0  0  0  0  0  0  0  0  0  0
    1.8285    0.1812    2.8857 C   0  0  2  0  0  0  0  0  0  0  0  0
    1.1945   -1.1010    3.4086 C   0  0  0  0  0  0  0  0  0  0  0  0
    0.0140   -1.3895    3.2236 O   0  0  0  0  0  0  0  0  0  0  0  0
    1.9204    1.2293    3.9838 C   0  0  0  0  0  0  0  0  0  0  0  0
    0.7353    1.6231    1.7719 H   0  0  0  0  0  0  0  0  0  0  0  0
    2.8257   -0.0390    2.4893 H   0  0  0  0  0  0  0  0  0  0  0  0
    0.9309    1.4629    4.3932 H   0  0  0  0  0  0  0  0  0  0  0  0
    2.5472    0.8823    4.8119 H   0  0  0  0  0  0  0  0  0  0  0  0
    2.3492    2.1607    3.5987 H   0  0  0  0  0  0  0  0  0  0  0  0
    2.0910   -1.8646    4.1430 N   0  0  0  0  0  0  0  0  0  0  0  0
    1.7264   -3.1210    4.7551 C   0  0  0  0  0  0  0  0  0  0  0  0
    3.0554   -1.5577    4.2291 H   0  0  0  0  0  0  0  0  0  0  0  0
    1.3971   -2.9435    5.7895 H   0  0  0  0  0  0  0  0  0  0  0  0
    0.9077   -3.5830    4.1839 H   0  0  0  0  0  0  0  0  0  0  0  0
    2.5968   -3.7936    4.7578 H   0  0  0  0  0  0  0  0  0  0  0  0
 29 30  2  0  0  0  0
 27 29  1  0  0  0  0
 28 30  1  0  0  0  0
 24 27  2  0  0  0  0
 26 28  2  0  0  0  0
 22 23  2  0  0  0  0
 23 25  1  0  0  0  0
 22 24  1  0  0  0  0
 24 26  1  0  0  0  0
 21 22  1  0  0  0  0
 25 26  1  0  0  0  0
  1  3  1  0  0  0  0
  1  7  1  0  0  0  0
  1  2  2  0  0  0  0
 42 43  1  0  0  0  0
 43 51  1  0  0  0  0
 43 44  2  0  0  0  0
  8  9  1  0  0  0  0
  9 17  1  0  0  0  0
  9 10  2  0  0  0  0
 18 19  1  0  0  0  0
 19 41  1  0  0  0  0
 19 20  2  0  0  0  0
 42 45  1  0  0  0  0
  8 11  1  0  0  0  0
 51 52  1  0  0  0  0
 18 21  1  0  0  0  0
 41 42  1  0  0  0  0
  7  8  1  0  0  0  0
 17 18  1  0  0  0  0
 29 39  1  0  0  0  0
 30 40  1  0  0  0  0
 27 37  1  0  0  0  0
 28 38  1  0  0  0  0
 23 35  1  0  0  0  0
  3  4  1  0  0  0  0
  3  5  1  0  0  0  0
  3  6  1  0  0  0  0
 45 48  1  0  0  0  0
 45 49  1  0  0  0  0
 45 50  1  0  0  0  0
 11 14  1  0  0  0  0
 11 15  1  0  0  0  0
 11 16  1  0  0  0  0
 52 54  1  0  0  0  0
 52 55  1  0  0  0  0
 52 56  1  0  0  0  0
 21 33  1  0  0  0  0
 21 34  1  0  0  0  0
 42 47  1  0  0  0  0
  8 13  1  0  0  0  0
 18 32  1  0  0  0  0
 25 36  1  0  0  0  0
 51 53  1  0  0  0  0
  7 12  1  0  0  0  0
 41 46  1  0  0  0  0
 17 31  1  0  0  0  0
M  END
$$$$

  -OEChem-05262214473D

 56 57  0     1  0  0  0  0  0999 V2000
   -2.2900    0.3401    4.1553 C   0  0  0  0  0  0  0  0  0  0  0  0
   -1.3426   -0.2746    3.6796 O   0  0  0  0  0  0  0  0  0  0  0  0
   -2.7219    0.0577    5.5560 C   0  0  0  0  0  0  0  0  0  0  0  0
   -3.4815   -0.7386    5.6094 H   0  0  0  0  0  0  0  0  0  0  0  0
   -1.8906   -0.2899    6.1903 H   0  0  0  0  0  0  0  0  0  0  0  0
   -3.1599    0.9126    6.0956 H   0  0  0  0  0  0  0  0  0  0  0  0
   -3.0397    1.3125    3.5142 N   0  0  0  0  0  0  0  0  0  0  0  0
   -2.7928    1.7385    2.1618 C   0  0  2  0  0  0  0  0  0  0  0  0
   -1.4579    1.1532    1.7206 C   0  0  0  0  0  0  0  0  0  0  0  0
   -0.5858    0.8004    2.5118 O   0  0  0  0  0  0  0  0  0  0  0  0
   -2.7841    3.2553    2.0523 C   0  0  0  0  0  0  0  0  0  0  0  0
   -3.8047    1.7484    4.0260 H   0  0  0  0  0  0  0  0  0  0  0  0
   -3.5969    1.3201    1.5466 H   0  0  0  0  0  0  0  0  0  0  0  0
   -1.9850    3.6926    2.6620 H   0  0  0  0  0  0  0  0  0  0  0  0
   -2.6246    3.5776    1.0180 H   0  0  0  0  0  0  0  0  0  0  0  0
   -3.7342    3.6765    2.3981 H   0  0  0  0  0  0  0  0  0  0  0  0
   -1.3352    1.1101    0.3372 N   0  0  0  0  0  0  0  0  0  0  0  0
   -0.1579    0.6093   -0.3265 C   0  0  2  0  0  0  0  0  0  0  0  0
    0.6539   -0.1565    0.7121 C   0  0  0  0  0  0  0  0  0  0  0  0
    1.1899   -1.2377    0.4781 O   0  0  0  0  0  0  0  0  0  0  0  0
    0.6849    1.7345   -0.9378 C   0  0  0  0  0  0  0  0  0  0  0  0
   -0.0114    2.4293   -2.0825 C   0  0  0  0  0  0  0  0  0  0  0  0
   -0.7230    3.6036   -1.9960 C   0  0  0  0  0  0  0  0  0  0  0  0
   -0.0520    1.9970   -3.4376 C   0  0  0  0  0  0  0  0  0  0  0  0
   -1.1957    3.9028   -3.2456 N   0  0  0  0  0  0  0  0  0  0  0  0
   -0.8011    2.9390   -4.1460 C   0  0  0  0  0  0  0  0  0  0  0  0
    0.4783    0.8913   -4.1317 C   0  0  0  0  0  0  0  0  0  0  0  0
   -1.0474    2.8302   -5.5192 C   0  0  0  0  0  0  0  0  0  0  0  0
    0.2400    0.7695   -5.5055 C   0  0  0  0  0  0  0  0  0  0  0  0
   -0.5113    1.7252   -6.1866 C   0  0  0  0  0  0  0  0  0  0  0  0
   -2.1183    1.4068   -0.2401 H   0  0  0  0  0  0  0  0  0  0  0  0
   -0.5065   -0.0895   -1.0960 H   0  0  0  0  0  0  0  0  0  0  0  0
    1.6533    1.3428   -1.2776 H   0  0  0  0  0  0  0  0  0  0  0  0
    0.9299    2.4871   -0.1767 H   0  0  0  0  0  0  0  0  0  0  0  0
   -0.9372    4.2527   -1.1581 H   0  0  0  0  0  0  0  0  0  0  0  0
   -1.7535    4.7139   -3.4748 H   0  0  0  0  0  0  0  0  0  0  0  0
    1.0652    0.1373   -3.6149 H   0  0  0  0  0  0  0  0  0  0  0  0
   -1.6312    3.5742   -6.0504 H   0  0  0  0  0  0  0  0  0  0  0  0
    0.6460   -0.0814   -6.0460 H   0  0  0  0  0  0  0  0  0  0  0  0
   -0.6840    1.6107   -7.2536 H   0  0  0  0  0  0  0  0  0  0  0  0
    0.7484    0.5357    1.9114 N   0  0  0  0  0  0  0  0  0  0  0  0
    1.4815    0.0441    3.0558 C   0  0  2  0  0  0  0  0  0  0  0  0
    1.0392   -1.3896    3.3172 C   0  0  0  0  0  0  0  0  0  0  0  0
   -0.0372   -1.8405    2.9311 O   0  0  0  0  0  0  0  0  0  0  0  0
    1.2476    0.9167    4.2792 C   0  0  0  0  0  0  0  0  0  0  0  0
    0.2786    1.4330    1.9887 H   0  0  0  0  0  0  0  0  0  0  0  0
    2.5418    0.0555    2.7809 H   0  0  0  0  0  0  0  0  0  0  0  0
    0.1907    0.9177    4.5697 H   0  0  0  0  0  0  0  0  0  0  0  0
    1.8260    0.5595    5.1377 H   0  0  0  0  0  0  0  0  0  0  0  0
    1.5385    1.9537    4.0797 H   0  0  0  0  0  0  0  0  0  0  0  0
    1.9690   -2.0937    4.0694 N   0  0  0  0  0  0  0  0  0  0  0  0
    1.7743   -3.4705    4.4599 C   0  0  0  0  0  0  0  0  0  0  0  0
    2.8429   -1.6462    4.3300 H   0  0  0  0  0  0  0  0  0  0  0  0
    1.2984   -3.5072    5.4510 H   0  0  0  0  0  0  0  0  0  0  0  0
    1.1284   -3.9723    3.7244 H   0  0  0  0  0  0  0  0  0  0  0  0
    2.7478   -3.9809    4.5016 H   0  0  0  0  0  0  0  0  0  0  0  0
 29 30  2  0  0  0  0
 27 29  1  0  0  0  0
 28 30  1  0  0  0  0
 24 27  2  0  0  0  0
 26 28  2  0  0  0  0
 22 23  2  0  0  0  0
 23 25  1  0  0  0  0
 22 24  1  0  0  0  0
 24 26  1  0  0  0  0
 21 22  1  0  0  0  0
 25 26  1  0  0  0  0
  1  3  1  0  0  0  0
  1  7  1  0  0  0  0
  1  2  2  0  0  0  0
 42 43  1  0  0  0  0
 43 51  1  0  0  0  0
 43 44  2  0  0  0  0
  8  9  1  0  0  0  0
  9 17  1  0  0  0  0
  9 10  2  0  0  0  0
 18 19  1  0  0  0  0
 19 41  1  0  0  0  0
 19 20  2  0  0  0  0
 42 45  1  0  0  0  0
  8 11  1  0  0  0  0
 51 52  1  0  0  0  0
 18 21  1  0  0  0  0
 41 42  1  0  0  0  0
  7  8  1  0  0  0  0
 17 18  1  0  0  0  0
 29 39  1  0  0  0  0
 30 40  1  0  0  0  0
 27 37  1  0  0  0  0
 28 38  1  0  0  0  0
 23 35  1  0  0  0  0
  3  4  1  0  0  0  0
  3  5  1  0  0  0  0
  3  6  1  0  0  0  0
 45 48  1  0  0  0  0
 45 49  1  0  0  0  0
 45 50  1  0  0  0  0
 11 14  1  0  0  0  0
 11 15  1  0  0  0  0
 11 16  1  0  0  0  0
 52 54  1  0  0  0  0
 52 55  1  0  0  0  0
 52 56  1  0  0  0  0
 21 33  1  0  0  0  0
 21 34  1  0  0  0  0
 42 47  1  0  0  0  0
  8 13  1  0  0  0  0
 18 32  1  0  0  0  0
 25 36  1  0  0  0  0
 51 53  1  0  0  0  0
  7 12  1  0  0  0  0
 41 46  1  0  0  0  0
 17 31  1  0  0  0  0
M  END
$$$$

  -OEChem-05262214473D

 56 57  0     1  0  0  0  0  0999 V2000
   -2.2900    0.3401    4.1553 C   0  0  0  0  0  0  0  0  0  0  0  0
   -1.3426   -0.2746    3.6796 O   0  0  0  0  0  0  0  0  0  0  0  0
   -2.7219    0.0577    5.5560 C   0  0  0  0  0  0  0  0  0  0  0  0
   -3.4815   -0.7386    5.6094 H   0  0  0  0  0  0  0  0  0  0  0  0
   -1.8906   -0.2899    6.1903 H   0  0  0  0  0  0  0  0  0  0  0  0
   -3.1599    0.9126    6.0956 H   0  0  0  0  0  0  0  0  0  0  0  0
   -3.0397    1.3125    3.5142 N   0  0  0  0  0  0  0  0  0  0  0  0
   -2.7928    1.7385    2.1618 C   0  0  2  0  0  0  0  0  0  0  0  0
   -1.4579    1.1532    1.7206 C   0  0  0  0  0  0  0  0  0  0  0  0
   -0.5858    0.8004    2.5118 O   0  0  0  0  0  0  0  0  0  0  0  0
   -2.7841    3.2553    2.0523 C   0  0  0  0  0  0  0  0  0  0  0  0
   -3.8047    1.7484    4.0260 H   0  0  0  0  0  0  0  0  0  0  0  0
   -3.5969    1.3201    1.5466 H   0  0  0  0  0  0  0  0  0  0  0  0
   -1.9850    3.6926    2.6620 H   0  0  0  0  0  0  0  0  0  0  0  0
   -2.6246    3.5776    1.0180 H   0  0  0  0  0  0  0  0  0  0  0  0
   -3.7342    3.6765    2.3981 H   0  0  0  0  0  0  0  0  0  0  0  0
   -1.3352    1.1101    0.3372 N   0  0  0  0  0  0  0  0  0  0  0  0
   -0.1579    0.6093   -0.3265 C   0  0  2  0  0  0  0  0  0  0  0  0
    0.6539   -0.1565    0.7121 C   0  0  0  0  0  0  0  0  0  0  0  0
    1.4048   -1.0856    0.4223 O   0  0  0  0  0  0  0  0  0  0  0  0
    0.6849    1.7345   -0.9378 C   0  0  0  0  0  0  0  0  0  0  0  0
   -0.0114    2.4293   -2.0825 C   0  0  0  0  0  0  0  0  0  0  0  0
   -0.7230    3.6036   -1.9960 C   0  0  0  0  0  0  0  0  0  0  0  0
   -0.0520    1.9970   -3.4376 C   0  0  0  0  0  0  0  0  0  0  0  0
   -1.1957    3.9028   -3.2456 N   0  0  0  0  0  0  0  0  0  0  0  0
   -0.8011    2.9390   -4.1460 C   0  0  0  0  0  0  0  0  0  0  0  0
    0.4783    0.8913   -4.1317 C   0  0  0  0  0  0  0  0  0  0  0  0
   -1.0474    2.8302   -5.5192 C   0  0  0  0  0  0  0  0  0  0  0  0
    0.2400    0.7695   -5.5055 C   0  0  0  0  0  0  0  0  0  0  0  0
   -0.5113    1.7252   -6.1866 C   0  0  0  0  0  0  0  0  0  0  0  0
   -2.1183    1.4068   -0.2401 H   0  0  0  0  0  0  0  0  0  0  0  0
   -0.5065   -0.0895   -1.0960 H   0  0  0  0  0  0  0  0  0  0  0  0
    1.6533    1.3428   -1.2776 H   0  0  0  0  0  0  0  0  0  0  0  0
    0.9299    2.4871   -0.1767 H   0  0  0  0  0  0  0  0  0  0  0  0
   -0.9372    4.2527   -1.1581 H   0  0  0  0  0  0  0  0  0  0  0  0
   -1.7535    4.7139   -3.4748 H   0  0  0  0  0  0  0  0  0  0  0  0
    1.0652    0.1373   -3.6149 H   0  0  0  0  0  0  0  0  0  0  0  0
   -1.6312    3.5742   -6.0504 H   0  0  0  0  0  0  0  0  0  0  0  0
    0.6460   -0.0814   -6.0460 H   0  0  0  0  0  0  0  0  0  0  0  0
   -0.6840    1.6107   -7.2536 H   0  0  0  0  0  0  0  0  0  0  0  0
    0.4766    0.3546    1.9903 N   0  0  0  0  0  0  0  0  0  0  0  0
    1.1483   -0.1730    3.1562 C   0  0  2  0  0  0  0  0  0  0  0  0
    0.9519   -1.6832    3.1689 C   0  0  0  0  0  0  0  0  0  0  0  0
    0.0308   -2.2449    2.5797 O   0  0  0  0  0  0  0  0  0  0  0  0
    0.6144    0.4554    4.4340 C   0  0  0  0  0  0  0  0  0  0  0  0
   -0.1572    1.1389    2.1125 H   0  0  0  0  0  0  0  0  0  0  0  0
    2.2130    0.0565    3.0386 H   0  0  0  0  0  0  0  0  0  0  0  0
   -0.4511    0.2363    4.5689 H   0  0  0  0  0  0  0  0  0  0  0  0
    1.1439    0.0757    5.3141 H   0  0  0  0  0  0  0  0  0  0  0  0
    0.7294    1.5444    4.4103 H   0  0  0  0  0  0  0  0  0  0  0  0
    1.9011   -2.3263    3.9510 N   0  0  0  0  0  0  0  0  0  0  0  0
    1.9205   -3.7590    4.1329 C   0  0  0  0  0  0  0  0  0  0  0  0
    2.6400   -1.7831    4.3877 H   0  0  0  0  0  0  0  0  0  0  0  0
    1.3465   -4.0225    5.0335 H   0  0  0  0  0  0  0  0  0  0  0  0
    1.4700   -4.2460    3.2555 H   0  0  0  0  0  0  0  0  0  0  0  0
    2.9600   -4.0998    4.2481 H   0  0  0  0  0  0  0  0  0  0  0  0
 29 30  2  0  0  0  0
 27 29  1  0  0  0  0
 28 30  1  0  0  0  0
 24 27  2  0  0  0  0
 26 28  2  0  0  0  0
 22 23  2  0  0  0  0
 23 25  1  0  0  0  0
 22 24  1  0  0  0  0
 24 26  1  0  0  0  0
 21 22  1  0  0  0  0
 25 26  1  0  0  0  0
  1  3  1  0  0  0  0
  1  7  1  0  0  0  0
  1  2  2  0  0  0  0
 42 43  1  0  0  0  0
 43 51  1  0  0  0  0
 43 44  2  0  0  0  0
  8  9  1  0  0  0  0
  9 17  1  0  0  0  0
  9 10  2  0  0  0  0
 18 19  1  0  0  0  0
 19 41  1  0  0  0  0
 19 20  2  0  0  0  0
 42 45  1  0  0  0  0
  8 11  1  0  0  0  0
 51 52  1  0  0  0  0
 18 21  1  0  0  0  0
 41 42  1  0  0  0  0
  7  8  1  0  0  0  0
 17 18  1  0  0  0  0
 29 39  1  0  0  0  0
 30 40  1  0  0  0  0
 27 37  1  0  0  0  0
 28 38  1  0  0  0  0
 23 35  1  0  0  0  0
  3  4  1  0  0  0  0
  3  5  1  0  0  0  0
  3  6  1  0  0  0  0
 45 48  1  0  0  0  0
 45 49  1  0  0  0  0
 45 50  1  0  0  0  0
 11 14  1  0  0  0  0
 11 15  1  0  0  0  0
 11 16  1  0  0  0  0
 52 54  1  0  0  0  0
 52 55  1  0  0  0  0
 52 56  1  0  0  0  0
 21 33  1  0  0  0  0
 21 34  1  0  0  0  0
 42 47  1  0  0  0  0
  8 13  1  0  0  0  0
 18 32  1  0  0  0  0
 25 36  1  0  0  0  0
 51 53  1  0  0  0  0
  7 12  1  0  0  0  0
 41 46  1  0  0  0  0
 17 31  1  0  0  0  0
M  END
$$$$

  -OEChem-05262214473D

 56 57  0     1  0  0  0  0  0999 V2000
   -2.2900    0.3401    4.1553 C   0  0  0  0  0  0  0  0  0  0  0  0
   -1.3426   -0.2746    3.6796 O   0  0  0  0  0  0  0  0  0  0  0  0
   -2.7219    0.0577    5.5560 C   0  0  0  0  0  0  0  0  0  0  0  0
   -3.4815   -0.7386    5.6094 H   0  0  0  0  0  0  0  0  0  0  0  0
   -1.8906   -0.2899    6.1903 H   0  0  0  0  0  0  0  0  0  0  0  0
   -3.1599    0.9126    6.0956 H   0  0  0  0  0  0  0  0  0  0  0  0
   -3.0397    1.3125    3.5142 N   0  0  0  0  0  0  0  0  0  0  0  0
   -2.7928    1.7385    2.1618 C   0  0  2  0  0  0  0  0  0  0  0  0
   -1.4579    1.1532    1.7206 C   0  0  0  0  0  0  0  0  0  0  0  0
   -0.5858    0.8004    2.5118 O   0  0  0  0  0  0  0  0  0  0  0  0
   -2.7841    3.2553    2.0523 C   0  0  0  0  0  0  0  0  0  0  0  0
   -3.8047    1.7484    4.0260 H   0  0  0  0  0  0  0  0  0  0  0  0
   -3.5969    1.3201    1.5466 H   0  0  0  0  0  0  0  0  0  0  0  0
   -1.9850    3.6926    2.6620 H   0  0  0  0  0  0  0  0  0  0  0  0
   -2.6246    3.5776    1.0180 H   0  0  0  0  0  0  0  0  0  0  0  0
   -3.7342    3.6765    2.3981 H   0  0  0  0  0  0  0  0  0  0  0  0
   -1.3352    1.1101    0.3372 N   0  0  0  0  0  0  0  0  0  0  0  0
   -0.1579    0.6093   -0.3265 C   0  0  2  0  0  0  0  0  0  0  0  0
    0.6539   -0.1565    0.7121 C   0  0  0  0  0  0  0  0  0  0  0  0
    1.5928   -0.8930    0.4173 O   0  0  0  0  0  0  0  0  0  0  0  0
    0.6849    1.7345   -0.9378 C   0  0  0  0  0  0  0  0  0  0  0  0
   -0.0114    2.4293   -2.0825 C   0  0  0  0  0  0  0  0  0  0  0  0
   -0.7230    3.6036   -1.9960 C   0  0  0  0  0  0  0  0  0  0  0  0
   -0.0520    1.9970   -3.4376 C   0  0  0  0  0  0  0  0  0  0  0  0
   -1.1957    3.9028   -3.2456 N   0  0  0  0  0  0  0  0  0  0  0  0
   -0.8011    2.9390   -4.1460 C   0  0  0  0  0  0  0  0  0  0  0  0
    0.4783    0.8913   -4.1317 C   0  0  0  0  0  0  0  0  0  0  0  0
   -1.0474    2.8302   -5.5192 C   0  0  0  0  0  0  0  0  0  0  0  0
    0.2400    0.7695   -5.5055 C   0  0  0  0  0  0  0  0  0  0  0  0
   -0.5113    1.7252   -6.1866 C   0  0  0  0  0  0  0  0  0  0  0  0
   -2.1183    1.4068   -0.2401 H   0  0  0  0  0  0  0  0  0  0  0  0
   -0.5065   -0.0895   -1.0960 H   0  0  0  0  0  0  0  0  0  0  0  0
    1.6533    1.3428   -1.2776 H   0  0  0  0  0  0  0  0  0  0  0  0
    0.9299    2.4871   -0.1767 H   0  0  0  0  0  0  0  0  0  0  0  0
   -0.9372    4.2527   -1.1581 H   0  0  0  0  0  0  0  0  0  0  0  0
   -1.7535    4.7139   -3.4748 H   0  0  0  0  0  0  0  0  0  0  0  0
    1.0652    0.1373   -3.6149 H   0  0  0  0  0  0  0  0  0  0  0  0
   -1.6312    3.5742   -6.0504 H   0  0  0  0  0  0  0  0  0  0  0  0
    0.6460   -0.0814   -6.0460 H   0  0  0  0  0  0  0  0  0  0  0  0
   -0.6840    1.6107   -7.2536 H   0  0  0  0  0  0  0  0  0  0  0  0
    0.2357    0.1208    2.0062 N   0  0  0  0  0  0  0  0  0  0  0  0
    0.8517   -0.4552    3.1798 C   0  0  2  0  0  0  0  0  0  0  0  0
    0.9387   -1.9617    2.9739 C   0  0  0  0  0  0  0  0  0  0  0  0
    0.2135   -2.5750    2.1935 O   0  0  0  0  0  0  0  0  0  0  0  0
    0.0640   -0.1232    4.4376 C   0  0  0  0  0  0  0  0  0  0  0  0
   -0.5424    0.7609    2.1348 H   0  0  0  0  0  0  0  0  0  0  0  0
    1.8617   -0.0360    3.2450 H   0  0  0  0  0  0  0  0  0  0  0  0
   -0.9507   -0.5350    4.3907 H   0  0  0  0  0  0  0  0  0  0  0  0
    0.5474   -0.5362    5.3291 H   0  0  0  0  0  0  0  0  0  0  0  0
   -0.0230    0.9609    4.5681 H   0  0  0  0  0  0  0  0  0  0  0  0
    1.8920   -2.5466    3.7957 N   0  0  0  0  0  0  0  0  0  0  0  0
    2.1551   -3.9668    3.7963 C   0  0  0  0  0  0  0  0  0  0  0  0
    2.4607   -1.9590    4.3981 H   0  0  0  0  0  0  0  0  0  0  0  0
    1.5380   -4.4542    4.5654 H   0  0  0  0  0  0  0  0  0  0  0  0
    1.9092   -4.3856    2.8093 H   0  0  0  0  0  0  0  0  0  0  0  0
    3.2189   -4.1423    4.0143 H   0  0  0  0  0  0  0  0  0  0  0  0
 29 30  2  0  0  0  0
 27 29  1  0  0  0  0
 28 30  1  0  0  0  0
 24 27  2  0  0  0  0
 26 28  2  0  0  0  0
 22 23  2  0  0  0  0
 23 25  1  0  0  0  0
 22 24  1  0  0  0  0
 24 26  1  0  0  0  0
 21 22  1  0  0  0  0
 25 26  1  0  0  0  0
  1  3  1  0  0  0  0
  1  7  1  0  0  0  0
  1  2  2  0  0  0  0
 42 43  1  0  0  0  0
 43 51  1  0  0  0  0
 43 44  2  0  0  0  0
  8  9  1  0  0  0  0
  9 17  1  0  0  0  0
  9 10  2  0  0  0  0
 18 19  1  0  0  0  0
 19 41  1  0  0  0  0
 19 20  2  0  0  0  0
 42 45  1  0  0  0  0
  8 11  1  0  0  0  0
 51 52  1  0  0  0  0
 18 21  1  0  0  0  0
 41 42  1  0  0  0  0
  7  8  1  0  0  0  0
 17 18  1  0  0  0  0
 29 39  1  0  0  0  0
 30 40  1  0  0  0  0
 27 37  1  0  0  0  0
 28 38  1  0  0  0  0
 23 35  1  0  0  0  0
  3  4  1  0  0  0  0
  3  5  1  0  0  0  0
  3  6  1  0  0  0  0
 45 48  1  0  0  0  0
 45 49  1  0  0  0  0
 45 50  1  0  0  0  0
 11 14  1  0  0  0  0
 11 15  1  0  0  0  0
 11 16  1  0  0  0  0
 52 54  1  0  0  0  0
 52 55  1  0  0  0  0
 52 56  1  0  0  0  0
 21 33  1  0  0  0  0
 21 34  1  0  0  0  0
 42 47  1  0  0  0  0
  8 13  1  0  0  0  0
 18 32  1  0  0  0  0
 25 36  1  0  0  0  0
 51 53  1  0  0  0  0
  7 12  1  0  0  0  0
 41 46  1  0  0  0  0
 17 31  1  0  0  0  0
M  END
$$$$

  -OEChem-05262214473D

 56 57  0     1  0  0  0  0  0999 V2000
   -2.2900    0.3401    4.1553 C   0  0  0  0  0  0  0  0  0  0  0  0
   -1.3426   -0.2746    3.6796 O   0  0  0  0  0  0  0  0  0  0  0  0
   -2.7219    0.0577    5.5560 C   0  0  0  0  0  0  0  0  0  0  0  0
   -3.4815   -0.7386    5.6094 H   0  0  0  0  0  0  0  0  0  0  0  0
   -1.8906   -0.2899    6.1903 H   0  0  0  0  0  0  0  0  0  0  0  0
   -3.1599    0.9126    6.0956 H   0  0  0  0  0  0  0  0  0  0  0  0
   -3.0397    1.3125    3.5142 N   0  0  0  0  0  0  0  0  0  0  0  0
   -2.7928    1.7385    2.1618 C   0  0  2  0  0  0  0  0  0  0  0  0
   -1.4579    1.1532    1.7206 C   0  0  0  0  0  0  0  0  0  0  0  0
   -0.5858    0.8004    2.5118 O   0  0  0  0  0  0  0  0  0  0  0  0
   -2.7841    3.2553    2.0523 C   0  0  0  0  0  0  0  0  0  0  0  0
   -3.8047    1.7484    4.0260 H   0  0  0  0  0  0  0  0  0  0  0  0
   -3.5969    1.3201    1.5466 H   0  0  0  0  0  0  0  0  0  0  0  0
   -1.9850    3.6926    2.6620 H   0  0  0  0  0  0  0  0  0  0  0  0
   -2.6246    3.5776    1.0180 H   0  0  0  0  0  0  0  0  0  0  0  0
   -3.7342    3.6765    2.3981 H   0  0  0  0  0  0  0  0  0  0  0  0
   -1.3352    1.1101    0.3372 N   0  0  0  0  0  0  0  0  0  0  0  0
   -0.1579    0.6093   -0.3265 C   0  0  2  0  0  0  0  0  0  0  0  0
    0.6539   -0.1565    0.7121 C   0  0  0  0  0  0  0  0  0  0  0  0
    1.7412   -0.6732    0.4634 O   0  0  0  0  0  0  0  0  0  0  0  0
    0.6849    1.7345   -0.9378 C   0  0  0  0  0  0  0  0  0  0  0  0
   -0.0114    2.4293   -2.0825 C   0  0  0  0  0  0  0  0  0  0  0  0
   -0.7230    3.6036   -1.9960 C   0  0  0  0  0  0  0  0  0  0  0  0
   -0.0520    1.9970   -3.4376 C   0  0  0  0  0  0  0  0  0  0  0  0
   -1.1957    3.9028   -3.2456 N   0  0  0  0  0  0  0  0  0  0  0  0
   -0.8011    2.9390   -4.1460 C   0  0  0  0  0  0  0  0  0  0  0  0
    0.4783    0.8913   -4.1317 C   0  0  0  0  0  0  0  0  0  0  0  0
   -1.0474    2.8302   -5.5192 C   0  0  0  0  0  0  0  0  0  0  0  0
    0.2400    0.7695   -5.5055 C   0  0  0  0  0  0  0  0  0  0  0  0
   -0.5113    1.7252   -6.1866 C   0  0  0  0  0  0  0  0  0  0  0  0
   -2.1183    1.4068   -0.2401 H   0  0  0  0  0  0  0  0  0  0  0  0
   -0.5065   -0.0895   -1.0960 H   0  0  0  0  0  0  0  0  0  0  0  0
    1.6533    1.3428   -1.2776 H   0  0  0  0  0  0  0  0  0  0  0  0
    0.9299    2.4871   -0.1767 H   0  0  0  0  0  0  0  0  0  0  0  0
   -0.9372    4.2527   -1.1581 H   0  0  0  0  0  0  0  0  0  0  0  0
   -1.7535    4.7139   -3.4748 H   0  0  0  0  0  0  0  0  0  0  0  0
    1.0652    0.1373   -3.6149 H   0  0  0  0  0  0  0  0  0  0  0  0
   -1.6312    3.5742   -6.0504 H   0  0  0  0  0  0  0  0  0  0  0  0
    0.6460   -0.0814   -6.0460 H   0  0  0  0  0  0  0  0  0  0  0  0
   -0.6840    1.6107   -7.2536 H   0  0  0  0  0  0  0  0  0  0  0  0
    0.0423   -0.1496    1.9580 N   0  0  0  0  0  0  0  0  0  0  0  0
    0.6120   -0.7834    3.1253 C   0  0  2  0  0  0  0  0  0  0  0  0
    1.0004   -2.2062    2.7454 C   0  0  0  0  0  0  0  0  0  0  0  0
    0.4985   -2.8085    1.7986 O   0  0  0  0  0  0  0  0  0  0  0  0
   -0.3661   -0.7796    4.2898 C   0  0  0  0  0  0  0  0  0  0  0  0
   -0.8507    0.3248    2.0543 H   0  0  0  0  0  0  0  0  0  0  0  0
    1.5119   -0.2158    3.3859 H   0  0  0  0  0  0  0  0  0  0  0  0
   -1.2741   -1.3436    4.0473 H   0  0  0  0  0  0  0  0  0  0  0  0
    0.0772   -1.2345    5.1817 H   0  0  0  0  0  0  0  0  0  0  0  0
   -0.6673    0.2428    4.5423 H   0  0  0  0  0  0  0  0  0  0  0  0
    1.9422   -2.7397    3.6141 N   0  0  0  0  0  0  0  0  0  0  0  0
    2.4622   -4.0797    3.4730 C   0  0  0  0  0  0  0  0  0  0  0  0
    2.3171   -2.1619    4.3606 H   0  0  0  0  0  0  0  0  0  0  0  0
    1.8600   -4.7729    4.0788 H   0  0  0  0  0  0  0  0  0  0  0  0
    2.4160   -4.3814    2.4162 H   0  0  0  0  0  0  0  0  0  0  0  0
    3.5069   -4.1055    3.8164 H   0  0  0  0  0  0  0  0  0  0  0  0
 29 30  2  0  0  0  0
 27 29  1  0  0  0  0
 28 30  1  0  0  0  0
 24 27  2  0  0  0  0
 26 28  2  0  0  0  0
 22 23  2  0  0  0  0
 23 25  1  0  0  0  0
 22 24  1  0  0  0  0
 24 26  1  0  0  0  0
 21 22  1  0  0  0  0
 25 26  1  0  0  0  0
  1  3  1  0  0  0  0
  1  7  1  0  0  0  0
  1  2  2  0  0  0  0
 42 43  1  0  0  0  0
 43 51  1  0  0  0  0
 43 44  2  0  0  0  0
  8  9  1  0  0  0  0
  9 17  1  0  0  0  0
  9 10  2  0  0  0  0
 18 19  1  0  0  0  0
 19 41  1  0  0  0  0
 19 20  2  0  0  0  0
 42 45  1  0  0  0  0
  8 11  1  0  0  0  0
 51 52  1  0  0  0  0
 18 21  1  0  0  0  0
 41 42  1  0  0  0  0
  7  8  1  0  0  0  0
 17 18  1  0  0  0  0
 29 39  1  0  0  0  0
 30 40  1  0  0  0  0
 27 37  1  0  0  0  0
 28 38  1  0  0  0  0
 23 35  1  0  0  0  0
  3  4  1  0  0  0  0
  3  5  1  0  0  0  0
  3  6  1  0  0  0  0
 45 48  1  0  0  0  0
 45 49  1  0  0  0  0
 45 50  1  0  0  0  0
 11 14  1  0  0  0  0
 11 15  1  0  0  0  0
 11 16  1  0  0  0  0
 52 54  1  0  0  0  0
 52 55  1  0  0  0  0
 52 56  1  0  0  0  0
 21 33  1  0  0  0  0
 21 34  1  0  0  0  0
 42 47  1  0  0  0  0
  8 13  1  0  0  0  0
 18 32  1  0  0  0  0
 25 36  1  0  0  0  0
 51 53  1  0  0  0  0
  7 12  1  0  0  0  0
 41 46  1  0  0  0  0
 17 31  1  0  0  0  0
M  END
$$$$

  -OEChem-05262214473D

 56 57  0     1  0  0  0  0  0999 V2000
   -2.2900    0.3401    4.1553 C   0  0  0  0  0  0  0  0  0  0  0  0
   -1.3426   -0.2746    3.6796 O   0  0  0  0  0  0  0  0  0  0  0  0
   -2.7219    0.0577    5.5560 C   0  0  0  0  0  0  0  0  0  0  0  0
   -3.4815   -0.7386    5.6094 H   0  0  0  0  0  0  0  0  0  0  0  0
   -1.8906   -0.2899    6.1903 H   0  0  0  0  0  0  0  0  0  0  0  0
   -3.1599    0.9126    6.0956 H   0  0  0  0  0  0  0  0  0  0  0  0
   -3.0397    1.3125    3.5142 N   0  0  0  0  0  0  0  0  0  0  0  0
   -2.7928    1.7385    2.1618 C   0  0  2  0  0  0  0  0  0  0  0  0
   -1.4579    1.1532    1.7206 C   0  0  0  0  0  0  0  0  0  0  0  0
   -0.5858    0.8004    2.5118 O   0  0  0  0  0  0  0  0  0  0  0  0
   -2.7841    3.2553    2.0523 C   0  0  0  0  0  0  0  0  0  0  0  0
   -3.8047    1.7484    4.0260 H   0  0  0  0  0  0  0  0  0  0  0  0
   -3.5969    1.3201    1.5466 H   0  0  0  0  0  0  0  0  0  0  0  0
   -1.9850    3.6926    2.6620 H   0  0  0  0  0  0  0  0  0  0  0  0
   -2.6246    3.5776    1.0180 H   0  0  0  0  0  0  0  0  0  0  0  0
   -3.7342    3.6765    2.3981 H   0  0  0  0  0  0  0  0  0  0  0  0
   -1.3352    1.1101    0.3372 N   0  0  0  0  0  0  0  0  0  0  0  0
   -0.1579    0.6093   -0.3265 C   0  0  2  0  0  0  0  0  0  0  0  0
    0.6539   -0.1565    0.7121 C   0  0  0  0  0  0  0  0  0  0  0  0
    1.8397   -0.4411    0.5576 O   0  0  0  0  0  0  0  0  0  0  0  0
    0.6849    1.7345   -0.9378 C   0  0  0  0  0  0  0  0  0  0  0  0
   -0.0114    2.4293   -2.0825 C   0  0  0  0  0  0  0  0  0  0  0  0
   -0.7230    3.6036   -1.9960 C   0  0  0  0  0  0  0  0  0  0  0  0
   -0.0520    1.9970   -3.4376 C   0  0  0  0  0  0  0  0  0  0  0  0
   -1.1957    3.9028   -3.2456 N   0  0  0  0  0  0  0  0  0  0  0  0
   -0.8011    2.9390   -4.1460 C   0  0  0  0  0  0  0  0  0  0  0  0
    0.4783    0.8913   -4.1317 C   0  0  0  0  0  0  0  0  0  0  0  0
   -1.0474    2.8302   -5.5192 C   0  0  0  0  0  0  0  0  0  0  0  0
    0.2400    0.7695   -5.5055 C   0  0  0  0  0  0  0  0  0  0  0  0
   -0.5113    1.7252   -6.1866 C   0  0  0  0  0  0  0  0  0  0  0  0
   -2.1183    1.4068   -0.2401 H   0  0  0  0  0  0  0  0  0  0  0  0
   -0.5065   -0.0895   -1.0960 H   0  0  0  0  0  0  0  0  0  0  0  0
    1.6533    1.3428   -1.2776 H   0  0  0  0  0  0  0  0  0  0  0  0
    0.9299    2.4871   -0.1767 H   0  0  0  0  0  0  0  0  0  0  0  0
   -0.9372    4.2527   -1.1581 H   0  0  0  0  0  0  0  0  0  0  0  0
   -1.7535    4.7139   -3.4748 H   0  0  0  0  0  0  0  0  0  0  0  0
    1.0652    0.1373   -3.6149 H   0  0  0  0  0  0  0  0  0  0  0  0
   -1.6312    3.5742   -6.0504 H   0  0  0  0  0  0  0  0  0  0  0  0
    0.6460   -0.0814   -6.0460 H   0  0  0  0  0  0  0  0  0  0  0  0
   -0.6840    1.6107   -7.2536 H   0  0  0  0  0  0  0  0  0  0  0  0
   -0.0907   -0.4383    1.8490 N   0  0  0  0  0  0  0  0  0  0  0  0
    0.4453   -1.1352    2.9961 C   0  0  2  0  0  0  0  0  0  0  0  0
    1.1328   -2.4000    2.4990 C   0  0  0  0  0  0  0  0  0  0  0  0
    0.8662   -2.9293    1.4220 O   0  0  0  0  0  0  0  0  0  0  0  0
   -0.6466   -1.4691    4.0006 C   0  0  0  0  0  0  0  0  0  0  0  0
   -1.0611   -0.1396    1.8763 H   0  0  0  0  0  0  0  0  0  0  0  0
    1.1873   -0.4705    3.4517 H   0  0  0  0  0  0  0  0  0  0  0  0
   -1.3993   -2.1343    3.5621 H   0  0  0  0  0  0  0  0  0  0  0  0
   -0.2347   -1.9716    4.8820 H   0  0  0  0  0  0  0  0  0  0  0  0
   -1.1598   -0.5608    4.3346 H   0  0  0  0  0  0  0  0  0  0  0  0
    2.0483   -2.8923    3.4186 N   0  0  0  0  0  0  0  0  0  0  0  0
    2.8207   -4.0901    3.1851 C   0  0  0  0  0  0  0  0  0  0  0  0
    2.2192   -2.3782    4.2778 H   0  0  0  0  0  0  0  0  0  0  0  0
    2.2905   -4.9569    3.6066 H   0  0  0  0  0  0  0  0  0  0  0  0
    2.9559   -4.2339    2.1029 H   0  0  0  0  0  0  0  0  0  0  0  0
    3.8043   -3.9919    3.6677 H   0  0  0  0  0  0  0  0  0  0  0  0
 29 30  2  0  0  0  0
 27 29  1  0  0  0  0
 28 30  1  0  0  0  0
 24 27  2  0  0  0  0
 26 28  2  0  0  0  0
 22 23  2  0  0  0  0
 23 25  1  0  0  0  0
 22 24  1  0  0  0  0
 24 26  1  0  0  0  0
 21 22  1  0  0  0  0
 25 26  1  0  0  0  0
  1  3  1  0  0  0  0
  1  7  1  0  0  0  0
  1  2  2  0  0  0  0
 42 43  1  0  0  0  0
 43 51  1  0  0  0  0
 43 44  2  0  0  0  0
  8  9  1  0  0  0  0
  9 17  1  0  0  0  0
  9 10  2  0  0  0  0
 18 19  1  0  0  0  0
 19 41  1  0  0  0  0
 19 20  2  0  0  0  0
 42 45  1  0  0  0  0
  8 11  1  0  0  0  0
 51 52  1  0  0  0  0
 18 21  1  0  0  0  0
 41 42  1  0  0  0  0
  7  8  1  0  0  0  0
 17 18  1  0  0  0  0
 29 39  1  0  0  0  0
 30 40  1  0  0  0  0
 27 37  1  0  0  0  0
 28 38  1  0  0  0  0
 23 35  1  0  0  0  0
  3  4  1  0  0  0  0
  3  5  1  0  0  0  0
  3  6  1  0  0  0  0
 45 48  1  0  0  0  0
 45 49  1  0  0  0  0
 45 50  1  0  0  0  0
 11 14  1  0  0  0  0
 11 15  1  0  0  0  0
 11 16  1  0  0  0  0
 52 54  1  0  0  0  0
 52 55  1  0  0  0  0
 52 56  1  0  0  0  0
 21 33  1  0  0  0  0
 21 34  1  0  0  0  0
 42 47  1  0  0  0  0
  8 13  1  0  0  0  0
 18 32  1  0  0  0  0
 25 36  1  0  0  0  0
 51 53  1  0  0  0  0
  7 12  1  0  0  0  0
 41 46  1  0  0  0  0
 17 31  1  0  0  0  0
M  END
$$$$

  -OEChem-05262214473D

 56 57  0     1  0  0  0  0  0999 V2000
   -2.2900    0.3401    4.1553 C   0  0  0  0  0  0  0  0  0  0  0  0
   -1.3426   -0.2746    3.6796 O   0  0  0  0  0  0  0  0  0  0  0  0
   -2.7219    0.0577    5.5560 C   0  0  0  0  0  0  0  0  0  0  0  0
   -3.4815   -0.7386    5.6094 H   0  0  0  0  0  0  0  0  0  0  0  0
   -1.8906   -0.2899    6.1903 H   0  0  0  0  0  0  0  0  0  0  0  0
   -3.1599    0.9126    6.0956 H   0  0  0  0  0  0  0  0  0  0  0  0
   -3.0397    1.3125    3.5142 N   0  0  0  0  0  0  0  0  0  0  0  0
   -2.7928    1.7385    2.1618 C   0  0  2  0  0  0  0  0  0  0  0  0
   -1.4579    1.1532    1.7206 C   0  0  0  0  0  0  0  0  0  0  0  0
   -0.5858    0.8004    2.5118 O   0  0  0  0  0  0  0  0  0  0  0  0
   -2.7841    3.2553    2.0523 C   0  0  0  0  0  0  0  0  0  0  0  0
   -3.8047    1.7484    4.0260 H   0  0  0  0  0  0  0  0  0  0  0  0
   -3.5969    1.3201    1.5466 H   0  0  0  0  0  0  0  0  0  0  0  0
   -1.9850    3.6926    2.6620 H   0  0  0  0  0  0  0  0  0  0  0  0
   -2.6246    3.5776    1.0180 H   0  0  0  0  0  0  0  0  0  0  0  0
   -3.7342    3.6765    2.3981 H   0  0  0  0  0  0  0  0  0  0  0  0
   -1.3352    1.1101    0.3372 N   0  0  0  0  0  0  0  0  0  0  0  0
   -0.1579    0.6093   -0.3265 C   0  0  2  0  0  0  0  0  0  0  0  0
    0.6539   -0.1565    0.7121 C   0  0  0  0  0  0  0  0  0  0  0  0
    1.8817   -0.2125    0.6933 O   0  0  0  0  0  0  0  0  0  0  0  0
    0.6849    1.7345   -0.9378 C   0  0  0  0  0  0  0  0  0  0  0  0
   -0.0114    2.4293   -2.0825 C   0  0  0  0  0  0  0  0  0  0  0  0
   -0.7230    3.6036   -1.9960 C   0  0  0  0  0  0  0  0  0  0  0  0
   -0.0520    1.9970   -3.4376 C   0  0  0  0  0  0  0  0  0  0  0  0
   -1.1957    3.9028   -3.2456 N   0  0  0  0  0  0  0  0  0  0  0  0
   -0.8011    2.9390   -4.1460 C   0  0  0  0  0  0  0  0  0  0  0  0
    0.4783    0.8913   -4.1317 C   0  0  0  0  0  0  0  0  0  0  0  0
   -1.0474    2.8302   -5.5192 C   0  0  0  0  0  0  0  0  0  0  0  0
    0.2400    0.7695   -5.5055 C   0  0  0  0  0  0  0  0  0  0  0  0
   -0.5113    1.7252   -6.1866 C   0  0  0  0  0  0  0  0  0  0  0  0
   -2.1183    1.4068   -0.2401 H   0  0  0  0  0  0  0  0  0  0  0  0
   -0.5065   -0.0895   -1.0960 H   0  0  0  0  0  0  0  0  0  0  0  0
    1.6533    1.3428   -1.2776 H   0  0  0  0  0  0  0  0  0  0  0  0
    0.9299    2.4871   -0.1767 H   0  0  0  0  0  0  0  0  0  0  0  0
   -0.9372    4.2527   -1.1581 H   0  0  0  0  0  0  0  0  0  0  0  0
   -1.7535    4.7139   -3.4748 H   0  0  0  0  0  0  0  0  0  0  0  0
    1.0652    0.1373   -3.6149 H   0  0  0  0  0  0  0  0  0  0  0  0
   -1.6312    3.5742   -6.0504 H   0  0  0  0  0  0  0  0  0  0  0  0
    0.6460   -0.0814   -6.0460 H   0  0  0  0  0  0  0  0  0  0  0  0
   -0.6840    1.6107   -7.2536 H   0  0  0  0  0  0  0  0  0  0  0  0
   -0.1540   -0.7256    1.6867 N   0  0  0  0  0  0  0  0  0  0  0  0
    0.3632   -1.4866    2.8012 C   0  0  2  0  0  0  0  0  0  0  0  0
    1.3269   -2.5299    2.2515 C   0  0  0  0  0  0  0  0  0  0  0  0
    1.2917   -2.9293    1.0895 O   0  0  0  0  0  0  0  0  0  0  0  0
   -0.7583   -2.1446    3.5898 C   0  0  0  0  0  0  0  0  0  0  0  0
   -1.1594   -0.6009    1.6130 H   0  0  0  0  0  0  0  0  0  0  0  0
    0.9102   -0.7828    3.4380 H   0  0  0  0  0  0  0  0  0  0  0  0
   -1.3178   -2.8532    2.9682 H   0  0  0  0  0  0  0  0  0  0  0  0
   -0.3670   -2.6973    4.4504 H   0  0  0  0  0  0  0  0  0  0  0  0
   -1.4667   -1.3953    3.9593 H   0  0  0  0  0  0  0  0  0  0  0  0
    2.2031   -2.9940    3.2226 N   0  0  0  0  0  0  0  0  0  0  0  0
    3.2063   -3.9973    2.9522 C   0  0  0  0  0  0  0  0  0  0  0  0
    2.1734   -2.5929    4.1553 H   0  0  0  0  0  0  0  0  0  0  0  0
    2.8002   -4.9936    3.1811 H   0  0  0  0  0  0  0  0  0  0  0  0
    3.4922   -3.9531    1.8909 H   0  0  0  0  0  0  0  0  0  0  0  0
    4.0909   -3.8093    3.5784 H   0  0  0  0  0  0  0  0  0  0  0  0
 29 30  2  0  0  0  0
 27 29  1  0  0  0  0
 28 30  1  0  0  0  0
 24 27  2  0  0  0  0
 26 28  2  0  0  0  0
 22 23  2  0  0  0  0
 23 25  1  0  0  0  0
 22 24  1  0  0  0  0
 24 26  1  0  0  0  0
 21 22  1  0  0  0  0
 25 26  1  0  0  0  0
  1  3  1  0  0  0  0
  1  7  1  0  0  0  0
  1  2  2  0  0  0  0
 42 43  1  0  0  0  0
 43 51  1  0  0  0  0
 43 44  2  0  0  0  0
  8  9  1  0  0  0  0
  9 17  1  0  0  0  0
  9 10  2  0  0  0  0
 18 19  1  0  0  0  0
 19 41  1  0  0  0  0
 19 20  2  0  0  0  0
 42 45  1  0  0  0  0
  8 11  1  0  0  0  0
 51 52  1  0  0  0  0
 18 21  1  0  0  0  0
 41 42  1  0  0  0  0
  7  8  1  0  0  0  0
 17 18  1  0  0  0  0
 29 39  1  0  0  0  0
 30 40  1  0  0  0  0
 27 37  1  0  0  0  0
 28 38  1  0  0  0  0
 23 35  1  0  0  0  0
  3  4  1  0  0  0  0
  3  5  1  0  0  0  0
  3  6  1  0  0  0  0
 45 48  1  0  0  0  0
 45 49  1  0  0  0  0
 45 50  1  0  0  0  0
 11 14  1  0  0  0  0
 11 15  1  0  0  0  0
 11 16  1  0  0  0  0
 52 54  1  0  0  0  0
 52 55  1  0  0  0  0
 52 56  1  0  0  0  0
 21 33  1  0  0  0  0
 21 34  1  0  0  0  0
 42 47  1  0  0  0  0
  8 13  1  0  0  0  0
 18 32  1  0  0  0  0
 25 36  1  0  0  0  0
 51 53  1  0  0  0  0
  7 12  1  0  0  0  0
 41 46  1  0  0  0  0
 17 31  1  0  0  0  0
M  END
$$$$

  -OEChem-05262214473D

 56 57  0     1  0  0  0  0  0999 V2000
   -2.2900    0.3401    4.1553 C   0  0  0  0  0  0  0  0  0  0  0  0
   -1.3426   -0.2746    3.6796 O   0  0  0  0  0  0  0  0  0  0  0  0
   -2.7219    0.0577    5.5560 C   0  0  0  0  0  0  0  0  0  0  0  0
   -3.4815   -0.7386    5.6094 H   0  0  0  0  0  0  0  0  0  0  0  0
   -1.8906   -0.2899    6.1903 H   0  0  0  0  0  0  0  0  0  0  0  0
   -3.1599    0.9126    6.0956 H   0  0  0  0  0  0  0  0  0  0  0  0
   -3.0397    1.3125    3.5142 N   0  0  0  0  0  0  0  0  0  0  0  0
   -2.7928    1.7385    2.1618 C   0  0  2  0  0  0  0  0  0  0  0  0
   -1.4579    1.1532    1.7206 C   0  0  0  0  0  0  0  0  0  0  0  0
   -0.5858    0.8004    2.5118 O   0  0  0  0  0  0  0  0  0  0  0  0
   -2.7841    3.2553    2.0523 C   0  0  0  0  0  0  0  0  0  0  0  0
   -3.8047    1.7484    4.0260 H   0  0  0  0  0  0  0  0  0  0  0  0
   -3.5969    1.3201    1.5466 H   0  0  0  0  0  0  0  0  0  0  0  0
   -1.9850    3.6926    2.6620 H   0  0  0  0  0  0  0  0  0  0  0  0
   -2.6246    3.5776    1.0180 H   0  0  0  0  0  0  0  0  0  0  0  0
   -3.7342    3.6765    2.3981 H   0  0  0  0  0  0  0  0  0  0  0  0
   -1.3352    1.1101    0.3372 N   0  0  0  0  0  0  0  0  0  0  0  0
   -0.1579    0.6093   -0.3265 C   0  0  2  0  0  0  0  0  0  0  0  0
    0.6539   -0.1565    0.7121 C   0  0  0  0  0  0  0  0  0  0  0  0
    1.8643   -0.0030    0.8614 O   0  0  0  0  0  0  0  0  0  0  0  0
    0.6849    1.7345   -0.9378 C   0  0  0  0  0  0  0  0  0  0  0  0
   -0.0114    2.4293   -2.0825 C   0  0  0  0  0  0  0  0  0  0  0  0
   -0.7230    3.6036   -1.9960 C   0  0  0  0  0  0  0  0  0  0  0  0
   -0.0520    1.9970   -3.4376 C   0  0  0  0  0  0  0  0  0  0  0  0
   -1.1957    3.9028   -3.2456 N   0  0  0  0  0  0  0  0  0  0  0  0
   -0.8011    2.9390   -4.1460 C   0  0  0  0  0  0  0  0  0  0  0  0
    0.4783    0.8913   -4.1317 C   0  0  0  0  0  0  0  0  0  0  0  0
   -1.0474    2.8302   -5.5192 C   0  0  0  0  0  0  0  0  0  0  0  0
    0.2400    0.7695   -5.5055 C   0  0  0  0  0  0  0  0  0  0  0  0
   -0.5113    1.7252   -6.1866 C   0  0  0  0  0  0  0  0  0  0  0  0
   -2.1183    1.4068   -0.2401 H   0  0  0  0  0  0  0  0  0  0  0  0
   -0.5065   -0.0895   -1.0960 H   0  0  0  0  0  0  0  0  0  0  0  0
    1.6533    1.3428   -1.2776 H   0  0  0  0  0  0  0  0  0  0  0  0
    0.9299    2.4871   -0.1767 H   0  0  0  0  0  0  0  0  0  0  0  0
   -0.9372    4.2527   -1.1581 H   0  0  0  0  0  0  0  0  0  0  0  0
   -1.7535    4.7139   -3.4748 H   0  0  0  0  0  0  0  0  0  0  0  0
    1.0652    0.1373   -3.6149 H   0  0  0  0  0  0  0  0  0  0  0  0
   -1.6312    3.5742   -6.0504 H   0  0  0  0  0  0  0  0  0  0  0  0
    0.6460   -0.0814   -6.0460 H   0  0  0  0  0  0  0  0  0  0  0  0
   -0.6840    1.6107   -7.2536 H   0  0  0  0  0  0  0  0  0  0  0  0
   -0.1434   -0.9918    1.4821 N   0  0  0  0  0  0  0  0  0  0  0  0
    0.3711   -1.8136    2.5539 C   0  0  2  0  0  0  0  0  0  0  0  0
    1.5695   -2.5870    2.0198 C   0  0  0  0  0  0  0  0  0  0  0  0
    1.7459   -2.8085    0.8236 O   0  0  0  0  0  0  0  0  0  0  0  0
   -0.6938   -2.7603    3.0854 C   0  0  0  0  0  0  0  0  0  0  0  0
   -1.1387   -1.0274    1.2823 H   0  0  0  0  0  0  0  0  0  0  0  0
    0.6994   -1.1315    3.3457 H   0  0  0  0  0  0  0  0  0  0  0  0
   -1.0350   -3.4515    2.3061 H   0  0  0  0  0  0  0  0  0  0  0  0
   -0.3108   -3.3620    3.9162 H   0  0  0  0  0  0  0  0  0  0  0  0
   -1.5673   -2.2037    3.4417 H   0  0  0  0  0  0  0  0  0  0  0  0
    2.3961   -3.0380    3.0393 N   0  0  0  0  0  0  0  0  0  0  0  0
    3.5926   -3.8075    2.7901 C   0  0  0  0  0  0  0  0  0  0  0  0
    2.1830   -2.7914    4.0014 H   0  0  0  0  0  0  0  0  0  0  0  0
    3.3542   -4.8806    2.8313 H   0  0  0  0  0  0  0  0  0  0  0  0
    3.9882   -3.5580    1.7945 H   0  0  0  0  0  0  0  0  0  0  0  0
    4.3471   -3.5700    3.5545 H   0  0  0  0  0  0  0  0  0  0  0  0
 29 30  2  0  0  0  0
 27 29  1  0  0  0  0
 28 30  1  0  0  0  0
 24 27  2  0  0  0  0
 26 28  2  0  0  0  0
 22 23  2  0  0  0  0
 23 25  1  0  0  0  0
 22 24  1  0  0  0  0
 24 26  1  0  0  0  0
 21 22  1  0  0  0  0
 25 26  1  0  0  0  0
  1  3  1  0  0  0  0
  1  7  1  0  0  0  0
  1  2  2  0  0  0  0
 42 43  1  0  0  0  0
 43 51  1  0  0  0  0
 43 44  2  0  0  0  0
  8  9  1  0  0  0  0
  9 17  1  0  0  0  0
  9 10  2  0  0  0  0
 18 19  1  0  0  0  0
 19 41  1  0  0  0  0
 19 20  2  0  0  0  0
 42 45  1  0  0  0  0
  8 11  1  0  0  0  0
 51 52  1  0  0  0  0
 18 21  1  0  0  0  0
 41 42  1  0  0  0  0
  7  8  1  0  0  0  0
 17 18  1  0  0  0  0
 29 39  1  0  0  0  0
 30 40  1  0  0  0  0
 27 37  1  0  0  0  0
 28 38  1  0  0  0  0
 23 35  1  0  0  0  0
  3  4  1  0  0  0  0
  3  5  1  0  0  0  0
  3  6  1  0  0  0  0
 45 48  1  0  0  0  0
 45 49  1  0  0  0  0
 45 50  1  0  0  0  0
 11 14  1  0  0  0  0
 11 15  1  0  0  0  0
 11 16  1  0  0  0  0
 52 54  1  0  0  0  0
 52 55  1  0  0  0  0
 52 56  1  0  0  0  0
 21 33  1  0  0  0  0
 21 34  1  0  0  0  0
 42 47  1  0  0  0  0
  8 13  1  0  0  0  0
 18 32  1  0  0  0  0
 25 36  1  0  0  0  0
 51 53  1  0  0  0  0
  7 12  1  0  0  0  0
 41 46  1  0  0  0  0
 17 31  1  0  0  0  0
M  END
$$$$

  -OEChem-05262214473D

 56 57  0     1  0  0  0  0  0999 V2000
   -2.2900    0.3401    4.1553 C   0  0  0  0  0  0  0  0  0  0  0  0
   -1.3426   -0.2746    3.6796 O   0  0  0  0  0  0  0  0  0  0  0  0
   -2.7219    0.0577    5.5560 C   0  0  0  0  0  0  0  0  0  0  0  0
   -3.4815   -0.7386    5.6094 H   0  0  0  0  0  0  0  0  0  0  0  0
   -1.8906   -0.2899    6.1903 H   0  0  0  0  0  0  0  0  0  0  0  0
   -3.1599    0.9126    6.0956 H   0  0  0  0  0  0  0  0  0  0  0  0
   -3.0397    1.3125    3.5142 N   0  0  0  0  0  0  0  0  0  0  0  0
   -2.7928    1.7385    2.1618 C   0  0  2  0  0  0  0  0  0  0  0  0
   -1.4579    1.1532    1.7206 C   0  0  0  0  0  0  0  0  0  0  0  0
   -0.5858    0.8004    2.5118 O   0  0  0  0  0  0  0  0  0  0  0  0
   -2.7841    3.2553    2.0523 C   0  0  0  0  0  0  0  0  0  0  0  0
   -3.8047    1.7484    4.0260 H   0  0  0  0  0  0  0  0  0  0  0  0
   -3.5969    1.3201    1.5466 H   0  0  0  0  0  0  0  0  0  0  0  0
   -1.9850    3.6926    2.6620 H   0  0  0  0  0  0  0  0  0  0  0  0
   -2.6246    3.5776    1.0180 H   0  0  0  0  0  0  0  0  0  0  0  0
   -3.7342    3.6765    2.3981 H   0  0  0  0  0  0  0  0  0  0  0  0
   -1.3352    1.1101    0.3372 N   0  0  0  0  0  0  0  0  0  0  0  0
   -0.1579    0.6093   -0.3265 C   0  0  2  0  0  0  0  0  0  0  0  0
    0.6539   -0.1565    0.7121 C   0  0  0  0  0  0  0  0  0  0  0  0
    1.7887    0.1732    1.0504 O   0  0  0  0  0  0  0  0  0  0  0  0
    0.6849    1.7345   -0.9378 C   0  0  0  0  0  0  0  0  0  0  0  0
   -0.0114    2.4293   -2.0825 C   0  0  0  0  0  0  0  0  0  0  0  0
   -0.7230    3.6036   -1.9960 C   0  0  0  0  0  0  0  0  0  0  0  0
   -0.0520    1.9970   -3.4376 C   0  0  0  0  0  0  0  0  0  0  0  0
   -1.1957    3.9028   -3.2456 N   0  0  0  0  0  0  0  0  0  0  0  0
   -0.8011    2.9390   -4.1460 C   0  0  0  0  0  0  0  0  0  0  0  0
    0.4783    0.8913   -4.1317 C   0  0  0  0  0  0  0  0  0  0  0  0
   -1.0474    2.8302   -5.5192 C   0  0  0  0  0  0  0  0  0  0  0  0
    0.2400    0.7695   -5.5055 C   0  0  0  0  0  0  0  0  0  0  0  0
   -0.5113    1.7252   -6.1866 C   0  0  0  0  0  0  0  0  0  0  0  0
   -2.1183    1.4068   -0.2401 H   0  0  0  0  0  0  0  0  0  0  0  0
   -0.5065   -0.0895   -1.0960 H   0  0  0  0  0  0  0  0  0  0  0  0
    1.6533    1.3428   -1.2776 H   0  0  0  0  0  0  0  0  0  0  0  0
    0.9299    2.4871   -0.1767 H   0  0  0  0  0  0  0  0  0  0  0  0
   -0.9372    4.2527   -1.1581 H   0  0  0  0  0  0  0  0  0  0  0  0
   -1.7535    4.7139   -3.4748 H   0  0  0  0  0  0  0  0  0  0  0  0
    1.0652    0.1373   -3.6149 H   0  0  0  0  0  0  0  0  0  0  0  0
   -1.6312    3.5742   -6.0504 H   0  0  0  0  0  0  0  0  0  0  0  0
    0.6460   -0.0814   -6.0460 H   0  0  0  0  0  0  0  0  0  0  0  0
   -0.6840    1.6107   -7.2536 H   0  0  0  0  0  0  0  0  0  0  0  0
   -0.0597   -1.2190    1.2491 N   0  0  0  0  0  0  0  0  0  0  0  0
    0.4686   -2.0940    2.2709 C   0  0  2  0  0  0  0  0  0  0  0  0
    1.8440   -2.5675    1.8196 C   0  0  0  0  0  0  0  0  0  0  0  0
    2.1979   -2.5750    0.6424 O   0  0  0  0  0  0  0  0  0  0  0  0
   -0.4573   -3.2741    2.5217 C   0  0  0  0  0  0  0  0  0  0  0  0
   -1.0005   -1.3902    0.9068 H   0  0  0  0  0  0  0  0  0  0  0  0
    0.5692   -1.4928    3.1811 H   0  0  0  0  0  0  0  0  0  0  0  0
   -0.5703   -3.8882    1.6208 H   0  0  0  0  0  0  0  0  0  0  0  0
   -0.0698   -3.9206    3.3159 H   0  0  0  0  0  0  0  0  0  0  0  0
   -1.4546   -2.9310    2.8174 H   0  0  0  0  0  0  0  0  0  0  0  0
    2.6141   -3.0211    2.8813 N   0  0  0  0  0  0  0  0  0  0  0  0
    3.9534   -3.5338    2.7099 C   0  0  0  0  0  0  0  0  0  0  0  0
    2.2473   -2.9603    3.8266 H   0  0  0  0  0  0  0  0  0  0  0  0
    3.9150   -4.6255    2.5811 H   0  0  0  0  0  0  0  0  0  0  0  0
    4.4102   -3.0756    1.8203 H   0  0  0  0  0  0  0  0  0  0  0  0
    4.5555   -3.2904    3.5978 H   0  0  0  0  0  0  0  0  0  0  0  0
 29 30  2  0  0  0  0
 27 29  1  0  0  0  0
 28 30  1  0  0  0  0
 24 27  2  0  0  0  0
 26 28  2  0  0  0  0
 22 23  2  0  0  0  0
 23 25  1  0  0  0  0
 22 24  1  0  0  0  0
 24 26  1  0  0  0  0
 21 22  1  0  0  0  0
 25 26  1  0  0  0  0
  1  3  1  0  0  0  0
  1  7  1  0  0  0  0
  1  2  2  0  0  0  0
 42 43  1  0  0  0  0
 43 51  1  0  0  0  0
 43 44  2  0  0  0  0
  8  9  1  0  0  0  0
  9 17  1  0  0  0  0
  9 10  2  0  0  0  0
 18 19  1  0  0  0  0
 19 41  1  0  0  0  0
 19 20  2  0  0  0  0
 42 45  1  0  0  0  0
  8 11  1  0  0  0  0
 51 52  1  0  0  0  0
 18 21  1  0  0  0  0
 41 42  1  0  0  0  0
  7  8  1  0  0  0  0
 17 18  1  0  0  0  0
 29 39  1  0  0  0  0
 30 40  1  0  0  0  0
 27 37  1  0  0  0  0
 28 38  1  0  0  0  0
 23 35  1  0  0  0  0
  3  4  1  0  0  0  0
  3  5  1  0  0  0  0
  3  6  1  0  0  0  0
 45 48  1  0  0  0  0
 45 49  1  0  0  0  0
 45 50  1  0  0  0  0
 11 14  1  0  0  0  0
 11 15  1  0  0  0  0
 11 16  1  0  0  0  0
 52 54  1  0  0  0  0
 52 55  1  0  0  0  0
 52 56  1  0  0  0  0
 21 33  1  0  0  0  0
 21 34  1  0  0  0  0
 42 47  1  0  0  0  0
  8 13  1  0  0  0  0
 18 32  1  0  0  0  0
 25 36  1  0  0  0  0
 51 53  1  0  0  0  0
  7 12  1  0  0  0  0
 41 46  1  0  0  0  0
 17 31  1  0  0  0  0
M  END
$$$$

  -OEChem-05262214473D

 56 57  0     1  0  0  0  0  0999 V2000
   -2.2900    0.3401    4.1553 C   0  0  0  0  0  0  0  0  0  0  0  0
   -1.3426   -0.2746    3.6796 O   0  0  0  0  0  0  0  0  0  0  0  0
   -2.7219    0.0577    5.5560 C   0  0  0  0  0  0  0  0  0  0  0  0
   -3.4815   -0.7386    5.6094 H   0  0  0  0  0  0  0  0  0  0  0  0
   -1.8906   -0.2899    6.1903 H   0  0  0  0  0  0  0  0  0  0  0  0
   -3.1599    0.9126    6.0956 H   0  0  0  0  0  0  0  0  0  0  0  0
   -3.0397    1.3125    3.5142 N   0  0  0  0  0  0  0  0  0  0  0  0
   -2.7928    1.7385    2.1618 C   0  0  2  0  0  0  0  0  0  0  0  0
   -1.4579    1.1532    1.7206 C   0  0  0  0  0  0  0  0  0  0  0  0
   -0.5858    0.8004    2.5118 O   0  0  0  0  0  0  0  0  0  0  0  0
   -2.7841    3.2553    2.0523 C   0  0  0  0  0  0  0  0  0  0  0  0
   -3.8047    1.7484    4.0260 H   0  0  0  0  0  0  0  0  0  0  0  0
   -3.5969    1.3201    1.5466 H   0  0  0  0  0  0  0  0  0  0  0  0
   -1.9850    3.6926    2.6620 H   0  0  0  0  0  0  0  0  0  0  0  0
   -2.6246    3.5776    1.0180 H   0  0  0  0  0  0  0  0  0  0  0  0
   -3.7342    3.6765    2.3981 H   0  0  0  0  0  0  0  0  0  0  0  0
   -1.3352    1.1101    0.3372 N   0  0  0  0  0  0  0  0  0  0  0  0
   -0.1579    0.6093   -0.3265 C   0  0  2  0  0  0  0  0  0  0  0  0
    0.6539   -0.1565    0.7121 C   0  0  0  0  0  0  0  0  0  0  0  0
    1.6601    0.3040    1.2474 O   0  0  0  0  0  0  0  0  0  0  0  0
    0.6849    1.7345   -0.9378 C   0  0  0  0  0  0  0  0  0  0  0  0
   -0.0114    2.4293   -2.0825 C   0  0  0  0  0  0  0  0  0  0  0  0
   -0.7230    3.6036   -1.9960 C   0  0  0  0  0  0  0  0  0  0  0  0
   -0.0520    1.9970   -3.4376 C   0  0  0  0  0  0  0  0  0  0  0  0
   -1.1957    3.9028   -3.2456 N   0  0  0  0  0  0  0  0  0  0  0  0
   -0.8011    2.9390   -4.1460 C   0  0  0  0  0  0  0  0  0  0  0  0
    0.4783    0.8913   -4.1317 C   0  0  0  0  0  0  0  0  0  0  0  0
   -1.0474    2.8302   -5.5192 C   0  0  0  0  0  0  0  0  0  0  0  0
    0.2400    0.7695   -5.5055 C   0  0  0  0  0  0  0  0  0  0  0  0
   -0.5113    1.7252   -6.1866 C   0  0  0  0  0  0  0  0  0  0  0  0
   -2.1183    1.4068   -0.2401 H   0  0  0  0  0  0  0  0  0  0  0  0
   -0.5065   -0.0895   -1.0960 H   0  0  0  0  0  0  0  0  0  0  0  0
    1.6533    1.3428   -1.2776 H   0  0  0  0  0  0  0  0  0  0  0  0
    0.9299    2.4871   -0.1767 H   0  0  0  0  0  0  0  0  0  0  0  0
   -0.9372    4.2527   -1.1581 H   0  0  0  0  0  0  0  0  0  0  0  0
   -1.7535    4.7139   -3.4748 H   0  0  0  0  0  0  0  0  0  0  0  0
    1.0652    0.1373   -3.6149 H   0  0  0  0  0  0  0  0  0  0  0  0
   -1.6312    3.5742   -6.0504 H   0  0  0  0  0  0  0  0  0  0  0  0
    0.6460   -0.0814   -6.0460 H   0  0  0  0  0  0  0  0  0  0  0  0
   -0.6840    1.6107   -7.2536 H   0  0  0  0  0  0  0  0  0  0  0  0
    0.0916   -1.3915    1.0037 N   0  0  0  0  0  0  0  0  0  0  0  0
    0.6490   -2.3086    1.9716 C   0  0  2  0  0  0  0  0  0  0  0  0
    2.1317   -2.4726    1.6646 C   0  0  0  0  0  0  0  0  0  0  0  0
    2.6168   -2.2448    0.5584 O   0  0  0  0  0  0  0  0  0  0  0  0
   -0.0649   -3.6510    1.9371 C   0  0  0  0  0  0  0  0  0  0  0  0
   -0.7543   -1.6645    0.5120 H   0  0  0  0  0  0  0  0  0  0  0  0
    0.5286   -1.8420    2.9554 H   0  0  0  0  0  0  0  0  0  0  0  0
    0.0446   -4.1337    0.9591 H   0  0  0  0  0  0  0  0  0  0  0  0
    0.3395   -4.3350    2.6905 H   0  0  0  0  0  0  0  0  0  0  0  0
   -1.1363   -3.5276    2.1287 H   0  0  0  0  0  0  0  0  0  0  0  0
    2.8422   -2.9447    2.7594 N   0  0  0  0  0  0  0  0  0  0  0  0
    4.2641   -3.1947    2.7171 C   0  0  0  0  0  0  0  0  0  0  0  0
    2.3619   -3.0880    3.6428 H   0  0  0  0  0  0  0  0  0  0  0  0
    4.4442   -4.2458    2.4475 H   0  0  0  0  0  0  0  0  0  0  0  0
    4.7294   -2.5388    1.9666 H   0  0  0  0  0  0  0  0  0  0  0  0
    4.7019   -2.9896    3.7052 H   0  0  0  0  0  0  0  0  0  0  0  0
 29 30  2  0  0  0  0
 27 29  1  0  0  0  0
 28 30  1  0  0  0  0
 24 27  2  0  0  0  0
 26 28  2  0  0  0  0
 22 23  2  0  0  0  0
 23 25  1  0  0  0  0
 22 24  1  0  0  0  0
 24 26  1  0  0  0  0
 21 22  1  0  0  0  0
 25 26  1  0  0  0  0
  1  3  1  0  0  0  0
  1  7  1  0  0  0  0
  1  2  2  0  0  0  0
 42 43  1  0  0  0  0
 43 51  1  0  0  0  0
 43 44  2  0  0  0  0
  8  9  1  0  0  0  0
  9 17  1  0  0  0  0
  9 10  2  0  0  0  0
 18 19  1  0  0  0  0
 19 41  1  0  0  0  0
 19 20  2  0  0  0  0
 42 45  1  0  0  0  0
  8 11  1  0  0  0  0
 51 52  1  0  0  0  0
 18 21  1  0  0  0  0
 41 42  1  0  0  0  0
  7  8  1  0  0  0  0
 17 18  1  0  0  0  0
 29 39  1  0  0  0  0
 30 40  1  0  0  0  0
 27 37  1  0  0  0  0
 28 38  1  0  0  0  0
 23 35  1  0  0  0  0
  3  4  1  0  0  0  0
  3  5  1  0  0  0  0
  3  6  1  0  0  0  0
 45 48  1  0  0  0  0
 45 49  1  0  0  0  0
 45 50  1  0  0  0  0
 11 14  1  0  0  0  0
 11 15  1  0  0  0  0
 11 16  1  0  0  0  0
 52 54  1  0  0  0  0
 52 55  1  0  0  0  0
 52 56  1  0  0  0  0
 21 33  1  0  0  0  0
 21 34  1  0  0  0  0
 42 47  1  0  0  0  0
  8 13  1  0  0  0  0
 18 32  1  0  0  0  0
 25 36  1  0  0  0  0
 51 53  1  0  0  0  0
  7 12  1  0  0  0  0
 41 46  1  0  0  0  0
 17 31  1  0  0  0  0
M  END
$$$$

  -OEChem-05262214473D

 56 57  0     1  0  0  0  0  0999 V2000
   -2.2900    0.3401    4.1553 C   0  0  0  0  0  0  0  0  0  0  0  0
   -1.3426   -0.2746    3.6796 O   0  0  0  0  0  0  0  0  0  0  0  0
   -2.7219    0.0577    5.5560 C   0  0  0  0  0  0  0  0  0  0  0  0
   -3.4815   -0.7386    5.6094 H   0  0  0  0  0  0  0  0  0  0  0  0
   -1.8906   -0.2899    6.1903 H   0  0  0  0  0  0  0  0  0  0  0  0
   -3.1599    0.9126    6.0956 H   0  0  0  0  0  0  0  0  0  0  0  0
   -3.0397    1.3125    3.5142 N   0  0  0  0  0  0  0  0  0  0  0  0
   -2.7928    1.7385    2.1618 C   0  0  2  0  0  0  0  0  0  0  0  0
   -1.4579    1.1532    1.7206 C   0  0  0  0  0  0  0  0  0  0  0  0
   -0.5858    0.8004    2.5118 O   0  0  0  0  0  0  0  0  0  0  0  0
   -2.7841    3.2553    2.0523 C   0  0  0  0  0  0  0  0  0  0  0  0
   -3.8047    1.7484    4.0260 H   0  0  0  0  0  0  0  0  0  0  0  0
   -3.5969    1.3201    1.5466 H   0  0  0  0  0  0  0  0  0  0  0  0
   -1.9850    3.6926    2.6620 H   0  0  0  0  0  0  0  0  0  0  0  0
   -2.6246    3.5776    1.0180 H   0  0  0  0  0  0  0  0  0  0  0  0
   -3.7342    3.6765    2.3981 H   0  0  0  0  0  0  0  0  0  0  0  0
   -1.3352    1.1101    0.3372 N   0  0  0  0  0  0  0  0  0  0  0  0
   -0.1579    0.6093   -0.3265 C   0  0  2  0  0  0  0  0  0  0  0  0
    0.6539   -0.1565    0.7121 C   0  0  0  0  0  0  0  0  0  0  0  0
    1.4871    0.3804    1.4390 O   0  0  0  0  0  0  0  0  0  0  0  0
    0.6849    1.7345   -0.9378 C   0  0  0  0  0  0  0  0  0  0  0  0
   -0.0114    2.4293   -2.0825 C   0  0  0  0  0  0  0  0  0  0  0  0
   -0.7230    3.6036   -1.9960 C   0  0  0  0  0  0  0  0  0  0  0  0
   -0.0520    1.9970   -3.4376 C   0  0  0  0  0  0  0  0  0  0  0  0
   -1.1957    3.9028   -3.2456 N   0  0  0  0  0  0  0  0  0  0  0  0
   -0.8011    2.9390   -4.1460 C   0  0  0  0  0  0  0  0  0  0  0  0
    0.4783    0.8913   -4.1317 C   0  0  0  0  0  0  0  0  0  0  0  0
   -1.0474    2.8302   -5.5192 C   0  0  0  0  0  0  0  0  0  0  0  0
    0.2400    0.7695   -5.5055 C   0  0  0  0  0  0  0  0  0  0  0  0
   -0.5113    1.7252   -6.1866 C   0  0  0  0  0  0  0  0  0  0  0  0
   -2.1183    1.4068   -0.2401 H   0  0  0  0  0  0  0  0  0  0  0  0
   -0.5065   -0.0895   -1.0960 H   0  0  0  0  0  0  0  0  0  0  0  0
    1.6533    1.3428   -1.2776 H   0  0  0  0  0  0  0  0  0  0  0  0
    0.9299    2.4871   -0.1767 H   0  0  0  0  0  0  0  0  0  0  0  0
   -0.9372    4.2527   -1.1581 H   0  0  0  0  0  0  0  0  0  0  0  0
   -1.7535    4.7139   -3.4748 H   0  0  0  0  0  0  0  0  0  0  0  0
    1.0652    0.1373   -3.6149 H   0  0  0  0  0  0  0  0  0  0  0  0
   -1.6312    3.5742   -6.0504 H   0  0  0  0  0  0  0  0  0  0  0  0
    0.6460   -0.0814   -6.0460 H   0  0  0  0  0  0  0  0  0  0  0  0
   -0.6840    1.6107   -7.2536 H   0  0  0  0  0  0  0  0  0  0  0  0
    0.3000   -1.4977    0.7625 N   0  0  0  0  0  0  0  0  0  0  0  0
    0.9000   -2.4429    1.6764 C   0  0  2  0  0  0  0  0  0  0  0  0
    2.4130   -2.3089    1.5654 C   0  0  0  0  0  0  0  0  0  0  0  0
    2.9742   -1.8404    0.5772 O   0  0  0  0  0  0  0  0  0  0  0  0
    0.4565   -3.8653    1.3715 C   0  0  0  0  0  0  0  0  0  0  0  0
   -0.4168   -1.8316    0.1249 H   0  0  0  0  0  0  0  0  0  0  0  0
    0.5802   -2.1553    2.6839 H   0  0  0  0  0  0  0  0  0  0  0  0
    0.7679   -4.1712    0.3661 H   0  0  0  0  0  0  0  0  0  0  0  0
    0.8893   -4.5768    2.0824 H   0  0  0  0  0  0  0  0  0  0  0  0
   -0.6342   -3.9528    1.4226 H   0  0  0  0  0  0  0  0  0  0  0  0
    3.0650   -2.8138    2.6818 N   0  0  0  0  0  0  0  0  0  0  0  0
    4.5034   -2.8134    2.8112 C   0  0  0  0  0  0  0  0  0  0  0  0
    2.5190   -3.1659    3.4626 H   0  0  0  0  0  0  0  0  0  0  0  0
    4.9058   -3.7673    2.4395 H   0  0  0  0  0  0  0  0  0  0  0  0
    4.9241   -1.9842    2.2234 H   0  0  0  0  0  0  0  0  0  0  0  0
    4.7762   -2.6880    3.8694 H   0  0  0  0  0  0  0  0  0  0  0  0
 29 30  2  0  0  0  0
 27 29  1  0  0  0  0
 28 30  1  0  0  0  0
 24 27  2  0  0  0  0
 26 28  2  0  0  0  0
 22 23  2  0  0  0  0
 23 25  1  0  0  0  0
 22 24  1  0  0  0  0
 24 26  1  0  0  0  0
 21 22  1  0  0  0  0
 25 26  1  0  0  0  0
  1  3  1  0  0  0  0
  1  7  1  0  0  0  0
  1  2  2  0  0  0  0
 42 43  1  0  0  0  0
 43 51  1  0  0  0  0
 43 44  2  0  0  0  0
  8  9  1  0  0  0  0
  9 17  1  0  0  0  0
  9 10  2  0  0  0  0
 18 19  1  0  0  0  0
 19 41  1  0  0  0  0
 19 20  2  0  0  0  0
 42 45  1  0  0  0  0
  8 11  1  0  0  0  0
 51 52  1  0  0  0  0
 18 21  1  0  0  0  0
 41 42  1  0  0  0  0
  7  8  1  0  0  0  0
 17 18  1  0  0  0  0
 29 39  1  0  0  0  0
 30 40  1  0  0  0  0
 27 37  1  0  0  0  0
 28 38  1  0  0  0  0
 23 35  1  0  0  0  0
  3  4  1  0  0  0  0
  3  5  1  0  0  0  0
  3  6  1  0  0  0  0
 45 48  1  0  0  0  0
 45 49  1  0  0  0  0
 45 50  1  0  0  0  0
 11 14  1  0  0  0  0
 11 15  1  0  0  0  0
 11 16  1  0  0  0  0
 52 54  1  0  0  0  0
 52 55  1  0  0  0  0
 52 56  1  0  0  0  0
 21 33  1  0  0  0  0
 21 34  1  0  0  0  0
 42 47  1  0  0  0  0
  8 13  1  0  0  0  0
 18 32  1  0  0  0  0
 25 36  1  0  0  0  0
 51 53  1  0  0  0  0
  7 12  1  0  0  0  0
 41 46  1  0  0  0  0
 17 31  1  0  0  0  0
M  END
$$$$

  -OEChem-05262214473D

 56 57  0     1  0  0  0  0  0999 V2000
   -2.2900    0.3401    4.1553 C   0  0  0  0  0  0  0  0  0  0  0  0
   -1.3426   -0.2746    3.6796 O   0  0  0  0  0  0  0  0  0  0  0  0
   -2.7219    0.0577    5.5560 C   0  0  0  0  0  0  0  0  0  0  0  0
   -3.4815   -0.7386    5.6094 H   0  0  0  0  0  0  0  0  0  0  0  0
   -1.8906   -0.2899    6.1903 H   0  0  0  0  0  0  0  0  0  0  0  0
   -3.1599    0.9126    6.0956 H   0  0  0  0  0  0  0  0  0  0  0  0
   -3.0397    1.3125    3.5142 N   0  0  0  0  0  0  0  0  0  0  0  0
   -2.7928    1.7385    2.1618 C   0  0  2  0  0  0  0  0  0  0  0  0
   -1.4579    1.1532    1.7206 C   0  0  0  0  0  0  0  0  0  0  0  0
   -0.5858    0.8004    2.5118 O   0  0  0  0  0  0  0  0  0  0  0  0
   -2.7841    3.2553    2.0523 C   0  0  0  0  0  0  0  0  0  0  0  0
   -3.8047    1.7484    4.0260 H   0  0  0  0  0  0  0  0  0  0  0  0
   -3.5969    1.3201    1.5466 H   0  0  0  0  0  0  0  0  0  0  0  0
   -1.9850    3.6926    2.6620 H   0  0  0  0  0  0  0  0  0  0  0  0
   -2.6246    3.5776    1.0180 H   0  0  0  0  0  0  0  0  0  0  0  0
   -3.7342    3.6765    2.3981 H   0  0  0  0  0  0  0  0  0  0  0  0
   -1.3352    1.1101    0.3372 N   0  0  0  0  0  0  0  0  0  0  0  0
   -0.1579    0.6093   -0.3265 C   0  0  2  0  0  0  0  0  0  0  0  0
    0.6539   -0.1565    0.7121 C   0  0  0  0  0  0  0  0  0  0  0  0
    1.2817    0.3974    1.6121 O   0  0  0  0  0  0  0  0  0  0  0  0
    0.6849    1.7345   -0.9378 C   0  0  0  0  0  0  0  0  0  0  0  0
   -0.0114    2.4293   -2.0825 C   0  0  0  0  0  0  0  0  0  0  0  0
   -0.7230    3.6036   -1.9960 C   0  0  0  0  0  0  0  0  0  0  0  0
   -0.0520    1.9970   -3.4376 C   0  0  0  0  0  0  0  0  0  0  0  0
   -1.1957    3.9028   -3.2456 N   0  0  0  0  0  0  0  0  0  0  0  0
   -0.8011    2.9390   -4.1460 C   0  0  0  0  0  0  0  0  0  0  0  0
    0.4783    0.8913   -4.1317 C   0  0  0  0  0  0  0  0  0  0  0  0
   -1.0474    2.8302   -5.5192 C   0  0  0  0  0  0  0  0  0  0  0  0
    0.2400    0.7695   -5.5055 C   0  0  0  0  0  0  0  0  0  0  0  0
   -0.5113    1.7252   -6.1866 C   0  0  0  0  0  0  0  0  0  0  0  0
   -2.1183    1.4068   -0.2401 H   0  0  0  0  0  0  0  0  0  0  0  0
   -0.5065   -0.0895   -1.0960 H   0  0  0  0  0  0  0  0  0  0  0  0
    1.6533    1.3428   -1.2776 H   0  0  0  0  0  0  0  0  0  0  0  0
    0.9299    2.4871   -0.1767 H   0  0  0  0  0  0  0  0  0  0  0  0
   -0.9372    4.2527   -1.1581 H   0  0  0  0  0  0  0  0  0  0  0  0
   -1.7535    4.7139   -3.4748 H   0  0  0  0  0  0  0  0  0  0  0  0
    1.0652    0.1373   -3.6149 H   0  0  0  0  0  0  0  0  0  0  0  0
   -1.6312    3.5742   -6.0504 H   0  0  0  0  0  0  0  0  0  0  0  0
    0.6460   -0.0814   -6.0460 H   0  0  0  0  0  0  0  0  0  0  0  0
   -0.6840    1.6107   -7.2536 H   0  0  0  0  0  0  0  0  0  0  0  0
    0.5514   -1.5302    0.5420 N   0  0  0  0  0  0  0  0  0  0  0  0
    1.2045   -2.4877    1.4054 C   0  0  2  0  0  0  0  0  0  0  0  0
    2.6688   -2.0875    1.5288 C   0  0  0  0  0  0  0  0  0  0  0  0
    3.2457   -1.3894    0.6976 O   0  0  0  0  0  0  0  0  0  0  0  0
    1.0714   -3.9024    0.8635 C   0  0  0  0  0  0  0  0  0  0  0  0
   -0.0109   -1.8802   -0.2281 H   0  0  0  0  0  0  0  0  0  0  0  0
    0.7207   -2.4115    2.3853 H   0  0  0  0  0  0  0  0  0  0  0  0
    1.5503   -3.9981   -0.1178 H   0  0  0  0  0  0  0  0  0  0  0  0
    1.5420   -4.6297    1.5332 H   0  0  0  0  0  0  0  0  0  0  0  0
    0.0176   -4.1777    0.7473 H   0  0  0  0  0  0  0  0  0  0  0  0
    3.2671   -2.6374    2.6539 N   0  0  0  0  0  0  0  0  0  0  0  0
    4.6552   -2.4158    2.9858 C   0  0  0  0  0  0  0  0  0  0  0  0
    2.7079   -3.1885    3.2983 H   0  0  0  0  0  0  0  0  0  0  0  0
    5.2683   -3.2226    2.5578 H   0  0  0  0  0  0  0  0  0  0  0  0
    4.9810   -1.4496    2.5732 H   0  0  0  0  0  0  0  0  0  0  0  0
    4.7736   -2.4062    4.0793 H   0  0  0  0  0  0  0  0  0  0  0  0
 29 30  2  0  0  0  0
 27 29  1  0  0  0  0
 28 30  1  0  0  0  0
 24 27  2  0  0  0  0
 26 28  2  0  0  0  0
 22 23  2  0  0  0  0
 23 25  1  0  0  0  0
 22 24  1  0  0  0  0
 24 26  1  0  0  0  0
 21 22  1  0  0  0  0
 25 26  1  0  0  0  0
  1  3  1  0  0  0  0
  1  7  1  0  0  0  0
  1  2  2  0  0  0  0
 42 43  1  0  0  0  0
 43 51  1  0  0  0  0
 43 44  2  0  0  0  0
  8  9  1  0  0  0  0
  9 17  1  0  0  0  0
  9 10  2  0  0  0  0
 18 19  1  0  0  0  0
 19 41  1  0  0  0  0
 19 20  2  0  0  0  0
 42 45  1  0  0  0  0
  8 11  1  0  0  0  0
 51 52  1  0  0  0  0
 18 21  1  0  0  0  0
 41 42  1  0  0  0  0
  7  8  1  0  0  0  0
 17 18  1  0  0  0  0
 29 39  1  0  0  0  0
 30 40  1  0  0  0  0
 27 37  1  0  0  0  0
 28 38  1  0  0  0  0
 23 35  1  0  0  0  0
  3  4  1  0  0  0  0
  3  5  1  0  0  0  0
  3  6  1  0  0  0  0
 45 48  1  0  0  0  0
 45 49  1  0  0  0  0
 45 50  1  0  0  0  0
 11 14  1  0  0  0  0
 11 15  1  0  0  0  0
 11 16  1  0  0  0  0
 52 54  1  0  0  0  0
 52 55  1  0  0  0  0
 52 56  1  0  0  0  0
 21 33  1  0  0  0  0
 21 34  1  0  0  0  0
 42 47  1  0  0  0  0
  8 13  1  0  0  0  0
 18 32  1  0  0  0  0
 25 36  1  0  0  0  0
 51 53  1  0  0  0  0
  7 12  1  0  0  0  0
 41 46  1  0  0  0  0
 17 31  1  0  0  0  0
M  END
$$$$

  -OEChem-05262214473D

 56 57  0     1  0  0  0  0  0999 V2000
   -2.2900    0.3401    4.1553 C   0  0  0  0  0  0  0  0  0  0  0  0
   -1.3426   -0.2746    3.6796 O   0  0  0  0  0  0  0  0  0  0  0  0
   -2.7219    0.0577    5.5560 C   0  0  0  0  0  0  0  0  0  0  0  0
   -3.4815   -0.7386    5.6094 H   0  0  0  0  0  0  0  0  0  0  0  0
   -1.8906   -0.2899    6.1903 H   0  0  0  0  0  0  0  0  0  0  0  0
   -3.1599    0.9126    6.0956 H   0  0  0  0  0  0  0  0  0  0  0  0
   -3.0397    1.3125    3.5142 N   0  0  0  0  0  0  0  0  0  0  0  0
   -2.7928    1.7385    2.1618 C   0  0  2  0  0  0  0  0  0  0  0  0
   -1.4579    1.1532    1.7206 C   0  0  0  0  0  0  0  0  0  0  0  0
   -0.5858    0.8004    2.5118 O   0  0  0  0  0  0  0  0  0  0  0  0
   -2.7841    3.2553    2.0523 C   0  0  0  0  0  0  0  0  0  0  0  0
   -3.8047    1.7484    4.0260 H   0  0  0  0  0  0  0  0  0  0  0  0
   -3.5969    1.3201    1.5466 H   0  0  0  0  0  0  0  0  0  0  0  0
   -1.9850    3.6926    2.6620 H   0  0  0  0  0  0  0  0  0  0  0  0
   -2.6246    3.5776    1.0180 H   0  0  0  0  0  0  0  0  0  0  0  0
   -3.7342    3.6765    2.3981 H   0  0  0  0  0  0  0  0  0  0  0  0
   -1.3352    1.1101    0.3372 N   0  0  0  0  0  0  0  0  0  0  0  0
   -0.1579    0.6093   -0.3265 C   0  0  2  0  0  0  0  0  0  0  0  0
    0.6539   -0.1565    0.7121 C   0  0  0  0  0  0  0  0  0  0  0  0
    1.0578    0.3538    1.7549 O   0  0  0  0  0  0  0  0  0  0  0  0
    0.6849    1.7345   -0.9378 C   0  0  0  0  0  0  0  0  0  0  0  0
   -0.0114    2.4293   -2.0825 C   0  0  0  0  0  0  0  0  0  0  0  0
   -0.7230    3.6036   -1.9960 C   0  0  0  0  0  0  0  0  0  0  0  0
   -0.0520    1.9970   -3.4376 C   0  0  0  0  0  0  0  0  0  0  0  0
   -1.1957    3.9028   -3.2456 N   0  0  0  0  0  0  0  0  0  0  0  0
   -0.8011    2.9390   -4.1460 C   0  0  0  0  0  0  0  0  0  0  0  0
    0.4783    0.8913   -4.1317 C   0  0  0  0  0  0  0  0  0  0  0  0
   -1.0474    2.8302   -5.5192 C   0  0  0  0  0  0  0  0  0  0  0  0
    0.2400    0.7695   -5.5055 C   0  0  0  0  0  0  0  0  0  0  0  0
   -0.5113    1.7252   -6.1866 C   0  0  0  0  0  0  0  0  0  0  0  0
   -2.1183    1.4068   -0.2401 H   0  0  0  0  0  0  0  0  0  0  0  0
   -0.5065   -0.0895   -1.0960 H   0  0  0  0  0  0  0  0  0  0  0  0
    1.6533    1.3428   -1.2776 H   0  0  0  0  0  0  0  0  0  0  0  0
    0.9299    2.4871   -0.1767 H   0  0  0  0  0  0  0  0  0  0  0  0
   -0.9372    4.2527   -1.1581 H   0  0  0  0  0  0  0  0  0  0  0  0
   -1.7535    4.7139   -3.4748 H   0  0  0  0  0  0  0  0  0  0  0  0
    1.0652    0.1373   -3.6149 H   0  0  0  0  0  0  0  0  0  0  0  0
   -1.6312    3.5742   -6.0504 H   0  0  0  0  0  0  0  0  0  0  0  0
    0.6460   -0.0814   -6.0460 H   0  0  0  0  0  0  0  0  0  0  0  0
   -0.6840    1.6107   -7.2536 H   0  0  0  0  0  0  0  0  0  0  0  0
    0.8287   -1.4869    0.3572 N   0  0  0  0  0  0  0  0  0  0  0  0
    1.5418   -2.4399    1.1770 C   0  0  2  0  0  0  0  0  0  0  0  0
    2.8816   -1.8235    1.5571 C   0  0  0  0  0  0  0  0  0  0  0  0
    3.4128   -0.9224    0.9113 O   0  0  0  0  0  0  0  0  0  0  0  0
    1.7380   -3.7598    0.4476 C   0  0  0  0  0  0  0  0  0  0  0  0
    0.4356   -1.8069   -0.5231 H   0  0  0  0  0  0  0  0  0  0  0  0
    0.9404   -2.5930    2.0797 H   0  0  0  0  0  0  0  0  0  0  0  0
    2.3384   -3.6263   -0.4597 H   0  0  0  0  0  0  0  0  0  0  0  0
    2.2532   -4.4900    1.0803 H   0  0  0  0  0  0  0  0  0  0  0  0
    0.7747   -4.1869    0.1488 H   0  0  0  0  0  0  0  0  0  0  0  0
    3.4349   -2.4275    2.6775 N   0  0  0  0  0  0  0  0  0  0  0  0
    4.7089   -2.0291    3.2289 C   0  0  0  0  0  0  0  0  0  0  0  0
    2.9157   -3.1544    3.1610 H   0  0  0  0  0  0  0  0  0  0  0  0
    5.5071   -2.6488    2.7942 H   0  0  0  0  0  0  0  0  0  0  0  0
    4.8962   -0.9713    2.9921 H   0  0  0  0  0  0  0  0  0  0  0  0
    4.6940   -2.1634    4.3205 H   0  0  0  0  0  0  0  0  0  0  0  0
 29 30  2  0  0  0  0
 27 29  1  0  0  0  0
 28 30  1  0  0  0  0
 24 27  2  0  0  0  0
 26 28  2  0  0  0  0
 22 23  2  0  0  0  0
 23 25  1  0  0  0  0
 22 24  1  0  0  0  0
 24 26  1  0  0  0  0
 21 22  1  0  0  0  0
 25 26  1  0  0  0  0
  1  3  1  0  0  0  0
  1  7  1  0  0  0  0
  1  2  2  0  0  0  0
 42 43  1  0  0  0  0
 43 51  1  0  0  0  0
 43 44  2  0  0  0  0
  8  9  1  0  0  0  0
  9 17  1  0  0  0  0
  9 10  2  0  0  0  0
 18 19  1  0  0  0  0
 19 41  1  0  0  0  0
 19 20  2  0  0  0  0
 42 45  1  0  0  0  0
  8 11  1  0  0  0  0
 51 52  1  0  0  0  0
 18 21  1  0  0  0  0
 41 42  1  0  0  0  0
  7  8  1  0  0  0  0
 17 18  1  0  0  0  0
 29 39  1  0  0  0  0
 30 40  1  0  0  0  0
 27 37  1  0  0  0  0
 28 38  1  0  0  0  0
 23 35  1  0  0  0  0
  3  4  1  0  0  0  0
  3  5  1  0  0  0  0
  3  6  1  0  0  0  0
 45 48  1  0  0  0  0
 45 49  1  0  0  0  0
 45 50  1  0  0  0  0
 11 14  1  0  0  0  0
 11 15  1  0  0  0  0
 11 16  1  0  0  0  0
 52 54  1  0  0  0  0
 52 55  1  0  0  0  0
 52 56  1  0  0  0  0
 21 33  1  0  0  0  0
 21 34  1  0  0  0  0
 42 47  1  0  0  0  0
  8 13  1  0  0  0  0
 18 32  1  0  0  0  0
 25 36  1  0  0  0  0
 51 53  1  0  0  0  0
  7 12  1  0  0  0  0
 41 46  1  0  0  0  0
 17 31  1  0  0  0  0
M  END
$$$$

  -OEChem-05262214473D

 56 57  0     1  0  0  0  0  0999 V2000
   -2.2900    0.3401    4.1553 C   0  0  0  0  0  0  0  0  0  0  0  0
   -1.3426   -0.2746    3.6796 O   0  0  0  0  0  0  0  0  0  0  0  0
   -2.7219    0.0577    5.5560 C   0  0  0  0  0  0  0  0  0  0  0  0
   -3.4815   -0.7386    5.6094 H   0  0  0  0  0  0  0  0  0  0  0  0
   -1.8906   -0.2899    6.1903 H   0  0  0  0  0  0  0  0  0  0  0  0
   -3.1599    0.9126    6.0956 H   0  0  0  0  0  0  0  0  0  0  0  0
   -3.0397    1.3125    3.5142 N   0  0  0  0  0  0  0  0  0  0  0  0
   -2.7928    1.7385    2.1618 C   0  0  2  0  0  0  0  0  0  0  0  0
   -1.4579    1.1532    1.7206 C   0  0  0  0  0  0  0  0  0  0  0  0
   -0.5858    0.8004    2.5118 O   0  0  0  0  0  0  0  0  0  0  0  0
   -2.7841    3.2553    2.0523 C   0  0  0  0  0  0  0  0  0  0  0  0
   -3.8047    1.7484    4.0260 H   0  0  0  0  0  0  0  0  0  0  0  0
   -3.5969    1.3201    1.5466 H   0  0  0  0  0  0  0  0  0  0  0  0
   -1.9850    3.6926    2.6620 H   0  0  0  0  0  0  0  0  0  0  0  0
   -2.6246    3.5776    1.0180 H   0  0  0  0  0  0  0  0  0  0  0  0
   -3.7342    3.6765    2.3981 H   0  0  0  0  0  0  0  0  0  0  0  0
   -1.3352    1.1101    0.3372 N   0  0  0  0  0  0  0  0  0  0  0  0
   -0.1579    0.6093   -0.3265 C   0  0  2  0  0  0  0  0  0  0  0  0
    0.6539   -0.1565    0.7121 C   0  0  0  0  0  0  0  0  0  0  0  0
    0.8306    0.2524    1.8577 O   0  0  0  0  0  0  0  0  0  0  0  0
    0.6849    1.7345   -0.9378 C   0  0  0  0  0  0  0  0  0  0  0  0
   -0.0114    2.4293   -2.0825 C   0  0  0  0  0  0  0  0  0  0  0  0
   -0.7230    3.6036   -1.9960 C   0  0  0  0  0  0  0  0  0  0  0  0
   -0.0520    1.9970   -3.4376 C   0  0  0  0  0  0  0  0  0  0  0  0
   -1.1957    3.9028   -3.2456 N   0  0  0  0  0  0  0  0  0  0  0  0
   -0.8011    2.9390   -4.1460 C   0  0  0  0  0  0  0  0  0  0  0  0
    0.4783    0.8913   -4.1317 C   0  0  0  0  0  0  0  0  0  0  0  0
   -1.0474    2.8302   -5.5192 C   0  0  0  0  0  0  0  0  0  0  0  0
    0.2400    0.7695   -5.5055 C   0  0  0  0  0  0  0  0  0  0  0  0
   -0.5113    1.7252   -6.1866 C   0  0  0  0  0  0  0  0  0  0  0  0
   -2.1183    1.4068   -0.2401 H   0  0  0  0  0  0  0  0  0  0  0  0
   -0.5065   -0.0895   -1.0960 H   0  0  0  0  0  0  0  0  0  0  0  0
    1.6533    1.3428   -1.2776 H   0  0  0  0  0  0  0  0  0  0  0  0
    0.9299    2.4871   -0.1767 H   0  0  0  0  0  0  0  0  0  0  0  0
   -0.9372    4.2527   -1.1581 H   0  0  0  0  0  0  0  0  0  0  0  0
   -1.7535    4.7139   -3.4748 H   0  0  0  0  0  0  0  0  0  0  0  0
    1.0652    0.1373   -3.6149 H   0  0  0  0  0  0  0  0  0  0  0  0
   -1.6312    3.5742   -6.0504 H   0  0  0  0  0  0  0  0  0  0  0  0
    0.6460   -0.0814   -6.0460 H   0  0  0  0  0  0  0  0  0  0  0  0
   -0.6840    1.6107   -7.2536 H   0  0  0  0  0  0  0  0  0  0  0  0
    1.1129   -1.3708    0.2207 N   0  0  0  0  0  0  0  0  0  0  0  0
    1.8888   -2.3027    1.0069 C   0  0  2  0  0  0  0  0  0  0  0  0
    3.0369   -1.5349    1.6485 C   0  0  0  0  0  0  0  0  0  0  0  0
    3.4640   -0.4714    1.2039 O   0  0  0  0  0  0  0  0  0  0  0  0
    2.4109   -3.4472    0.1522 C   0  0  0  0  0  0  0  0  0  0  0  0
    0.8923   -1.6168   -0.7398 H   0  0  0  0  0  0  0  0  0  0  0  0
    1.2243   -2.6875    1.7882 H   0  0  0  0  0  0  0  0  0  0  0  0
    3.0786   -3.0811   -0.6362 H   0  0  0  0  0  0  0  0  0  0  0  0
    2.9744   -4.1673    0.7546 H   0  0  0  0  0  0  0  0  0  0  0  0
    1.5854   -3.9798   -0.3322 H   0  0  0  0  0  0  0  0  0  0  0  0
    3.5569   -2.1984    2.7510 N   0  0  0  0  0  0  0  0  0  0  0  0
    4.6611   -1.6796    3.5240 C   0  0  0  0  0  0  0  0  0  0  0  0
    3.1283   -3.0660    3.0600 H   0  0  0  0  0  0  0  0  0  0  0  0
    5.6058   -2.0851    3.1327 H   0  0  0  0  0  0  0  0  0  0  0  0
    4.6754   -0.5821    3.4517 H   0  0  0  0  0  0  0  0  0  0  0  0
    4.5430   -1.9761    4.5767 H   0  0  0  0  0  0  0  0  0  0  0  0
 29 30  2  0  0  0  0
 27 29  1  0  0  0  0
 28 30  1  0  0  0  0
 24 27  2  0  0  0  0
 26 28  2  0  0  0  0
 22 23  2  0  0  0  0
 23 25  1  0  0  0  0
 22 24  1  0  0  0  0
 24 26  1  0  0  0  0
 21 22  1  0  0  0  0
 25 26  1  0  0  0  0
  1  3  1  0  0  0  0
  1  7  1  0  0  0  0
  1  2  2  0  0  0  0
 42 43  1  0  0  0  0
 43 51  1  0  0  0  0
 43 44  2  0  0  0  0
  8  9  1  0  0  0  0
  9 17  1  0  0  0  0
  9 10  2  0  0  0  0
 18 19  1  0  0  0  0
 19 41  1  0  0  0  0
 19 20  2  0  0  0  0
 42 45  1  0  0  0  0
  8 11  1  0  0  0  0
 51 52  1  0  0  0  0
 18 21  1  0  0  0  0
 41 42  1  0  0  0  0
  7  8  1  0  0  0  0
 17 18  1  0  0  0  0
 29 39  1  0  0  0  0
 30 40  1  0  0  0  0
 27 37  1  0  0  0  0
 28 38  1  0  0  0  0
 23 35  1  0  0  0  0
  3  4  1  0  0  0  0
  3  5  1  0  0  0  0
  3  6  1  0  0  0  0
 45 48  1  0  0  0  0
 45 49  1  0  0  0  0
 45 50  1  0  0  0  0
 11 14  1  0  0  0  0
 11 15  1  0  0  0  0
 11 16  1  0  0  0  0
 52 54  1  0  0  0  0
 52 55  1  0  0  0  0
 52 56  1  0  0  0  0
 21 33  1  0  0  0  0
 21 34  1  0  0  0  0
 42 47  1  0  0  0  0
  8 13  1  0  0  0  0
 18 32  1  0  0  0  0
 25 36  1  0  0  0  0
 51 53  1  0  0  0  0
  7 12  1  0  0  0  0
 41 46  1  0  0  0  0
 17 31  1  0  0  0  0
M  END
$$$$

  -OEChem-05262214473D

 56 57  0     1  0  0  0  0  0999 V2000
   -2.2900    0.3401    4.1553 C   0  0  0  0  0  0  0  0  0  0  0  0
   -1.3426   -0.2746    3.6796 O   0  0  0  0  0  0  0  0  0  0  0  0
   -2.7219    0.0577    5.5560 C   0  0  0  0  0  0  0  0  0  0  0  0
   -3.4815   -0.7386    5.6094 H   0  0  0  0  0  0  0  0  0  0  0  0
   -1.8906   -0.2899    6.1903 H   0  0  0  0  0  0  0  0  0  0  0  0
   -3.1599    0.9126    6.0956 H   0  0  0  0  0  0  0  0  0  0  0  0
   -3.0397    1.3125    3.5142 N   0  0  0  0  0  0  0  0  0  0  0  0
   -2.7928    1.7385    2.1618 C   0  0  2  0  0  0  0  0  0  0  0  0
   -1.4579    1.1532    1.7206 C   0  0  0  0  0  0  0  0  0  0  0  0
   -0.5858    0.8004    2.5118 O   0  0  0  0  0  0  0  0  0  0  0  0
   -2.7841    3.2553    2.0523 C   0  0  0  0  0  0  0  0  0  0  0  0
   -3.8047    1.7484    4.0260 H   0  0  0  0  0  0  0  0  0  0  0  0
   -3.5969    1.3201    1.5466 H   0  0  0  0  0  0  0  0  0  0  0  0
   -1.9850    3.6926    2.6620 H   0  0  0  0  0  0  0  0  0  0  0  0
   -2.6246    3.5776    1.0180 H   0  0  0  0  0  0  0  0  0  0  0  0
   -3.7342    3.6765    2.3981 H   0  0  0  0  0  0  0  0  0  0  0  0
   -1.3352    1.1101    0.3372 N   0  0  0  0  0  0  0  0  0  0  0  0
   -0.1579    0.6093   -0.3265 C   0  0  2  0  0  0  0  0  0  0  0  0
    0.6539   -0.1565    0.7121 C   0  0  0  0  0  0  0  0  0  0  0  0
    0.6157    0.1003    1.9135 O   0  0  0  0  0  0  0  0  0  0  0  0
    0.6849    1.7345   -0.9378 C   0  0  0  0  0  0  0  0  0  0  0  0
   -0.0114    2.4293   -2.0825 C   0  0  0  0  0  0  0  0  0  0  0  0
   -0.7230    3.6036   -1.9960 C   0  0  0  0  0  0  0  0  0  0  0  0
   -0.0520    1.9970   -3.4376 C   0  0  0  0  0  0  0  0  0  0  0  0
   -1.1957    3.9028   -3.2456 N   0  0  0  0  0  0  0  0  0  0  0  0
   -0.8011    2.9390   -4.1460 C   0  0  0  0  0  0  0  0  0  0  0  0
    0.4783    0.8913   -4.1317 C   0  0  0  0  0  0  0  0  0  0  0  0
   -1.0474    2.8302   -5.5192 C   0  0  0  0  0  0  0  0  0  0  0  0
    0.2400    0.7695   -5.5055 C   0  0  0  0  0  0  0  0  0  0  0  0
   -0.5113    1.7252   -6.1866 C   0  0  0  0  0  0  0  0  0  0  0  0
   -2.1183    1.4068   -0.2401 H   0  0  0  0  0  0  0  0  0  0  0  0
   -0.5065   -0.0895   -1.0960 H   0  0  0  0  0  0  0  0  0  0  0  0
    1.6533    1.3428   -1.2776 H   0  0  0  0  0  0  0  0  0  0  0  0
    0.9299    2.4871   -0.1767 H   0  0  0  0  0  0  0  0  0  0  0  0
   -0.9372    4.2527   -1.1581 H   0  0  0  0  0  0  0  0  0  0  0  0
   -1.7535    4.7139   -3.4748 H   0  0  0  0  0  0  0  0  0  0  0  0
    1.0652    0.1373   -3.6149 H   0  0  0  0  0  0  0  0  0  0  0  0
   -1.6312    3.5742   -6.0504 H   0  0  0  0  0  0  0  0  0  0  0  0
    0.6460   -0.0814   -6.0460 H   0  0  0  0  0  0  0  0  0  0  0  0
   -0.6840    1.6107   -7.2536 H   0  0  0  0  0  0  0  0  0  0  0  0
    1.3846   -1.1896    0.1418 N   0  0  0  0  0  0  0  0  0  0  0  0
    2.2220   -2.0857    0.9065 C   0  0  2  0  0  0  0  0  0  0  0  0
    3.1242   -1.2413    1.7968 C   0  0  0  0  0  0  0  0  0  0  0  0
    3.3959   -0.0670    1.5552 O   0  0  0  0  0  0  0  0  0  0  0  0
    3.0440   -2.9859   -0.0026 C   0  0  0  0  0  0  0  0  0  0  0  0
    1.3280   -1.3227   -0.8636 H   0  0  0  0  0  0  0  0  0  0  0  0
    1.5531   -2.6885    1.5304 H   0  0  0  0  0  0  0  0  0  0  0  0
    3.7204   -2.3996   -0.6354 H   0  0  0  0  0  0  0  0  0  0  0  0
    3.6565   -3.6834    0.5782 H   0  0  0  0  0  0  0  0  0  0  0  0
    2.3945   -3.5706   -0.6629 H   0  0  0  0  0  0  0  0  0  0  0  0
    3.6248   -1.9658    2.8695 N   0  0  0  0  0  0  0  0  0  0  0  0
    4.5149   -1.3911    3.8510 C   0  0  0  0  0  0  0  0  0  0  0  0
    3.3311   -2.9291    3.0024 H   0  0  0  0  0  0  0  0  0  0  0  0
    5.5577   -1.5698    3.5503 H   0  0  0  0  0  0  0  0  0  0  0  0
    4.3339   -0.3083    3.9205 H   0  0  0  0  0  0  0  0  0  0  0  0
    4.3308   -1.8572    4.8302 H   0  0  0  0  0  0  0  0  0  0  0  0
 29 30  2  0  0  0  0
 27 29  1  0  0  0  0
 28 30  1  0  0  0  0
 24 27  2  0  0  0  0
 26 28  2  0  0  0  0
 22 23  2  0  0  0  0
 23 25  1  0  0  0  0
 22 24  1  0  0  0  0
 24 26  1  0  0  0  0
 21 22  1  0  0  0  0
 25 26  1  0  0  0  0
  1  3  1  0  0  0  0
  1  7  1  0  0  0  0
  1  2  2  0  0  0  0
 42 43  1  0  0  0  0
 43 51  1  0  0  0  0
 43 44  2  0  0  0  0
  8  9  1  0  0  0  0
  9 17  1  0  0  0  0
  9 10  2  0  0  0  0
 18 19  1  0  0  0  0
 19 41  1  0  0  0  0
 19 20  2  0  0  0  0
 42 45  1  0  0  0  0
  8 11  1  0  0  0  0
 51 52  1  0  0  0  0
 18 21  1  0  0  0  0
 41 42  1  0  0  0  0
  7  8  1  0  0  0  0
 17 18  1  0  0  0  0
 29 39  1  0  0  0  0
 30 40  1  0  0  0  0
 27 37  1  0  0  0  0
 28 38  1  0  0  0  0
 23 35  1  0  0  0  0
  3  4  1  0  0  0  0
  3  5  1  0  0  0  0
  3  6  1  0  0  0  0
 45 48  1  0  0  0  0
 45 49  1  0  0  0  0
 45 50  1  0  0  0  0
 11 14  1  0  0  0  0
 11 15  1  0  0  0  0
 11 16  1  0  0  0  0
 52 54  1  0  0  0  0
 52 55  1  0  0  0  0
 52 56  1  0  0  0  0
 21 33  1  0  0  0  0
 21 34  1  0  0  0  0
 42 47  1  0  0  0  0
  8 13  1  0  0  0  0
 18 32  1  0  0  0  0
 25 36  1  0  0  0  0
 51 53  1  0  0  0  0
  7 12  1  0  0  0  0
 41 46  1  0  0  0  0
 17 31  1  0  0  0  0
M  END
$$$$

  -OEChem-05262214473D

 56 57  0     1  0  0  0  0  0999 V2000
   -2.2900    0.3401    4.1553 C   0  0  0  0  0  0  0  0  0  0  0  0
   -1.3426   -0.2746    3.6796 O   0  0  0  0  0  0  0  0  0  0  0  0
   -2.7219    0.0577    5.5560 C   0  0  0  0  0  0  0  0  0  0  0  0
   -3.4815   -0.7386    5.6094 H   0  0  0  0  0  0  0  0  0  0  0  0
   -1.8906   -0.2899    6.1903 H   0  0  0  0  0  0  0  0  0  0  0  0
   -3.1599    0.9126    6.0956 H   0  0  0  0  0  0  0  0  0  0  0  0
   -3.0397    1.3125    3.5142 N   0  0  0  0  0  0  0  0  0  0  0  0
   -2.7928    1.7385    2.1618 C   0  0  2  0  0  0  0  0  0  0  0  0
   -1.4579    1.1532    1.7206 C   0  0  0  0  0  0  0  0  0  0  0  0
   -0.5858    0.8004    2.5118 O   0  0  0  0  0  0  0  0  0  0  0  0
   -2.7841    3.2553    2.0523 C   0  0  0  0  0  0  0  0  0  0  0  0
   -3.8047    1.7484    4.0260 H   0  0  0  0  0  0  0  0  0  0  0  0
   -3.5969    1.3201    1.5466 H   0  0  0  0  0  0  0  0  0  0  0  0
   -1.9850    3.6926    2.6620 H   0  0  0  0  0  0  0  0  0  0  0  0
   -2.6246    3.5776    1.0180 H   0  0  0  0  0  0  0  0  0  0  0  0
   -3.7342    3.6765    2.3981 H   0  0  0  0  0  0  0  0  0  0  0  0
   -1.3352    1.1101    0.3372 N   0  0  0  0  0  0  0  0  0  0  0  0
   -0.1579    0.6093   -0.3265 C   0  0  2  0  0  0  0  0  0  0  0  0
    0.6539   -0.1565    0.7121 C   0  0  0  0  0  0  0  0  0  0  0  0
    0.4276   -0.0923    1.9186 O   0  0  0  0  0  0  0  0  0  0  0  0
    0.6849    1.7345   -0.9378 C   0  0  0  0  0  0  0  0  0  0  0  0
   -0.0114    2.4293   -2.0825 C   0  0  0  0  0  0  0  0  0  0  0  0
   -0.7230    3.6036   -1.9960 C   0  0  0  0  0  0  0  0  0  0  0  0
   -0.0520    1.9970   -3.4376 C   0  0  0  0  0  0  0  0  0  0  0  0
   -1.1957    3.9028   -3.2456 N   0  0  0  0  0  0  0  0  0  0  0  0
   -0.8011    2.9390   -4.1460 C   0  0  0  0  0  0  0  0  0  0  0  0
    0.4783    0.8913   -4.1317 C   0  0  0  0  0  0  0  0  0  0  0  0
   -1.0474    2.8302   -5.5192 C   0  0  0  0  0  0  0  0  0  0  0  0
    0.2400    0.7695   -5.5055 C   0  0  0  0  0  0  0  0  0  0  0  0
   -0.5113    1.7252   -6.1866 C   0  0  0  0  0  0  0  0  0  0  0  0
   -2.1183    1.4068   -0.2401 H   0  0  0  0  0  0  0  0  0  0  0  0
   -0.5065   -0.0895   -1.0960 H   0  0  0  0  0  0  0  0  0  0  0  0
    1.6533    1.3428   -1.2776 H   0  0  0  0  0  0  0  0  0  0  0  0
    0.9299    2.4871   -0.1767 H   0  0  0  0  0  0  0  0  0  0  0  0
   -0.9372    4.2527   -1.1581 H   0  0  0  0  0  0  0  0  0  0  0  0
   -1.7535    4.7139   -3.4748 H   0  0  0  0  0  0  0  0  0  0  0  0
    1.0652    0.1373   -3.6149 H   0  0  0  0  0  0  0  0  0  0  0  0
   -1.6312    3.5742   -6.0504 H   0  0  0  0  0  0  0  0  0  0  0  0
    0.6460   -0.0814   -6.0460 H   0  0  0  0  0  0  0  0  0  0  0  0
   -0.6840    1.6107   -7.2536 H   0  0  0  0  0  0  0  0  0  0  0  0
    1.6255   -0.9559    0.1259 N   0  0  0  0  0  0  0  0  0  0  0  0
    2.5185   -1.8034    0.8829 C   0  0  2  0  0  0  0  0  0  0  0  0
    3.1374   -0.9628    1.9919 C   0  0  0  0  0  0  0  0  0  0  0  0
    3.2132    0.2631    1.9415 O   0  0  0  0  0  0  0  0  0  0  0  0
    3.5944   -2.4073   -0.0062 C   0  0  0  0  0  0  0  0  0  0  0  0
    1.7132   -0.9447   -0.8860 H   0  0  0  0  0  0  0  0  0  0  0  0
    1.9043   -2.5959    1.3240 H   0  0  0  0  0  0  0  0  0  0  0  0
    4.2200   -1.6283   -0.4572 H   0  0  0  0  0  0  0  0  0  0  0  0
    4.2529   -3.0715    0.5632 H   0  0  0  0  0  0  0  0  0  0  0  0
    3.1468   -2.9870   -0.8207 H   0  0  0  0  0  0  0  0  0  0  0  0
    3.6339   -1.7455    3.0248 N   0  0  0  0  0  0  0  0  0  0  0  0
    4.2802   -1.1833    4.1877 C   0  0  0  0  0  0  0  0  0  0  0  0
    3.5104   -2.7532    2.9919 H   0  0  0  0  0  0  0  0  0  0  0  0
    5.3662   -1.1381    4.0183 H   0  0  0  0  0  0  0  0  0  0  0  0
    3.8947   -0.1688    4.3667 H   0  0  0  0  0  0  0  0  0  0  0  0
    4.0719   -1.8147    5.0640 H   0  0  0  0  0  0  0  0  0  0  0  0
 29 30  2  0  0  0  0
 27 29  1  0  0  0  0
 28 30  1  0  0  0  0
 24 27  2  0  0  0  0
 26 28  2  0  0  0  0
 22 23  2  0  0  0  0
 23 25  1  0  0  0  0
 22 24  1  0  0  0  0
 24 26  1  0  0  0  0
 21 22  1  0  0  0  0
 25 26  1  0  0  0  0
  1  3  1  0  0  0  0
  1  7  1  0  0  0  0
  1  2  2  0  0  0  0
 42 43  1  0  0  0  0
 43 51  1  0  0  0  0
 43 44  2  0  0  0  0
  8  9  1  0  0  0  0
  9 17  1  0  0  0  0
  9 10  2  0  0  0  0
 18 19  1  0  0  0  0
 19 41  1  0  0  0  0
 19 20  2  0  0  0  0
 42 45  1  0  0  0  0
  8 11  1  0  0  0  0
 51 52  1  0  0  0  0
 18 21  1  0  0  0  0
 41 42  1  0  0  0  0
  7  8  1  0  0  0  0
 17 18  1  0  0  0  0
 29 39  1  0  0  0  0
 30 40  1  0  0  0  0
 27 37  1  0  0  0  0
 28 38  1  0  0  0  0
 23 35  1  0  0  0  0
  3  4  1  0  0  0  0
  3  5  1  0  0  0  0
  3  6  1  0  0  0  0
 45 48  1  0  0  0  0
 45 49  1  0  0  0  0
 45 50  1  0  0  0  0
 11 14  1  0  0  0  0
 11 15  1  0  0  0  0
 11 16  1  0  0  0  0
 52 54  1  0  0  0  0
 52 55  1  0  0  0  0
 52 56  1  0  0  0  0
 21 33  1  0  0  0  0
 21 34  1  0  0  0  0
 42 47  1  0  0  0  0
  8 13  1  0  0  0  0
 18 32  1  0  0  0  0
 25 36  1  0  0  0  0
 51 53  1  0  0  0  0
  7 12  1  0  0  0  0
 41 46  1  0  0  0  0
 17 31  1  0  0  0  0
M  END
$$$$

  -OEChem-05262214473D

 56 57  0     1  0  0  0  0  0999 V2000
   -2.2900    0.3401    4.1553 C   0  0  0  0  0  0  0  0  0  0  0  0
   -1.3426   -0.2746    3.6796 O   0  0  0  0  0  0  0  0  0  0  0  0
   -2.7219    0.0577    5.5560 C   0  0  0  0  0  0  0  0  0  0  0  0
   -3.4815   -0.7386    5.6094 H   0  0  0  0  0  0  0  0  0  0  0  0
   -1.8906   -0.2899    6.1903 H   0  0  0  0  0  0  0  0  0  0  0  0
   -3.1599    0.9126    6.0956 H   0  0  0  0  0  0  0  0  0  0  0  0
   -3.0397    1.3125    3.5142 N   0  0  0  0  0  0  0  0  0  0  0  0
   -2.7928    1.7385    2.1618 C   0  0  2  0  0  0  0  0  0  0  0  0
   -1.4579    1.1532    1.7206 C   0  0  0  0  0  0  0  0  0  0  0  0
   -0.5858    0.8004    2.5118 O   0  0  0  0  0  0  0  0  0  0  0  0
   -2.7841    3.2553    2.0523 C   0  0  0  0  0  0  0  0  0  0  0  0
   -3.8047    1.7484    4.0260 H   0  0  0  0  0  0  0  0  0  0  0  0
   -3.5969    1.3201    1.5466 H   0  0  0  0  0  0  0  0  0  0  0  0
   -1.9850    3.6926    2.6620 H   0  0  0  0  0  0  0  0  0  0  0  0
   -2.6246    3.5776    1.0180 H   0  0  0  0  0  0  0  0  0  0  0  0
   -3.7342    3.6765    2.3981 H   0  0  0  0  0  0  0  0  0  0  0  0
   -1.3352    1.1101    0.3372 N   0  0  0  0  0  0  0  0  0  0  0  0
   -0.1579    0.6093   -0.3265 C   0  0  2  0  0  0  0  0  0  0  0  0
    0.4541   -0.4521    0.5807 C   0  0  0  0  0  0  0  0  0  0  0  0
   -0.0525   -0.7937    1.6473 O   0  0  0  0  0  0  0  0  0  0  0  0
    0.8614    1.7181   -0.6124 C   0  0  0  0  0  0  0  0  0  0  0  0
    0.3667    2.7175   -1.6293 C   0  0  0  0  0  0  0  0  0  0  0  0
   -0.2172    3.9306   -1.3454 C   0  0  0  0  0  0  0  0  0  0  0  0
    0.4184    2.5826   -3.0450 C   0  0  0  0  0  0  0  0  0  0  0  0
   -0.5233    4.5391   -2.5330 N   0  0  0  0  0  0  0  0  0  0  0  0
   -0.1462    3.7388   -3.5878 C   0  0  0  0  0  0  0  0  0  0  0  0
    0.8929    1.5846   -3.9193 C   0  0  0  0  0  0  0  0  0  0  0  0
   -0.2606    3.9478   -4.9667 C   0  0  0  0  0  0  0  0  0  0  0  0
    0.7852    1.7801   -5.3010 C   0  0  0  0  0  0  0  0  0  0  0  0
    0.2170    2.9442   -5.8145 C   0  0  0  0  0  0  0  0  0  0  0  0
   -2.1183    1.4068   -0.2401 H   0  0  0  0  0  0  0  0  0  0  0  0
   -0.5000    0.1349   -1.2538 H   0  0  0  0  0  0  0  0  0  0  0  0
    1.8108    1.2834   -0.9533 H   0  0  0  0  0  0  0  0  0  0  0  0
    1.1078    2.2598    0.3104 H   0  0  0  0  0  0  0  0  0  0  0  0
   -0.4440    4.4152   -0.4058 H   0  0  0  0  0  0  0  0  0  0  0  0
   -0.9625    5.4449   -2.6232 H   0  0  0  0  0  0  0  0  0  0  0  0
    1.3375    0.6712   -3.5347 H   0  0  0  0  0  0  0  0  0  0  0  0
   -0.7017    4.8542   -5.3674 H   0  0  0  0  0  0  0  0  0  0  0  0
    1.1489    1.0138   -5.9803 H   0  0  0  0  0  0  0  0  0  0  0  0
    0.1434    3.0753   -6.8910 H   0  0  0  0  0  0  0  0  0  0  0  0
    1.6033   -1.0045    0.0323 N   0  0  0  0  0  0  0  0  0  0  0  0
    2.3671   -2.0488    0.6763 C   0  0  2  0  0  0  0  0  0  0  0  0
    2.6320   -1.6197    2.1134 C   0  0  0  0  0  0  0  0  0  0  0  0
    2.6073   -0.4462    2.4784 O   0  0  0  0  0  0  0  0  0  0  0  0
    3.6706   -2.3155   -0.0603 C   0  0  0  0  0  0  0  0  0  0  0  0
    1.9236   -0.6573   -0.8669 H   0  0  0  0  0  0  0  0  0  0  0  0
    1.7404   -2.9473    0.6725 H   0  0  0  0  0  0  0  0  0  0  0  0
    4.3118   -1.4265   -0.0669 H   0  0  0  0  0  0  0  0  0  0  0  0
    4.2346   -3.1264    0.4123 H   0  0  0  0  0  0  0  0  0  0  0  0
    3.4794   -2.5951   -1.1020 H   0  0  0  0  0  0  0  0  0  0  0  0
    2.9416   -2.6974    2.9312 N   0  0  0  0  0  0  0  0  0  0  0  0
    3.2454   -2.5486    4.3354 C   0  0  0  0  0  0  0  0  0  0  0  0
    2.9200   -3.6379    2.5481 H   0  0  0  0  0  0  0  0  0  0  0  0
    4.3323   -2.4420    4.4666 H   0  0  0  0  0  0  0  0  0  0  0  0
    2.7394   -1.6539    4.7271 H   0  0  0  0  0  0  0  0  0  0  0  0
    2.8955   -3.4367    4.8822 H   0  0  0  0  0  0  0  0  0  0  0  0
 29 30  2  0  0  0  0
 27 29  1  0  0  0  0
 28 30  1  0  0  0  0
 24 27  2  0  0  0  0
 26 28  2  0  0  0  0
 22 23  2  0  0  0  0
 23 25  1  0  0  0  0
 22 24  1  0  0  0  0
 24 26  1  0  0  0  0
 21 22  1  0  0  0  0
 25 26  1  0  0  0  0
  1  3  1  0  0  0  0
  1  7  1  0  0  0  0
  1  2  2  0  0  0  0
 42 43  1  0  0  0  0
 43 51  1  0  0  0  0
 43 44  2  0  0  0  0
  8  9  1  0  0  0  0
  9 17  1  0  0  0  0
  9 10  2  0  0  0  0
 18 19  1  0  0  0  0
 19 41  1  0  0  0  0
 19 20  2  0  0  0  0
 42 45  1  0  0  0  0
  8 11  1  0  0  0  0
 51 52  1  0  0  0  0
 18 21  1  0  0  0  0
 41 42  1  0  0  0  0
  7  8  1  0  0  0  0
 17 18  1  0  0  0  0
 29 39  1  0  0  0  0
 30 40  1  0  0  0  0
 27 37  1  0  0  0  0
 28 38  1  0  0  0  0
 23 35  1  0  0  0  0
  3  4  1  0  0  0  0
  3  5  1  0  0  0  0
  3  6  1  0  0  0  0
 45 48  1  0  0  0  0
 45 49  1  0  0  0  0
 45 50  1  0  0  0  0
 11 14  1  0  0  0  0
 11 15  1  0  0  0  0
 11 16  1  0  0  0  0
 52 54  1  0  0  0  0
 52 55  1  0  0  0  0
 52 56  1  0  0  0  0
 21 33  1  0  0  0  0
 21 34  1  0  0  0  0
 42 47  1  0  0  0  0
  8 13  1  0  0  0  0
 18 32  1  0  0  0  0
 25 36  1  0  0  0  0
 51 53  1  0  0  0  0
  7 12  1  0  0  0  0
 41 46  1  0  0  0  0
 17 31  1  0  0  0  0
M  END
$$$$

  -OEChem-05262214473D

 56 57  0     1  0  0  0  0  0999 V2000
   -2.2900    0.3401    4.1553 C   0  0  0  0  0  0  0  0  0  0  0  0
   -1.3426   -0.2746    3.6796 O   0  0  0  0  0  0  0  0  0  0  0  0
   -2.7219    0.0577    5.5560 C   0  0  0  0  0  0  0  0  0  0  0  0
   -3.4815   -0.7386    5.6094 H   0  0  0  0  0  0  0  0  0  0  0  0
   -1.8906   -0.2899    6.1903 H   0  0  0  0  0  0  0  0  0  0  0  0
   -3.1599    0.9126    6.0956 H   0  0  0  0  0  0  0  0  0  0  0  0
   -3.0397    1.3125    3.5142 N   0  0  0  0  0  0  0  0  0  0  0  0
   -2.7928    1.7385    2.1618 C   0  0  2  0  0  0  0  0  0  0  0  0
   -1.4579    1.1532    1.7206 C   0  0  0  0  0  0  0  0  0  0  0  0
   -0.5858    0.8004    2.5118 O   0  0  0  0  0  0  0  0  0  0  0  0
   -2.7841    3.2553    2.0523 C   0  0  0  0  0  0  0  0  0  0  0  0
   -3.8047    1.7484    4.0260 H   0  0  0  0  0  0  0  0  0  0  0  0
   -3.5969    1.3201    1.5466 H   0  0  0  0  0  0  0  0  0  0  0  0
   -1.9850    3.6926    2.6620 H   0  0  0  0  0  0  0  0  0  0  0  0
   -2.6246    3.5776    1.0180 H   0  0  0  0  0  0  0  0  0  0  0  0
   -3.7342    3.6765    2.3981 H   0  0  0  0  0  0  0  0  0  0  0  0
   -1.3352    1.1101    0.3372 N   0  0  0  0  0  0  0  0  0  0  0  0
   -0.1579    0.6093   -0.3265 C   0  0  2  0  0  0  0  0  0  0  0  0
    0.4541   -0.4521    0.5807 C   0  0  0  0  0  0  0  0  0  0  0  0
   -0.1656   -0.9868    1.4977 O   0  0  0  0  0  0  0  0  0  0  0  0
    0.8614    1.7181   -0.6124 C   0  0  0  0  0  0  0  0  0  0  0  0
    0.3667    2.7175   -1.6293 C   0  0  0  0  0  0  0  0  0  0  0  0
   -0.2172    3.9306   -1.3454 C   0  0  0  0  0  0  0  0  0  0  0  0
    0.4184    2.5826   -3.0450 C   0  0  0  0  0  0  0  0  0  0  0  0
   -0.5233    4.5391   -2.5330 N   0  0  0  0  0  0  0  0  0  0  0  0
   -0.1462    3.7388   -3.5878 C   0  0  0  0  0  0  0  0  0  0  0  0
    0.8929    1.5846   -3.9193 C   0  0  0  0  0  0  0  0  0  0  0  0
   -0.2606    3.9478   -4.9667 C   0  0  0  0  0  0  0  0  0  0  0  0
    0.7852    1.7801   -5.3010 C   0  0  0  0  0  0  0  0  0  0  0  0
    0.2170    2.9442   -5.8145 C   0  0  0  0  0  0  0  0  0  0  0  0
   -2.1183    1.4068   -0.2401 H   0  0  0  0  0  0  0  0  0  0  0  0
   -0.5000    0.1349   -1.2538 H   0  0  0  0  0  0  0  0  0  0  0  0
    1.8108    1.2834   -0.9533 H   0  0  0  0  0  0  0  0  0  0  0  0
    1.1078    2.2598    0.3104 H   0  0  0  0  0  0  0  0  0  0  0  0
   -0.4440    4.4152   -0.4058 H   0  0  0  0  0  0  0  0  0  0  0  0
   -0.9625    5.4449   -2.6232 H   0  0  0  0  0  0  0  0  0  0  0  0
    1.3375    0.6712   -3.5347 H   0  0  0  0  0  0  0  0  0  0  0  0
   -0.7017    4.8542   -5.3674 H   0  0  0  0  0  0  0  0  0  0  0  0
    1.1489    1.0138   -5.9803 H   0  0  0  0  0  0  0  0  0  0  0  0
    0.1434    3.0753   -6.8910 H   0  0  0  0  0  0  0  0  0  0  0  0
    1.7552   -0.7640    0.2112 N   0  0  0  0  0  0  0  0  0  0  0  0
    2.5571   -1.7556    0.8911 C   0  0  2  0  0  0  0  0  0  0  0  0
    2.4970   -1.4654    2.3850 C   0  0  0  0  0  0  0  0  0  0  0  0
    2.2183   -0.3591    2.8427 O   0  0  0  0  0  0  0  0  0  0  0  0
    3.9937   -1.7424    0.3923 C   0  0  0  0  0  0  0  0  0  0  0  0
    2.1642   -0.2705   -0.5767 H   0  0  0  0  0  0  0  0  0  0  0  0
    2.0959   -2.7284    0.6887 H   0  0  0  0  0  0  0  0  0  0  0  0
    4.4723   -0.7756    0.5864 H   0  0  0  0  0  0  0  0  0  0  0  0
    4.5929   -2.5133    0.8879 H   0  0  0  0  0  0  0  0  0  0  0  0
    4.0329   -1.9218   -0.6876 H   0  0  0  0  0  0  0  0  0  0  0  0
    2.8333   -2.5760    3.1464 N   0  0  0  0  0  0  0  0  0  0  0  0
    2.8625   -2.5516    4.5902 C   0  0  0  0  0  0  0  0  0  0  0  0
    3.0320   -3.4578    2.6831 H   0  0  0  0  0  0  0  0  0  0  0  0
    3.8783   -2.3053    4.9328 H   0  0  0  0  0  0  0  0  0  0  0  0
    2.1572   -1.7920    4.9583 H   0  0  0  0  0  0  0  0  0  0  0  0
    2.5738   -3.5392    4.9793 H   0  0  0  0  0  0  0  0  0  0  0  0
 29 30  2  0  0  0  0
 27 29  1  0  0  0  0
 28 30  1  0  0  0  0
 24 27  2  0  0  0  0
 26 28  2  0  0  0  0
 22 23  2  0  0  0  0
 23 25  1  0  0  0  0
 22 24  1  0  0  0  0
 24 26  1  0  0  0  0
 21 22  1  0  0  0  0
 25 26  1  0  0  0  0
  1  3  1  0  0  0  0
  1  7  1  0  0  0  0
  1  2  2  0  0  0  0
 42 43  1  0  0  0  0
 43 51  1  0  0  0  0
 43 44  2  0  0  0  0
  8  9  1  0  0  0  0
  9 17  1  0  0  0  0
  9 10  2  0  0  0  0
 18 19  1  0  0  0  0
 19 41  1  0  0  0  0
 19 20  2  0  0  0  0
 42 45  1  0  0  0  0
  8 11  1  0  0  0  0
 51 52  1  0  0  0  0
 18 21  1  0  0  0  0
 41 42  1  0  0  0  0
  7  8  1  0  0  0  0
 17 18  1  0  0  0  0
 29 39  1  0  0  0  0
 30 40  1  0  0  0  0
 27 37  1  0  0  0  0
 28 38  1  0  0  0  0
 23 35  1  0  0  0  0
  3  4  1  0  0  0  0
  3  5  1  0  0  0  0
  3  6  1  0  0  0  0
 45 48  1  0  0  0  0
 45 49  1  0  0  0  0
 45 50  1  0  0  0  0
 11 14  1  0  0  0  0
 11 15  1  0  0  0  0
 11 16  1  0  0  0  0
 52 54  1  0  0  0  0
 52 55  1  0  0  0  0
 52 56  1  0  0  0  0
 21 33  1  0  0  0  0
 21 34  1  0  0  0  0
 42 47  1  0  0  0  0
  8 13  1  0  0  0  0
 18 32  1  0  0  0  0
 25 36  1  0  0  0  0
 51 53  1  0  0  0  0
  7 12  1  0  0  0  0
 41 46  1  0  0  0  0
 17 31  1  0  0  0  0
M  END
$$$$

  -OEChem-05262214473D

 56 57  0     1  0  0  0  0  0999 V2000
   -2.2900    0.3401    4.1553 C   0  0  0  0  0  0  0  0  0  0  0  0
   -1.3426   -0.2746    3.6796 O   0  0  0  0  0  0  0  0  0  0  0  0
   -2.7219    0.0577    5.5560 C   0  0  0  0  0  0  0  0  0  0  0  0
   -3.4815   -0.7386    5.6094 H   0  0  0  0  0  0  0  0  0  0  0  0
   -1.8906   -0.2899    6.1903 H   0  0  0  0  0  0  0  0  0  0  0  0
   -3.1599    0.9126    6.0956 H   0  0  0  0  0  0  0  0  0  0  0  0
   -3.0397    1.3125    3.5142 N   0  0  0  0  0  0  0  0  0  0  0  0
   -2.7928    1.7385    2.1618 C   0  0  2  0  0  0  0  0  0  0  0  0
   -1.4579    1.1532    1.7206 C   0  0  0  0  0  0  0  0  0  0  0  0
   -0.5858    0.8004    2.5118 O   0  0  0  0  0  0  0  0  0  0  0  0
   -2.7841    3.2553    2.0523 C   0  0  0  0  0  0  0  0  0  0  0  0
   -3.8047    1.7484    4.0260 H   0  0  0  0  0  0  0  0  0  0  0  0
   -3.5969    1.3201    1.5466 H   0  0  0  0  0  0  0  0  0  0  0  0
   -1.9850    3.6926    2.6620 H   0  0  0  0  0  0  0  0  0  0  0  0
   -2.6246    3.5776    1.0180 H   0  0  0  0  0  0  0  0  0  0  0  0
   -3.7342    3.6765    2.3981 H   0  0  0  0  0  0  0  0  0  0  0  0
   -1.3352    1.1101    0.3372 N   0  0  0  0  0  0  0  0  0  0  0  0
   -0.1579    0.6093   -0.3265 C   0  0  2  0  0  0  0  0  0  0  0  0
    0.4541   -0.4521    0.5807 C   0  0  0  0  0  0  0  0  0  0  0  0
   -0.2183   -1.1752    1.3128 O   0  0  0  0  0  0  0  0  0  0  0  0
    0.8614    1.7181   -0.6124 C   0  0  0  0  0  0  0  0  0  0  0  0
    0.3667    2.7175   -1.6293 C   0  0  0  0  0  0  0  0  0  0  0  0
   -0.2172    3.9306   -1.3454 C   0  0  0  0  0  0  0  0  0  0  0  0
    0.4184    2.5826   -3.0450 C   0  0  0  0  0  0  0  0  0  0  0  0
   -0.5233    4.5391   -2.5330 N   0  0  0  0  0  0  0  0  0  0  0  0
   -0.1462    3.7388   -3.5878 C   0  0  0  0  0  0  0  0  0  0  0  0
    0.8929    1.5846   -3.9193 C   0  0  0  0  0  0  0  0  0  0  0  0
   -0.2606    3.9478   -4.9667 C   0  0  0  0  0  0  0  0  0  0  0  0
    0.7852    1.7801   -5.3010 C   0  0  0  0  0  0  0  0  0  0  0  0
    0.2170    2.9442   -5.8145 C   0  0  0  0  0  0  0  0  0  0  0  0
   -2.1183    1.4068   -0.2401 H   0  0  0  0  0  0  0  0  0  0  0  0
   -0.5000    0.1349   -1.2538 H   0  0  0  0  0  0  0  0  0  0  0  0
    1.8108    1.2834   -0.9533 H   0  0  0  0  0  0  0  0  0  0  0  0
    1.1078    2.2598    0.3104 H   0  0  0  0  0  0  0  0  0  0  0  0
   -0.4440    4.4152   -0.4058 H   0  0  0  0  0  0  0  0  0  0  0  0
   -0.9625    5.4449   -2.6232 H   0  0  0  0  0  0  0  0  0  0  0  0
    1.3375    0.6712   -3.5347 H   0  0  0  0  0  0  0  0  0  0  0  0
   -0.7017    4.8542   -5.3674 H   0  0  0  0  0  0  0  0  0  0  0  0
    1.1489    1.0138   -5.9803 H   0  0  0  0  0  0  0  0  0  0  0  0
    0.1434    3.0753   -6.8910 H   0  0  0  0  0  0  0  0  0  0  0  0
    1.8326   -0.5270    0.4364 N   0  0  0  0  0  0  0  0  0  0  0  0
    2.6568   -1.4655    1.1633 C   0  0  2  0  0  0  0  0  0  0  0  0
    2.2939   -1.3654    2.6391 C   0  0  0  0  0  0  0  0  0  0  0  0
    1.7635   -0.3728    3.1335 O   0  0  0  0  0  0  0  0  0  0  0  0
    4.1359   -1.1861    0.9472 C   0  0  0  0  0  0  0  0  0  0  0  0
    2.2848    0.1100   -0.2129 H   0  0  0  0  0  0  0  0  0  0  0  0
    2.4027   -2.4640    0.7911 H   0  0  0  0  0  0  0  0  0  0  0  0
    4.4094   -0.1900    1.3140 H   0  0  0  0  0  0  0  0  0  0  0  0
    4.7589   -1.9153    1.4755 H   0  0  0  0  0  0  0  0  0  0  0  0
    4.3892   -1.2292   -0.1177 H   0  0  0  0  0  0  0  0  0  0  0  0
    2.6712   -2.4977    3.3473 N   0  0  0  0  0  0  0  0  0  0  0  0
    2.4472   -2.6400    4.7670 C   0  0  0  0  0  0  0  0  0  0  0  0
    3.0882   -3.2807    2.8525 H   0  0  0  0  0  0  0  0  0  0  0  0
    3.3348   -2.2917    5.3155 H   0  0  0  0  0  0  0  0  0  0  0  0
    1.5745   -2.0390    5.0624 H   0  0  0  0  0  0  0  0  0  0  0  0
    2.2613   -3.6978    5.0046 H   0  0  0  0  0  0  0  0  0  0  0  0
 29 30  2  0  0  0  0
 27 29  1  0  0  0  0
 28 30  1  0  0  0  0
 24 27  2  0  0  0  0
 26 28  2  0  0  0  0
 22 23  2  0  0  0  0
 23 25  1  0  0  0  0
 22 24  1  0  0  0  0
 24 26  1  0  0  0  0
 21 22  1  0  0  0  0
 25 26  1  0  0  0  0
  1  3  1  0  0  0  0
  1  7  1  0  0  0  0
  1  2  2  0  0  0  0
 42 43  1  0  0  0  0
 43 51  1  0  0  0  0
 43 44  2  0  0  0  0
  8  9  1  0  0  0  0
  9 17  1  0  0  0  0
  9 10  2  0  0  0  0
 18 19  1  0  0  0  0
 19 41  1  0  0  0  0
 19 20  2  0  0  0  0
 42 45  1  0  0  0  0
  8 11  1  0  0  0  0
 51 52  1  0  0  0  0
 18 21  1  0  0  0  0
 41 42  1  0  0  0  0
  7  8  1  0  0  0  0
 17 18  1  0  0  0  0
 29 39  1  0  0  0  0
 30 40  1  0  0  0  0
 27 37  1  0  0  0  0
 28 38  1  0  0  0  0
 23 35  1  0  0  0  0
  3  4  1  0  0  0  0
  3  5  1  0  0  0  0
  3  6  1  0  0  0  0
 45 48  1  0  0  0  0
 45 49  1  0  0  0  0
 45 50  1  0  0  0  0
 11 14  1  0  0  0  0
 11 15  1  0  0  0  0
 11 16  1  0  0  0  0
 52 54  1  0  0  0  0
 52 55  1  0  0  0  0
 52 56  1  0  0  0  0
 21 33  1  0  0  0  0
 21 34  1  0  0  0  0
 42 47  1  0  0  0  0
  8 13  1  0  0  0  0
 18 32  1  0  0  0  0
 25 36  1  0  0  0  0
 51 53  1  0  0  0  0
  7 12  1  0  0  0  0
 41 46  1  0  0  0  0
 17 31  1  0  0  0  0
M  END
$$$$

  -OEChem-05262214473D

 56 57  0     1  0  0  0  0  0999 V2000
   -2.2900    0.3401    4.1553 C   0  0  0  0  0  0  0  0  0  0  0  0
   -1.3426   -0.2746    3.6796 O   0  0  0  0  0  0  0  0  0  0  0  0
   -2.7219    0.0577    5.5560 C   0  0  0  0  0  0  0  0  0  0  0  0
   -3.4815   -0.7386    5.6094 H   0  0  0  0  0  0  0  0  0  0  0  0
   -1.8906   -0.2899    6.1903 H   0  0  0  0  0  0  0  0  0  0  0  0
   -3.1599    0.9126    6.0956 H   0  0  0  0  0  0  0  0  0  0  0  0
   -3.0397    1.3125    3.5142 N   0  0  0  0  0  0  0  0  0  0  0  0
   -2.7928    1.7385    2.1618 C   0  0  2  0  0  0  0  0  0  0  0  0
   -1.4579    1.1532    1.7206 C   0  0  0  0  0  0  0  0  0  0  0  0
   -0.5858    0.8004    2.5118 O   0  0  0  0  0  0  0  0  0  0  0  0
   -2.7841    3.2553    2.0523 C   0  0  0  0  0  0  0  0  0  0  0  0
   -3.8047    1.7484    4.0260 H   0  0  0  0  0  0  0  0  0  0  0  0
   -3.5969    1.3201    1.5466 H   0  0  0  0  0  0  0  0  0  0  0  0
   -1.9850    3.6926    2.6620 H   0  0  0  0  0  0  0  0  0  0  0  0
   -2.6246    3.5776    1.0180 H   0  0  0  0  0  0  0  0  0  0  0  0
   -3.7342    3.6765    2.3981 H   0  0  0  0  0  0  0  0  0  0  0  0
   -1.3352    1.1101    0.3372 N   0  0  0  0  0  0  0  0  0  0  0  0
   -0.1579    0.6093   -0.3265 C   0  0  2  0  0  0  0  0  0  0  0  0
    0.4541   -0.4521    0.5807 C   0  0  0  0  0  0  0  0  0  0  0  0
   -0.2067   -1.3460    1.1051 O   0  0  0  0  0  0  0  0  0  0  0  0
    0.8614    1.7181   -0.6124 C   0  0  0  0  0  0  0  0  0  0  0  0
    0.3667    2.7175   -1.6293 C   0  0  0  0  0  0  0  0  0  0  0  0
   -0.2172    3.9306   -1.3454 C   0  0  0  0  0  0  0  0  0  0  0  0
    0.4184    2.5826   -3.0450 C   0  0  0  0  0  0  0  0  0  0  0  0
   -0.5233    4.5391   -2.5330 N   0  0  0  0  0  0  0  0  0  0  0  0
   -0.1462    3.7388   -3.5878 C   0  0  0  0  0  0  0  0  0  0  0  0
    0.8929    1.5846   -3.9193 C   0  0  0  0  0  0  0  0  0  0  0  0
   -0.2606    3.9478   -4.9667 C   0  0  0  0  0  0  0  0  0  0  0  0
    0.7852    1.7801   -5.3010 C   0  0  0  0  0  0  0  0  0  0  0  0
    0.2170    2.9442   -5.8145 C   0  0  0  0  0  0  0  0  0  0  0  0
   -2.1183    1.4068   -0.2401 H   0  0  0  0  0  0  0  0  0  0  0  0
   -0.5000    0.1349   -1.2538 H   0  0  0  0  0  0  0  0  0  0  0  0
    1.8108    1.2834   -0.9533 H   0  0  0  0  0  0  0  0  0  0  0  0
    1.1078    2.2598    0.3104 H   0  0  0  0  0  0  0  0  0  0  0  0
   -0.4440    4.4152   -0.4058 H   0  0  0  0  0  0  0  0  0  0  0  0
   -0.9625    5.4449   -2.6232 H   0  0  0  0  0  0  0  0  0  0  0  0
    1.3375    0.6712   -3.5347 H   0  0  0  0  0  0  0  0  0  0  0  0
   -0.7017    4.8542   -5.3674 H   0  0  0  0  0  0  0  0  0  0  0  0
    1.1489    1.0138   -5.9803 H   0  0  0  0  0  0  0  0  0  0  0  0
    0.1434    3.0753   -6.8910 H   0  0  0  0  0  0  0  0  0  0  0  0
    1.8302   -0.3094    0.6924 N   0  0  0  0  0  0  0  0  0  0  0  0
    2.6593   -1.1982    1.4743 C   0  0  2  0  0  0  0  0  0  0  0  0
    2.0365   -1.3264    2.8582 C   0  0  0  0  0  0  0  0  0  0  0  0
    1.2739   -0.4863    3.3311 O   0  0  0  0  0  0  0  0  0  0  0  0
    4.0877   -0.6844    1.5666 C   0  0  0  0  0  0  0  0  0  0  0  0
    2.2771    0.4583    0.1998 H   0  0  0  0  0  0  0  0  0  0  0  0
    2.6398   -2.1719    0.9728 H   0  0  0  0  0  0  0  0  0  0  0  0
    4.1273    0.2904    2.0663 H   0  0  0  0  0  0  0  0  0  0  0  0
    4.7212   -1.3732    2.1352 H   0  0  0  0  0  0  0  0  0  0  0  0
    4.5239   -0.5645    0.5690 H   0  0  0  0  0  0  0  0  0  0  0  0
    2.4664   -2.4680    3.5203 N   0  0  0  0  0  0  0  0  0  0  0  0
    2.0278   -2.8077    4.8538 C   0  0  0  0  0  0  0  0  0  0  0  0
    3.0846   -3.1186    3.0446 H   0  0  0  0  0  0  0  0  0  0  0  0
    2.7387   -2.4019    5.5886 H   0  0  0  0  0  0  0  0  0  0  0  0
    1.0309   -2.3782    5.0323 H   0  0  0  0  0  0  0  0  0  0  0  0
    1.9793   -3.9018    4.9561 H   0  0  0  0  0  0  0  0  0  0  0  0
 29 30  2  0  0  0  0
 27 29  1  0  0  0  0
 28 30  1  0  0  0  0
 24 27  2  0  0  0  0
 26 28  2  0  0  0  0
 22 23  2  0  0  0  0
 23 25  1  0  0  0  0
 22 24  1  0  0  0  0
 24 26  1  0  0  0  0
 21 22  1  0  0  0  0
 25 26  1  0  0  0  0
  1  3  1  0  0  0  0
  1  7  1  0  0  0  0
  1  2  2  0  0  0  0
 42 43  1  0  0  0  0
 43 51  1  0  0  0  0
 43 44  2  0  0  0  0
  8  9  1  0  0  0  0
  9 17  1  0  0  0  0
  9 10  2  0  0  0  0
 18 19  1  0  0  0  0
 19 41  1  0  0  0  0
 19 20  2  0  0  0  0
 42 45  1  0  0  0  0
  8 11  1  0  0  0  0
 51 52  1  0  0  0  0
 18 21  1  0  0  0  0
 41 42  1  0  0  0  0
  7  8  1  0  0  0  0
 17 18  1  0  0  0  0
 29 39  1  0  0  0  0
 30 40  1  0  0  0  0
 27 37  1  0  0  0  0
 28 38  1  0  0  0  0
 23 35  1  0  0  0  0
  3  4  1  0  0  0  0
  3  5  1  0  0  0  0
  3  6  1  0  0  0  0
 45 48  1  0  0  0  0
 45 49  1  0  0  0  0
 45 50  1  0  0  0  0
 11 14  1  0  0  0  0
 11 15  1  0  0  0  0
 11 16  1  0  0  0  0
 52 54  1  0  0  0  0
 52 55  1  0  0  0  0
 52 56  1  0  0  0  0
 21 33  1  0  0  0  0
 21 34  1  0  0  0  0
 42 47  1  0  0  0  0
  8 13  1  0  0  0  0
 18 32  1  0  0  0  0
 25 36  1  0  0  0  0
 51 53  1  0  0  0  0
  7 12  1  0  0  0  0
 41 46  1  0  0  0  0
 17 31  1  0  0  0  0
M  END
$$$$

  -OEChem-05262214473D

 56 57  0     1  0  0  0  0  0999 V2000
   -2.2900    0.3401    4.1553 C   0  0  0  0  0  0  0  0  0  0  0  0
   -1.3426   -0.2746    3.6796 O   0  0  0  0  0  0  0  0  0  0  0  0
   -2.7219    0.0577    5.5560 C   0  0  0  0  0  0  0  0  0  0  0  0
   -3.4815   -0.7386    5.6094 H   0  0  0  0  0  0  0  0  0  0  0  0
   -1.8906   -0.2899    6.1903 H   0  0  0  0  0  0  0  0  0  0  0  0
   -3.1599    0.9126    6.0956 H   0  0  0  0  0  0  0  0  0  0  0  0
   -3.0397    1.3125    3.5142 N   0  0  0  0  0  0  0  0  0  0  0  0
   -2.7928    1.7385    2.1618 C   0  0  2  0  0  0  0  0  0  0  0  0
   -1.4579    1.1532    1.7206 C   0  0  0  0  0  0  0  0  0  0  0  0
   -0.5858    0.8004    2.5118 O   0  0  0  0  0  0  0  0  0  0  0  0
   -2.7841    3.2553    2.0523 C   0  0  0  0  0  0  0  0  0  0  0  0
   -3.8047    1.7484    4.0260 H   0  0  0  0  0  0  0  0  0  0  0  0
   -3.5969    1.3201    1.5466 H   0  0  0  0  0  0  0  0  0  0  0  0
   -1.9850    3.6926    2.6620 H   0  0  0  0  0  0  0  0  0  0  0  0
   -2.6246    3.5776    1.0180 H   0  0  0  0  0  0  0  0  0  0  0  0
   -3.7342    3.6765    2.3981 H   0  0  0  0  0  0  0  0  0  0  0  0
   -1.3352    1.1101    0.3372 N   0  0  0  0  0  0  0  0  0  0  0  0
   -0.1579    0.6093   -0.3265 C   0  0  2  0  0  0  0  0  0  0  0  0
    0.4541   -0.4521    0.5807 C   0  0  0  0  0  0  0  0  0  0  0  0
   -0.1319   -1.4877    0.8889 O   0  0  0  0  0  0  0  0  0  0  0  0
    0.8614    1.7181   -0.6124 C   0  0  0  0  0  0  0  0  0  0  0  0
    0.3667    2.7175   -1.6293 C   0  0  0  0  0  0  0  0  0  0  0  0
   -0.2172    3.9306   -1.3454 C   0  0  0  0  0  0  0  0  0  0  0  0
    0.4184    2.5826   -3.0450 C   0  0  0  0  0  0  0  0  0  0  0  0
   -0.5233    4.5391   -2.5330 N   0  0  0  0  0  0  0  0  0  0  0  0
   -0.1462    3.7388   -3.5878 C   0  0  0  0  0  0  0  0  0  0  0  0
    0.8929    1.5846   -3.9193 C   0  0  0  0  0  0  0  0  0  0  0  0
   -0.2606    3.9478   -4.9667 C   0  0  0  0  0  0  0  0  0  0  0  0
    0.7852    1.7801   -5.3010 C   0  0  0  0  0  0  0  0  0  0  0  0
    0.2170    2.9442   -5.8145 C   0  0  0  0  0  0  0  0  0  0  0  0
   -2.1183    1.4068   -0.2401 H   0  0  0  0  0  0  0  0  0  0  0  0
   -0.5000    0.1349   -1.2538 H   0  0  0  0  0  0  0  0  0  0  0  0
    1.8108    1.2834   -0.9533 H   0  0  0  0  0  0  0  0  0  0  0  0
    1.1078    2.2598    0.3104 H   0  0  0  0  0  0  0  0  0  0  0  0
   -0.4440    4.4152   -0.4058 H   0  0  0  0  0  0  0  0  0  0  0  0
   -0.9625    5.4449   -2.6232 H   0  0  0  0  0  0  0  0  0  0  0  0
    1.3375    0.6712   -3.5347 H   0  0  0  0  0  0  0  0  0  0  0  0
   -0.7017    4.8542   -5.3674 H   0  0  0  0  0  0  0  0  0  0  0  0
    1.1489    1.0138   -5.9803 H   0  0  0  0  0  0  0  0  0  0  0  0
    0.1434    3.0753   -6.8910 H   0  0  0  0  0  0  0  0  0  0  0  0
    1.7484   -0.1263    0.9619 N   0  0  0  0  0  0  0  0  0  0  0  0
    2.5646   -0.9720    1.8030 C   0  0  2  0  0  0  0  0  0  0  0  0
    1.7424   -1.3512    3.0276 C   0  0  0  0  0  0  0  0  0  0  0  0
    0.7829   -0.6918    3.4219 O   0  0  0  0  0  0  0  0  0  0  0  0
    3.8522   -0.2717    2.2083 C   0  0  0  0  0  0  0  0  0  0  0  0
    2.1416    0.7507    0.6332 H   0  0  0  0  0  0  0  0  0  0  0  0
    2.7912   -1.8722    1.2214 H   0  0  0  0  0  0  0  0  0  0  0  0
    3.6453    0.6328    2.7920 H   0  0  0  0  0  0  0  0  0  0  0  0
    4.4824   -0.9239    2.8219 H   0  0  0  0  0  0  0  0  0  0  0  0
    4.4280    0.0269    1.3257 H   0  0  0  0  0  0  0  0  0  0  0  0
    2.2328   -2.4888    3.6535 N   0  0  0  0  0  0  0  0  0  0  0  0
    1.6328   -3.0432    4.8446 C   0  0  0  0  0  0  0  0  0  0  0  0
    3.0216   -2.9824    3.2463 H   0  0  0  0  0  0  0  0  0  0  0  0
    2.1306   -2.6286    5.7336 H   0  0  0  0  0  0  0  0  0  0  0  0
    0.5636   -2.7864    4.8700 H   0  0  0  0  0  0  0  0  0  0  0  0
    1.7471   -4.1373    4.8373 H   0  0  0  0  0  0  0  0  0  0  0  0
 29 30  2  0  0  0  0
 27 29  1  0  0  0  0
 28 30  1  0  0  0  0
 24 27  2  0  0  0  0
 26 28  2  0  0  0  0
 22 23  2  0  0  0  0
 23 25  1  0  0  0  0
 22 24  1  0  0  0  0
 24 26  1  0  0  0  0
 21 22  1  0  0  0  0
 25 26  1  0  0  0  0
  1  3  1  0  0  0  0
  1  7  1  0  0  0  0
  1  2  2  0  0  0  0
 42 43  1  0  0  0  0
 43 51  1  0  0  0  0
 43 44  2  0  0  0  0
  8  9  1  0  0  0  0
  9 17  1  0  0  0  0
  9 10  2  0  0  0  0
 18 19  1  0  0  0  0
 19 41  1  0  0  0  0
 19 20  2  0  0  0  0
 42 45  1  0  0  0  0
  8 11  1  0  0  0  0
 51 52  1  0  0  0  0
 18 21  1  0  0  0  0
 41 42  1  0  0  0  0
  7  8  1  0  0  0  0
 17 18  1  0  0  0  0
 29 39  1  0  0  0  0
 30 40  1  0  0  0  0
 27 37  1  0  0  0  0
 28 38  1  0  0  0  0
 23 35  1  0  0  0  0
  3  4  1  0  0  0  0
  3  5  1  0  0  0  0
  3  6  1  0  0  0  0
 45 48  1  0  0  0  0
 45 49  1  0  0  0  0
 45 50  1  0  0  0  0
 11 14  1  0  0  0  0
 11 15  1  0  0  0  0
 11 16  1  0  0  0  0
 52 54  1  0  0  0  0
 52 55  1  0  0  0  0
 52 56  1  0  0  0  0
 21 33  1  0  0  0  0
 21 34  1  0  0  0  0
 42 47  1  0  0  0  0
  8 13  1  0  0  0  0
 18 32  1  0  0  0  0
 25 36  1  0  0  0  0
 51 53  1  0  0  0  0
  7 12  1  0  0  0  0
 41 46  1  0  0  0  0
 17 31  1  0  0  0  0
M  END
$$$$

  -OEChem-05262214473D

 56 57  0     1  0  0  0  0  0999 V2000
   -2.2900    0.3401    4.1553 C   0  0  0  0  0  0  0  0  0  0  0  0
   -1.3426   -0.2746    3.6796 O   0  0  0  0  0  0  0  0  0  0  0  0
   -2.7219    0.0577    5.5560 C   0  0  0  0  0  0  0  0  0  0  0  0
   -3.4815   -0.7386    5.6094 H   0  0  0  0  0  0  0  0  0  0  0  0
   -1.8906   -0.2899    6.1903 H   0  0  0  0  0  0  0  0  0  0  0  0
   -3.1599    0.9126    6.0956 H   0  0  0  0  0  0  0  0  0  0  0  0
   -3.0397    1.3125    3.5142 N   0  0  0  0  0  0  0  0  0  0  0  0
   -2.7928    1.7385    2.1618 C   0  0  2  0  0  0  0  0  0  0  0  0
   -1.4579    1.1532    1.7206 C   0  0  0  0  0  0  0  0  0  0  0  0
   -0.5858    0.8004    2.5118 O   0  0  0  0  0  0  0  0  0  0  0  0
   -2.7841    3.2553    2.0523 C   0  0  0  0  0  0  0  0  0  0  0  0
   -3.8047    1.7484    4.0260 H   0  0  0  0  0  0  0  0  0  0  0  0
   -3.5969    1.3201    1.5466 H   0  0  0  0  0  0  0  0  0  0  0  0
   -1.9850    3.6926    2.6620 H   0  0  0  0  0  0  0  0  0  0  0  0
   -2.6246    3.5776    1.0180 H   0  0  0  0  0  0  0  0  0  0  0  0
   -3.7342    3.6765    2.3981 H   0  0  0  0  0  0  0  0  0  0  0  0
   -1.3352    1.1101    0.3372 N   0  0  0  0  0  0  0  0  0  0  0  0
   -0.1579    0.6093   -0.3265 C   0  0  2  0  0  0  0  0  0  0  0  0
    0.4541   -0.4521    0.5807 C   0  0  0  0  0  0  0  0  0  0  0  0
    0.0012   -1.5906    0.6787 O   0  0  0  0  0  0  0  0  0  0  0  0
    0.8614    1.7181   -0.6124 C   0  0  0  0  0  0  0  0  0  0  0  0
    0.3667    2.7175   -1.6293 C   0  0  0  0  0  0  0  0  0  0  0  0
   -0.2172    3.9306   -1.3454 C   0  0  0  0  0  0  0  0  0  0  0  0
    0.4184    2.5826   -3.0450 C   0  0  0  0  0  0  0  0  0  0  0  0
   -0.5233    4.5391   -2.5330 N   0  0  0  0  0  0  0  0  0  0  0  0
   -0.1462    3.7388   -3.5878 C   0  0  0  0  0  0  0  0  0  0  0  0
    0.8929    1.5846   -3.9193 C   0  0  0  0  0  0  0  0  0  0  0  0
   -0.2606    3.9478   -4.9667 C   0  0  0  0  0  0  0  0  0  0  0  0
    0.7852    1.7801   -5.3010 C   0  0  0  0  0  0  0  0  0  0  0  0
    0.2170    2.9442   -5.8145 C   0  0  0  0  0  0  0  0  0  0  0  0
   -2.1183    1.4068   -0.2401 H   0  0  0  0  0  0  0  0  0  0  0  0
   -0.5000    0.1349   -1.2538 H   0  0  0  0  0  0  0  0  0  0  0  0
    1.8108    1.2834   -0.9533 H   0  0  0  0  0  0  0  0  0  0  0  0
    1.1078    2.2598    0.3104 H   0  0  0  0  0  0  0  0  0  0  0  0
   -0.4440    4.4152   -0.4058 H   0  0  0  0  0  0  0  0  0  0  0  0
   -0.9625    5.4449   -2.6232 H   0  0  0  0  0  0  0  0  0  0  0  0
    1.3375    0.6712   -3.5347 H   0  0  0  0  0  0  0  0  0  0  0  0
   -0.7017    4.8542   -5.3674 H   0  0  0  0  0  0  0  0  0  0  0  0
    1.1489    1.0138   -5.9803 H   0  0  0  0  0  0  0  0  0  0  0  0
    0.1434    3.0753   -6.8910 H   0  0  0  0  0  0  0  0  0  0  0  0
    1.5925    0.0100    1.2265 N   0  0  0  0  0  0  0  0  0  0  0  0
    2.3790   -0.8021    2.1269 C   0  0  2  0  0  0  0  0  0  0  0  0
    1.4317   -1.4381    3.1357 C   0  0  0  0  0  0  0  0  0  0  0  0
    0.3238   -0.9754    3.3997 O   0  0  0  0  0  0  0  0  0  0  0  0
    3.4455    0.0241    2.8287 C   0  0  0  0  0  0  0  0  0  0  0  0
    1.8877    0.9672    1.0579 H   0  0  0  0  0  0  0  0  0  0  0  0
    2.8464   -1.5852    1.5199 H   0  0  0  0  0  0  0  0  0  0  0  0
    2.9962    0.8138    3.4417 H   0  0  0  0  0  0  0  0  0  0  0  0
    4.0589   -0.5981    3.4888 H   0  0  0  0  0  0  0  0  0  0  0  0
    4.1079    0.5048    2.1007 H   0  0  0  0  0  0  0  0  0  0  0  0
    1.9864   -2.5587    3.7380 N   0  0  0  0  0  0  0  0  0  0  0  0
    1.2893   -3.3307    4.7401 C   0  0  0  0  0  0  0  0  0  0  0  0
    2.9034   -2.8816    3.4440 H   0  0  0  0  0  0  0  0  0  0  0  0
    1.5521   -2.9563    5.7405 H   0  0  0  0  0  0  0  0  0  0  0  0
    0.2042   -3.2358    4.5866 H   0  0  0  0  0  0  0  0  0  0  0  0
    1.5805   -4.3881    4.6562 H   0  0  0  0  0  0  0  0  0  0  0  0
 29 30  2  0  0  0  0
 27 29  1  0  0  0  0
 28 30  1  0  0  0  0
 24 27  2  0  0  0  0
 26 28  2  0  0  0  0
 22 23  2  0  0  0  0
 23 25  1  0  0  0  0
 22 24  1  0  0  0  0
 24 26  1  0  0  0  0
 21 22  1  0  0  0  0
 25 26  1  0  0  0  0
  1  3  1  0  0  0  0
  1  7  1  0  0  0  0
  1  2  2  0  0  0  0
 42 43  1  0  0  0  0
 43 51  1  0  0  0  0
 43 44  2  0  0  0  0
  8  9  1  0  0  0  0
  9 17  1  0  0  0  0
  9 10  2  0  0  0  0
 18 19  1  0  0  0  0
 19 41  1  0  0  0  0
 19 20  2  0  0  0  0
 42 45  1  0  0  0  0
  8 11  1  0  0  0  0
 51 52  1  0  0  0  0
 18 21  1  0  0  0  0
 41 42  1  0  0  0  0
  7  8  1  0  0  0  0
 17 18  1  0  0  0  0
 29 39  1  0  0  0  0
 30 40  1  0  0  0  0
 27 37  1  0  0  0  0
 28 38  1  0  0  0  0
 23 35  1  0  0  0  0
  3  4  1  0  0  0  0
  3  5  1  0  0  0  0
  3  6  1  0  0  0  0
 45 48  1  0  0  0  0
 45 49  1  0  0  0  0
 45 50  1  0  0  0  0
 11 14  1  0  0  0  0
 11 15  1  0  0  0  0
 11 16  1  0  0  0  0
 52 54  1  0  0  0  0
 52 55  1  0  0  0  0
 52 56  1  0  0  0  0
 21 33  1  0  0  0  0
 21 34  1  0  0  0  0
 42 47  1  0  0  0  0
  8 13  1  0  0  0  0
 18 32  1  0  0  0  0
 25 36  1  0  0  0  0
 51 53  1  0  0  0  0
  7 12  1  0  0  0  0
 41 46  1  0  0  0  0
 17 31  1  0  0  0  0
M  END
$$$$

  -OEChem-05262214473D

 56 57  0     1  0  0  0  0  0999 V2000
   -2.2900    0.3401    4.1553 C   0  0  0  0  0  0  0  0  0  0  0  0
   -1.3426   -0.2746    3.6796 O   0  0  0  0  0  0  0  0  0  0  0  0
   -2.7219    0.0577    5.5560 C   0  0  0  0  0  0  0  0  0  0  0  0
   -3.4815   -0.7386    5.6094 H   0  0  0  0  0  0  0  0  0  0  0  0
   -1.8906   -0.2899    6.1903 H   0  0  0  0  0  0  0  0  0  0  0  0
   -3.1599    0.9126    6.0956 H   0  0  0  0  0  0  0  0  0  0  0  0
   -3.0397    1.3125    3.5142 N   0  0  0  0  0  0  0  0  0  0  0  0
   -2.7928    1.7385    2.1618 C   0  0  2  0  0  0  0  0  0  0  0  0
   -1.4579    1.1532    1.7206 C   0  0  0  0  0  0  0  0  0  0  0  0
   -0.5858    0.8004    2.5118 O   0  0  0  0  0  0  0  0  0  0  0  0
   -2.7841    3.2553    2.0523 C   0  0  0  0  0  0  0  0  0  0  0  0
   -3.8047    1.7484    4.0260 H   0  0  0  0  0  0  0  0  0  0  0  0
   -3.5969    1.3201    1.5466 H   0  0  0  0  0  0  0  0  0  0  0  0
   -1.9850    3.6926    2.6620 H   0  0  0  0  0  0  0  0  0  0  0  0
   -2.6246    3.5776    1.0180 H   0  0  0  0  0  0  0  0  0  0  0  0
   -3.7342    3.6765    2.3981 H   0  0  0  0  0  0  0  0  0  0  0  0
   -1.3352    1.1101    0.3372 N   0  0  0  0  0  0  0  0  0  0  0  0
   -0.1579    0.6093   -0.3265 C   0  0  2  0  0  0  0  0  0  0  0  0
    0.4541   -0.4521    0.5807 C   0  0  0  0  0  0  0  0  0  0  0  0
    0.1835   -1.6476    0.4890 O   0  0  0  0  0  0  0  0  0  0  0  0
    0.8614    1.7181   -0.6124 C   0  0  0  0  0  0  0  0  0  0  0  0
    0.3667    2.7175   -1.6293 C   0  0  0  0  0  0  0  0  0  0  0  0
   -0.2172    3.9306   -1.3454 C   0  0  0  0  0  0  0  0  0  0  0  0
    0.4184    2.5826   -3.0450 C   0  0  0  0  0  0  0  0  0  0  0  0
   -0.5233    4.5391   -2.5330 N   0  0  0  0  0  0  0  0  0  0  0  0
   -0.1462    3.7388   -3.5878 C   0  0  0  0  0  0  0  0  0  0  0  0
    0.8929    1.5846   -3.9193 C   0  0  0  0  0  0  0  0  0  0  0  0
   -0.2606    3.9478   -4.9667 C   0  0  0  0  0  0  0  0  0  0  0  0
    0.7852    1.7801   -5.3010 C   0  0  0  0  0  0  0  0  0  0  0  0
    0.2170    2.9442   -5.8145 C   0  0  0  0  0  0  0  0  0  0  0  0
   -2.1183    1.4068   -0.2401 H   0  0  0  0  0  0  0  0  0  0  0  0
   -0.5000    0.1349   -1.2538 H   0  0  0  0  0  0  0  0  0  0  0  0
    1.8108    1.2834   -0.9533 H   0  0  0  0  0  0  0  0  0  0  0  0
    1.1078    2.2598    0.3104 H   0  0  0  0  0  0  0  0  0  0  0  0
   -0.4440    4.4152   -0.4058 H   0  0  0  0  0  0  0  0  0  0  0  0
   -0.9625    5.4449   -2.6232 H   0  0  0  0  0  0  0  0  0  0  0  0
    1.3375    0.6712   -3.5347 H   0  0  0  0  0  0  0  0  0  0  0  0
   -0.7017    4.8542   -5.3674 H   0  0  0  0  0  0  0  0  0  0  0  0
    1.1489    1.0138   -5.9803 H   0  0  0  0  0  0  0  0  0  0  0  0
    0.1434    3.0753   -6.8910 H   0  0  0  0  0  0  0  0  0  0  0  0
    1.3733    0.0902    1.4682 N   0  0  0  0  0  0  0  0  0  0  0  0
    2.1152   -0.7003    2.4239 C   0  0  2  0  0  0  0  0  0  0  0  0
    1.1254   -1.5811    3.1750 C   0  0  0  0  0  0  0  0  0  0  0  0
   -0.0719   -1.3178    3.2661 O   0  0  0  0  0  0  0  0  0  0  0  0
    2.8954    0.1826    3.3854 C   0  0  0  0  0  0  0  0  0  0  0  0
    1.5325    1.0931    1.4448 H   0  0  0  0  0  0  0  0  0  0  0  0
    2.8017   -1.3305    1.8480 H   0  0  0  0  0  0  0  0  0  0  0  0
    2.2243    0.8213    3.9712 H   0  0  0  0  0  0  0  0  0  0  0  0
    3.4794   -0.4179    4.0906 H   0  0  0  0  0  0  0  0  0  0  0  0
    3.5855    0.8365    2.8413 H   0  0  0  0  0  0  0  0  0  0  0  0
    1.7439   -2.6729    3.7680 N   0  0  0  0  0  0  0  0  0  0  0  0
    1.0206   -3.6503    4.5474 C   0  0  0  0  0  0  0  0  0  0  0  0
    2.7381   -2.8230    3.6241 H   0  0  0  0  0  0  0  0  0  0  0  0
    1.0425   -3.3627    5.6089 H   0  0  0  0  0  0  0  0  0  0  0  0
   -0.0226   -3.6959    4.2014 H   0  0  0  0  0  0  0  0  0  0  0  0
    1.4908   -4.6373    4.4253 H   0  0  0  0  0  0  0  0  0  0  0  0
 29 30  2  0  0  0  0
 27 29  1  0  0  0  0
 28 30  1  0  0  0  0
 24 27  2  0  0  0  0
 26 28  2  0  0  0  0
 22 23  2  0  0  0  0
 23 25  1  0  0  0  0
 22 24  1  0  0  0  0
 24 26  1  0  0  0  0
 21 22  1  0  0  0  0
 25 26  1  0  0  0  0
  1  3  1  0  0  0  0
  1  7  1  0  0  0  0
  1  2  2  0  0  0  0
 42 43  1  0  0  0  0
 43 51  1  0  0  0  0
 43 44  2  0  0  0  0
  8  9  1  0  0  0  0
  9 17  1  0  0  0  0
  9 10  2  0  0  0  0
 18 19  1  0  0  0  0
 19 41  1  0  0  0  0
 19 20  2  0  0  0  0
 42 45  1  0  0  0  0
  8 11  1  0  0  0  0
 51 52  1  0  0  0  0
 18 21  1  0  0  0  0
 41 42  1  0  0  0  0
  7  8  1  0  0  0  0
 17 18  1  0  0  0  0
 29 39  1  0  0  0  0
 30 40  1  0  0  0  0
 27 37  1  0  0  0  0
 28 38  1  0  0  0  0
 23 35  1  0  0  0  0
  3  4  1  0  0  0  0
  3  5  1  0  0  0  0
  3  6  1  0  0  0  0
 45 48  1  0  0  0  0
 45 49  1  0  0  0  0
 45 50  1  0  0  0  0
 11 14  1  0  0  0  0
 11 15  1  0  0  0  0
 11 16  1  0  0  0  0
 52 54  1  0  0  0  0
 52 55  1  0  0  0  0
 52 56  1  0  0  0  0
 21 33  1  0  0  0  0
 21 34  1  0  0  0  0
 42 47  1  0  0  0  0
  8 13  1  0  0  0  0
 18 32  1  0  0  0  0
 25 36  1  0  0  0  0
 51 53  1  0  0  0  0
  7 12  1  0  0  0  0
 41 46  1  0  0  0  0
 17 31  1  0  0  0  0
M  END
$$$$

  -OEChem-05262214473D

 56 57  0     1  0  0  0  0  0999 V2000
   -2.2900    0.3401    4.1553 C   0  0  0  0  0  0  0  0  0  0  0  0
   -1.3426   -0.2746    3.6796 O   0  0  0  0  0  0  0  0  0  0  0  0
   -2.7219    0.0577    5.5560 C   0  0  0  0  0  0  0  0  0  0  0  0
   -3.4815   -0.7386    5.6094 H   0  0  0  0  0  0  0  0  0  0  0  0
   -1.8906   -0.2899    6.1903 H   0  0  0  0  0  0  0  0  0  0  0  0
   -3.1599    0.9126    6.0956 H   0  0  0  0  0  0  0  0  0  0  0  0
   -3.0397    1.3125    3.5142 N   0  0  0  0  0  0  0  0  0  0  0  0
   -2.7928    1.7385    2.1618 C   0  0  2  0  0  0  0  0  0  0  0  0
   -1.4579    1.1532    1.7206 C   0  0  0  0  0  0  0  0  0  0  0  0
   -0.5858    0.8004    2.5118 O   0  0  0  0  0  0  0  0  0  0  0  0
   -2.7841    3.2553    2.0523 C   0  0  0  0  0  0  0  0  0  0  0  0
   -3.8047    1.7484    4.0260 H   0  0  0  0  0  0  0  0  0  0  0  0
   -3.5969    1.3201    1.5466 H   0  0  0  0  0  0  0  0  0  0  0  0
   -1.9850    3.6926    2.6620 H   0  0  0  0  0  0  0  0  0  0  0  0
   -2.6246    3.5776    1.0180 H   0  0  0  0  0  0  0  0  0  0  0  0
   -3.7342    3.6765    2.3981 H   0  0  0  0  0  0  0  0  0  0  0  0
   -1.3352    1.1101    0.3372 N   0  0  0  0  0  0  0  0  0  0  0  0
   -0.1579    0.6093   -0.3265 C   0  0  2  0  0  0  0  0  0  0  0  0
    0.4541   -0.4521    0.5807 C   0  0  0  0  0  0  0  0  0  0  0  0
    0.4025   -1.6549    0.3327 O   0  0  0  0  0  0  0  0  0  0  0  0
    0.8614    1.7181   -0.6124 C   0  0  0  0  0  0  0  0  0  0  0  0
    0.3667    2.7175   -1.6293 C   0  0  0  0  0  0  0  0  0  0  0  0
   -0.2172    3.9306   -1.3454 C   0  0  0  0  0  0  0  0  0  0  0  0
    0.4184    2.5826   -3.0450 C   0  0  0  0  0  0  0  0  0  0  0  0
   -0.5233    4.5391   -2.5330 N   0  0  0  0  0  0  0  0  0  0  0  0
   -0.1462    3.7388   -3.5878 C   0  0  0  0  0  0  0  0  0  0  0  0
    0.8929    1.5846   -3.9193 C   0  0  0  0  0  0  0  0  0  0  0  0
   -0.2606    3.9478   -4.9667 C   0  0  0  0  0  0  0  0  0  0  0  0
    0.7852    1.7801   -5.3010 C   0  0  0  0  0  0  0  0  0  0  0  0
    0.2170    2.9442   -5.8145 C   0  0  0  0  0  0  0  0  0  0  0  0
   -2.1183    1.4068   -0.2401 H   0  0  0  0  0  0  0  0  0  0  0  0
   -0.5000    0.1349   -1.2538 H   0  0  0  0  0  0  0  0  0  0  0  0
    1.8108    1.2834   -0.9533 H   0  0  0  0  0  0  0  0  0  0  0  0
    1.1078    2.2598    0.3104 H   0  0  0  0  0  0  0  0  0  0  0  0
   -0.4440    4.4152   -0.4058 H   0  0  0  0  0  0  0  0  0  0  0  0
   -0.9625    5.4449   -2.6232 H   0  0  0  0  0  0  0  0  0  0  0  0
    1.3375    0.6712   -3.5347 H   0  0  0  0  0  0  0  0  0  0  0  0
   -0.7017    4.8542   -5.3674 H   0  0  0  0  0  0  0  0  0  0  0  0
    1.1489    1.0138   -5.9803 H   0  0  0  0  0  0  0  0  0  0  0  0
    0.1434    3.0753   -6.8910 H   0  0  0  0  0  0  0  0  0  0  0  0
    1.1056    0.1087    1.6705 N   0  0  0  0  0  0  0  0  0  0  0  0
    1.7912   -0.6735    2.6739 C   0  0  2  0  0  0  0  0  0  0  0  0
    0.8445   -1.7704    3.1430 C   0  0  0  0  0  0  0  0  0  0  0  0
   -0.3773   -1.6955    3.0302 O   0  0  0  0  0  0  0  0  0  0  0  0
    2.2393    0.1932    3.8404 C   0  0  0  0  0  0  0  0  0  0  0  0
    1.1003    1.1198    1.7676 H   0  0  0  0  0  0  0  0  0  0  0  0
    2.6602   -1.1254    2.1834 H   0  0  0  0  0  0  0  0  0  0  0  0
    1.3821    0.6545    4.3443 H   0  0  0  0  0  0  0  0  0  0  0  0
    2.7834   -0.3956    4.5862 H   0  0  0  0  0  0  0  0  0  0  0  0
    2.8963    0.9996    3.4970 H   0  0  0  0  0  0  0  0  0  0  0  0
    1.5218   -2.8237    3.7413 N   0  0  0  0  0  0  0  0  0  0  0  0
    0.8450   -3.9805    4.2796 C   0  0  0  0  0  0  0  0  0  0  0  0
    2.5369   -2.8105    3.7744 H   0  0  0  0  0  0  0  0  0  0  0  0
    0.6366   -3.8200    5.3477 H   0  0  0  0  0  0  0  0  0  0  0  0
   -0.1014   -4.1351    3.7407 H   0  0  0  0  0  0  0  0  0  0  0  0
    1.4841   -4.8677    4.1601 H   0  0  0  0  0  0  0  0  0  0  0  0
 29 30  2  0  0  0  0
 27 29  1  0  0  0  0
 28 30  1  0  0  0  0
 24 27  2  0  0  0  0
 26 28  2  0  0  0  0
 22 23  2  0  0  0  0
 23 25  1  0  0  0  0
 22 24  1  0  0  0  0
 24 26  1  0  0  0  0
 21 22  1  0  0  0  0
 25 26  1  0  0  0  0
  1  3  1  0  0  0  0
  1  7  1  0  0  0  0
  1  2  2  0  0  0  0
 42 43  1  0  0  0  0
 43 51  1  0  0  0  0
 43 44  2  0  0  0  0
  8  9  1  0  0  0  0
  9 17  1  0  0  0  0
  9 10  2  0  0  0  0
 18 19  1  0  0  0  0
 19 41  1  0  0  0  0
 19 20  2  0  0  0  0
 42 45  1  0  0  0  0
  8 11  1  0  0  0  0
 51 52  1  0  0  0  0
 18 21  1  0  0  0  0
 41 42  1  0  0  0  0
  7  8  1  0  0  0  0
 17 18  1  0  0  0  0
 29 39  1  0  0  0  0
 30 40  1  0  0  0  0
 27 37  1  0  0  0  0
 28 38  1  0  0  0  0
 23 35  1  0  0  0  0
  3  4  1  0  0  0  0
  3  5  1  0  0  0  0
  3  6  1  0  0  0  0
 45 48  1  0  0  0  0
 45 49  1  0  0  0  0
 45 50  1  0  0  0  0
 11 14  1  0  0  0  0
 11 15  1  0  0  0  0
 11 16  1  0  0  0  0
 52 54  1  0  0  0  0
 52 55  1  0  0  0  0
 52 56  1  0  0  0  0
 21 33  1  0  0  0  0
 21 34  1  0  0  0  0
 42 47  1  0  0  0  0
  8 13  1  0  0  0  0
 18 32  1  0  0  0  0
 25 36  1  0  0  0  0
 51 53  1  0  0  0  0
  7 12  1  0  0  0  0
 41 46  1  0  0  0  0
 17 31  1  0  0  0  0
M  END
$$$$

  -OEChem-05262214473D

 56 57  0     1  0  0  0  0  0999 V2000
   -2.2900    0.3401    4.1553 C   0  0  0  0  0  0  0  0  0  0  0  0
   -1.3426   -0.2746    3.6796 O   0  0  0  0  0  0  0  0  0  0  0  0
   -2.7219    0.0577    5.5560 C   0  0  0  0  0  0  0  0  0  0  0  0
   -3.4815   -0.7386    5.6094 H   0  0  0  0  0  0  0  0  0  0  0  0
   -1.8906   -0.2899    6.1903 H   0  0  0  0  0  0  0  0  0  0  0  0
   -3.1599    0.9126    6.0956 H   0  0  0  0  0  0  0  0  0  0  0  0
   -3.0397    1.3125    3.5142 N   0  0  0  0  0  0  0  0  0  0  0  0
   -2.7928    1.7385    2.1618 C   0  0  2  0  0  0  0  0  0  0  0  0
   -1.4579    1.1532    1.7206 C   0  0  0  0  0  0  0  0  0  0  0  0
   -0.5858    0.8004    2.5118 O   0  0  0  0  0  0  0  0  0  0  0  0
   -2.7841    3.2553    2.0523 C   0  0  0  0  0  0  0  0  0  0  0  0
   -3.8047    1.7484    4.0260 H   0  0  0  0  0  0  0  0  0  0  0  0
   -3.5969    1.3201    1.5466 H   0  0  0  0  0  0  0  0  0  0  0  0
   -1.9850    3.6926    2.6620 H   0  0  0  0  0  0  0  0  0  0  0  0
   -2.6246    3.5776    1.0180 H   0  0  0  0  0  0  0  0  0  0  0  0
   -3.7342    3.6765    2.3981 H   0  0  0  0  0  0  0  0  0  0  0  0
   -1.3352    1.1101    0.3372 N   0  0  0  0  0  0  0  0  0  0  0  0
   -0.1579    0.6093   -0.3265 C   0  0  2  0  0  0  0  0  0  0  0  0
    0.4541   -0.4521    0.5807 C   0  0  0  0  0  0  0  0  0  0  0  0
    0.6434   -1.6120    0.2205 O   0  0  0  0  0  0  0  0  0  0  0  0
    0.8614    1.7181   -0.6124 C   0  0  0  0  0  0  0  0  0  0  0  0
    0.3667    2.7175   -1.6293 C   0  0  0  0  0  0  0  0  0  0  0  0
   -0.2172    3.9306   -1.3454 C   0  0  0  0  0  0  0  0  0  0  0  0
    0.4184    2.5826   -3.0450 C   0  0  0  0  0  0  0  0  0  0  0  0
   -0.5233    4.5391   -2.5330 N   0  0  0  0  0  0  0  0  0  0  0  0
   -0.1462    3.7388   -3.5878 C   0  0  0  0  0  0  0  0  0  0  0  0
    0.8929    1.5846   -3.9193 C   0  0  0  0  0  0  0  0  0  0  0  0
   -0.2606    3.9478   -4.9667 C   0  0  0  0  0  0  0  0  0  0  0  0
    0.7852    1.7801   -5.3010 C   0  0  0  0  0  0  0  0  0  0  0  0
    0.2170    2.9442   -5.8145 C   0  0  0  0  0  0  0  0  0  0  0  0
   -2.1183    1.4068   -0.2401 H   0  0  0  0  0  0  0  0  0  0  0  0
   -0.5000    0.1349   -1.2538 H   0  0  0  0  0  0  0  0  0  0  0  0
    1.8108    1.2834   -0.9533 H   0  0  0  0  0  0  0  0  0  0  0  0
    1.1078    2.2598    0.3104 H   0  0  0  0  0  0  0  0  0  0  0  0
   -0.4440    4.4152   -0.4058 H   0  0  0  0  0  0  0  0  0  0  0  0
   -0.9625    5.4449   -2.6232 H   0  0  0  0  0  0  0  0  0  0  0  0
    1.3375    0.6712   -3.5347 H   0  0  0  0  0  0  0  0  0  0  0  0
   -0.7017    4.8542   -5.3674 H   0  0  0  0  0  0  0  0  0  0  0  0
    1.1489    1.0138   -5.9803 H   0  0  0  0  0  0  0  0  0  0  0  0
    0.1434    3.0753   -6.8910 H   0  0  0  0  0  0  0  0  0  0  0  0
    0.8078    0.0644    1.8195 N   0  0  0  0  0  0  0  0  0  0  0  0
    1.4290   -0.7235    2.8598 C   0  0  2  0  0  0  0  0  0  0  0  0
    0.6081   -1.9933    3.0417 C   0  0  0  0  0  0  0  0  0  0  0  0
   -0.5716   -2.0829    2.7081 O   0  0  0  0  0  0  0  0  0  0  0  0
    1.5219    0.0551    4.1628 C   0  0  0  0  0  0  0  0  0  0  0  0
    0.6205    1.0455    2.0043 H   0  0  0  0  0  0  0  0  0  0  0  0
    2.4316   -0.9840    2.5032 H   0  0  0  0  0  0  0  0  0  0  0  0
    0.5271    0.3250    4.5356 H   0  0  0  0  0  0  0  0  0  0  0  0
    2.0185   -0.5328    4.9418 H   0  0  0  0  0  0  0  0  0  0  0  0
    2.0873    0.9828    4.0231 H   0  0  0  0  0  0  0  0  0  0  0  0
    1.3354   -3.0008    3.6599 N   0  0  0  0  0  0  0  0  0  0  0  0
    0.7744   -4.2986    3.9550 C   0  0  0  0  0  0  0  0  0  0  0  0
    2.3136   -2.8451    3.8846 H   0  0  0  0  0  0  0  0  0  0  0  0
    0.3620   -4.2971    4.9747 H   0  0  0  0  0  0  0  0  0  0  0  0
   -0.0269   -4.5237    3.2358 H   0  0  0  0  0  0  0  0  0  0  0  0
    1.5610   -5.0638    3.8788 H   0  0  0  0  0  0  0  0  0  0  0  0
 29 30  2  0  0  0  0
 27 29  1  0  0  0  0
 28 30  1  0  0  0  0
 24 27  2  0  0  0  0
 26 28  2  0  0  0  0
 22 23  2  0  0  0  0
 23 25  1  0  0  0  0
 22 24  1  0  0  0  0
 24 26  1  0  0  0  0
 21 22  1  0  0  0  0
 25 26  1  0  0  0  0
  1  3  1  0  0  0  0
  1  7  1  0  0  0  0
  1  2  2  0  0  0  0
 42 43  1  0  0  0  0
 43 51  1  0  0  0  0
 43 44  2  0  0  0  0
  8  9  1  0  0  0  0
  9 17  1  0  0  0  0
  9 10  2  0  0  0  0
 18 19  1  0  0  0  0
 19 41  1  0  0  0  0
 19 20  2  0  0  0  0
 42 45  1  0  0  0  0
  8 11  1  0  0  0  0
 51 52  1  0  0  0  0
 18 21  1  0  0  0  0
 41 42  1  0  0  0  0
  7  8  1  0  0  0  0
 17 18  1  0  0  0  0
 29 39  1  0  0  0  0
 30 40  1  0  0  0  0
 27 37  1  0  0  0  0
 28 38  1  0  0  0  0
 23 35  1  0  0  0  0
  3  4  1  0  0  0  0
  3  5  1  0  0  0  0
  3  6  1  0  0  0  0
 45 48  1  0  0  0  0
 45 49  1  0  0  0  0
 45 50  1  0  0  0  0
 11 14  1  0  0  0  0
 11 15  1  0  0  0  0
 11 16  1  0  0  0  0
 52 54  1  0  0  0  0
 52 55  1  0  0  0  0
 52 56  1  0  0  0  0
 21 33  1  0  0  0  0
 21 34  1  0  0  0  0
 42 47  1  0  0  0  0
  8 13  1  0  0  0  0
 18 32  1  0  0  0  0
 25 36  1  0  0  0  0
 51 53  1  0  0  0  0
  7 12  1  0  0  0  0
 41 46  1  0  0  0  0
 17 31  1  0  0  0  0
M  END
$$$$

  -OEChem-05262214473D

 56 57  0     1  0  0  0  0  0999 V2000
   -2.2900    0.3401    4.1553 C   0  0  0  0  0  0  0  0  0  0  0  0
   -1.3426   -0.2746    3.6796 O   0  0  0  0  0  0  0  0  0  0  0  0
   -2.7219    0.0577    5.5560 C   0  0  0  0  0  0  0  0  0  0  0  0
   -3.4815   -0.7386    5.6094 H   0  0  0  0  0  0  0  0  0  0  0  0
   -1.8906   -0.2899    6.1903 H   0  0  0  0  0  0  0  0  0  0  0  0
   -3.1599    0.9126    6.0956 H   0  0  0  0  0  0  0  0  0  0  0  0
   -3.0397    1.3125    3.5142 N   0  0  0  0  0  0  0  0  0  0  0  0
   -2.7928    1.7385    2.1618 C   0  0  2  0  0  0  0  0  0  0  0  0
   -1.4579    1.1532    1.7206 C   0  0  0  0  0  0  0  0  0  0  0  0
   -0.5858    0.8004    2.5118 O   0  0  0  0  0  0  0  0  0  0  0  0
   -2.7841    3.2553    2.0523 C   0  0  0  0  0  0  0  0  0  0  0  0
   -3.8047    1.7484    4.0260 H   0  0  0  0  0  0  0  0  0  0  0  0
   -3.5969    1.3201    1.5466 H   0  0  0  0  0  0  0  0  0  0  0  0
   -1.9850    3.6926    2.6620 H   0  0  0  0  0  0  0  0  0  0  0  0
   -2.6246    3.5776    1.0180 H   0  0  0  0  0  0  0  0  0  0  0  0
   -3.7342    3.6765    2.3981 H   0  0  0  0  0  0  0  0  0  0  0  0
   -1.3352    1.1101    0.3372 N   0  0  0  0  0  0  0  0  0  0  0  0
   -0.1579    0.6093   -0.3265 C   0  0  2  0  0  0  0  0  0  0  0  0
    0.4541   -0.4521    0.5807 C   0  0  0  0  0  0  0  0  0  0  0  0
    0.8896   -1.5217    0.1599 O   0  0  0  0  0  0  0  0  0  0  0  0
    0.8614    1.7181   -0.6124 C   0  0  0  0  0  0  0  0  0  0  0  0
    0.3667    2.7175   -1.6293 C   0  0  0  0  0  0  0  0  0  0  0  0
   -0.2172    3.9306   -1.3454 C   0  0  0  0  0  0  0  0  0  0  0  0
    0.4184    2.5826   -3.0450 C   0  0  0  0  0  0  0  0  0  0  0  0
   -0.5233    4.5391   -2.5330 N   0  0  0  0  0  0  0  0  0  0  0  0
   -0.1462    3.7388   -3.5878 C   0  0  0  0  0  0  0  0  0  0  0  0
    0.8929    1.5846   -3.9193 C   0  0  0  0  0  0  0  0  0  0  0  0
   -0.2606    3.9478   -4.9667 C   0  0  0  0  0  0  0  0  0  0  0  0
    0.7852    1.7801   -5.3010 C   0  0  0  0  0  0  0  0  0  0  0  0
    0.2170    2.9442   -5.8145 C   0  0  0  0  0  0  0  0  0  0  0  0
   -2.1183    1.4068   -0.2401 H   0  0  0  0  0  0  0  0  0  0  0  0
   -0.5000    0.1349   -1.2538 H   0  0  0  0  0  0  0  0  0  0  0  0
    1.8108    1.2834   -0.9533 H   0  0  0  0  0  0  0  0  0  0  0  0
    1.1078    2.2598    0.3104 H   0  0  0  0  0  0  0  0  0  0  0  0
   -0.4440    4.4152   -0.4058 H   0  0  0  0  0  0  0  0  0  0  0  0
   -0.9625    5.4449   -2.6232 H   0  0  0  0  0  0  0  0  0  0  0  0
    1.3375    0.6712   -3.5347 H   0  0  0  0  0  0  0  0  0  0  0  0
   -0.7017    4.8542   -5.3674 H   0  0  0  0  0  0  0  0  0  0  0  0
    1.1489    1.0138   -5.9803 H   0  0  0  0  0  0  0  0  0  0  0  0
    0.1434    3.0753   -6.8910 H   0  0  0  0  0  0  0  0  0  0  0  0
    0.5001   -0.0398    1.9052 N   0  0  0  0  0  0  0  0  0  0  0  0
    1.0535   -0.8468    2.9689 C   0  0  2  0  0  0  0  0  0  0  0  0
    0.4323   -2.2344    2.8782 C   0  0  0  0  0  0  0  0  0  0  0  0
   -0.6416   -2.4536    2.3217 O   0  0  0  0  0  0  0  0  0  0  0  0
    0.7921   -0.2223    4.3306 C   0  0  0  0  0  0  0  0  0  0  0  0
    0.1259    0.8752    2.1388 H   0  0  0  0  0  0  0  0  0  0  0  0
    2.1313   -0.9158    2.7855 H   0  0  0  0  0  0  0  0  0  0  0  0
   -0.2826   -0.1449    4.5321 H   0  0  0  0  0  0  0  0  0  0  0  0
    1.2366   -0.8200    5.1332 H   0  0  0  0  0  0  0  0  0  0  0  0
    1.2137    0.7873    4.3837 H   0  0  0  0  0  0  0  0  0  0  0  0
    1.1972   -3.1921    3.5292 N   0  0  0  0  0  0  0  0  0  0  0  0
    0.8138   -4.5830    3.5957 C   0  0  0  0  0  0  0  0  0  0  0  0
    2.0834   -2.9243    3.9473 H   0  0  0  0  0  0  0  0  0  0  0  0
    0.2375   -4.7615    4.5154 H   0  0  0  0  0  0  0  0  0  0  0  0
    0.1959   -4.8351    2.7212 H   0  0  0  0  0  0  0  0  0  0  0  0
    1.7161   -5.2122    3.6006 H   0  0  0  0  0  0  0  0  0  0  0  0
 29 30  2  0  0  0  0
 27 29  1  0  0  0  0
 28 30  1  0  0  0  0
 24 27  2  0  0  0  0
 26 28  2  0  0  0  0
 22 23  2  0  0  0  0
 23 25  1  0  0  0  0
 22 24  1  0  0  0  0
 24 26  1  0  0  0  0
 21 22  1  0  0  0  0
 25 26  1  0  0  0  0
  1  3  1  0  0  0  0
  1  7  1  0  0  0  0
  1  2  2  0  0  0  0
 42 43  1  0  0  0  0
 43 51  1  0  0  0  0
 43 44  2  0  0  0  0
  8  9  1  0  0  0  0
  9 17  1  0  0  0  0
  9 10  2  0  0  0  0
 18 19  1  0  0  0  0
 19 41  1  0  0  0  0
 19 20  2  0  0  0  0
 42 45  1  0  0  0  0
  8 11  1  0  0  0  0
 51 52  1  0  0  0  0
 18 21  1  0  0  0  0
 41 42  1  0  0  0  0
  7  8  1  0  0  0  0
 17 18  1  0  0  0  0
 29 39  1  0  0  0  0
 30 40  1  0  0  0  0
 27 37  1  0  0  0  0
 28 38  1  0  0  0  0
 23 35  1  0  0  0  0
  3  4  1  0  0  0  0
  3  5  1  0  0  0  0
  3  6  1  0  0  0  0
 45 48  1  0  0  0  0
 45 49  1  0  0  0  0
 45 50  1  0  0  0  0
 11 14  1  0  0  0  0
 11 15  1  0  0  0  0
 11 16  1  0  0  0  0
 52 54  1  0  0  0  0
 52 55  1  0  0  0  0
 52 56  1  0  0  0  0
 21 33  1  0  0  0  0
 21 34  1  0  0  0  0
 42 47  1  0  0  0  0
  8 13  1  0  0  0  0
 18 32  1  0  0  0  0
 25 36  1  0  0  0  0
 51 53  1  0  0  0  0
  7 12  1  0  0  0  0
 41 46  1  0  0  0  0
 17 31  1  0  0  0  0
M  END
$$$$

  -OEChem-05262214473D

 56 57  0     1  0  0  0  0  0999 V2000
   -2.2900    0.3401    4.1553 C   0  0  0  0  0  0  0  0  0  0  0  0
   -1.3426   -0.2746    3.6796 O   0  0  0  0  0  0  0  0  0  0  0  0
   -2.7219    0.0577    5.5560 C   0  0  0  0  0  0  0  0  0  0  0  0
   -3.4815   -0.7386    5.6094 H   0  0  0  0  0  0  0  0  0  0  0  0
   -1.8906   -0.2899    6.1903 H   0  0  0  0  0  0  0  0  0  0  0  0
   -3.1599    0.9126    6.0956 H   0  0  0  0  0  0  0  0  0  0  0  0
   -3.0397    1.3125    3.5142 N   0  0  0  0  0  0  0  0  0  0  0  0
   -2.7928    1.7385    2.1618 C   0  0  2  0  0  0  0  0  0  0  0  0
   -1.4579    1.1532    1.7206 C   0  0  0  0  0  0  0  0  0  0  0  0
   -0.5858    0.8004    2.5118 O   0  0  0  0  0  0  0  0  0  0  0  0
   -2.7841    3.2553    2.0523 C   0  0  0  0  0  0  0  0  0  0  0  0
   -3.8047    1.7484    4.0260 H   0  0  0  0  0  0  0  0  0  0  0  0
   -3.5969    1.3201    1.5466 H   0  0  0  0  0  0  0  0  0  0  0  0
   -1.9850    3.6926    2.6620 H   0  0  0  0  0  0  0  0  0  0  0  0
   -2.6246    3.5776    1.0180 H   0  0  0  0  0  0  0  0  0  0  0  0
   -3.7342    3.6765    2.3981 H   0  0  0  0  0  0  0  0  0  0  0  0
   -1.3352    1.1101    0.3372 N   0  0  0  0  0  0  0  0  0  0  0  0
   -0.1579    0.6093   -0.3265 C   0  0  2  0  0  0  0  0  0  0  0  0
    0.4541   -0.4521    0.5807 C   0  0  0  0  0  0  0  0  0  0  0  0
    1.1245   -1.3904    0.1552 O   0  0  0  0  0  0  0  0  0  0  0  0
    0.8614    1.7181   -0.6124 C   0  0  0  0  0  0  0  0  0  0  0  0
    0.3667    2.7175   -1.6293 C   0  0  0  0  0  0  0  0  0  0  0  0
   -0.2172    3.9306   -1.3454 C   0  0  0  0  0  0  0  0  0  0  0  0
    0.4184    2.5826   -3.0450 C   0  0  0  0  0  0  0  0  0  0  0  0
   -0.5233    4.5391   -2.5330 N   0  0  0  0  0  0  0  0  0  0  0  0
   -0.1462    3.7388   -3.5878 C   0  0  0  0  0  0  0  0  0  0  0  0
    0.8929    1.5846   -3.9193 C   0  0  0  0  0  0  0  0  0  0  0  0
   -0.2606    3.9478   -4.9667 C   0  0  0  0  0  0  0  0  0  0  0  0
    0.7852    1.7801   -5.3010 C   0  0  0  0  0  0  0  0  0  0  0  0
    0.2170    2.9442   -5.8145 C   0  0  0  0  0  0  0  0  0  0  0  0
   -2.1183    1.4068   -0.2401 H   0  0  0  0  0  0  0  0  0  0  0  0
   -0.5000    0.1349   -1.2538 H   0  0  0  0  0  0  0  0  0  0  0  0
    1.8108    1.2834   -0.9533 H   0  0  0  0  0  0  0  0  0  0  0  0
    1.1078    2.2598    0.3104 H   0  0  0  0  0  0  0  0  0  0  0  0
   -0.4440    4.4152   -0.4058 H   0  0  0  0  0  0  0  0  0  0  0  0
   -0.9625    5.4449   -2.6232 H   0  0  0  0  0  0  0  0  0  0  0  0
    1.3375    0.6712   -3.5347 H   0  0  0  0  0  0  0  0  0  0  0  0
   -0.7017    4.8542   -5.3674 H   0  0  0  0  0  0  0  0  0  0  0  0
    1.1489    1.0138   -5.9803 H   0  0  0  0  0  0  0  0  0  0  0  0
    0.1434    3.0753   -6.8910 H   0  0  0  0  0  0  0  0  0  0  0  0
    0.2035   -0.1967    1.9218 N   0  0  0  0  0  0  0  0  0  0  0  0
    0.6900   -1.0351    2.9937 C   0  0  2  0  0  0  0  0  0  0  0  0
    0.3292   -2.4774    2.6635 C   0  0  0  0  0  0  0  0  0  0  0  0
   -0.5825   -2.7822    1.8973 O   0  0  0  0  0  0  0  0  0  0  0  0
    0.0997   -0.6200    4.3324 C   0  0  0  0  0  0  0  0  0  0  0  0
   -0.3498    0.6206    2.1619 H   0  0  0  0  0  0  0  0  0  0  0  0
    1.7798   -0.9255    3.0112 H   0  0  0  0  0  0  0  0  0  0  0  0
   -0.9916   -0.7231    4.3339 H   0  0  0  0  0  0  0  0  0  0  0  0
    0.4912   -1.2378    5.1473 H   0  0  0  0  0  0  0  0  0  0  0  0
    0.3350    0.4265    4.5544 H   0  0  0  0  0  0  0  0  0  0  0  0
    1.1168   -3.3847    3.3583 N   0  0  0  0  0  0  0  0  0  0  0  0
    0.9604   -4.8144    3.2261 C   0  0  0  0  0  0  0  0  0  0  0  0
    1.8619   -3.0428    3.9580 H   0  0  0  0  0  0  0  0  0  0  0  0
    0.2715   -5.1815    4.0011 H   0  0  0  0  0  0  0  0  0  0  0  0
    0.5518   -5.0480    2.2319 H   0  0  0  0  0  0  0  0  0  0  0  0
    1.9389   -5.3026    3.3444 H   0  0  0  0  0  0  0  0  0  0  0  0
 29 30  2  0  0  0  0
 27 29  1  0  0  0  0
 28 30  1  0  0  0  0
 24 27  2  0  0  0  0
 26 28  2  0  0  0  0
 22 23  2  0  0  0  0
 23 25  1  0  0  0  0
 22 24  1  0  0  0  0
 24 26  1  0  0  0  0
 21 22  1  0  0  0  0
 25 26  1  0  0  0  0
  1  3  1  0  0  0  0
  1  7  1  0  0  0  0
  1  2  2  0  0  0  0
 42 43  1  0  0  0  0
 43 51  1  0  0  0  0
 43 44  2  0  0  0  0
  8  9  1  0  0  0  0
  9 17  1  0  0  0  0
  9 10  2  0  0  0  0
 18 19  1  0  0  0  0
 19 41  1  0  0  0  0
 19 20  2  0  0  0  0
 42 45  1  0  0  0  0
  8 11  1  0  0  0  0
 51 52  1  0  0  0  0
 18 21  1  0  0  0  0
 41 42  1  0  0  0  0
  7  8  1  0  0  0  0
 17 18  1  0  0  0  0
 29 39  1  0  0  0  0
 30 40  1  0  0  0  0
 27 37  1  0  0  0  0
 28 38  1  0  0  0  0
 23 35  1  0  0  0  0
  3  4  1  0  0  0  0
  3  5  1  0  0  0  0
  3  6  1  0  0  0  0
 45 48  1  0  0  0  0
 45 49  1  0  0  0  0
 45 50  1  0  0  0  0
 11 14  1  0  0  0  0
 11 15  1  0  0  0  0
 11 16  1  0  0  0  0
 52 54  1  0  0  0  0
 52 55  1  0  0  0  0
 52 56  1  0  0  0  0
 21 33  1  0  0  0  0
 21 34  1  0  0  0  0
 42 47  1  0  0  0  0
  8 13  1  0  0  0  0
 18 32  1  0  0  0  0
 25 36  1  0  0  0  0
 51 53  1  0  0  0  0
  7 12  1  0  0  0  0
 41 46  1  0  0  0  0
 17 31  1  0  0  0  0
M  END
$$$$

  -OEChem-05262214473D

 56 57  0     1  0  0  0  0  0999 V2000
   -2.2900    0.3401    4.1553 C   0  0  0  0  0  0  0  0  0  0  0  0
   -1.3426   -0.2746    3.6796 O   0  0  0  0  0  0  0  0  0  0  0  0
   -2.7219    0.0577    5.5560 C   0  0  0  0  0  0  0  0  0  0  0  0
   -3.4815   -0.7386    5.6094 H   0  0  0  0  0  0  0  0  0  0  0  0
   -1.8906   -0.2899    6.1903 H   0  0  0  0  0  0  0  0  0  0  0  0
   -3.1599    0.9126    6.0956 H   0  0  0  0  0  0  0  0  0  0  0  0
   -3.0397    1.3125    3.5142 N   0  0  0  0  0  0  0  0  0  0  0  0
   -2.7928    1.7385    2.1618 C   0  0  2  0  0  0  0  0  0  0  0  0
   -1.4579    1.1532    1.7206 C   0  0  0  0  0  0  0  0  0  0  0  0
   -0.5858    0.8004    2.5118 O   0  0  0  0  0  0  0  0  0  0  0  0
   -2.7841    3.2553    2.0523 C   0  0  0  0  0  0  0  0  0  0  0  0
   -3.8047    1.7484    4.0260 H   0  0  0  0  0  0  0  0  0  0  0  0
   -3.5969    1.3201    1.5466 H   0  0  0  0  0  0  0  0  0  0  0  0
   -1.9850    3.6926    2.6620 H   0  0  0  0  0  0  0  0  0  0  0  0
   -2.6246    3.5776    1.0180 H   0  0  0  0  0  0  0  0  0  0  0  0
   -3.7342    3.6765    2.3981 H   0  0  0  0  0  0  0  0  0  0  0  0
   -1.3352    1.1101    0.3372 N   0  0  0  0  0  0  0  0  0  0  0  0
   -0.1579    0.6093   -0.3265 C   0  0  2  0  0  0  0  0  0  0  0  0
    0.4541   -0.4521    0.5807 C   0  0  0  0  0  0  0  0  0  0  0  0
    1.3320   -1.2268    0.2065 O   0  0  0  0  0  0  0  0  0  0  0  0
    0.8614    1.7181   -0.6124 C   0  0  0  0  0  0  0  0  0  0  0  0
    0.3667    2.7175   -1.6293 C   0  0  0  0  0  0  0  0  0  0  0  0
   -0.2172    3.9306   -1.3454 C   0  0  0  0  0  0  0  0  0  0  0  0
    0.4184    2.5826   -3.0450 C   0  0  0  0  0  0  0  0  0  0  0  0
   -0.5233    4.5391   -2.5330 N   0  0  0  0  0  0  0  0  0  0  0  0
   -0.1462    3.7388   -3.5878 C   0  0  0  0  0  0  0  0  0  0  0  0
    0.8929    1.5846   -3.9193 C   0  0  0  0  0  0  0  0  0  0  0  0
   -0.2606    3.9478   -4.9667 C   0  0  0  0  0  0  0  0  0  0  0  0
    0.7852    1.7801   -5.3010 C   0  0  0  0  0  0  0  0  0  0  0  0
    0.2170    2.9442   -5.8145 C   0  0  0  0  0  0  0  0  0  0  0  0
   -2.1183    1.4068   -0.2401 H   0  0  0  0  0  0  0  0  0  0  0  0
   -0.5000    0.1349   -1.2538 H   0  0  0  0  0  0  0  0  0  0  0  0
    1.8108    1.2834   -0.9533 H   0  0  0  0  0  0  0  0  0  0  0  0
    1.1078    2.2598    0.3104 H   0  0  0  0  0  0  0  0  0  0  0  0
   -0.4440    4.4152   -0.4058 H   0  0  0  0  0  0  0  0  0  0  0  0
   -0.9625    5.4449   -2.6232 H   0  0  0  0  0  0  0  0  0  0  0  0
    1.3375    0.6712   -3.5347 H   0  0  0  0  0  0  0  0  0  0  0  0
   -0.7017    4.8542   -5.3674 H   0  0  0  0  0  0  0  0  0  0  0  0
    1.1489    1.0138   -5.9803 H   0  0  0  0  0  0  0  0  0  0  0  0
    0.1434    3.0753   -6.8910 H   0  0  0  0  0  0  0  0  0  0  0  0
   -0.0619   -0.3957    1.8680 N   0  0  0  0  0  0  0  0  0  0  0  0
    0.3634   -1.2756    2.9327 C   0  0  2  0  0  0  0  0  0  0  0  0
    0.3056   -2.7057    2.4122 C   0  0  0  0  0  0  0  0  0  0  0  0
   -0.3983   -3.0465    1.4639 O   0  0  0  0  0  0  0  0  0  0  0  0
   -0.5082   -1.1111    4.1680 C   0  0  0  0  0  0  0  0  0  0  0  0
   -0.7743    0.2990    2.0720 H   0  0  0  0  0  0  0  0  0  0  0  0
    1.4012   -1.0125    3.1649 H   0  0  0  0  0  0  0  0  0  0  0  0
   -1.5517   -1.3702    3.9547 H   0  0  0  0  0  0  0  0  0  0  0  0
   -0.1671   -1.7576    4.9832 H   0  0  0  0  0  0  0  0  0  0  0  0
   -0.4889   -0.0752    4.5234 H   0  0  0  0  0  0  0  0  0  0  0  0
    1.0996   -3.5652    3.1586 N   0  0  0  0  0  0  0  0  0  0  0  0
    1.2042   -4.9768    2.8716 C   0  0  0  0  0  0  0  0  0  0  0  0
    1.6643   -3.1925    3.9162 H   0  0  0  0  0  0  0  0  0  0  0  0
    0.4617   -5.5286    3.4668 H   0  0  0  0  0  0  0  0  0  0  0  0
    1.0165   -5.1481    1.8013 H   0  0  0  0  0  0  0  0  0  0  0  0
    2.2143   -5.3291    3.1277 H   0  0  0  0  0  0  0  0  0  0  0  0
 29 30  2  0  0  0  0
 27 29  1  0  0  0  0
 28 30  1  0  0  0  0
 24 27  2  0  0  0  0
 26 28  2  0  0  0  0
 22 23  2  0  0  0  0
 23 25  1  0  0  0  0
 22 24  1  0  0  0  0
 24 26  1  0  0  0  0
 21 22  1  0  0  0  0
 25 26  1  0  0  0  0
  1  3  1  0  0  0  0
  1  7  1  0  0  0  0
  1  2  2  0  0  0  0
 42 43  1  0  0  0  0
 43 51  1  0  0  0  0
 43 44  2  0  0  0  0
  8  9  1  0  0  0  0
  9 17  1  0  0  0  0
  9 10  2  0  0  0  0
 18 19  1  0  0  0  0
 19 41  1  0  0  0  0
 19 20  2  0  0  0  0
 42 45  1  0  0  0  0
  8 11  1  0  0  0  0
 51 52  1  0  0  0  0
 18 21  1  0  0  0  0
 41 42  1  0  0  0  0
  7  8  1  0  0  0  0
 17 18  1  0  0  0  0
 29 39  1  0  0  0  0
 30 40  1  0  0  0  0
 27 37  1  0  0  0  0
 28 38  1  0  0  0  0
 23 35  1  0  0  0  0
  3  4  1  0  0  0  0
  3  5  1  0  0  0  0
  3  6  1  0  0  0  0
 45 48  1  0  0  0  0
 45 49  1  0  0  0  0
 45 50  1  0  0  0  0
 11 14  1  0  0  0  0
 11 15  1  0  0  0  0
 11 16  1  0  0  0  0
 52 54  1  0  0  0  0
 52 55  1  0  0  0  0
 52 56  1  0  0  0  0
 21 33  1  0  0  0  0
 21 34  1  0  0  0  0
 42 47  1  0  0  0  0
  8 13  1  0  0  0  0
 18 32  1  0  0  0  0
 25 36  1  0  0  0  0
 51 53  1  0  0  0  0
  7 12  1  0  0  0  0
 41 46  1  0  0  0  0
 17 31  1  0  0  0  0
M  END
$$$$

  -OEChem-05262214473D

 56 57  0     1  0  0  0  0  0999 V2000
   -2.2900    0.3401    4.1553 C   0  0  0  0  0  0  0  0  0  0  0  0
   -1.3426   -0.2746    3.6796 O   0  0  0  0  0  0  0  0  0  0  0  0
   -2.7219    0.0577    5.5560 C   0  0  0  0  0  0  0  0  0  0  0  0
   -3.4815   -0.7386    5.6094 H   0  0  0  0  0  0  0  0  0  0  0  0
   -1.8906   -0.2899    6.1903 H   0  0  0  0  0  0  0  0  0  0  0  0
   -3.1599    0.9126    6.0956 H   0  0  0  0  0  0  0  0  0  0  0  0
   -3.0397    1.3125    3.5142 N   0  0  0  0  0  0  0  0  0  0  0  0
   -2.7928    1.7385    2.1618 C   0  0  2  0  0  0  0  0  0  0  0  0
   -1.4579    1.1532    1.7206 C   0  0  0  0  0  0  0  0  0  0  0  0
   -0.5858    0.8004    2.5118 O   0  0  0  0  0  0  0  0  0  0  0  0
   -2.7841    3.2553    2.0523 C   0  0  0  0  0  0  0  0  0  0  0  0
   -3.8047    1.7484    4.0260 H   0  0  0  0  0  0  0  0  0  0  0  0
   -3.5969    1.3201    1.5466 H   0  0  0  0  0  0  0  0  0  0  0  0
   -1.9850    3.6926    2.6620 H   0  0  0  0  0  0  0  0  0  0  0  0
   -2.6246    3.5776    1.0180 H   0  0  0  0  0  0  0  0  0  0  0  0
   -3.7342    3.6765    2.3981 H   0  0  0  0  0  0  0  0  0  0  0  0
   -1.3352    1.1101    0.3372 N   0  0  0  0  0  0  0  0  0  0  0  0
   -0.1579    0.6093   -0.3265 C   0  0  2  0  0  0  0  0  0  0  0  0
    0.4541   -0.4521    0.5807 C   0  0  0  0  0  0  0  0  0  0  0  0
    1.4980   -1.0422    0.3105 O   0  0  0  0  0  0  0  0  0  0  0  0
    0.8614    1.7181   -0.6124 C   0  0  0  0  0  0  0  0  0  0  0  0
    0.3667    2.7175   -1.6293 C   0  0  0  0  0  0  0  0  0  0  0  0
   -0.2172    3.9306   -1.3454 C   0  0  0  0  0  0  0  0  0  0  0  0
    0.4184    2.5826   -3.0450 C   0  0  0  0  0  0  0  0  0  0  0  0
   -0.5233    4.5391   -2.5330 N   0  0  0  0  0  0  0  0  0  0  0  0
   -0.1462    3.7388   -3.5878 C   0  0  0  0  0  0  0  0  0  0  0  0
    0.8929    1.5846   -3.9193 C   0  0  0  0  0  0  0  0  0  0  0  0
   -0.2606    3.9478   -4.9667 C   0  0  0  0  0  0  0  0  0  0  0  0
    0.7852    1.7801   -5.3010 C   0  0  0  0  0  0  0  0  0  0  0  0
    0.2170    2.9442   -5.8145 C   0  0  0  0  0  0  0  0  0  0  0  0
   -2.1183    1.4068   -0.2401 H   0  0  0  0  0  0  0  0  0  0  0  0
   -0.5000    0.1349   -1.2538 H   0  0  0  0  0  0  0  0  0  0  0  0
    1.8108    1.2834   -0.9533 H   0  0  0  0  0  0  0  0  0  0  0  0
    1.1078    2.2598    0.3104 H   0  0  0  0  0  0  0  0  0  0  0  0
   -0.4440    4.4152   -0.4058 H   0  0  0  0  0  0  0  0  0  0  0  0
   -0.9625    5.4449   -2.6232 H   0  0  0  0  0  0  0  0  0  0  0  0
    1.3375    0.6712   -3.5347 H   0  0  0  0  0  0  0  0  0  0  0  0
   -0.7017    4.8542   -5.3674 H   0  0  0  0  0  0  0  0  0  0  0  0
    1.1489    1.0138   -5.9803 H   0  0  0  0  0  0  0  0  0  0  0  0
    0.1434    3.0753   -6.8910 H   0  0  0  0  0  0  0  0  0  0  0  0
   -0.2778   -0.6232    1.7475 N   0  0  0  0  0  0  0  0  0  0  0  0
    0.0961   -1.5518    2.7899 C   0  0  2  0  0  0  0  0  0  0  0  0
    0.3633   -2.9038    2.1416 C   0  0  0  0  0  0  0  0  0  0  0  0
   -0.1016   -3.2284    1.0509 O   0  0  0  0  0  0  0  0  0  0  0  0
   -0.9901   -1.6619    3.8486 C   0  0  0  0  0  0  0  0  0  0  0  0
   -1.1186   -0.0677    1.8752 H   0  0  0  0  0  0  0  0  0  0  0  0
    1.0212   -1.1708    3.2360 H   0  0  0  0  0  0  0  0  0  0  0  0
   -1.9247   -2.0421    3.4203 H   0  0  0  0  0  0  0  0  0  0  0  0
   -0.6933   -2.3440    4.6521 H   0  0  0  0  0  0  0  0  0  0  0  0
   -1.2020   -0.6834    4.2928 H   0  0  0  0  0  0  0  0  0  0  0  0
    1.1467   -3.7215    2.9439 N   0  0  0  0  0  0  0  0  0  0  0  0
    1.5286   -5.0594    2.5561 C   0  0  0  0  0  0  0  0  0  0  0  0
    1.5040   -3.3632    3.8247 H   0  0  0  0  0  0  0  0  0  0  0  0
    0.7951   -5.7790    2.9489 H   0  0  0  0  0  0  0  0  0  0  0  0
    1.5585   -5.1285    1.4587 H   0  0  0  0  0  0  0  0  0  0  0  0
    2.5233   -5.2898    2.9653 H   0  0  0  0  0  0  0  0  0  0  0  0
 29 30  2  0  0  0  0
 27 29  1  0  0  0  0
 28 30  1  0  0  0  0
 24 27  2  0  0  0  0
 26 28  2  0  0  0  0
 22 23  2  0  0  0  0
 23 25  1  0  0  0  0
 22 24  1  0  0  0  0
 24 26  1  0  0  0  0
 21 22  1  0  0  0  0
 25 26  1  0  0  0  0
  1  3  1  0  0  0  0
  1  7  1  0  0  0  0
  1  2  2  0  0  0  0
 42 43  1  0  0  0  0
 43 51  1  0  0  0  0
 43 44  2  0  0  0  0
  8  9  1  0  0  0  0
  9 17  1  0  0  0  0
  9 10  2  0  0  0  0
 18 19  1  0  0  0  0
 19 41  1  0  0  0  0
 19 20  2  0  0  0  0
 42 45  1  0  0  0  0
  8 11  1  0  0  0  0
 51 52  1  0  0  0  0
 18 21  1  0  0  0  0
 41 42  1  0  0  0  0
  7  8  1  0  0  0  0
 17 18  1  0  0  0  0
 29 39  1  0  0  0  0
 30 40  1  0  0  0  0
 27 37  1  0  0  0  0
 28 38  1  0  0  0  0
 23 35  1  0  0  0  0
  3  4  1  0  0  0  0
  3  5  1  0  0  0  0
  3  6  1  0  0  0  0
 45 48  1  0  0  0  0
 45 49  1  0  0  0  0
 45 50  1  0  0  0  0
 11 14  1  0  0  0  0
 11 15  1  0  0  0  0
 11 16  1  0  0  0  0
 52 54  1  0  0  0  0
 52 55  1  0  0  0  0
 52 56  1  0  0  0  0
 21 33  1  0  0  0  0
 21 34  1  0  0  0  0
 42 47  1  0  0  0  0
  8 13  1  0  0  0  0
 18 32  1  0  0  0  0
 25 36  1  0  0  0  0
 51 53  1  0  0  0  0
  7 12  1  0  0  0  0
 41 46  1  0  0  0  0
 17 31  1  0  0  0  0
M  END
$$$$

  -OEChem-05262214473D

 56 57  0     1  0  0  0  0  0999 V2000
   -2.2900    0.3401    4.1553 C   0  0  0  0  0  0  0  0  0  0  0  0
   -1.3426   -0.2746    3.6796 O   0  0  0  0  0  0  0  0  0  0  0  0
   -2.7219    0.0577    5.5560 C   0  0  0  0  0  0  0  0  0  0  0  0
   -3.4815   -0.7386    5.6094 H   0  0  0  0  0  0  0  0  0  0  0  0
   -1.8906   -0.2899    6.1903 H   0  0  0  0  0  0  0  0  0  0  0  0
   -3.1599    0.9126    6.0956 H   0  0  0  0  0  0  0  0  0  0  0  0
   -3.0397    1.3125    3.5142 N   0  0  0  0  0  0  0  0  0  0  0  0
   -2.7928    1.7385    2.1618 C   0  0  2  0  0  0  0  0  0  0  0  0
   -1.4579    1.1532    1.7206 C   0  0  0  0  0  0  0  0  0  0  0  0
   -0.5858    0.8004    2.5118 O   0  0  0  0  0  0  0  0  0  0  0  0
   -2.7841    3.2553    2.0523 C   0  0  0  0  0  0  0  0  0  0  0  0
   -3.8047    1.7484    4.0260 H   0  0  0  0  0  0  0  0  0  0  0  0
   -3.5969    1.3201    1.5466 H   0  0  0  0  0  0  0  0  0  0  0  0
   -1.9850    3.6926    2.6620 H   0  0  0  0  0  0  0  0  0  0  0  0
   -2.6246    3.5776    1.0180 H   0  0  0  0  0  0  0  0  0  0  0  0
   -3.7342    3.6765    2.3981 H   0  0  0  0  0  0  0  0  0  0  0  0
   -1.3352    1.1101    0.3372 N   0  0  0  0  0  0  0  0  0  0  0  0
   -0.1579    0.6093   -0.3265 C   0  0  2  0  0  0  0  0  0  0  0  0
    0.4541   -0.4521    0.5807 C   0  0  0  0  0  0  0  0  0  0  0  0
    1.6112   -0.8491    0.4601 O   0  0  0  0  0  0  0  0  0  0  0  0
    0.8614    1.7181   -0.6124 C   0  0  0  0  0  0  0  0  0  0  0  0
    0.3667    2.7175   -1.6293 C   0  0  0  0  0  0  0  0  0  0  0  0
   -0.2172    3.9306   -1.3454 C   0  0  0  0  0  0  0  0  0  0  0  0
    0.4184    2.5826   -3.0450 C   0  0  0  0  0  0  0  0  0  0  0  0
   -0.5233    4.5391   -2.5330 N   0  0  0  0  0  0  0  0  0  0  0  0
   -0.1462    3.7388   -3.5878 C   0  0  0  0  0  0  0  0  0  0  0  0
    0.8929    1.5846   -3.9193 C   0  0  0  0  0  0  0  0  0  0  0  0
   -0.2606    3.9478   -4.9667 C   0  0  0  0  0  0  0  0  0  0  0  0
    0.7852    1.7801   -5.3010 C   0  0  0  0  0  0  0  0  0  0  0  0
    0.2170    2.9442   -5.8145 C   0  0  0  0  0  0  0  0  0  0  0  0
   -2.1183    1.4068   -0.2401 H   0  0  0  0  0  0  0  0  0  0  0  0
   -0.5000    0.1349   -1.2538 H   0  0  0  0  0  0  0  0  0  0  0  0
    1.8108    1.2834   -0.9533 H   0  0  0  0  0  0  0  0  0  0  0  0
    1.1078    2.2598    0.3104 H   0  0  0  0  0  0  0  0  0  0  0  0
   -0.4440    4.4152   -0.4058 H   0  0  0  0  0  0  0  0  0  0  0  0
   -0.9625    5.4449   -2.6232 H   0  0  0  0  0  0  0  0  0  0  0  0
    1.3375    0.6712   -3.5347 H   0  0  0  0  0  0  0  0  0  0  0  0
   -0.7017    4.8542   -5.3674 H   0  0  0  0  0  0  0  0  0  0  0  0
    1.1489    1.0138   -5.9803 H   0  0  0  0  0  0  0  0  0  0  0  0
    0.1434    3.0753   -6.8910 H   0  0  0  0  0  0  0  0  0  0  0  0
   -0.4297   -0.8636    1.5686 N   0  0  0  0  0  0  0  0  0  0  0  0
   -0.0939   -1.8450    2.5751 C   0  0  2  0  0  0  0  0  0  0  0  0
    0.4983   -3.0581    1.8700 C   0  0  0  0  0  0  0  0  0  0  0  0
    0.2874   -3.3154    0.6866 O   0  0  0  0  0  0  0  0  0  0  0  0
   -1.3132   -2.2351    3.3961 C   0  0  0  0  0  0  0  0  0  0  0  0
   -1.3592   -0.4545    1.5851 H   0  0  0  0  0  0  0  0  0  0  0  0
    0.6656   -1.3897    3.2199 H   0  0  0  0  0  0  0  0  0  0  0  0
   -2.0852   -2.6930    2.7670 H   0  0  0  0  0  0  0  0  0  0  0  0
   -1.0516   -2.9571    4.1765 H   0  0  0  0  0  0  0  0  0  0  0  0
   -1.7555   -1.3567    3.8785 H   0  0  0  0  0  0  0  0  0  0  0  0
    1.2550   -3.8430    2.7288 N   0  0  0  0  0  0  0  0  0  0  0  0
    1.9115   -5.0564    2.3013 C   0  0  0  0  0  0  0  0  0  0  0  0
    1.3920   -3.5432    3.6896 H   0  0  0  0  0  0  0  0  0  0  0  0
    1.2491   -5.9157    2.4827 H   0  0  0  0  0  0  0  0  0  0  0  0
    2.1406   -4.9904    1.2275 H   0  0  0  0  0  0  0  0  0  0  0  0
    2.8451   -5.1873    2.8681 H   0  0  0  0  0  0  0  0  0  0  0  0
 29 30  2  0  0  0  0
 27 29  1  0  0  0  0
 28 30  1  0  0  0  0
 24 27  2  0  0  0  0
 26 28  2  0  0  0  0
 22 23  2  0  0  0  0
 23 25  1  0  0  0  0
 22 24  1  0  0  0  0
 24 26  1  0  0  0  0
 21 22  1  0  0  0  0
 25 26  1  0  0  0  0
  1  3  1  0  0  0  0
  1  7  1  0  0  0  0
  1  2  2  0  0  0  0
 42 43  1  0  0  0  0
 43 51  1  0  0  0  0
 43 44  2  0  0  0  0
  8  9  1  0  0  0  0
  9 17  1  0  0  0  0
  9 10  2  0  0  0  0
 18 19  1  0  0  0  0
 19 41  1  0  0  0  0
 19 20  2  0  0  0  0
 42 45  1  0  0  0  0
  8 11  1  0  0  0  0
 51 52  1  0  0  0  0
 18 21  1  0  0  0  0
 41 42  1  0  0  0  0
  7  8  1  0  0  0  0
 17 18  1  0  0  0  0
 29 39  1  0  0  0  0
 30 40  1  0  0  0  0
 27 37  1  0  0  0  0
 28 38  1  0  0  0  0
 23 35  1  0  0  0  0
  3  4  1  0  0  0  0
  3  5  1  0  0  0  0
  3  6  1  0  0  0  0
 45 48  1  0  0  0  0
 45 49  1  0  0  0  0
 45 50  1  0  0  0  0
 11 14  1  0  0  0  0
 11 15  1  0  0  0  0
 11 16  1  0  0  0  0
 52 54  1  0  0  0  0
 52 55  1  0  0  0  0
 52 56  1  0  0  0  0
 21 33  1  0  0  0  0
 21 34  1  0  0  0  0
 42 47  1  0  0  0  0
  8 13  1  0  0  0  0
 18 32  1  0  0  0  0
 25 36  1  0  0  0  0
 51 53  1  0  0  0  0
  7 12  1  0  0  0  0
 41 46  1  0  0  0  0
 17 31  1  0  0  0  0
M  END
$$$$

  -OEChem-05262214473D

 56 57  0     1  0  0  0  0  0999 V2000
   -2.2900    0.3401    4.1553 C   0  0  0  0  0  0  0  0  0  0  0  0
   -1.3426   -0.2746    3.6796 O   0  0  0  0  0  0  0  0  0  0  0  0
   -2.7219    0.0577    5.5560 C   0  0  0  0  0  0  0  0  0  0  0  0
   -3.4815   -0.7386    5.6094 H   0  0  0  0  0  0  0  0  0  0  0  0
   -1.8906   -0.2899    6.1903 H   0  0  0  0  0  0  0  0  0  0  0  0
   -3.1599    0.9126    6.0956 H   0  0  0  0  0  0  0  0  0  0  0  0
   -3.0397    1.3125    3.5142 N   0  0  0  0  0  0  0  0  0  0  0  0
   -2.7928    1.7385    2.1618 C   0  0  2  0  0  0  0  0  0  0  0  0
   -1.4579    1.1532    1.7206 C   0  0  0  0  0  0  0  0  0  0  0  0
   -0.5858    0.8004    2.5118 O   0  0  0  0  0  0  0  0  0  0  0  0
   -2.7841    3.2553    2.0523 C   0  0  0  0  0  0  0  0  0  0  0  0
   -3.8047    1.7484    4.0260 H   0  0  0  0  0  0  0  0  0  0  0  0
   -3.5969    1.3201    1.5466 H   0  0  0  0  0  0  0  0  0  0  0  0
   -1.9850    3.6926    2.6620 H   0  0  0  0  0  0  0  0  0  0  0  0
   -2.6246    3.5776    1.0180 H   0  0  0  0  0  0  0  0  0  0  0  0
   -3.7342    3.6765    2.3981 H   0  0  0  0  0  0  0  0  0  0  0  0
   -1.3352    1.1101    0.3372 N   0  0  0  0  0  0  0  0  0  0  0  0
   -0.1579    0.6093   -0.3265 C   0  0  2  0  0  0  0  0  0  0  0  0
    0.4541   -0.4521    0.5807 C   0  0  0  0  0  0  0  0  0  0  0  0
    1.6638   -0.6607    0.6450 O   0  0  0  0  0  0  0  0  0  0  0  0
    0.8614    1.7181   -0.6124 C   0  0  0  0  0  0  0  0  0  0  0  0
    0.3667    2.7175   -1.6293 C   0  0  0  0  0  0  0  0  0  0  0  0
   -0.2172    3.9306   -1.3454 C   0  0  0  0  0  0  0  0  0  0  0  0
    0.4184    2.5826   -3.0450 C   0  0  0  0  0  0  0  0  0  0  0  0
   -0.5233    4.5391   -2.5330 N   0  0  0  0  0  0  0  0  0  0  0  0
   -0.1462    3.7388   -3.5878 C   0  0  0  0  0  0  0  0  0  0  0  0
    0.8929    1.5846   -3.9193 C   0  0  0  0  0  0  0  0  0  0  0  0
   -0.2606    3.9478   -4.9667 C   0  0  0  0  0  0  0  0  0  0  0  0
    0.7852    1.7801   -5.3010 C   0  0  0  0  0  0  0  0  0  0  0  0
    0.2170    2.9442   -5.8145 C   0  0  0  0  0  0  0  0  0  0  0  0
   -2.1183    1.4068   -0.2401 H   0  0  0  0  0  0  0  0  0  0  0  0
   -0.5000    0.1349   -1.2538 H   0  0  0  0  0  0  0  0  0  0  0  0
    1.8108    1.2834   -0.9533 H   0  0  0  0  0  0  0  0  0  0  0  0
    1.1078    2.2598    0.3104 H   0  0  0  0  0  0  0  0  0  0  0  0
   -0.4440    4.4152   -0.4058 H   0  0  0  0  0  0  0  0  0  0  0  0
   -0.9625    5.4449   -2.6232 H   0  0  0  0  0  0  0  0  0  0  0  0
    1.3375    0.6712   -3.5347 H   0  0  0  0  0  0  0  0  0  0  0  0
   -0.7017    4.8542   -5.3674 H   0  0  0  0  0  0  0  0  0  0  0  0
    1.1489    1.0138   -5.9803 H   0  0  0  0  0  0  0  0  0  0  0  0
    0.1434    3.0753   -6.8910 H   0  0  0  0  0  0  0  0  0  0  0  0
   -0.5071   -1.1007    1.3435 N   0  0  0  0  0  0  0  0  0  0  0  0
   -0.1936   -2.1351    2.3029 C   0  0  2  0  0  0  0  0  0  0  0  0
    0.7014   -3.1581    1.6160 C   0  0  0  0  0  0  0  0  0  0  0  0
    0.7423   -3.3017    0.3958 O   0  0  0  0  0  0  0  0  0  0  0  0
   -1.4555   -2.7914    2.8412 C   0  0  0  0  0  0  0  0  0  0  0  0
   -1.4798   -0.8350    1.2212 H   0  0  0  0  0  0  0  0  0  0  0  0
    0.3589   -1.6541    3.1174 H   0  0  0  0  0  0  0  0  0  0  0  0
   -2.0223   -3.2786    2.0394 H   0  0  0  0  0  0  0  0  0  0  0  0
   -1.2175   -3.5551    3.5889 H   0  0  0  0  0  0  0  0  0  0  0  0
   -2.1118   -2.0493    3.3085 H   0  0  0  0  0  0  0  0  0  0  0  0
    1.4171   -3.9212    2.5279 N   0  0  0  0  0  0  0  0  0  0  0  0
    2.3268   -4.9680    2.1245 C   0  0  0  0  0  0  0  0  0  0  0  0
    1.3358   -3.7204    3.5203 H   0  0  0  0  0  0  0  0  0  0  0  0
    1.7927   -5.9293    2.1000 H   0  0  0  0  0  0  0  0  0  0  0  0
    2.7233   -4.7434    1.1234 H   0  0  0  0  0  0  0  0  0  0  0  0
    3.1576   -5.0286    2.8429 H   0  0  0  0  0  0  0  0  0  0  0  0
 29 30  2  0  0  0  0
 27 29  1  0  0  0  0
 28 30  1  0  0  0  0
 24 27  2  0  0  0  0
 26 28  2  0  0  0  0
 22 23  2  0  0  0  0
 23 25  1  0  0  0  0
 22 24  1  0  0  0  0
 24 26  1  0  0  0  0
 21 22  1  0  0  0  0
 25 26  1  0  0  0  0
  1  3  1  0  0  0  0
  1  7  1  0  0  0  0
  1  2  2  0  0  0  0
 42 43  1  0  0  0  0
 43 51  1  0  0  0  0
 43 44  2  0  0  0  0
  8  9  1  0  0  0  0
  9 17  1  0  0  0  0
  9 10  2  0  0  0  0
 18 19  1  0  0  0  0
 19 41  1  0  0  0  0
 19 20  2  0  0  0  0
 42 45  1  0  0  0  0
  8 11  1  0  0  0  0
 51 52  1  0  0  0  0
 18 21  1  0  0  0  0
 41 42  1  0  0  0  0
  7  8  1  0  0  0  0
 17 18  1  0  0  0  0
 29 39  1  0  0  0  0
 30 40  1  0  0  0  0
 27 37  1  0  0  0  0
 28 38  1  0  0  0  0
 23 35  1  0  0  0  0
  3  4  1  0  0  0  0
  3  5  1  0  0  0  0
  3  6  1  0  0  0  0
 45 48  1  0  0  0  0
 45 49  1  0  0  0  0
 45 50  1  0  0  0  0
 11 14  1  0  0  0  0
 11 15  1  0  0  0  0
 11 16  1  0  0  0  0
 52 54  1  0  0  0  0
 52 55  1  0  0  0  0
 52 56  1  0  0  0  0
 21 33  1  0  0  0  0
 21 34  1  0  0  0  0
 42 47  1  0  0  0  0
  8 13  1  0  0  0  0
 18 32  1  0  0  0  0
 25 36  1  0  0  0  0
 51 53  1  0  0  0  0
  7 12  1  0  0  0  0
 41 46  1  0  0  0  0
 17 31  1  0  0  0  0
M  END
$$$$

  -OEChem-05262214473D

 56 57  0     1  0  0  0  0  0999 V2000
   -2.2900    0.3401    4.1553 C   0  0  0  0  0  0  0  0  0  0  0  0
   -1.3426   -0.2746    3.6796 O   0  0  0  0  0  0  0  0  0  0  0  0
   -2.7219    0.0577    5.5560 C   0  0  0  0  0  0  0  0  0  0  0  0
   -3.4815   -0.7386    5.6094 H   0  0  0  0  0  0  0  0  0  0  0  0
   -1.8906   -0.2899    6.1903 H   0  0  0  0  0  0  0  0  0  0  0  0
   -3.1599    0.9126    6.0956 H   0  0  0  0  0  0  0  0  0  0  0  0
   -3.0397    1.3125    3.5142 N   0  0  0  0  0  0  0  0  0  0  0  0
   -2.7928    1.7385    2.1618 C   0  0  2  0  0  0  0  0  0  0  0  0
   -1.4579    1.1532    1.7206 C   0  0  0  0  0  0  0  0  0  0  0  0
   -0.5858    0.8004    2.5118 O   0  0  0  0  0  0  0  0  0  0  0  0
   -2.7841    3.2553    2.0523 C   0  0  0  0  0  0  0  0  0  0  0  0
   -3.8047    1.7484    4.0260 H   0  0  0  0  0  0  0  0  0  0  0  0
   -3.5969    1.3201    1.5466 H   0  0  0  0  0  0  0  0  0  0  0  0
   -1.9850    3.6926    2.6620 H   0  0  0  0  0  0  0  0  0  0  0  0
   -2.6246    3.5776    1.0180 H   0  0  0  0  0  0  0  0  0  0  0  0
   -3.7342    3.6765    2.3981 H   0  0  0  0  0  0  0  0  0  0  0  0
   -1.3352    1.1101    0.3372 N   0  0  0  0  0  0  0  0  0  0  0  0
   -0.1579    0.6093   -0.3265 C   0  0  2  0  0  0  0  0  0  0  0  0
    0.4541   -0.4521    0.5807 C   0  0  0  0  0  0  0  0  0  0  0  0
    1.6523   -0.4898    0.8527 O   0  0  0  0  0  0  0  0  0  0  0  0
    0.8614    1.7181   -0.6124 C   0  0  0  0  0  0  0  0  0  0  0  0
    0.3667    2.7175   -1.6293 C   0  0  0  0  0  0  0  0  0  0  0  0
   -0.2172    3.9306   -1.3454 C   0  0  0  0  0  0  0  0  0  0  0  0
    0.4184    2.5826   -3.0450 C   0  0  0  0  0  0  0  0  0  0  0  0
   -0.5233    4.5391   -2.5330 N   0  0  0  0  0  0  0  0  0  0  0  0
   -0.1462    3.7388   -3.5878 C   0  0  0  0  0  0  0  0  0  0  0  0
    0.8929    1.5846   -3.9193 C   0  0  0  0  0  0  0  0  0  0  0  0
   -0.2606    3.9478   -4.9667 C   0  0  0  0  0  0  0  0  0  0  0  0
    0.7852    1.7801   -5.3010 C   0  0  0  0  0  0  0  0  0  0  0  0
    0.2170    2.9442   -5.8145 C   0  0  0  0  0  0  0  0  0  0  0  0
   -2.1183    1.4068   -0.2401 H   0  0  0  0  0  0  0  0  0  0  0  0
   -0.5000    0.1349   -1.2538 H   0  0  0  0  0  0  0  0  0  0  0  0
    1.8108    1.2834   -0.9533 H   0  0  0  0  0  0  0  0  0  0  0  0
    1.1078    2.2598    0.3104 H   0  0  0  0  0  0  0  0  0  0  0  0
   -0.4440    4.4152   -0.4058 H   0  0  0  0  0  0  0  0  0  0  0  0
   -0.9625    5.4449   -2.6232 H   0  0  0  0  0  0  0  0  0  0  0  0
    1.3375    0.6712   -3.5347 H   0  0  0  0  0  0  0  0  0  0  0  0
   -0.7017    4.8542   -5.3674 H   0  0  0  0  0  0  0  0  0  0  0  0
    1.1489    1.0138   -5.9803 H   0  0  0  0  0  0  0  0  0  0  0  0
    0.1434    3.0753   -6.8910 H   0  0  0  0  0  0  0  0  0  0  0  0
   -0.5048   -1.3182    1.0874 N   0  0  0  0  0  0  0  0  0  0  0  0
   -0.1962   -2.4024    1.9919 C   0  0  2  0  0  0  0  0  0  0  0  0
    0.9588   -3.1971    1.3968 C   0  0  0  0  0  0  0  0  0  0  0  0
    1.2319   -3.1882    0.1983 O   0  0  0  0  0  0  0  0  0  0  0  0
   -1.4072   -3.2930    2.2217 C   0  0  0  0  0  0  0  0  0  0  0  0
   -1.4721   -1.1833    0.8085 H   0  0  0  0  0  0  0  0  0  0  0  0
    0.1217   -1.9462    2.9357 H   0  0  0  0  0  0  0  0  0  0  0  0
   -1.7403   -3.7590    1.2871 H   0  0  0  0  0  0  0  0  0  0  0  0
   -1.1798   -4.0972    2.9293 H   0  0  0  0  0  0  0  0  0  0  0  0
   -2.2465   -2.7140    2.6218 H   0  0  0  0  0  0  0  0  0  0  0  0
    1.6219   -3.9510    2.3549 N   0  0  0  0  0  0  0  0  0  0  0  0
    2.7462   -4.8004    2.0378 C   0  0  0  0  0  0  0  0  0  0  0  0
    1.3394   -3.8825    3.3282 H   0  0  0  0  0  0  0  0  0  0  0  0
    2.3888   -5.8191    1.8268 H   0  0  0  0  0  0  0  0  0  0  0  0
    3.2669   -4.4042    1.1535 H   0  0  0  0  0  0  0  0  0  0  0  0
    3.4396   -4.8246    2.8914 H   0  0  0  0  0  0  0  0  0  0  0  0
 29 30  2  0  0  0  0
 27 29  1  0  0  0  0
 28 30  1  0  0  0  0
 24 27  2  0  0  0  0
 26 28  2  0  0  0  0
 22 23  2  0  0  0  0
 23 25  1  0  0  0  0
 22 24  1  0  0  0  0
 24 26  1  0  0  0  0
 21 22  1  0  0  0  0
 25 26  1  0  0  0  0
  1  3  1  0  0  0  0
  1  7  1  0  0  0  0
  1  2  2  0  0  0  0
 42 43  1  0  0  0  0
 43 51  1  0  0  0  0
 43 44  2  0  0  0  0
  8  9  1  0  0  0  0
  9 17  1  0  0  0  0
  9 10  2  0  0  0  0
 18 19  1  0  0  0  0
 19 41  1  0  0  0  0
 19 20  2  0  0  0  0
 42 45  1  0  0  0  0
  8 11  1  0  0  0  0
 51 52  1  0  0  0  0
 18 21  1  0  0  0  0
 41 42  1  0  0  0  0
  7  8  1  0  0  0  0
 17 18  1  0  0  0  0
 29 39  1  0  0  0  0
 30 40  1  0  0  0  0
 27 37  1  0  0  0  0
 28 38  1  0  0  0  0
 23 35  1  0  0  0  0
  3  4  1  0  0  0  0
  3  5  1  0  0  0  0
  3  6  1  0  0  0  0
 45 48  1  0  0  0  0
 45 49  1  0  0  0  0
 45 50  1  0  0  0  0
 11 14  1  0  0  0  0
 11 15  1  0  0  0  0
 11 16  1  0  0  0  0
 52 54  1  0  0  0  0
 52 55  1  0  0  0  0
 52 56  1  0  0  0  0
 21 33  1  0  0  0  0
 21 34  1  0  0  0  0
 42 47  1  0  0  0  0
  8 13  1  0  0  0  0
 18 32  1  0  0  0  0
 25 36  1  0  0  0  0
 51 53  1  0  0  0  0
  7 12  1  0  0  0  0
 41 46  1  0  0  0  0
 17 31  1  0  0  0  0
M  END
$$$$

  -OEChem-05262214473D

 56 57  0     1  0  0  0  0  0999 V2000
   -2.2900    0.3401    4.1553 C   0  0  0  0  0  0  0  0  0  0  0  0
   -1.3426   -0.2746    3.6796 O   0  0  0  0  0  0  0  0  0  0  0  0
   -2.7219    0.0577    5.5560 C   0  0  0  0  0  0  0  0  0  0  0  0
   -3.4815   -0.7386    5.6094 H   0  0  0  0  0  0  0  0  0  0  0  0
   -1.8906   -0.2899    6.1903 H   0  0  0  0  0  0  0  0  0  0  0  0
   -3.1599    0.9126    6.0956 H   0  0  0  0  0  0  0  0  0  0  0  0
   -3.0397    1.3125    3.5142 N   0  0  0  0  0  0  0  0  0  0  0  0
   -2.7928    1.7385    2.1618 C   0  0  2  0  0  0  0  0  0  0  0  0
   -1.4579    1.1532    1.7206 C   0  0  0  0  0  0  0  0  0  0  0  0
   -0.5858    0.8004    2.5118 O   0  0  0  0  0  0  0  0  0  0  0  0
   -2.7841    3.2553    2.0523 C   0  0  0  0  0  0  0  0  0  0  0  0
   -3.8047    1.7484    4.0260 H   0  0  0  0  0  0  0  0  0  0  0  0
   -3.5969    1.3201    1.5466 H   0  0  0  0  0  0  0  0  0  0  0  0
   -1.9850    3.6926    2.6620 H   0  0  0  0  0  0  0  0  0  0  0  0
   -2.6246    3.5776    1.0180 H   0  0  0  0  0  0  0  0  0  0  0  0
   -3.7342    3.6765    2.3981 H   0  0  0  0  0  0  0  0  0  0  0  0
   -1.3352    1.1101    0.3372 N   0  0  0  0  0  0  0  0  0  0  0  0
   -0.1579    0.6093   -0.3265 C   0  0  2  0  0  0  0  0  0  0  0  0
    0.4541   -0.4521    0.5807 C   0  0  0  0  0  0  0  0  0  0  0  0
    1.5774   -0.3482    1.0690 O   0  0  0  0  0  0  0  0  0  0  0  0
    0.8614    1.7181   -0.6124 C   0  0  0  0  0  0  0  0  0  0  0  0
    0.3667    2.7175   -1.6293 C   0  0  0  0  0  0  0  0  0  0  0  0
   -0.2172    3.9306   -1.3454 C   0  0  0  0  0  0  0  0  0  0  0  0
    0.4184    2.5826   -3.0450 C   0  0  0  0  0  0  0  0  0  0  0  0
   -0.5233    4.5391   -2.5330 N   0  0  0  0  0  0  0  0  0  0  0  0
   -0.1462    3.7388   -3.5878 C   0  0  0  0  0  0  0  0  0  0  0  0
    0.8929    1.5846   -3.9193 C   0  0  0  0  0  0  0  0  0  0  0  0
   -0.2606    3.9478   -4.9667 C   0  0  0  0  0  0  0  0  0  0  0  0
    0.7852    1.7801   -5.3010 C   0  0  0  0  0  0  0  0  0  0  0  0
    0.2170    2.9442   -5.8145 C   0  0  0  0  0  0  0  0  0  0  0  0
   -2.1183    1.4068   -0.2401 H   0  0  0  0  0  0  0  0  0  0  0  0
   -0.5000    0.1349   -1.2538 H   0  0  0  0  0  0  0  0  0  0  0  0
    1.8108    1.2834   -0.9533 H   0  0  0  0  0  0  0  0  0  0  0  0
    1.1078    2.2598    0.3104 H   0  0  0  0  0  0  0  0  0  0  0  0
   -0.4440    4.4152   -0.4058 H   0  0  0  0  0  0  0  0  0  0  0  0
   -0.9625    5.4449   -2.6232 H   0  0  0  0  0  0  0  0  0  0  0  0
    1.3375    0.6712   -3.5347 H   0  0  0  0  0  0  0  0  0  0  0  0
   -0.7017    4.8542   -5.3674 H   0  0  0  0  0  0  0  0  0  0  0  0
    1.1489    1.0138   -5.9803 H   0  0  0  0  0  0  0  0  0  0  0  0
    0.1434    3.0753   -6.8910 H   0  0  0  0  0  0  0  0  0  0  0  0
   -0.4229   -1.5014    0.8179 N   0  0  0  0  0  0  0  0  0  0  0  0
   -0.1014   -2.6287    1.6633 C   0  0  2  0  0  0  0  0  0  0  0  0
    1.2529   -3.1723    1.2274 C   0  0  0  0  0  0  0  0  0  0  0  0
    1.7229   -2.9827    0.1075 O   0  0  0  0  0  0  0  0  0  0  0  0
   -1.1718   -3.7058    1.5800 C   0  0  0  0  0  0  0  0  0  0  0  0
   -1.3367   -1.4757    0.3751 H   0  0  0  0  0  0  0  0  0  0  0  0
   -0.0296   -2.2459    2.6871 H   0  0  0  0  0  0  0  0  0  0  0  0
   -1.2583   -4.1014    0.5614 H   0  0  0  0  0  0  0  0  0  0  0  0
   -0.9411   -4.5465    2.2426 H   0  0  0  0  0  0  0  0  0  0  0  0
   -2.1506   -3.3054    1.8652 H   0  0  0  0  0  0  0  0  0  0  0  0
    1.8555   -3.9302    2.2216 N   0  0  0  0  0  0  0  0  0  0  0  0
    3.1411   -4.5648    2.0469 C   0  0  0  0  0  0  0  0  0  0  0  0
    1.4024   -4.0187    3.1264 H   0  0  0  0  0  0  0  0  0  0  0  0
    2.9968   -5.5924    1.6819 H   0  0  0  0  0  0  0  0  0  0  0  0
    3.7343   -3.9960    1.3158 H   0  0  0  0  0  0  0  0  0  0  0  0
    3.6718   -4.5892    3.0102 H   0  0  0  0  0  0  0  0  0  0  0  0
 29 30  2  0  0  0  0
 27 29  1  0  0  0  0
 28 30  1  0  0  0  0
 24 27  2  0  0  0  0
 26 28  2  0  0  0  0
 22 23  2  0  0  0  0
 23 25  1  0  0  0  0
 22 24  1  0  0  0  0
 24 26  1  0  0  0  0
 21 22  1  0  0  0  0
 25 26  1  0  0  0  0
  1  3  1  0  0  0  0
  1  7  1  0  0  0  0
  1  2  2  0  0  0  0
 42 43  1  0  0  0  0
 43 51  1  0  0  0  0
 43 44  2  0  0  0  0
  8  9  1  0  0  0  0
  9 17  1  0  0  0  0
  9 10  2  0  0  0  0
 18 19  1  0  0  0  0
 19 41  1  0  0  0  0
 19 20  2  0  0  0  0
 42 45  1  0  0  0  0
  8 11  1  0  0  0  0
 51 52  1  0  0  0  0
 18 21  1  0  0  0  0
 41 42  1  0  0  0  0
  7  8  1  0  0  0  0
 17 18  1  0  0  0  0
 29 39  1  0  0  0  0
 30 40  1  0  0  0  0
 27 37  1  0  0  0  0
 28 38  1  0  0  0  0
 23 35  1  0  0  0  0
  3  4  1  0  0  0  0
  3  5  1  0  0  0  0
  3  6  1  0  0  0  0
 45 48  1  0  0  0  0
 45 49  1  0  0  0  0
 45 50  1  0  0  0  0
 11 14  1  0  0  0  0
 11 15  1  0  0  0  0
 11 16  1  0  0  0  0
 52 54  1  0  0  0  0
 52 55  1  0  0  0  0
 52 56  1  0  0  0  0
 21 33  1  0  0  0  0
 21 34  1  0  0  0  0
 42 47  1  0  0  0  0
  8 13  1  0  0  0  0
 18 32  1  0  0  0  0
 25 36  1  0  0  0  0
 51 53  1  0  0  0  0
  7 12  1  0  0  0  0
 41 46  1  0  0  0  0
 17 31  1  0  0  0  0
M  END
$$$$

  -OEChem-05262214473D

 56 57  0     1  0  0  0  0  0999 V2000
   -2.2900    0.3401    4.1553 C   0  0  0  0  0  0  0  0  0  0  0  0
   -1.3426   -0.2746    3.6796 O   0  0  0  0  0  0  0  0  0  0  0  0
   -2.7219    0.0577    5.5560 C   0  0  0  0  0  0  0  0  0  0  0  0
   -3.4815   -0.7386    5.6094 H   0  0  0  0  0  0  0  0  0  0  0  0
   -1.8906   -0.2899    6.1903 H   0  0  0  0  0  0  0  0  0  0  0  0
   -3.1599    0.9126    6.0956 H   0  0  0  0  0  0  0  0  0  0  0  0
   -3.0397    1.3125    3.5142 N   0  0  0  0  0  0  0  0  0  0  0  0
   -2.7928    1.7385    2.1618 C   0  0  2  0  0  0  0  0  0  0  0  0
   -1.4579    1.1532    1.7206 C   0  0  0  0  0  0  0  0  0  0  0  0
   -0.5858    0.8004    2.5118 O   0  0  0  0  0  0  0  0  0  0  0  0
   -2.7841    3.2553    2.0523 C   0  0  0  0  0  0  0  0  0  0  0  0
   -3.8047    1.7484    4.0260 H   0  0  0  0  0  0  0  0  0  0  0  0
   -3.5969    1.3201    1.5466 H   0  0  0  0  0  0  0  0  0  0  0  0
   -1.9850    3.6926    2.6620 H   0  0  0  0  0  0  0  0  0  0  0  0
   -2.6246    3.5776    1.0180 H   0  0  0  0  0  0  0  0  0  0  0  0
   -3.7342    3.6765    2.3981 H   0  0  0  0  0  0  0  0  0  0  0  0
   -1.3352    1.1101    0.3372 N   0  0  0  0  0  0  0  0  0  0  0  0
   -0.1579    0.6093   -0.3265 C   0  0  2  0  0  0  0  0  0  0  0  0
    0.4541   -0.4521    0.5807 C   0  0  0  0  0  0  0  0  0  0  0  0
    1.4443   -0.2453    1.2791 O   0  0  0  0  0  0  0  0  0  0  0  0
    0.8614    1.7181   -0.6124 C   0  0  0  0  0  0  0  0  0  0  0  0
    0.3667    2.7175   -1.6293 C   0  0  0  0  0  0  0  0  0  0  0  0
   -0.2172    3.9306   -1.3454 C   0  0  0  0  0  0  0  0  0  0  0  0
    0.4184    2.5826   -3.0450 C   0  0  0  0  0  0  0  0  0  0  0  0
   -0.5233    4.5391   -2.5330 N   0  0  0  0  0  0  0  0  0  0  0  0
   -0.1462    3.7388   -3.5878 C   0  0  0  0  0  0  0  0  0  0  0  0
    0.8929    1.5846   -3.9193 C   0  0  0  0  0  0  0  0  0  0  0  0
   -0.2606    3.9478   -4.9667 C   0  0  0  0  0  0  0  0  0  0  0  0
    0.7852    1.7801   -5.3010 C   0  0  0  0  0  0  0  0  0  0  0  0
    0.2170    2.9442   -5.8145 C   0  0  0  0  0  0  0  0  0  0  0  0
   -2.1183    1.4068   -0.2401 H   0  0  0  0  0  0  0  0  0  0  0  0
   -0.5000    0.1349   -1.2538 H   0  0  0  0  0  0  0  0  0  0  0  0
    1.8108    1.2834   -0.9533 H   0  0  0  0  0  0  0  0  0  0  0  0
    1.1078    2.2598    0.3104 H   0  0  0  0  0  0  0  0  0  0  0  0
   -0.4440    4.4152   -0.4058 H   0  0  0  0  0  0  0  0  0  0  0  0
   -0.9625    5.4449   -2.6232 H   0  0  0  0  0  0  0  0  0  0  0  0
    1.3375    0.6712   -3.5347 H   0  0  0  0  0  0  0  0  0  0  0  0
   -0.7017    4.8542   -5.3674 H   0  0  0  0  0  0  0  0  0  0  0  0
    1.1489    1.0138   -5.9803 H   0  0  0  0  0  0  0  0  0  0  0  0
    0.1434    3.0753   -6.8910 H   0  0  0  0  0  0  0  0  0  0  0  0
   -0.2670   -1.6377    0.5533 N   0  0  0  0  0  0  0  0  0  0  0  0
    0.0842   -2.7985    1.3394 C   0  0  2  0  0  0  0  0  0  0  0  0
    1.5636   -3.0854    1.1194 C   0  0  0  0  0  0  0  0  0  0  0  0
    2.1819   -2.6991    0.1297 O   0  0  0  0  0  0  0  0  0  0  0  0
   -0.7651   -4.0015    0.9596 C   0  0  0  0  0  0  0  0  0  0  0  0
   -1.0827   -1.6922   -0.0496 H   0  0  0  0  0  0  0  0  0  0  0  0
   -0.0848   -2.5329    2.3886 H   0  0  0  0  0  0  0  0  0  0  0  0
   -0.6092   -4.2825   -0.0884 H   0  0  0  0  0  0  0  0  0  0  0  0
   -0.5175   -4.8723    1.5756 H   0  0  0  0  0  0  0  0  0  0  0  0
   -1.8305   -3.7833    1.0902 H   0  0  0  0  0  0  0  0  0  0  0  0
    2.1020   -3.8603    2.1372 N   0  0  0  0  0  0  0  0  0  0  0  0
    3.4847   -4.2774    2.1514 C   0  0  0  0  0  0  0  0  0  0  0  0
    1.5206   -4.1195    2.9287 H   0  0  0  0  0  0  0  0  0  0  0  0
    3.5753   -5.2647    1.6750 H   0  0  0  0  0  0  0  0  0  0  0  0
    4.0937   -3.5465    1.5992 H   0  0  0  0  0  0  0  0  0  0  0  0
    3.8384   -4.3383    3.1912 H   0  0  0  0  0  0  0  0  0  0  0  0
 29 30  2  0  0  0  0
 27 29  1  0  0  0  0
 28 30  1  0  0  0  0
 24 27  2  0  0  0  0
 26 28  2  0  0  0  0
 22 23  2  0  0  0  0
 23 25  1  0  0  0  0
 22 24  1  0  0  0  0
 24 26  1  0  0  0  0
 21 22  1  0  0  0  0
 25 26  1  0  0  0  0
  1  3  1  0  0  0  0
  1  7  1  0  0  0  0
  1  2  2  0  0  0  0
 42 43  1  0  0  0  0
 43 51  1  0  0  0  0
 43 44  2  0  0  0  0
  8  9  1  0  0  0  0
  9 17  1  0  0  0  0
  9 10  2  0  0  0  0
 18 19  1  0  0  0  0
 19 41  1  0  0  0  0
 19 20  2  0  0  0  0
 42 45  1  0  0  0  0
  8 11  1  0  0  0  0
 51 52  1  0  0  0  0
 18 21  1  0  0  0  0
 41 42  1  0  0  0  0
  7  8  1  0  0  0  0
 17 18  1  0  0  0  0
 29 39  1  0  0  0  0
 30 40  1  0  0  0  0
 27 37  1  0  0  0  0
 28 38  1  0  0  0  0
 23 35  1  0  0  0  0
  3  4  1  0  0  0  0
  3  5  1  0  0  0  0
  3  6  1  0  0  0  0
 45 48  1  0  0  0  0
 45 49  1  0  0  0  0
 45 50  1  0  0  0  0
 11 14  1  0  0  0  0
 11 15  1  0  0  0  0
 11 16  1  0  0  0  0
 52 54  1  0  0  0  0
 52 55  1  0  0  0  0
 52 56  1  0  0  0  0
 21 33  1  0  0  0  0
 21 34  1  0  0  0  0
 42 47  1  0  0  0  0
  8 13  1  0  0  0  0
 18 32  1  0  0  0  0
 25 36  1  0  0  0  0
 51 53  1  0  0  0  0
  7 12  1  0  0  0  0
 41 46  1  0  0  0  0
 17 31  1  0  0  0  0
M  END
$$$$

  -OEChem-05262214473D

 56 57  0     1  0  0  0  0  0999 V2000
   -2.2900    0.3401    4.1553 C   0  0  0  0  0  0  0  0  0  0  0  0
   -1.3426   -0.2746    3.6796 O   0  0  0  0  0  0  0  0  0  0  0  0
   -2.7219    0.0577    5.5560 C   0  0  0  0  0  0  0  0  0  0  0  0
   -3.4815   -0.7386    5.6094 H   0  0  0  0  0  0  0  0  0  0  0  0
   -1.8906   -0.2899    6.1903 H   0  0  0  0  0  0  0  0  0  0  0  0
   -3.1599    0.9126    6.0956 H   0  0  0  0  0  0  0  0  0  0  0  0
   -3.0397    1.3125    3.5142 N   0  0  0  0  0  0  0  0  0  0  0  0
   -2.7928    1.7385    2.1618 C   0  0  2  0  0  0  0  0  0  0  0  0
   -1.4579    1.1532    1.7206 C   0  0  0  0  0  0  0  0  0  0  0  0
   -0.5858    0.8004    2.5118 O   0  0  0  0  0  0  0  0  0  0  0  0
   -2.7841    3.2553    2.0523 C   0  0  0  0  0  0  0  0  0  0  0  0
   -3.8047    1.7484    4.0260 H   0  0  0  0  0  0  0  0  0  0  0  0
   -3.5969    1.3201    1.5466 H   0  0  0  0  0  0  0  0  0  0  0  0
   -1.9850    3.6926    2.6620 H   0  0  0  0  0  0  0  0  0  0  0  0
   -2.6246    3.5776    1.0180 H   0  0  0  0  0  0  0  0  0  0  0  0
   -3.7342    3.6765    2.3981 H   0  0  0  0  0  0  0  0  0  0  0  0
   -1.3352    1.1101    0.3372 N   0  0  0  0  0  0  0  0  0  0  0  0
   -0.1579    0.6093   -0.3265 C   0  0  2  0  0  0  0  0  0  0  0  0
    0.4541   -0.4521    0.5807 C   0  0  0  0  0  0  0  0  0  0  0  0
    1.2620   -0.1883    1.4688 O   0  0  0  0  0  0  0  0  0  0  0  0
    0.8614    1.7181   -0.6124 C   0  0  0  0  0  0  0  0  0  0  0  0
    0.3667    2.7175   -1.6293 C   0  0  0  0  0  0  0  0  0  0  0  0
   -0.2172    3.9306   -1.3454 C   0  0  0  0  0  0  0  0  0  0  0  0
    0.4184    2.5826   -3.0450 C   0  0  0  0  0  0  0  0  0  0  0  0
   -0.5233    4.5391   -2.5330 N   0  0  0  0  0  0  0  0  0  0  0  0
   -0.1462    3.7388   -3.5878 C   0  0  0  0  0  0  0  0  0  0  0  0
    0.8929    1.5846   -3.9193 C   0  0  0  0  0  0  0  0  0  0  0  0
   -0.2606    3.9478   -4.9667 C   0  0  0  0  0  0  0  0  0  0  0  0
    0.7852    1.7801   -5.3010 C   0  0  0  0  0  0  0  0  0  0  0  0
    0.2170    2.9442   -5.8145 C   0  0  0  0  0  0  0  0  0  0  0  0
   -2.1183    1.4068   -0.2401 H   0  0  0  0  0  0  0  0  0  0  0  0
   -0.5000    0.1349   -1.2538 H   0  0  0  0  0  0  0  0  0  0  0  0
    1.8108    1.2834   -0.9533 H   0  0  0  0  0  0  0  0  0  0  0  0
    1.1078    2.2598    0.3104 H   0  0  0  0  0  0  0  0  0  0  0  0
   -0.4440    4.4152   -0.4058 H   0  0  0  0  0  0  0  0  0  0  0  0
   -0.9625    5.4449   -2.6232 H   0  0  0  0  0  0  0  0  0  0  0  0
    1.3375    0.6712   -3.5347 H   0  0  0  0  0  0  0  0  0  0  0  0
   -0.7017    4.8542   -5.3674 H   0  0  0  0  0  0  0  0  0  0  0  0
    1.1489    1.0138   -5.9803 H   0  0  0  0  0  0  0  0  0  0  0  0
    0.1434    3.0753   -6.8910 H   0  0  0  0  0  0  0  0  0  0  0  0
   -0.0478   -1.7178    0.3116 N   0  0  0  0  0  0  0  0  0  0  0  0
    0.3480   -2.9003    1.0423 C   0  0  2  0  0  0  0  0  0  0  0  0
    1.8699   -2.9424    1.0800 C   0  0  0  0  0  0  0  0  0  0  0  0
    2.5776   -2.3567    0.2632 O   0  0  0  0  0  0  0  0  0  0  0  0
   -0.2150   -4.1601    0.4029 C   0  0  0  0  0  0  0  0  0  0  0  0
   -0.7275   -1.8181   -0.4365 H   0  0  0  0  0  0  0  0  0  0  0  0
   -0.0402   -2.7876    2.0605 H   0  0  0  0  0  0  0  0  0  0  0  0
    0.1628   -4.2899   -0.6178 H   0  0  0  0  0  0  0  0  0  0  0  0
    0.0620   -5.0525    0.9738 H   0  0  0  0  0  0  0  0  0  0  0  0
   -1.3081   -4.1150    0.3496 H   0  0  0  0  0  0  0  0  0  0  0  0
    2.3445   -3.7461    2.1072 N   0  0  0  0  0  0  0  0  0  0  0  0
    3.7534   -3.9577    2.3441 C   0  0  0  0  0  0  0  0  0  0  0  0
    1.6859   -4.1781    2.7486 H   0  0  0  0  0  0  0  0  0  0  0  0
    4.0849   -4.8583    1.8066 H   0  0  0  0  0  0  0  0  0  0  0  0
    4.3205   -3.0865    1.9844 H   0  0  0  0  0  0  0  0  0  0  0  0
    3.9281   -4.0892    3.4222 H   0  0  0  0  0  0  0  0  0  0  0  0
 29 30  2  0  0  0  0
 27 29  1  0  0  0  0
 28 30  1  0  0  0  0
 24 27  2  0  0  0  0
 26 28  2  0  0  0  0
 22 23  2  0  0  0  0
 23 25  1  0  0  0  0
 22 24  1  0  0  0  0
 24 26  1  0  0  0  0
 21 22  1  0  0  0  0
 25 26  1  0  0  0  0
  1  3  1  0  0  0  0
  1  7  1  0  0  0  0
  1  2  2  0  0  0  0
 42 43  1  0  0  0  0
 43 51  1  0  0  0  0
 43 44  2  0  0  0  0
  8  9  1  0  0  0  0
  9 17  1  0  0  0  0
  9 10  2  0  0  0  0
 18 19  1  0  0  0  0
 19 41  1  0  0  0  0
 19 20  2  0  0  0  0
 42 45  1  0  0  0  0
  8 11  1  0  0  0  0
 51 52  1  0  0  0  0
 18 21  1  0  0  0  0
 41 42  1  0  0  0  0
  7  8  1  0  0  0  0
 17 18  1  0  0  0  0
 29 39  1  0  0  0  0
 30 40  1  0  0  0  0
 27 37  1  0  0  0  0
 28 38  1  0  0  0  0
 23 35  1  0  0  0  0
  3  4  1  0  0  0  0
  3  5  1  0  0  0  0
  3  6  1  0  0  0  0
 45 48  1  0  0  0  0
 45 49  1  0  0  0  0
 45 50  1  0  0  0  0
 11 14  1  0  0  0  0
 11 15  1  0  0  0  0
 11 16  1  0  0  0  0
 52 54  1  0  0  0  0
 52 55  1  0  0  0  0
 52 56  1  0  0  0  0
 21 33  1  0  0  0  0
 21 34  1  0  0  0  0
 42 47  1  0  0  0  0
  8 13  1  0  0  0  0
 18 32  1  0  0  0  0
 25 36  1  0  0  0  0
 51 53  1  0  0  0  0
  7 12  1  0  0  0  0
 41 46  1  0  0  0  0
 17 31  1  0  0  0  0
M  END
$$$$

  -OEChem-05262214473D

 56 57  0     1  0  0  0  0  0999 V2000
   -2.2900    0.3401    4.1553 C   0  0  0  0  0  0  0  0  0  0  0  0
   -1.3426   -0.2746    3.6796 O   0  0  0  0  0  0  0  0  0  0  0  0
   -2.7219    0.0577    5.5560 C   0  0  0  0  0  0  0  0  0  0  0  0
   -3.4815   -0.7386    5.6094 H   0  0  0  0  0  0  0  0  0  0  0  0
   -1.8906   -0.2899    6.1903 H   0  0  0  0  0  0  0  0  0  0  0  0
   -3.1599    0.9126    6.0956 H   0  0  0  0  0  0  0  0  0  0  0  0
   -3.0397    1.3125    3.5142 N   0  0  0  0  0  0  0  0  0  0  0  0
   -2.7928    1.7385    2.1618 C   0  0  2  0  0  0  0  0  0  0  0  0
   -1.4579    1.1532    1.7206 C   0  0  0  0  0  0  0  0  0  0  0  0
   -0.5858    0.8004    2.5118 O   0  0  0  0  0  0  0  0  0  0  0  0
   -2.7841    3.2553    2.0523 C   0  0  0  0  0  0  0  0  0  0  0  0
   -3.8047    1.7484    4.0260 H   0  0  0  0  0  0  0  0  0  0  0  0
   -3.5969    1.3201    1.5466 H   0  0  0  0  0  0  0  0  0  0  0  0
   -1.9850    3.6926    2.6620 H   0  0  0  0  0  0  0  0  0  0  0  0
   -2.6246    3.5776    1.0180 H   0  0  0  0  0  0  0  0  0  0  0  0
   -3.7342    3.6765    2.3981 H   0  0  0  0  0  0  0  0  0  0  0  0
   -1.3352    1.1101    0.3372 N   0  0  0  0  0  0  0  0  0  0  0  0
   -0.1579    0.6093   -0.3265 C   0  0  2  0  0  0  0  0  0  0  0  0
    0.4541   -0.4521    0.5807 C   0  0  0  0  0  0  0  0  0  0  0  0
    1.0430   -0.1810    1.6251 O   0  0  0  0  0  0  0  0  0  0  0  0
    0.8614    1.7181   -0.6124 C   0  0  0  0  0  0  0  0  0  0  0  0
    0.3667    2.7175   -1.6293 C   0  0  0  0  0  0  0  0  0  0  0  0
   -0.2172    3.9306   -1.3454 C   0  0  0  0  0  0  0  0  0  0  0  0
    0.4184    2.5826   -3.0450 C   0  0  0  0  0  0  0  0  0  0  0  0
   -0.5233    4.5391   -2.5330 N   0  0  0  0  0  0  0  0  0  0  0  0
   -0.1462    3.7388   -3.5878 C   0  0  0  0  0  0  0  0  0  0  0  0
    0.8929    1.5846   -3.9193 C   0  0  0  0  0  0  0  0  0  0  0  0
   -0.2606    3.9478   -4.9667 C   0  0  0  0  0  0  0  0  0  0  0  0
    0.7852    1.7801   -5.3010 C   0  0  0  0  0  0  0  0  0  0  0  0
    0.2170    2.9442   -5.8145 C   0  0  0  0  0  0  0  0  0  0  0  0
   -2.1183    1.4068   -0.2401 H   0  0  0  0  0  0  0  0  0  0  0  0
   -0.5000    0.1349   -1.2538 H   0  0  0  0  0  0  0  0  0  0  0  0
    1.8108    1.2834   -0.9533 H   0  0  0  0  0  0  0  0  0  0  0  0
    1.1078    2.2598    0.3104 H   0  0  0  0  0  0  0  0  0  0  0  0
   -0.4440    4.4152   -0.4058 H   0  0  0  0  0  0  0  0  0  0  0  0
   -0.9625    5.4449   -2.6232 H   0  0  0  0  0  0  0  0  0  0  0  0
    1.3375    0.6712   -3.5347 H   0  0  0  0  0  0  0  0  0  0  0  0
   -0.7017    4.8542   -5.3674 H   0  0  0  0  0  0  0  0  0  0  0  0
    1.1489    1.0138   -5.9803 H   0  0  0  0  0  0  0  0  0  0  0  0
    0.1434    3.0753   -6.8910 H   0  0  0  0  0  0  0  0  0  0  0  0
    0.2199   -1.7364    0.1094 N   0  0  0  0  0  0  0  0  0  0  0  0
    0.6720   -2.9272    0.7923 C   0  0  2  0  0  0  0  0  0  0  0  0
    2.1508   -2.7531    1.1121 C   0  0  0  0  0  0  0  0  0  0  0  0
    2.8830   -1.9790    0.4991 O   0  0  0  0  0  0  0  0  0  0  0  0
    0.4412   -4.1707   -0.0521 C   0  0  0  0  0  0  0  0  0  0  0  0
   -0.2953   -1.8448   -0.7593 H   0  0  0  0  0  0  0  0  0  0  0  0
    0.1013   -2.9927    1.7251 H   0  0  0  0  0  0  0  0  0  0  0  0
    1.0050   -4.1232   -0.9909 H   0  0  0  0  0  0  0  0  0  0  0  0
    0.7579   -5.0748    0.4782 H   0  0  0  0  0  0  0  0  0  0  0  0
   -0.6189   -4.2781   -0.3061 H   0  0  0  0  0  0  0  0  0  0  0  0
    2.5665   -3.5953    2.1339 N   0  0  0  0  0  0  0  0  0  0  0  0
    3.9290   -3.6275    2.6119 C   0  0  0  0  0  0  0  0  0  0  0  0
    1.8870   -4.1906    2.5983 H   0  0  0  0  0  0  0  0  0  0  0  0
    4.4908   -4.4010    2.0678 H   0  0  0  0  0  0  0  0  0  0  0  0
    4.3993   -2.6472    2.4451 H   0  0  0  0  0  0  0  0  0  0  0  0
    3.9347   -3.8587    3.6874 H   0  0  0  0  0  0  0  0  0  0  0  0
 29 30  2  0  0  0  0
 27 29  1  0  0  0  0
 28 30  1  0  0  0  0
 24 27  2  0  0  0  0
 26 28  2  0  0  0  0
 22 23  2  0  0  0  0
 23 25  1  0  0  0  0
 22 24  1  0  0  0  0
 24 26  1  0  0  0  0
 21 22  1  0  0  0  0
 25 26  1  0  0  0  0
  1  3  1  0  0  0  0
  1  7  1  0  0  0  0
  1  2  2  0  0  0  0
 42 43  1  0  0  0  0
 43 51  1  0  0  0  0
 43 44  2  0  0  0  0
  8  9  1  0  0  0  0
  9 17  1  0  0  0  0
  9 10  2  0  0  0  0
 18 19  1  0  0  0  0
 19 41  1  0  0  0  0
 19 20  2  0  0  0  0
 42 45  1  0  0  0  0
  8 11  1  0  0  0  0
 51 52  1  0  0  0  0
 18 21  1  0  0  0  0
 41 42  1  0  0  0  0
  7  8  1  0  0  0  0
 17 18  1  0  0  0  0
 29 39  1  0  0  0  0
 30 40  1  0  0  0  0
 27 37  1  0  0  0  0
 28 38  1  0  0  0  0
 23 35  1  0  0  0  0
  3  4  1  0  0  0  0
  3  5  1  0  0  0  0
  3  6  1  0  0  0  0
 45 48  1  0  0  0  0
 45 49  1  0  0  0  0
 45 50  1  0  0  0  0
 11 14  1  0  0  0  0
 11 15  1  0  0  0  0
 11 16  1  0  0  0  0
 52 54  1  0  0  0  0
 52 55  1  0  0  0  0
 52 56  1  0  0  0  0
 21 33  1  0  0  0  0
 21 34  1  0  0  0  0
 42 47  1  0  0  0  0
  8 13  1  0  0  0  0
 18 32  1  0  0  0  0
 25 36  1  0  0  0  0
 51 53  1  0  0  0  0
  7 12  1  0  0  0  0
 41 46  1  0  0  0  0
 17 31  1  0  0  0  0
M  END
$$$$

  -OEChem-05262214473D

 56 57  0     1  0  0  0  0  0999 V2000
   -2.2900    0.3401    4.1553 C   0  0  0  0  0  0  0  0  0  0  0  0
   -1.3426   -0.2746    3.6796 O   0  0  0  0  0  0  0  0  0  0  0  0
   -2.7219    0.0577    5.5560 C   0  0  0  0  0  0  0  0  0  0  0  0
   -3.4815   -0.7386    5.6094 H   0  0  0  0  0  0  0  0  0  0  0  0
   -1.8906   -0.2899    6.1903 H   0  0  0  0  0  0  0  0  0  0  0  0
   -3.1599    0.9126    6.0956 H   0  0  0  0  0  0  0  0  0  0  0  0
   -3.0397    1.3125    3.5142 N   0  0  0  0  0  0  0  0  0  0  0  0
   -2.7928    1.7385    2.1618 C   0  0  2  0  0  0  0  0  0  0  0  0
   -1.4579    1.1532    1.7206 C   0  0  0  0  0  0  0  0  0  0  0  0
   -0.5858    0.8004    2.5118 O   0  0  0  0  0  0  0  0  0  0  0  0
   -2.7841    3.2553    2.0523 C   0  0  0  0  0  0  0  0  0  0  0  0
   -3.8047    1.7484    4.0260 H   0  0  0  0  0  0  0  0  0  0  0  0
   -3.5969    1.3201    1.5466 H   0  0  0  0  0  0  0  0  0  0  0  0
   -1.9850    3.6926    2.6620 H   0  0  0  0  0  0  0  0  0  0  0  0
   -2.6246    3.5776    1.0180 H   0  0  0  0  0  0  0  0  0  0  0  0
   -3.7342    3.6765    2.3981 H   0  0  0  0  0  0  0  0  0  0  0  0
   -1.3352    1.1101    0.3372 N   0  0  0  0  0  0  0  0  0  0  0  0
   -0.1579    0.6093   -0.3265 C   0  0  2  0  0  0  0  0  0  0  0  0
    0.4541   -0.4521    0.5807 C   0  0  0  0  0  0  0  0  0  0  0  0
    0.8022   -0.2239    1.7373 O   0  0  0  0  0  0  0  0  0  0  0  0
    0.8614    1.7181   -0.6124 C   0  0  0  0  0  0  0  0  0  0  0  0
    0.3667    2.7175   -1.6293 C   0  0  0  0  0  0  0  0  0  0  0  0
   -0.2172    3.9306   -1.3454 C   0  0  0  0  0  0  0  0  0  0  0  0
    0.4184    2.5826   -3.0450 C   0  0  0  0  0  0  0  0  0  0  0  0
   -0.5233    4.5391   -2.5330 N   0  0  0  0  0  0  0  0  0  0  0  0
   -0.1462    3.7388   -3.5878 C   0  0  0  0  0  0  0  0  0  0  0  0
    0.8929    1.5846   -3.9193 C   0  0  0  0  0  0  0  0  0  0  0  0
   -0.2606    3.9478   -4.9667 C   0  0  0  0  0  0  0  0  0  0  0  0
    0.7852    1.7801   -5.3010 C   0  0  0  0  0  0  0  0  0  0  0  0
    0.2170    2.9442   -5.8145 C   0  0  0  0  0  0  0  0  0  0  0  0
   -2.1183    1.4068   -0.2401 H   0  0  0  0  0  0  0  0  0  0  0  0
   -0.5000    0.1349   -1.2538 H   0  0  0  0  0  0  0  0  0  0  0  0
    1.8108    1.2834   -0.9533 H   0  0  0  0  0  0  0  0  0  0  0  0
    1.1078    2.2598    0.3104 H   0  0  0  0  0  0  0  0  0  0  0  0
   -0.4440    4.4152   -0.4058 H   0  0  0  0  0  0  0  0  0  0  0  0
   -0.9625    5.4449   -2.6232 H   0  0  0  0  0  0  0  0  0  0  0  0
    1.3375    0.6712   -3.5347 H   0  0  0  0  0  0  0  0  0  0  0  0
   -0.7017    4.8542   -5.3674 H   0  0  0  0  0  0  0  0  0  0  0  0
    1.1489    1.0138   -5.9803 H   0  0  0  0  0  0  0  0  0  0  0  0
    0.1434    3.0753   -6.8910 H   0  0  0  0  0  0  0  0  0  0  0  0
    0.5177   -1.6921   -0.0397 N   0  0  0  0  0  0  0  0  0  0  0  0
    1.0341   -2.8772    0.6065 C   0  0  2  0  0  0  0  0  0  0  0  0
    2.3872   -2.5302    1.2133 C   0  0  0  0  0  0  0  0  0  0  0  0
    3.0774   -1.5916    0.8213 O   0  0  0  0  0  0  0  0  0  0  0  0
    1.1586   -4.0326   -0.3745 C   0  0  0  0  0  0  0  0  0  0  0  0
    0.1844   -1.7705   -0.9960 H   0  0  0  0  0  0  0  0  0  0  0  0
    0.3300   -3.1341    1.4054 H   0  0  0  0  0  0  0  0  0  0  0  0
    1.8600   -3.7936   -1.1822 H   0  0  0  0  0  0  0  0  0  0  0  0
    1.5229   -4.9377    0.1226 H   0  0  0  0  0  0  0  0  0  0  0  0
    0.1901   -4.2613   -0.8322 H   0  0  0  0  0  0  0  0  0  0  0  0
    2.7529   -3.4182    2.2153 N   0  0  0  0  0  0  0  0  0  0  0  0
    3.9995   -3.3094    2.9365 C   0  0  0  0  0  0  0  0  0  0  0  0
    2.1104   -4.1560    2.4881 H   0  0  0  0  0  0  0  0  0  0  0  0
    4.7654   -3.9239    2.4407 H   0  0  0  0  0  0  0  0  0  0  0  0
    4.3248   -2.2587    2.9499 H   0  0  0  0  0  0  0  0  0  0  0  0
    3.8579   -3.6626    3.9686 H   0  0  0  0  0  0  0  0  0  0  0  0
 29 30  2  0  0  0  0
 27 29  1  0  0  0  0
 28 30  1  0  0  0  0
 24 27  2  0  0  0  0
 26 28  2  0  0  0  0
 22 23  2  0  0  0  0
 23 25  1  0  0  0  0
 22 24  1  0  0  0  0
 24 26  1  0  0  0  0
 21 22  1  0  0  0  0
 25 26  1  0  0  0  0
  1  3  1  0  0  0  0
  1  7  1  0  0  0  0
  1  2  2  0  0  0  0
 42 43  1  0  0  0  0
 43 51  1  0  0  0  0
 43 44  2  0  0  0  0
  8  9  1  0  0  0  0
  9 17  1  0  0  0  0
  9 10  2  0  0  0  0
 18 19  1  0  0  0  0
 19 41  1  0  0  0  0
 19 20  2  0  0  0  0
 42 45  1  0  0  0  0
  8 11  1  0  0  0  0
 51 52  1  0  0  0  0
 18 21  1  0  0  0  0
 41 42  1  0  0  0  0
  7  8  1  0  0  0  0
 17 18  1  0  0  0  0
 29 39  1  0  0  0  0
 30 40  1  0  0  0  0
 27 37  1  0  0  0  0
 28 38  1  0  0  0  0
 23 35  1  0  0  0  0
  3  4  1  0  0  0  0
  3  5  1  0  0  0  0
  3  6  1  0  0  0  0
 45 48  1  0  0  0  0
 45 49  1  0  0  0  0
 45 50  1  0  0  0  0
 11 14  1  0  0  0  0
 11 15  1  0  0  0  0
 11 16  1  0  0  0  0
 52 54  1  0  0  0  0
 52 55  1  0  0  0  0
 52 56  1  0  0  0  0
 21 33  1  0  0  0  0
 21 34  1  0  0  0  0
 42 47  1  0  0  0  0
  8 13  1  0  0  0  0
 18 32  1  0  0  0  0
 25 36  1  0  0  0  0
 51 53  1  0  0  0  0
  7 12  1  0  0  0  0
 41 46  1  0  0  0  0
 17 31  1  0  0  0  0
M  END
$$$$

  -OEChem-05262214473D

 56 57  0     1  0  0  0  0  0999 V2000
   -2.2900    0.3401    4.1553 C   0  0  0  0  0  0  0  0  0  0  0  0
   -1.3426   -0.2746    3.6796 O   0  0  0  0  0  0  0  0  0  0  0  0
   -2.7219    0.0577    5.5560 C   0  0  0  0  0  0  0  0  0  0  0  0
   -3.4815   -0.7386    5.6094 H   0  0  0  0  0  0  0  0  0  0  0  0
   -1.8906   -0.2899    6.1903 H   0  0  0  0  0  0  0  0  0  0  0  0
   -3.1599    0.9126    6.0956 H   0  0  0  0  0  0  0  0  0  0  0  0
   -3.0397    1.3125    3.5142 N   0  0  0  0  0  0  0  0  0  0  0  0
   -2.7928    1.7385    2.1618 C   0  0  2  0  0  0  0  0  0  0  0  0
   -1.4579    1.1532    1.7206 C   0  0  0  0  0  0  0  0  0  0  0  0
   -0.5858    0.8004    2.5118 O   0  0  0  0  0  0  0  0  0  0  0  0
   -2.7841    3.2553    2.0523 C   0  0  0  0  0  0  0  0  0  0  0  0
   -3.8047    1.7484    4.0260 H   0  0  0  0  0  0  0  0  0  0  0  0
   -3.5969    1.3201    1.5466 H   0  0  0  0  0  0  0  0  0  0  0  0
   -1.9850    3.6926    2.6620 H   0  0  0  0  0  0  0  0  0  0  0  0
   -2.6246    3.5776    1.0180 H   0  0  0  0  0  0  0  0  0  0  0  0
   -3.7342    3.6765    2.3981 H   0  0  0  0  0  0  0  0  0  0  0  0
   -1.3352    1.1101    0.3372 N   0  0  0  0  0  0  0  0  0  0  0  0
   -0.1579    0.6093   -0.3265 C   0  0  2  0  0  0  0  0  0  0  0  0
    0.4541   -0.4521    0.5807 C   0  0  0  0  0  0  0  0  0  0  0  0
    0.5559   -0.3141    1.7979 O   0  0  0  0  0  0  0  0  0  0  0  0
    0.8614    1.7181   -0.6124 C   0  0  0  0  0  0  0  0  0  0  0  0
    0.3667    2.7175   -1.6293 C   0  0  0  0  0  0  0  0  0  0  0  0
   -0.2172    3.9306   -1.3454 C   0  0  0  0  0  0  0  0  0  0  0  0
    0.4184    2.5826   -3.0450 C   0  0  0  0  0  0  0  0  0  0  0  0
   -0.5233    4.5391   -2.5330 N   0  0  0  0  0  0  0  0  0  0  0  0
   -0.1462    3.7388   -3.5878 C   0  0  0  0  0  0  0  0  0  0  0  0
    0.8929    1.5846   -3.9193 C   0  0  0  0  0  0  0  0  0  0  0  0
   -0.2606    3.9478   -4.9667 C   0  0  0  0  0  0  0  0  0  0  0  0
    0.7852    1.7801   -5.3010 C   0  0  0  0  0  0  0  0  0  0  0  0
    0.2170    2.9442   -5.8145 C   0  0  0  0  0  0  0  0  0  0  0  0
   -2.1183    1.4068   -0.2401 H   0  0  0  0  0  0  0  0  0  0  0  0
   -0.5000    0.1349   -1.2538 H   0  0  0  0  0  0  0  0  0  0  0  0
    1.8108    1.2834   -0.9533 H   0  0  0  0  0  0  0  0  0  0  0  0
    1.1078    2.2598    0.3104 H   0  0  0  0  0  0  0  0  0  0  0  0
   -0.4440    4.4152   -0.4058 H   0  0  0  0  0  0  0  0  0  0  0  0
   -0.9625    5.4449   -2.6232 H   0  0  0  0  0  0  0  0  0  0  0  0
    1.3375    0.6712   -3.5347 H   0  0  0  0  0  0  0  0  0  0  0  0
   -0.7017    4.8542   -5.3674 H   0  0  0  0  0  0  0  0  0  0  0  0
    1.1489    1.0138   -5.9803 H   0  0  0  0  0  0  0  0  0  0  0  0
    0.1434    3.0753   -6.8910 H   0  0  0  0  0  0  0  0  0  0  0  0
    0.8254   -1.5879   -0.1254 N   0  0  0  0  0  0  0  0  0  0  0  0
    1.4097   -2.7538    0.4974 C   0  0  2  0  0  0  0  0  0  0  0  0
    2.5630   -2.2891    1.3769 C   0  0  0  0  0  0  0  0  0  0  0  0
    3.1474   -1.2209    1.2077 O   0  0  0  0  0  0  0  0  0  0  0  0
    1.8883   -3.7552   -0.5423 C   0  0  0  0  0  0  0  0  0  0  0  0
    0.6790   -1.6002   -1.1305 H   0  0  0  0  0  0  0  0  0  0  0  0
    0.6303   -3.2023    1.1230 H   0  0  0  0  0  0  0  0  0  0  0  0
    2.6696   -3.3238   -1.1787 H   0  0  0  0  0  0  0  0  0  0  0  0
    2.3047   -4.6504   -0.0688 H   0  0  0  0  0  0  0  0  0  0  0  0
    1.0637   -4.0658   -1.1929 H   0  0  0  0  0  0  0  0  0  0  0  0
    2.8911   -3.2268    2.3459 N   0  0  0  0  0  0  0  0  0  0  0  0
    3.9602   -3.0250    3.2958 C   0  0  0  0  0  0  0  0  0  0  0  0
    2.3406   -4.0768    2.4255 H   0  0  0  0  0  0  0  0  0  0  0  0
    4.8900   -3.4595    2.9000 H   0  0  0  0  0  0  0  0  0  0  0  0
    4.1020   -1.9473    3.4646 H   0  0  0  0  0  0  0  0  0  0  0  0
    3.7028   -3.5143    4.2468 H   0  0  0  0  0  0  0  0  0  0  0  0
 29 30  2  0  0  0  0
 27 29  1  0  0  0  0
 28 30  1  0  0  0  0
 24 27  2  0  0  0  0
 26 28  2  0  0  0  0
 22 23  2  0  0  0  0
 23 25  1  0  0  0  0
 22 24  1  0  0  0  0
 24 26  1  0  0  0  0
 21 22  1  0  0  0  0
 25 26  1  0  0  0  0
  1  3  1  0  0  0  0
  1  7  1  0  0  0  0
  1  2  2  0  0  0  0
 42 43  1  0  0  0  0
 43 51  1  0  0  0  0
 43 44  2  0  0  0  0
  8  9  1  0  0  0  0
  9 17  1  0  0  0  0
  9 10  2  0  0  0  0
 18 19  1  0  0  0  0
 19 41  1  0  0  0  0
 19 20  2  0  0  0  0
 42 45  1  0  0  0  0
  8 11  1  0  0  0  0
 51 52  1  0  0  0  0
 18 21  1  0  0  0  0
 41 42  1  0  0  0  0
  7  8  1  0  0  0  0
 17 18  1  0  0  0  0
 29 39  1  0  0  0  0
 30 40  1  0  0  0  0
 27 37  1  0  0  0  0
 28 38  1  0  0  0  0
 23 35  1  0  0  0  0
  3  4  1  0  0  0  0
  3  5  1  0  0  0  0
  3  6  1  0  0  0  0
 45 48  1  0  0  0  0
 45 49  1  0  0  0  0
 45 50  1  0  0  0  0
 11 14  1  0  0  0  0
 11 15  1  0  0  0  0
 11 16  1  0  0  0  0
 52 54  1  0  0  0  0
 52 55  1  0  0  0  0
 52 56  1  0  0  0  0
 21 33  1  0  0  0  0
 21 34  1  0  0  0  0
 42 47  1  0  0  0  0
  8 13  1  0  0  0  0
 18 32  1  0  0  0  0
 25 36  1  0  0  0  0
 51 53  1  0  0  0  0
  7 12  1  0  0  0  0
 41 46  1  0  0  0  0
 17 31  1  0  0  0  0
M  END
$$$$

  -OEChem-05262214473D

 56 57  0     1  0  0  0  0  0999 V2000
   -2.2900    0.3401    4.1553 C   0  0  0  0  0  0  0  0  0  0  0  0
   -1.3426   -0.2746    3.6796 O   0  0  0  0  0  0  0  0  0  0  0  0
   -2.7219    0.0577    5.5560 C   0  0  0  0  0  0  0  0  0  0  0  0
   -3.4815   -0.7386    5.6094 H   0  0  0  0  0  0  0  0  0  0  0  0
   -1.8906   -0.2899    6.1903 H   0  0  0  0  0  0  0  0  0  0  0  0
   -3.1599    0.9126    6.0956 H   0  0  0  0  0  0  0  0  0  0  0  0
   -3.0397    1.3125    3.5142 N   0  0  0  0  0  0  0  0  0  0  0  0
   -2.7928    1.7385    2.1618 C   0  0  2  0  0  0  0  0  0  0  0  0
   -1.4579    1.1532    1.7206 C   0  0  0  0  0  0  0  0  0  0  0  0
   -0.5858    0.8004    2.5118 O   0  0  0  0  0  0  0  0  0  0  0  0
   -2.7841    3.2553    2.0523 C   0  0  0  0  0  0  0  0  0  0  0  0
   -3.8047    1.7484    4.0260 H   0  0  0  0  0  0  0  0  0  0  0  0
   -3.5969    1.3201    1.5466 H   0  0  0  0  0  0  0  0  0  0  0  0
   -1.9850    3.6926    2.6620 H   0  0  0  0  0  0  0  0  0  0  0  0
   -2.6246    3.5776    1.0180 H   0  0  0  0  0  0  0  0  0  0  0  0
   -3.7342    3.6765    2.3981 H   0  0  0  0  0  0  0  0  0  0  0  0
   -1.3352    1.1101    0.3372 N   0  0  0  0  0  0  0  0  0  0  0  0
   -0.1579    0.6093   -0.3265 C   0  0  2  0  0  0  0  0  0  0  0  0
    0.4541   -0.4521    0.5807 C   0  0  0  0  0  0  0  0  0  0  0  0
    0.3210   -0.4455    1.8027 O   0  0  0  0  0  0  0  0  0  0  0  0
    0.8614    1.7181   -0.6124 C   0  0  0  0  0  0  0  0  0  0  0  0
    0.3667    2.7175   -1.6293 C   0  0  0  0  0  0  0  0  0  0  0  0
   -0.2172    3.9306   -1.3454 C   0  0  0  0  0  0  0  0  0  0  0  0
    0.4184    2.5826   -3.0450 C   0  0  0  0  0  0  0  0  0  0  0  0
   -0.5233    4.5391   -2.5330 N   0  0  0  0  0  0  0  0  0  0  0  0
   -0.1462    3.7388   -3.5878 C   0  0  0  0  0  0  0  0  0  0  0  0
    0.8929    1.5846   -3.9193 C   0  0  0  0  0  0  0  0  0  0  0  0
   -0.2606    3.9478   -4.9667 C   0  0  0  0  0  0  0  0  0  0  0  0
    0.7852    1.7801   -5.3010 C   0  0  0  0  0  0  0  0  0  0  0  0
    0.2170    2.9442   -5.8145 C   0  0  0  0  0  0  0  0  0  0  0  0
   -2.1183    1.4068   -0.2401 H   0  0  0  0  0  0  0  0  0  0  0  0
   -0.5000    0.1349   -1.2538 H   0  0  0  0  0  0  0  0  0  0  0  0
    1.8108    1.2834   -0.9533 H   0  0  0  0  0  0  0  0  0  0  0  0
    1.1078    2.2598    0.3104 H   0  0  0  0  0  0  0  0  0  0  0  0
   -0.4440    4.4152   -0.4058 H   0  0  0  0  0  0  0  0  0  0  0  0
   -0.9625    5.4449   -2.6232 H   0  0  0  0  0  0  0  0  0  0  0  0
    1.3375    0.6712   -3.5347 H   0  0  0  0  0  0  0  0  0  0  0  0
   -0.7017    4.8542   -5.3674 H   0  0  0  0  0  0  0  0  0  0  0  0
    1.1489    1.0138   -5.9803 H   0  0  0  0  0  0  0  0  0  0  0  0
    0.1434    3.0753   -6.8910 H   0  0  0  0  0  0  0  0  0  0  0  0
    1.1220   -1.4310   -0.1419 N   0  0  0  0  0  0  0  0  0  0  0  0
    1.7732   -2.5655    0.4725 C   0  0  2  0  0  0  0  0  0  0  0  0
    2.6661   -2.0461    1.5916 C   0  0  0  0  0  0  0  0  0  0  0  0
    3.0882   -0.8923    1.6321 O   0  0  0  0  0  0  0  0  0  0  0  0
    2.5808   -3.3574   -0.5441 C   0  0  0  0  0  0  0  0  0  0  0  0
    1.1548   -1.3456   -1.1536 H   0  0  0  0  0  0  0  0  0  0  0  0
    0.9817   -3.1926    0.8973 H   0  0  0  0  0  0  0  0  0  0  0  0
    3.3786   -2.7456   -0.9805 H   0  0  0  0  0  0  0  0  0  0  0  0
    3.0502   -4.2326   -0.0829 H   0  0  0  0  0  0  0  0  0  0  0  0
    1.9424   -3.7049   -1.3635 H   0  0  0  0  0  0  0  0  0  0  0  0
    2.9715   -3.0343    2.5169 N   0  0  0  0  0  0  0  0  0  0  0  0
    3.8136   -2.7937    3.6654 C   0  0  0  0  0  0  0  0  0  0  0  0
    2.5621   -3.9583    2.4147 H   0  0  0  0  0  0  0  0  0  0  0  0
    4.8560   -3.0395    3.4143 H   0  0  0  0  0  0  0  0  0  0  0  0
    3.7461   -1.7343    3.9539 H   0  0  0  0  0  0  0  0  0  0  0  0
    3.4799   -3.4238    4.5030 H   0  0  0  0  0  0  0  0  0  0  0  0
 29 30  2  0  0  0  0
 27 29  1  0  0  0  0
 28 30  1  0  0  0  0
 24 27  2  0  0  0  0
 26 28  2  0  0  0  0
 22 23  2  0  0  0  0
 23 25  1  0  0  0  0
 22 24  1  0  0  0  0
 24 26  1  0  0  0  0
 21 22  1  0  0  0  0
 25 26  1  0  0  0  0
  1  3  1  0  0  0  0
  1  7  1  0  0  0  0
  1  2  2  0  0  0  0
 42 43  1  0  0  0  0
 43 51  1  0  0  0  0
 43 44  2  0  0  0  0
  8  9  1  0  0  0  0
  9 17  1  0  0  0  0
  9 10  2  0  0  0  0
 18 19  1  0  0  0  0
 19 41  1  0  0  0  0
 19 20  2  0  0  0  0
 42 45  1  0  0  0  0
  8 11  1  0  0  0  0
 51 52  1  0  0  0  0
 18 21  1  0  0  0  0
 41 42  1  0  0  0  0
  7  8  1  0  0  0  0
 17 18  1  0  0  0  0
 29 39  1  0  0  0  0
 30 40  1  0  0  0  0
 27 37  1  0  0  0  0
 28 38  1  0  0  0  0
 23 35  1  0  0  0  0
  3  4  1  0  0  0  0
  3  5  1  0  0  0  0
  3  6  1  0  0  0  0
 45 48  1  0  0  0  0
 45 49  1  0  0  0  0
 45 50  1  0  0  0  0
 11 14  1  0  0  0  0
 11 15  1  0  0  0  0
 11 16  1  0  0  0  0
 52 54  1  0  0  0  0
 52 55  1  0  0  0  0
 52 56  1  0  0  0  0
 21 33  1  0  0  0  0
 21 34  1  0  0  0  0
 42 47  1  0  0  0  0
  8 13  1  0  0  0  0
 18 32  1  0  0  0  0
 25 36  1  0  0  0  0
 51 53  1  0  0  0  0
  7 12  1  0  0  0  0
 41 46  1  0  0  0  0
 17 31  1  0  0  0  0
M  END
$$$$

  -OEChem-05262214473D

 56 57  0     1  0  0  0  0  0999 V2000
   -2.2900    0.3401    4.1553 C   0  0  0  0  0  0  0  0  0  0  0  0
   -1.3426   -0.2746    3.6796 O   0  0  0  0  0  0  0  0  0  0  0  0
   -2.7219    0.0577    5.5560 C   0  0  0  0  0  0  0  0  0  0  0  0
   -3.4815   -0.7386    5.6094 H   0  0  0  0  0  0  0  0  0  0  0  0
   -1.8906   -0.2899    6.1903 H   0  0  0  0  0  0  0  0  0  0  0  0
   -3.1599    0.9126    6.0956 H   0  0  0  0  0  0  0  0  0  0  0  0
   -3.0397    1.3125    3.5142 N   0  0  0  0  0  0  0  0  0  0  0  0
   -2.7928    1.7385    2.1618 C   0  0  2  0  0  0  0  0  0  0  0  0
   -1.4579    1.1532    1.7206 C   0  0  0  0  0  0  0  0  0  0  0  0
   -0.5858    0.8004    2.5118 O   0  0  0  0  0  0  0  0  0  0  0  0
   -2.7841    3.2553    2.0523 C   0  0  0  0  0  0  0  0  0  0  0  0
   -3.8047    1.7484    4.0260 H   0  0  0  0  0  0  0  0  0  0  0  0
   -3.5969    1.3201    1.5466 H   0  0  0  0  0  0  0  0  0  0  0  0
   -1.9850    3.6926    2.6620 H   0  0  0  0  0  0  0  0  0  0  0  0
   -2.6246    3.5776    1.0180 H   0  0  0  0  0  0  0  0  0  0  0  0
   -3.7342    3.6765    2.3981 H   0  0  0  0  0  0  0  0  0  0  0  0
   -1.3352    1.1101    0.3372 N   0  0  0  0  0  0  0  0  0  0  0  0
   -0.1579    0.6093   -0.3265 C   0  0  2  0  0  0  0  0  0  0  0  0
    0.4541   -0.4521    0.5807 C   0  0  0  0  0  0  0  0  0  0  0  0
    0.1135   -0.6091    1.7513 O   0  0  0  0  0  0  0  0  0  0  0  0
    0.8614    1.7181   -0.6124 C   0  0  0  0  0  0  0  0  0  0  0  0
    0.3667    2.7175   -1.6293 C   0  0  0  0  0  0  0  0  0  0  0  0
   -0.2172    3.9306   -1.3454 C   0  0  0  0  0  0  0  0  0  0  0  0
    0.4184    2.5826   -3.0450 C   0  0  0  0  0  0  0  0  0  0  0  0
   -0.5233    4.5391   -2.5330 N   0  0  0  0  0  0  0  0  0  0  0  0
   -0.1462    3.7388   -3.5878 C   0  0  0  0  0  0  0  0  0  0  0  0
    0.8929    1.5846   -3.9193 C   0  0  0  0  0  0  0  0  0  0  0  0
   -0.2606    3.9478   -4.9667 C   0  0  0  0  0  0  0  0  0  0  0  0
    0.7852    1.7801   -5.3010 C   0  0  0  0  0  0  0  0  0  0  0  0
    0.2170    2.9442   -5.8145 C   0  0  0  0  0  0  0  0  0  0  0  0
   -2.1183    1.4068   -0.2401 H   0  0  0  0  0  0  0  0  0  0  0  0
   -0.5000    0.1349   -1.2538 H   0  0  0  0  0  0  0  0  0  0  0  0
    1.8108    1.2834   -0.9533 H   0  0  0  0  0  0  0  0  0  0  0  0
    1.1078    2.2598    0.3104 H   0  0  0  0  0  0  0  0  0  0  0  0
   -0.4440    4.4152   -0.4058 H   0  0  0  0  0  0  0  0  0  0  0  0
   -0.9625    5.4449   -2.6232 H   0  0  0  0  0  0  0  0  0  0  0  0
    1.3375    0.6712   -3.5347 H   0  0  0  0  0  0  0  0  0  0  0  0
   -0.7017    4.8542   -5.3674 H   0  0  0  0  0  0  0  0  0  0  0  0
    1.1489    1.0138   -5.9803 H   0  0  0  0  0  0  0  0  0  0  0  0
    0.1434    3.0753   -6.8910 H   0  0  0  0  0  0  0  0  0  0  0  0
    1.3874   -1.2320   -0.0881 N   0  0  0  0  0  0  0  0  0  0  0  0
    2.0997   -2.3250    0.5336 C   0  0  2  0  0  0  0  0  0  0  0  0
    2.6897   -1.8178    1.8428 C   0  0  0  0  0  0  0  0  0  0  0  0
    2.9040   -0.6280    2.0655 O   0  0  0  0  0  0  0  0  0  0  0  0
    3.1886   -2.8664   -0.3797 C   0  0  0  0  0  0  0  0  0  0  0  0
    1.5793   -1.0240   -1.0637 H   0  0  0  0  0  0  0  0  0  0  0  0
    1.3604   -3.1056    0.7436 H   0  0  0  0  0  0  0  0  0  0  0  0
    3.9387   -2.0985   -0.6013 H   0  0  0  0  0  0  0  0  0  0  0  0
    3.7084   -3.7128    0.0812 H   0  0  0  0  0  0  0  0  0  0  0  0
    2.7663   -3.2033   -1.3325 H   0  0  0  0  0  0  0  0  0  0  0  0
    2.9887   -2.8538    2.7165 N   0  0  0  0  0  0  0  0  0  0  0  0
    3.5698   -2.6312    4.0199 C   0  0  0  0  0  0  0  0  0  0  0  0
    2.7597   -3.8086    2.4565 H   0  0  0  0  0  0  0  0  0  0  0  0
    4.6658   -2.6924    3.9487 H   0  0  0  0  0  0  0  0  0  0  0  0
    3.2813   -1.6342    4.3845 H   0  0  0  0  0  0  0  0  0  0  0  0
    3.2046   -3.3973    4.7197 H   0  0  0  0  0  0  0  0  0  0  0  0
 29 30  2  0  0  0  0
 27 29  1  0  0  0  0
 28 30  1  0  0  0  0
 24 27  2  0  0  0  0
 26 28  2  0  0  0  0
 22 23  2  0  0  0  0
 23 25  1  0  0  0  0
 22 24  1  0  0  0  0
 24 26  1  0  0  0  0
 21 22  1  0  0  0  0
 25 26  1  0  0  0  0
  1  3  1  0  0  0  0
  1  7  1  0  0  0  0
  1  2  2  0  0  0  0
 42 43  1  0  0  0  0
 43 51  1  0  0  0  0
 43 44  2  0  0  0  0
  8  9  1  0  0  0  0
  9 17  1  0  0  0  0
  9 10  2  0  0  0  0
 18 19  1  0  0  0  0
 19 41  1  0  0  0  0
 19 20  2  0  0  0  0
 42 45  1  0  0  0  0
  8 11  1  0  0  0  0
 51 52  1  0  0  0  0
 18 21  1  0  0  0  0
 41 42  1  0  0  0  0
  7  8  1  0  0  0  0
 17 18  1  0  0  0  0
 29 39  1  0  0  0  0
 30 40  1  0  0  0  0
 27 37  1  0  0  0  0
 28 38  1  0  0  0  0
 23 35  1  0  0  0  0
  3  4  1  0  0  0  0
  3  5  1  0  0  0  0
  3  6  1  0  0  0  0
 45 48  1  0  0  0  0
 45 49  1  0  0  0  0
 45 50  1  0  0  0  0
 11 14  1  0  0  0  0
 11 15  1  0  0  0  0
 11 16  1  0  0  0  0
 52 54  1  0  0  0  0
 52 55  1  0  0  0  0
 52 56  1  0  0  0  0
 21 33  1  0  0  0  0
 21 34  1  0  0  0  0
 42 47  1  0  0  0  0
  8 13  1  0  0  0  0
 18 32  1  0  0  0  0
 25 36  1  0  0  0  0
 51 53  1  0  0  0  0
  7 12  1  0  0  0  0
 41 46  1  0  0  0  0
 17 31  1  0  0  0  0
M  END
$$$$

  -OEChem-05262214473D

 56 57  0     1  0  0  0  0  0999 V2000
   -2.2900    0.3401    4.1553 C   0  0  0  0  0  0  0  0  0  0  0  0
   -1.3426   -0.2746    3.6796 O   0  0  0  0  0  0  0  0  0  0  0  0
   -2.7219    0.0577    5.5560 C   0  0  0  0  0  0  0  0  0  0  0  0
   -3.4815   -0.7386    5.6094 H   0  0  0  0  0  0  0  0  0  0  0  0
   -1.8906   -0.2899    6.1903 H   0  0  0  0  0  0  0  0  0  0  0  0
   -3.1599    0.9126    6.0956 H   0  0  0  0  0  0  0  0  0  0  0  0
   -3.0397    1.3125    3.5142 N   0  0  0  0  0  0  0  0  0  0  0  0
   -2.7928    1.7385    2.1618 C   0  0  2  0  0  0  0  0  0  0  0  0
   -1.4579    1.1532    1.7206 C   0  0  0  0  0  0  0  0  0  0  0  0
   -0.5858    0.8004    2.5118 O   0  0  0  0  0  0  0  0  0  0  0  0
   -2.7841    3.2553    2.0523 C   0  0  0  0  0  0  0  0  0  0  0  0
   -3.8047    1.7484    4.0260 H   0  0  0  0  0  0  0  0  0  0  0  0
   -3.5969    1.3201    1.5466 H   0  0  0  0  0  0  0  0  0  0  0  0
   -1.9850    3.6926    2.6620 H   0  0  0  0  0  0  0  0  0  0  0  0
   -2.6246    3.5776    1.0180 H   0  0  0  0  0  0  0  0  0  0  0  0
   -3.7342    3.6765    2.3981 H   0  0  0  0  0  0  0  0  0  0  0  0
   -1.3352    1.1101    0.3372 N   0  0  0  0  0  0  0  0  0  0  0  0
   -0.1579    0.6093   -0.3265 C   0  0  2  0  0  0  0  0  0  0  0  0
    0.2378   -0.6860    0.3734 C   0  0  0  0  0  0  0  0  0  0  0  0
   -0.4101   -1.1718    1.2981 O   0  0  0  0  0  0  0  0  0  0  0  0
    1.0006    1.6124   -0.2857 C   0  0  0  0  0  0  0  0  0  0  0  0
    0.7255    2.8551   -1.0967 C   0  0  0  0  0  0  0  0  0  0  0  0
    0.2519    4.0485   -0.6023 C   0  0  0  0  0  0  0  0  0  0  0  0
    0.9073    3.0091   -2.4996 C   0  0  0  0  0  0  0  0  0  0  0  0
    0.1379    4.9229   -1.6497 N   0  0  0  0  0  0  0  0  0  0  0  0
    0.5314    4.3152   -2.8206 C   0  0  0  0  0  0  0  0  0  0  0  0
    1.3570    2.1600   -3.5303 C   0  0  0  0  0  0  0  0  0  0  0  0
    0.5830    4.8167   -4.1261 C   0  0  0  0  0  0  0  0  0  0  0  0
    1.4138    2.6480   -4.8408 C   0  0  0  0  0  0  0  0  0  0  0  0
    1.0323    3.9563   -5.1319 C   0  0  0  0  0  0  0  0  0  0  0  0
   -2.1183    1.4068   -0.2401 H   0  0  0  0  0  0  0  0  0  0  0  0
   -0.4528    0.3842   -1.3582 H   0  0  0  0  0  0  0  0  0  0  0  0
    1.9267    1.1386   -0.6385 H   0  0  0  0  0  0  0  0  0  0  0  0
    1.2088    1.9161    0.7488 H   0  0  0  0  0  0  0  0  0  0  0  0
   -0.0158    4.3544    0.3997 H   0  0  0  0  0  0  0  0  0  0  0  0
   -0.1878    5.8767   -1.5749 H   0  0  0  0  0  0  0  0  0  0  0  0
    1.6570    1.1374   -3.3198 H   0  0  0  0  0  0  0  0  0  0  0  0
    0.2872    5.8353   -4.3534 H   0  0  0  0  0  0  0  0  0  0  0  0
    1.7593    1.9977   -5.6400 H   0  0  0  0  0  0  0  0  0  0  0  0
    1.0845    4.3146   -6.1567 H   0  0  0  0  0  0  0  0  0  0  0  0
    1.3697   -1.2570   -0.1915 N   0  0  0  0  0  0  0  0  0  0  0  0
    1.9444   -2.5011    0.2677 C   0  0  2  0  0  0  0  0  0  0  0  0
    2.1056   -2.4149    1.7797 C   0  0  0  0  0  0  0  0  0  0  0  0
    2.1722   -1.3485    2.3875 O   0  0  0  0  0  0  0  0  0  0  0  0
    3.2795   -2.7760   -0.4065 C   0  0  0  0  0  0  0  0  0  0  0  0
    1.8168   -0.7763   -0.9666 H   0  0  0  0  0  0  0  0  0  0  0  0
    1.2268   -3.2911    0.0207 H   0  0  0  0  0  0  0  0  0  0  0  0
    4.0115   -1.9949   -0.1707 H   0  0  0  0  0  0  0  0  0  0  0  0
    3.6998   -3.7326   -0.0790 H   0  0  0  0  0  0  0  0  0  0  0  0
    3.1669   -2.8080   -1.4956 H   0  0  0  0  0  0  0  0  0  0  0  0
    2.2096   -3.6687    2.3657 N   0  0  0  0  0  0  0  0  0  0  0  0
    2.3820   -3.8527    3.7878 C   0  0  0  0  0  0  0  0  0  0  0  0
    2.1246   -4.4993    1.7872 H   0  0  0  0  0  0  0  0  0  0  0  0
    3.4548   -3.9164    4.0224 H   0  0  0  0  0  0  0  0  0  0  0  0
    1.9395   -3.0003    4.3240 H   0  0  0  0  0  0  0  0  0  0  0  0
    1.8827   -4.7817    4.1004 H   0  0  0  0  0  0  0  0  0  0  0  0
 29 30  2  0  0  0  0
 27 29  1  0  0  0  0
 28 30  1  0  0  0  0
 24 27  2  0  0  0  0
 26 28  2  0  0  0  0
 22 23  2  0  0  0  0
 23 25  1  0  0  0  0
 22 24  1  0  0  0  0
 24 26  1  0  0  0  0
 21 22  1  0  0  0  0
 25 26  1  0  0  0  0
  1  3  1  0  0  0  0
  1  7  1  0  0  0  0
  1  2  2  0  0  0  0
 42 43  1  0  0  0  0
 43 51  1  0  0  0  0
 43 44  2  0  0  0  0
  8  9  1  0  0  0  0
  9 17  1  0  0  0  0
  9 10  2  0  0  0  0
 18 19  1  0  0  0  0
 19 41  1  0  0  0  0
 19 20  2  0  0  0  0
 42 45  1  0  0  0  0
  8 11  1  0  0  0  0
 51 52  1  0  0  0  0
 18 21  1  0  0  0  0
 41 42  1  0  0  0  0
  7  8  1  0  0  0  0
 17 18  1  0  0  0  0
 29 39  1  0  0  0  0
 30 40  1  0  0  0  0
 27 37  1  0  0  0  0
 28 38  1  0  0  0  0
 23 35  1  0  0  0  0
  3  4  1  0  0  0  0
  3  5  1  0  0  0  0
  3  6  1  0  0  0  0
 45 48  1  0  0  0  0
 45 49  1  0  0  0  0
 45 50  1  0  0  0  0
 11 14  1  0  0  0  0
 11 15  1  0  0  0  0
 11 16  1  0  0  0  0
 52 54  1  0  0  0  0
 52 55  1  0  0  0  0
 52 56  1  0  0  0  0
 21 33  1  0  0  0  0
 21 34  1  0  0  0  0
 42 47  1  0  0  0  0
  8 13  1  0  0  0  0
 18 32  1  0  0  0  0
 25 36  1  0  0  0  0
 51 53  1  0  0  0  0
  7 12  1  0  0  0  0
 41 46  1  0  0  0  0
 17 31  1  0  0  0  0
M  END
$$$$

  -OEChem-05262214473D

 56 57  0     1  0  0  0  0  0999 V2000
   -2.2900    0.3401    4.1553 C   0  0  0  0  0  0  0  0  0  0  0  0
   -1.3426   -0.2746    3.6796 O   0  0  0  0  0  0  0  0  0  0  0  0
   -2.7219    0.0577    5.5560 C   0  0  0  0  0  0  0  0  0  0  0  0
   -3.4815   -0.7386    5.6094 H   0  0  0  0  0  0  0  0  0  0  0  0
   -1.8906   -0.2899    6.1903 H   0  0  0  0  0  0  0  0  0  0  0  0
   -3.1599    0.9126    6.0956 H   0  0  0  0  0  0  0  0  0  0  0  0
   -3.0397    1.3125    3.5142 N   0  0  0  0  0  0  0  0  0  0  0  0
   -2.7928    1.7385    2.1618 C   0  0  2  0  0  0  0  0  0  0  0  0
   -1.4579    1.1532    1.7206 C   0  0  0  0  0  0  0  0  0  0  0  0
   -0.5858    0.8004    2.5118 O   0  0  0  0  0  0  0  0  0  0  0  0
   -2.7841    3.2553    2.0523 C   0  0  0  0  0  0  0  0  0  0  0  0
   -3.8047    1.7484    4.0260 H   0  0  0  0  0  0  0  0  0  0  0  0
   -3.5969    1.3201    1.5466 H   0  0  0  0  0  0  0  0  0  0  0  0
   -1.9850    3.6926    2.6620 H   0  0  0  0  0  0  0  0  0  0  0  0
   -2.6246    3.5776    1.0180 H   0  0  0  0  0  0  0  0  0  0  0  0
   -3.7342    3.6765    2.3981 H   0  0  0  0  0  0  0  0  0  0  0  0
   -1.3352    1.1101    0.3372 N   0  0  0  0  0  0  0  0  0  0  0  0
   -0.1579    0.6093   -0.3265 C   0  0  2  0  0  0  0  0  0  0  0  0
    0.2378   -0.6860    0.3734 C   0  0  0  0  0  0  0  0  0  0  0  0
   -0.5278   -1.3137    1.1020 O   0  0  0  0  0  0  0  0  0  0  0  0
    1.0006    1.6124   -0.2857 C   0  0  0  0  0  0  0  0  0  0  0  0
    0.7255    2.8551   -1.0967 C   0  0  0  0  0  0  0  0  0  0  0  0
    0.2519    4.0485   -0.6023 C   0  0  0  0  0  0  0  0  0  0  0  0
    0.9073    3.0091   -2.4996 C   0  0  0  0  0  0  0  0  0  0  0  0
    0.1379    4.9229   -1.6497 N   0  0  0  0  0  0  0  0  0  0  0  0
    0.5314    4.3152   -2.8206 C   0  0  0  0  0  0  0  0  0  0  0  0
    1.3570    2.1600   -3.5303 C   0  0  0  0  0  0  0  0  0  0  0  0
    0.5830    4.8167   -4.1261 C   0  0  0  0  0  0  0  0  0  0  0  0
    1.4138    2.6480   -4.8408 C   0  0  0  0  0  0  0  0  0  0  0  0
    1.0323    3.9563   -5.1319 C   0  0  0  0  0  0  0  0  0  0  0  0
   -2.1183    1.4068   -0.2401 H   0  0  0  0  0  0  0  0  0  0  0  0
   -0.4528    0.3842   -1.3582 H   0  0  0  0  0  0  0  0  0  0  0  0
    1.9267    1.1386   -0.6385 H   0  0  0  0  0  0  0  0  0  0  0  0
    1.2088    1.9161    0.7488 H   0  0  0  0  0  0  0  0  0  0  0  0
   -0.0158    4.3544    0.3997 H   0  0  0  0  0  0  0  0  0  0  0  0
   -0.1878    5.8767   -1.5749 H   0  0  0  0  0  0  0  0  0  0  0  0
    1.6570    1.1374   -3.3198 H   0  0  0  0  0  0  0  0  0  0  0  0
    0.2872    5.8353   -4.3534 H   0  0  0  0  0  0  0  0  0  0  0  0
    1.7593    1.9977   -5.6400 H   0  0  0  0  0  0  0  0  0  0  0  0
    1.0845    4.3146   -6.1567 H   0  0  0  0  0  0  0  0  0  0  0  0
    1.5278   -1.0801    0.0465 N   0  0  0  0  0  0  0  0  0  0  0  0
    2.1423   -2.2854    0.5549 C   0  0  2  0  0  0  0  0  0  0  0  0
    1.9611   -2.3038    2.0670 C   0  0  0  0  0  0  0  0  0  0  0  0
    1.7597   -1.2890    2.7309 O   0  0  0  0  0  0  0  0  0  0  0  0
    3.6152   -2.3549    0.1831 C   0  0  0  0  0  0  0  0  0  0  0  0
    2.0673   -0.4918   -0.5818 H   0  0  0  0  0  0  0  0  0  0  0  0
    1.6005   -3.1279    0.1114 H   0  0  0  0  0  0  0  0  0  0  0  0
    4.1743   -1.5187    0.6186 H   0  0  0  0  0  0  0  0  0  0  0  0
    4.0723   -3.2820    0.5444 H   0  0  0  0  0  0  0  0  0  0  0  0
    3.7453   -2.3115   -0.9036 H   0  0  0  0  0  0  0  0  0  0  0  0
    2.0937   -3.5813    2.5930 N   0  0  0  0  0  0  0  0  0  0  0  0
    1.9769   -3.8588    4.0056 C   0  0  0  0  0  0  0  0  0  0  0  0
    2.2412   -4.3669    1.9663 H   0  0  0  0  0  0  0  0  0  0  0  0
    2.9730   -3.8213    4.4707 H   0  0  0  0  0  0  0  0  0  0  0  0
    1.3250   -3.1068    4.4742 H   0  0  0  0  0  0  0  0  0  0  0  0
    1.5434   -4.8596    4.1479 H   0  0  0  0  0  0  0  0  0  0  0  0
 29 30  2  0  0  0  0
 27 29  1  0  0  0  0
 28 30  1  0  0  0  0
 24 27  2  0  0  0  0
 26 28  2  0  0  0  0
 22 23  2  0  0  0  0
 23 25  1  0  0  0  0
 22 24  1  0  0  0  0
 24 26  1  0  0  0  0
 21 22  1  0  0  0  0
 25 26  1  0  0  0  0
  1  3  1  0  0  0  0
  1  7  1  0  0  0  0
  1  2  2  0  0  0  0
 42 43  1  0  0  0  0
 43 51  1  0  0  0  0
 43 44  2  0  0  0  0
  8  9  1  0  0  0  0
  9 17  1  0  0  0  0
  9 10  2  0  0  0  0
 18 19  1  0  0  0  0
 19 41  1  0  0  0  0
 19 20  2  0  0  0  0
 42 45  1  0  0  0  0
  8 11  1  0  0  0  0
 51 52  1  0  0  0  0
 18 21  1  0  0  0  0
 41 42  1  0  0  0  0
  7  8  1  0  0  0  0
 17 18  1  0  0  0  0
 29 39  1  0  0  0  0
 30 40  1  0  0  0  0
 27 37  1  0  0  0  0
 28 38  1  0  0  0  0
 23 35  1  0  0  0  0
  3  4  1  0  0  0  0
  3  5  1  0  0  0  0
  3  6  1  0  0  0  0
 45 48  1  0  0  0  0
 45 49  1  0  0  0  0
 45 50  1  0  0  0  0
 11 14  1  0  0  0  0
 11 15  1  0  0  0  0
 11 16  1  0  0  0  0
 52 54  1  0  0  0  0
 52 55  1  0  0  0  0
 52 56  1  0  0  0  0
 21 33  1  0  0  0  0
 21 34  1  0  0  0  0
 42 47  1  0  0  0  0
  8 13  1  0  0  0  0
 18 32  1  0  0  0  0
 25 36  1  0  0  0  0
 51 53  1  0  0  0  0
  7 12  1  0  0  0  0
 41 46  1  0  0  0  0
 17 31  1  0  0  0  0
M  END
$$$$

  -OEChem-05262214473D

 56 57  0     1  0  0  0  0  0999 V2000
   -2.2900    0.3401    4.1553 C   0  0  0  0  0  0  0  0  0  0  0  0
   -1.3426   -0.2746    3.6796 O   0  0  0  0  0  0  0  0  0  0  0  0
   -2.7219    0.0577    5.5560 C   0  0  0  0  0  0  0  0  0  0  0  0
   -3.4815   -0.7386    5.6094 H   0  0  0  0  0  0  0  0  0  0  0  0
   -1.8906   -0.2899    6.1903 H   0  0  0  0  0  0  0  0  0  0  0  0
   -3.1599    0.9126    6.0956 H   0  0  0  0  0  0  0  0  0  0  0  0
   -3.0397    1.3125    3.5142 N   0  0  0  0  0  0  0  0  0  0  0  0
   -2.7928    1.7385    2.1618 C   0  0  2  0  0  0  0  0  0  0  0  0
   -1.4579    1.1532    1.7206 C   0  0  0  0  0  0  0  0  0  0  0  0
   -0.5858    0.8004    2.5118 O   0  0  0  0  0  0  0  0  0  0  0  0
   -2.7841    3.2553    2.0523 C   0  0  0  0  0  0  0  0  0  0  0  0
   -3.8047    1.7484    4.0260 H   0  0  0  0  0  0  0  0  0  0  0  0
   -3.5969    1.3201    1.5466 H   0  0  0  0  0  0  0  0  0  0  0  0
   -1.9850    3.6926    2.6620 H   0  0  0  0  0  0  0  0  0  0  0  0
   -2.6246    3.5776    1.0180 H   0  0  0  0  0  0  0  0  0  0  0  0
   -3.7342    3.6765    2.3981 H   0  0  0  0  0  0  0  0  0  0  0  0
   -1.3352    1.1101    0.3372 N   0  0  0  0  0  0  0  0  0  0  0  0
   -0.1579    0.6093   -0.3265 C   0  0  2  0  0  0  0  0  0  0  0  0
    0.2378   -0.6860    0.3734 C   0  0  0  0  0  0  0  0  0  0  0  0
   -0.5814   -1.4516    0.8771 O   0  0  0  0  0  0  0  0  0  0  0  0
    1.0006    1.6124   -0.2857 C   0  0  0  0  0  0  0  0  0  0  0  0
    0.7255    2.8551   -1.0967 C   0  0  0  0  0  0  0  0  0  0  0  0
    0.2519    4.0485   -0.6023 C   0  0  0  0  0  0  0  0  0  0  0  0
    0.9073    3.0091   -2.4996 C   0  0  0  0  0  0  0  0  0  0  0  0
    0.1379    4.9229   -1.6497 N   0  0  0  0  0  0  0  0  0  0  0  0
    0.5314    4.3152   -2.8206 C   0  0  0  0  0  0  0  0  0  0  0  0
    1.3570    2.1600   -3.5303 C   0  0  0  0  0  0  0  0  0  0  0  0
    0.5830    4.8167   -4.1261 C   0  0  0  0  0  0  0  0  0  0  0  0
    1.4138    2.6480   -4.8408 C   0  0  0  0  0  0  0  0  0  0  0  0
    1.0323    3.9563   -5.1319 C   0  0  0  0  0  0  0  0  0  0  0  0
   -2.1183    1.4068   -0.2401 H   0  0  0  0  0  0  0  0  0  0  0  0
   -0.4528    0.3842   -1.3582 H   0  0  0  0  0  0  0  0  0  0  0  0
    1.9267    1.1386   -0.6385 H   0  0  0  0  0  0  0  0  0  0  0  0
    1.2088    1.9161    0.7488 H   0  0  0  0  0  0  0  0  0  0  0  0
   -0.0158    4.3544    0.3997 H   0  0  0  0  0  0  0  0  0  0  0  0
   -0.1878    5.8767   -1.5749 H   0  0  0  0  0  0  0  0  0  0  0  0
    1.6570    1.1374   -3.3198 H   0  0  0  0  0  0  0  0  0  0  0  0
    0.2872    5.8353   -4.3534 H   0  0  0  0  0  0  0  0  0  0  0  0
    1.7593    1.9977   -5.6400 H   0  0  0  0  0  0  0  0  0  0  0  0
    1.0845    4.3146   -6.1567 H   0  0  0  0  0  0  0  0  0  0  0  0
    1.6072   -0.9065    0.3230 N   0  0  0  0  0  0  0  0  0  0  0  0
    2.2446   -2.0729    0.8904 C   0  0  2  0  0  0  0  0  0  0  0  0
    1.7451   -2.2329    2.3203 C   0  0  0  0  0  0  0  0  0  0  0  0
    1.2787   -1.3036    2.9758 O   0  0  0  0  0  0  0  0  0  0  0  0
    3.7598   -1.9478    0.8547 C   0  0  0  0  0  0  0  0  0  0  0  0
    2.1907   -0.2132   -0.1359 H   0  0  0  0  0  0  0  0  0  0  0  0
    1.9223   -2.9320    0.2921 H   0  0  0  0  0  0  0  0  0  0  0  0
    4.1015   -1.0924    1.4488 H   0  0  0  0  0  0  0  0  0  0  0  0
    4.2415   -2.8443    1.2588 H   0  0  0  0  0  0  0  0  0  0  0  0
    4.1148   -1.8030   -0.1713 H   0  0  0  0  0  0  0  0  0  0  0  0
    1.9214   -3.5258    2.7930 N   0  0  0  0  0  0  0  0  0  0  0  0
    1.5385   -3.9274    4.1265 C   0  0  0  0  0  0  0  0  0  0  0  0
    2.2988   -4.2372    2.1738 H   0  0  0  0  0  0  0  0  0  0  0  0
    2.3978   -3.8168    4.8042 H   0  0  0  0  0  0  0  0  0  0  0  0
    0.7112   -3.2928    4.4770 H   0  0  0  0  0  0  0  0  0  0  0  0
    1.2144   -4.9785    4.1139 H   0  0  0  0  0  0  0  0  0  0  0  0
 29 30  2  0  0  0  0
 27 29  1  0  0  0  0
 28 30  1  0  0  0  0
 24 27  2  0  0  0  0
 26 28  2  0  0  0  0
 22 23  2  0  0  0  0
 23 25  1  0  0  0  0
 22 24  1  0  0  0  0
 24 26  1  0  0  0  0
 21 22  1  0  0  0  0
 25 26  1  0  0  0  0
  1  3  1  0  0  0  0
  1  7  1  0  0  0  0
  1  2  2  0  0  0  0
 42 43  1  0  0  0  0
 43 51  1  0  0  0  0
 43 44  2  0  0  0  0
  8  9  1  0  0  0  0
  9 17  1  0  0  0  0
  9 10  2  0  0  0  0
 18 19  1  0  0  0  0
 19 41  1  0  0  0  0
 19 20  2  0  0  0  0
 42 45  1  0  0  0  0
  8 11  1  0  0  0  0
 51 52  1  0  0  0  0
 18 21  1  0  0  0  0
 41 42  1  0  0  0  0
  7  8  1  0  0  0  0
 17 18  1  0  0  0  0
 29 39  1  0  0  0  0
 30 40  1  0  0  0  0
 27 37  1  0  0  0  0
 28 38  1  0  0  0  0
 23 35  1  0  0  0  0
  3  4  1  0  0  0  0
  3  5  1  0  0  0  0
  3  6  1  0  0  0  0
 45 48  1  0  0  0  0
 45 49  1  0  0  0  0
 45 50  1  0  0  0  0
 11 14  1  0  0  0  0
 11 15  1  0  0  0  0
 11 16  1  0  0  0  0
 52 54  1  0  0  0  0
 52 55  1  0  0  0  0
 52 56  1  0  0  0  0
 21 33  1  0  0  0  0
 21 34  1  0  0  0  0
 42 47  1  0  0  0  0
  8 13  1  0  0  0  0
 18 32  1  0  0  0  0
 25 36  1  0  0  0  0
 51 53  1  0  0  0  0
  7 12  1  0  0  0  0
 41 46  1  0  0  0  0
 17 31  1  0  0  0  0
M  END
$$$$

  -OEChem-05262214473D

 56 57  0     1  0  0  0  0  0999 V2000
   -2.2900    0.3401    4.1553 C   0  0  0  0  0  0  0  0  0  0  0  0
   -1.3426   -0.2746    3.6796 O   0  0  0  0  0  0  0  0  0  0  0  0
   -2.7219    0.0577    5.5560 C   0  0  0  0  0  0  0  0  0  0  0  0
   -3.4815   -0.7386    5.6094 H   0  0  0  0  0  0  0  0  0  0  0  0
   -1.8906   -0.2899    6.1903 H   0  0  0  0  0  0  0  0  0  0  0  0
   -3.1599    0.9126    6.0956 H   0  0  0  0  0  0  0  0  0  0  0  0
   -3.0397    1.3125    3.5142 N   0  0  0  0  0  0  0  0  0  0  0  0
   -2.7928    1.7385    2.1618 C   0  0  2  0  0  0  0  0  0  0  0  0
   -1.4579    1.1532    1.7206 C   0  0  0  0  0  0  0  0  0  0  0  0
   -0.5858    0.8004    2.5118 O   0  0  0  0  0  0  0  0  0  0  0  0
   -2.7841    3.2553    2.0523 C   0  0  0  0  0  0  0  0  0  0  0  0
   -3.8047    1.7484    4.0260 H   0  0  0  0  0  0  0  0  0  0  0  0
   -3.5969    1.3201    1.5466 H   0  0  0  0  0  0  0  0  0  0  0  0
   -1.9850    3.6926    2.6620 H   0  0  0  0  0  0  0  0  0  0  0  0
   -2.6246    3.5776    1.0180 H   0  0  0  0  0  0  0  0  0  0  0  0
   -3.7342    3.6765    2.3981 H   0  0  0  0  0  0  0  0  0  0  0  0
   -1.3352    1.1101    0.3372 N   0  0  0  0  0  0  0  0  0  0  0  0
   -0.1579    0.6093   -0.3265 C   0  0  2  0  0  0  0  0  0  0  0  0
    0.2378   -0.6860    0.3734 C   0  0  0  0  0  0  0  0  0  0  0  0
   -0.5674   -1.5760    0.6389 O   0  0  0  0  0  0  0  0  0  0  0  0
    1.0006    1.6124   -0.2857 C   0  0  0  0  0  0  0  0  0  0  0  0
    0.7255    2.8551   -1.0967 C   0  0  0  0  0  0  0  0  0  0  0  0
    0.2519    4.0485   -0.6023 C   0  0  0  0  0  0  0  0  0  0  0  0
    0.9073    3.0091   -2.4996 C   0  0  0  0  0  0  0  0  0  0  0  0
    0.1379    4.9229   -1.6497 N   0  0  0  0  0  0  0  0  0  0  0  0
    0.5314    4.3152   -2.8206 C   0  0  0  0  0  0  0  0  0  0  0  0
    1.3570    2.1600   -3.5303 C   0  0  0  0  0  0  0  0  0  0  0  0
    0.5830    4.8167   -4.1261 C   0  0  0  0  0  0  0  0  0  0  0  0
    1.4138    2.6480   -4.8408 C   0  0  0  0  0  0  0  0  0  0  0  0
    1.0323    3.9563   -5.1319 C   0  0  0  0  0  0  0  0  0  0  0  0
   -2.1183    1.4068   -0.2401 H   0  0  0  0  0  0  0  0  0  0  0  0
   -0.4528    0.3842   -1.3582 H   0  0  0  0  0  0  0  0  0  0  0  0
    1.9267    1.1386   -0.6385 H   0  0  0  0  0  0  0  0  0  0  0  0
    1.2088    1.9161    0.7488 H   0  0  0  0  0  0  0  0  0  0  0  0
   -0.0158    4.3544    0.3997 H   0  0  0  0  0  0  0  0  0  0  0  0
   -0.1878    5.8767   -1.5749 H   0  0  0  0  0  0  0  0  0  0  0  0
    1.6570    1.1374   -3.3198 H   0  0  0  0  0  0  0  0  0  0  0  0
    0.2872    5.8353   -4.3534 H   0  0  0  0  0  0  0  0  0  0  0  0
    1.7593    1.9977   -5.6400 H   0  0  0  0  0  0  0  0  0  0  0  0
    1.0845    4.3146   -6.1567 H   0  0  0  0  0  0  0  0  0  0  0  0
    1.6024   -0.7479    0.6191 N   0  0  0  0  0  0  0  0  0  0  0  0
    2.2444   -1.8780    1.2513 C   0  0  2  0  0  0  0  0  0  0  0  0
    1.4724   -2.2071    2.5222 C   0  0  0  0  0  0  0  0  0  0  0  0
    0.7619   -1.3913    3.1057 O   0  0  0  0  0  0  0  0  0  0  0  0
    3.7034   -1.5826    1.5626 C   0  0  0  0  0  0  0  0  0  0  0  0
    2.1789    0.0407    0.3407 H   0  0  0  0  0  0  0  0  0  0  0  0
    2.1701   -2.7167    0.5505 H   0  0  0  0  0  0  0  0  0  0  0  0
    3.7979   -0.7450    2.2633 H   0  0  0  0  0  0  0  0  0  0  0  0
    4.1958   -2.4495    2.0154 H   0  0  0  0  0  0  0  0  0  0  0  0
    4.2503   -1.3170    0.6515 H   0  0  0  0  0  0  0  0  0  0  0  0
    1.7044   -3.5062    2.9520 N   0  0  0  0  0  0  0  0  0  0  0  0
    1.0966   -4.0539    4.1422 C   0  0  0  0  0  0  0  0  0  0  0  0
    2.2933   -4.1190    2.3957 H   0  0  0  0  0  0  0  0  0  0  0  0
    1.7683   -3.9032    5.0001 H   0  0  0  0  0  0  0  0  0  0  0  0
    0.1397   -3.5456    4.3322 H   0  0  0  0  0  0  0  0  0  0  0  0
    0.9183   -5.1301    4.0008 H   0  0  0  0  0  0  0  0  0  0  0  0
 29 30  2  0  0  0  0
 27 29  1  0  0  0  0
 28 30  1  0  0  0  0
 24 27  2  0  0  0  0
 26 28  2  0  0  0  0
 22 23  2  0  0  0  0
 23 25  1  0  0  0  0
 22 24  1  0  0  0  0
 24 26  1  0  0  0  0
 21 22  1  0  0  0  0
 25 26  1  0  0  0  0
  1  3  1  0  0  0  0
  1  7  1  0  0  0  0
  1  2  2  0  0  0  0
 42 43  1  0  0  0  0
 43 51  1  0  0  0  0
 43 44  2  0  0  0  0
  8  9  1  0  0  0  0
  9 17  1  0  0  0  0
  9 10  2  0  0  0  0
 18 19  1  0  0  0  0
 19 41  1  0  0  0  0
 19 20  2  0  0  0  0
 42 45  1  0  0  0  0
  8 11  1  0  0  0  0
 51 52  1  0  0  0  0
 18 21  1  0  0  0  0
 41 42  1  0  0  0  0
  7  8  1  0  0  0  0
 17 18  1  0  0  0  0
 29 39  1  0  0  0  0
 30 40  1  0  0  0  0
 27 37  1  0  0  0  0
 28 38  1  0  0  0  0
 23 35  1  0  0  0  0
  3  4  1  0  0  0  0
  3  5  1  0  0  0  0
  3  6  1  0  0  0  0
 45 48  1  0  0  0  0
 45 49  1  0  0  0  0
 45 50  1  0  0  0  0
 11 14  1  0  0  0  0
 11 15  1  0  0  0  0
 11 16  1  0  0  0  0
 52 54  1  0  0  0  0
 52 55  1  0  0  0  0
 52 56  1  0  0  0  0
 21 33  1  0  0  0  0
 21 34  1  0  0  0  0
 42 47  1  0  0  0  0
  8 13  1  0  0  0  0
 18 32  1  0  0  0  0
 25 36  1  0  0  0  0
 51 53  1  0  0  0  0
  7 12  1  0  0  0  0
 41 46  1  0  0  0  0
 17 31  1  0  0  0  0
M  END
$$$$

  -OEChem-05262214473D

 56 57  0     1  0  0  0  0  0999 V2000
   -2.2900    0.3401    4.1553 C   0  0  0  0  0  0  0  0  0  0  0  0
   -1.3426   -0.2746    3.6796 O   0  0  0  0  0  0  0  0  0  0  0  0
   -2.7219    0.0577    5.5560 C   0  0  0  0  0  0  0  0  0  0  0  0
   -3.4815   -0.7386    5.6094 H   0  0  0  0  0  0  0  0  0  0  0  0
   -1.8906   -0.2899    6.1903 H   0  0  0  0  0  0  0  0  0  0  0  0
   -3.1599    0.9126    6.0956 H   0  0  0  0  0  0  0  0  0  0  0  0
   -3.0397    1.3125    3.5142 N   0  0  0  0  0  0  0  0  0  0  0  0
   -2.7928    1.7385    2.1618 C   0  0  2  0  0  0  0  0  0  0  0  0
   -1.4579    1.1532    1.7206 C   0  0  0  0  0  0  0  0  0  0  0  0
   -0.5858    0.8004    2.5118 O   0  0  0  0  0  0  0  0  0  0  0  0
   -2.7841    3.2553    2.0523 C   0  0  0  0  0  0  0  0  0  0  0  0
   -3.8047    1.7484    4.0260 H   0  0  0  0  0  0  0  0  0  0  0  0
   -3.5969    1.3201    1.5466 H   0  0  0  0  0  0  0  0  0  0  0  0
   -1.9850    3.6926    2.6620 H   0  0  0  0  0  0  0  0  0  0  0  0
   -2.6246    3.5776    1.0180 H   0  0  0  0  0  0  0  0  0  0  0  0
   -3.7342    3.6765    2.3981 H   0  0  0  0  0  0  0  0  0  0  0  0
   -1.3352    1.1101    0.3372 N   0  0  0  0  0  0  0  0  0  0  0  0
   -0.1579    0.6093   -0.3265 C   0  0  2  0  0  0  0  0  0  0  0  0
    0.2378   -0.6860    0.3734 C   0  0  0  0  0  0  0  0  0  0  0  0
   -0.4867   -1.6786    0.4035 O   0  0  0  0  0  0  0  0  0  0  0  0
    1.0006    1.6124   -0.2857 C   0  0  0  0  0  0  0  0  0  0  0  0
    0.7255    2.8551   -1.0967 C   0  0  0  0  0  0  0  0  0  0  0  0
    0.2519    4.0485   -0.6023 C   0  0  0  0  0  0  0  0  0  0  0  0
    0.9073    3.0091   -2.4996 C   0  0  0  0  0  0  0  0  0  0  0  0
    0.1379    4.9229   -1.6497 N   0  0  0  0  0  0  0  0  0  0  0  0
    0.5314    4.3152   -2.8206 C   0  0  0  0  0  0  0  0  0  0  0  0
    1.3570    2.1600   -3.5303 C   0  0  0  0  0  0  0  0  0  0  0  0
    0.5830    4.8167   -4.1261 C   0  0  0  0  0  0  0  0  0  0  0  0
    1.4138    2.6480   -4.8408 C   0  0  0  0  0  0  0  0  0  0  0  0
    1.0323    3.9563   -5.1319 C   0  0  0  0  0  0  0  0  0  0  0  0
   -2.1183    1.4068   -0.2401 H   0  0  0  0  0  0  0  0  0  0  0  0
   -0.4528    0.3842   -1.3582 H   0  0  0  0  0  0  0  0  0  0  0  0
    1.9267    1.1386   -0.6385 H   0  0  0  0  0  0  0  0  0  0  0  0
    1.2088    1.9161    0.7488 H   0  0  0  0  0  0  0  0  0  0  0  0
   -0.0158    4.3544    0.3997 H   0  0  0  0  0  0  0  0  0  0  0  0
   -0.1878    5.8767   -1.5749 H   0  0  0  0  0  0  0  0  0  0  0  0
    1.6570    1.1374   -3.3198 H   0  0  0  0  0  0  0  0  0  0  0  0
    0.2872    5.8353   -4.3534 H   0  0  0  0  0  0  0  0  0  0  0  0
    1.7593    1.9977   -5.6400 H   0  0  0  0  0  0  0  0  0  0  0  0
    1.0845    4.3146   -6.1567 H   0  0  0  0  0  0  0  0  0  0  0  0
    1.5138   -0.6152    0.9148 N   0  0  0  0  0  0  0  0  0  0  0  0
    2.1418   -1.7140    1.6128 C   0  0  2  0  0  0  0  0  0  0  0  0
    1.1616   -2.2282    2.6589 C   0  0  0  0  0  0  0  0  0  0  0  0
    0.2446   -1.5461    3.1116 O   0  0  0  0  0  0  0  0  0  0  0  0
    3.4498   -1.2841    2.2585 C   0  0  0  0  0  0  0  0  0  0  0  0
    2.0324    0.2525    0.8155 H   0  0  0  0  0  0  0  0  0  0  0  0
    2.3270   -2.4966    0.8691 H   0  0  0  0  0  0  0  0  0  0  0  0
    3.2843   -0.5003    3.0066 H   0  0  0  0  0  0  0  0  0  0  0  0
    3.9384   -2.1243    2.7627 H   0  0  0  0  0  0  0  0  0  0  0  0
    4.1425   -0.8868    1.5086 H   0  0  0  0  0  0  0  0  0  0  0  0
    1.4575   -3.5237    3.0592 N   0  0  0  0  0  0  0  0  0  0  0  0
    0.6813   -4.2296    4.0517 C   0  0  0  0  0  0  0  0  0  0  0  0
    2.2251   -4.0204    2.6167 H   0  0  0  0  0  0  0  0  0  0  0  0
    1.1274   -4.0747    5.0452 H   0  0  0  0  0  0  0  0  0  0  0  0
   -0.3504   -3.8479    4.0497 H   0  0  0  0  0  0  0  0  0  0  0  0
    0.6751   -5.3041    3.8162 H   0  0  0  0  0  0  0  0  0  0  0  0
 29 30  2  0  0  0  0
 27 29  1  0  0  0  0
 28 30  1  0  0  0  0
 24 27  2  0  0  0  0
 26 28  2  0  0  0  0
 22 23  2  0  0  0  0
 23 25  1  0  0  0  0
 22 24  1  0  0  0  0
 24 26  1  0  0  0  0
 21 22  1  0  0  0  0
 25 26  1  0  0  0  0
  1  3  1  0  0  0  0
  1  7  1  0  0  0  0
  1  2  2  0  0  0  0
 42 43  1  0  0  0  0
 43 51  1  0  0  0  0
 43 44  2  0  0  0  0
  8  9  1  0  0  0  0
  9 17  1  0  0  0  0
  9 10  2  0  0  0  0
 18 19  1  0  0  0  0
 19 41  1  0  0  0  0
 19 20  2  0  0  0  0
 42 45  1  0  0  0  0
  8 11  1  0  0  0  0
 51 52  1  0  0  0  0
 18 21  1  0  0  0  0
 41 42  1  0  0  0  0
  7  8  1  0  0  0  0
 17 18  1  0  0  0  0
 29 39  1  0  0  0  0
 30 40  1  0  0  0  0
 27 37  1  0  0  0  0
 28 38  1  0  0  0  0
 23 35  1  0  0  0  0
  3  4  1  0  0  0  0
  3  5  1  0  0  0  0
  3  6  1  0  0  0  0
 45 48  1  0  0  0  0
 45 49  1  0  0  0  0
 45 50  1  0  0  0  0
 11 14  1  0  0  0  0
 11 15  1  0  0  0  0
 11 16  1  0  0  0  0
 52 54  1  0  0  0  0
 52 55  1  0  0  0  0
 52 56  1  0  0  0  0
 21 33  1  0  0  0  0
 21 34  1  0  0  0  0
 42 47  1  0  0  0  0
  8 13  1  0  0  0  0
 18 32  1  0  0  0  0
 25 36  1  0  0  0  0
 51 53  1  0  0  0  0
  7 12  1  0  0  0  0
 41 46  1  0  0  0  0
 17 31  1  0  0  0  0
M  END
$$$$

  -OEChem-05262214473D

 56 57  0     1  0  0  0  0  0999 V2000
   -2.2900    0.3401    4.1553 C   0  0  0  0  0  0  0  0  0  0  0  0
   -1.3426   -0.2746    3.6796 O   0  0  0  0  0  0  0  0  0  0  0  0
   -2.7219    0.0577    5.5560 C   0  0  0  0  0  0  0  0  0  0  0  0
   -3.4815   -0.7386    5.6094 H   0  0  0  0  0  0  0  0  0  0  0  0
   -1.8906   -0.2899    6.1903 H   0  0  0  0  0  0  0  0  0  0  0  0
   -3.1599    0.9126    6.0956 H   0  0  0  0  0  0  0  0  0  0  0  0
   -3.0397    1.3125    3.5142 N   0  0  0  0  0  0  0  0  0  0  0  0
   -2.7928    1.7385    2.1618 C   0  0  2  0  0  0  0  0  0  0  0  0
   -1.4579    1.1532    1.7206 C   0  0  0  0  0  0  0  0  0  0  0  0
   -0.5858    0.8004    2.5118 O   0  0  0  0  0  0  0  0  0  0  0  0
   -2.7841    3.2553    2.0523 C   0  0  0  0  0  0  0  0  0  0  0  0
   -3.8047    1.7484    4.0260 H   0  0  0  0  0  0  0  0  0  0  0  0
   -3.5969    1.3201    1.5466 H   0  0  0  0  0  0  0  0  0  0  0  0
   -1.9850    3.6926    2.6620 H   0  0  0  0  0  0  0  0  0  0  0  0
   -2.6246    3.5776    1.0180 H   0  0  0  0  0  0  0  0  0  0  0  0
   -3.7342    3.6765    2.3981 H   0  0  0  0  0  0  0  0  0  0  0  0
   -1.3352    1.1101    0.3372 N   0  0  0  0  0  0  0  0  0  0  0  0
   -0.1579    0.6093   -0.3265 C   0  0  2  0  0  0  0  0  0  0  0  0
    0.2378   -0.6860    0.3734 C   0  0  0  0  0  0  0  0  0  0  0  0
   -0.3448   -1.7522    0.1869 O   0  0  0  0  0  0  0  0  0  0  0  0
    1.0006    1.6124   -0.2857 C   0  0  0  0  0  0  0  0  0  0  0  0
    0.7255    2.8551   -1.0967 C   0  0  0  0  0  0  0  0  0  0  0  0
    0.2519    4.0485   -0.6023 C   0  0  0  0  0  0  0  0  0  0  0  0
    0.9073    3.0091   -2.4996 C   0  0  0  0  0  0  0  0  0  0  0  0
    0.1379    4.9229   -1.6497 N   0  0  0  0  0  0  0  0  0  0  0  0
    0.5314    4.3152   -2.8206 C   0  0  0  0  0  0  0  0  0  0  0  0
    1.3570    2.1600   -3.5303 C   0  0  0  0  0  0  0  0  0  0  0  0
    0.5830    4.8167   -4.1261 C   0  0  0  0  0  0  0  0  0  0  0  0
    1.4138    2.6480   -4.8408 C   0  0  0  0  0  0  0  0  0  0  0  0
    1.0323    3.9563   -5.1319 C   0  0  0  0  0  0  0  0  0  0  0  0
   -2.1183    1.4068   -0.2401 H   0  0  0  0  0  0  0  0  0  0  0  0
   -0.4528    0.3842   -1.3582 H   0  0  0  0  0  0  0  0  0  0  0  0
    1.9267    1.1386   -0.6385 H   0  0  0  0  0  0  0  0  0  0  0  0
    1.2088    1.9161    0.7488 H   0  0  0  0  0  0  0  0  0  0  0  0
   -0.0158    4.3544    0.3997 H   0  0  0  0  0  0  0  0  0  0  0  0
   -0.1878    5.8767   -1.5749 H   0  0  0  0  0  0  0  0  0  0  0  0
    1.6570    1.1374   -3.3198 H   0  0  0  0  0  0  0  0  0  0  0  0
    0.2872    5.8353   -4.3534 H   0  0  0  0  0  0  0  0  0  0  0  0
    1.7593    1.9977   -5.6400 H   0  0  0  0  0  0  0  0  0  0  0  0
    1.0845    4.3146   -6.1567 H   0  0  0  0  0  0  0  0  0  0  0  0
    1.3475   -0.5174    1.1899 N   0  0  0  0  0  0  0  0  0  0  0  0
    1.9436   -1.5920    1.9505 C   0  0  2  0  0  0  0  0  0  0  0  0
    0.8337   -2.2946    2.7213 C   0  0  0  0  0  0  0  0  0  0  0  0
   -0.2380   -1.7575    2.9931 O   0  0  0  0  0  0  0  0  0  0  0  0
    3.0164   -1.0725    2.8949 C   0  0  0  0  0  0  0  0  0  0  0  0
    1.7614    0.4078    1.2561 H   0  0  0  0  0  0  0  0  0  0  0  0
    2.3823   -2.2868    1.2261 H   0  0  0  0  0  0  0  0  0  0  0  0
    2.5957   -0.3748    3.6282 H   0  0  0  0  0  0  0  0  0  0  0  0
    3.4868   -1.8911    3.4497 H   0  0  0  0  0  0  0  0  0  0  0  0
    3.7987   -0.5416    2.3418 H   0  0  0  0  0  0  0  0  0  0  0  0
    1.1975   -3.5772    3.1072 N   0  0  0  0  0  0  0  0  0  0  0  0
    0.3209   -4.4426    3.8612 C   0  0  0  0  0  0  0  0  0  0  0  0
    2.0990   -3.9481    2.8218 H   0  0  0  0  0  0  0  0  0  0  0  0
    0.5189   -4.3194    4.9362 H   0  0  0  0  0  0  0  0  0  0  0  0
   -0.7258   -4.1792    3.6487 H   0  0  0  0  0  0  0  0  0  0  0  0
    0.5015   -5.4886    3.5727 H   0  0  0  0  0  0  0  0  0  0  0  0
 29 30  2  0  0  0  0
 27 29  1  0  0  0  0
 28 30  1  0  0  0  0
 24 27  2  0  0  0  0
 26 28  2  0  0  0  0
 22 23  2  0  0  0  0
 23 25  1  0  0  0  0
 22 24  1  0  0  0  0
 24 26  1  0  0  0  0
 21 22  1  0  0  0  0
 25 26  1  0  0  0  0
  1  3  1  0  0  0  0
  1  7  1  0  0  0  0
  1  2  2  0  0  0  0
 42 43  1  0  0  0  0
 43 51  1  0  0  0  0
 43 44  2  0  0  0  0
  8  9  1  0  0  0  0
  9 17  1  0  0  0  0
  9 10  2  0  0  0  0
 18 19  1  0  0  0  0
 19 41  1  0  0  0  0
 19 20  2  0  0  0  0
 42 45  1  0  0  0  0
  8 11  1  0  0  0  0
 51 52  1  0  0  0  0
 18 21  1  0  0  0  0
 41 42  1  0  0  0  0
  7  8  1  0  0  0  0
 17 18  1  0  0  0  0
 29 39  1  0  0  0  0
 30 40  1  0  0  0  0
 27 37  1  0  0  0  0
 28 38  1  0  0  0  0
 23 35  1  0  0  0  0
  3  4  1  0  0  0  0
  3  5  1  0  0  0  0
  3  6  1  0  0  0  0
 45 48  1  0  0  0  0
 45 49  1  0  0  0  0
 45 50  1  0  0  0  0
 11 14  1  0  0  0  0
 11 15  1  0  0  0  0
 11 16  1  0  0  0  0
 52 54  1  0  0  0  0
 52 55  1  0  0  0  0
 52 56  1  0  0  0  0
 21 33  1  0  0  0  0
 21 34  1  0  0  0  0
 42 47  1  0  0  0  0
  8 13  1  0  0  0  0
 18 32  1  0  0  0  0
 25 36  1  0  0  0  0
 51 53  1  0  0  0  0
  7 12  1  0  0  0  0
 41 46  1  0  0  0  0
 17 31  1  0  0  0  0
M  END
$$$$

  -OEChem-05262214473D

 56 57  0     1  0  0  0  0  0999 V2000
   -2.2900    0.3401    4.1553 C   0  0  0  0  0  0  0  0  0  0  0  0
   -1.3426   -0.2746    3.6796 O   0  0  0  0  0  0  0  0  0  0  0  0
   -2.7219    0.0577    5.5560 C   0  0  0  0  0  0  0  0  0  0  0  0
   -3.4815   -0.7386    5.6094 H   0  0  0  0  0  0  0  0  0  0  0  0
   -1.8906   -0.2899    6.1903 H   0  0  0  0  0  0  0  0  0  0  0  0
   -3.1599    0.9126    6.0956 H   0  0  0  0  0  0  0  0  0  0  0  0
   -3.0397    1.3125    3.5142 N   0  0  0  0  0  0  0  0  0  0  0  0
   -2.7928    1.7385    2.1618 C   0  0  2  0  0  0  0  0  0  0  0  0
   -1.4579    1.1532    1.7206 C   0  0  0  0  0  0  0  0  0  0  0  0
   -0.5858    0.8004    2.5118 O   0  0  0  0  0  0  0  0  0  0  0  0
   -2.7841    3.2553    2.0523 C   0  0  0  0  0  0  0  0  0  0  0  0
   -3.8047    1.7484    4.0260 H   0  0  0  0  0  0  0  0  0  0  0  0
   -3.5969    1.3201    1.5466 H   0  0  0  0  0  0  0  0  0  0  0  0
   -1.9850    3.6926    2.6620 H   0  0  0  0  0  0  0  0  0  0  0  0
   -2.6246    3.5776    1.0180 H   0  0  0  0  0  0  0  0  0  0  0  0
   -3.7342    3.6765    2.3981 H   0  0  0  0  0  0  0  0  0  0  0  0
   -1.3352    1.1101    0.3372 N   0  0  0  0  0  0  0  0  0  0  0  0
   -0.1579    0.6093   -0.3265 C   0  0  2  0  0  0  0  0  0  0  0  0
    0.2378   -0.6860    0.3734 C   0  0  0  0  0  0  0  0  0  0  0  0
   -0.1513   -1.7919    0.0040 O   0  0  0  0  0  0  0  0  0  0  0  0
    1.0006    1.6124   -0.2857 C   0  0  0  0  0  0  0  0  0  0  0  0
    0.7255    2.8551   -1.0967 C   0  0  0  0  0  0  0  0  0  0  0  0
    0.2519    4.0485   -0.6023 C   0  0  0  0  0  0  0  0  0  0  0  0
    0.9073    3.0091   -2.4996 C   0  0  0  0  0  0  0  0  0  0  0  0
    0.1379    4.9229   -1.6497 N   0  0  0  0  0  0  0  0  0  0  0  0
    0.5314    4.3152   -2.8206 C   0  0  0  0  0  0  0  0  0  0  0  0
    1.3570    2.1600   -3.5303 C   0  0  0  0  0  0  0  0  0  0  0  0
    0.5830    4.8167   -4.1261 C   0  0  0  0  0  0  0  0  0  0  0  0
    1.4138    2.6480   -4.8408 C   0  0  0  0  0  0  0  0  0  0  0  0
    1.0323    3.9563   -5.1319 C   0  0  0  0  0  0  0  0  0  0  0  0
   -2.1183    1.4068   -0.2401 H   0  0  0  0  0  0  0  0  0  0  0  0
   -0.4528    0.3842   -1.3582 H   0  0  0  0  0  0  0  0  0  0  0  0
    1.9267    1.1386   -0.6385 H   0  0  0  0  0  0  0  0  0  0  0  0
    1.2088    1.9161    0.7488 H   0  0  0  0  0  0  0  0  0  0  0  0
   -0.0158    4.3544    0.3997 H   0  0  0  0  0  0  0  0  0  0  0  0
   -0.1878    5.8767   -1.5749 H   0  0  0  0  0  0  0  0  0  0  0  0
    1.6570    1.1374   -3.3198 H   0  0  0  0  0  0  0  0  0  0  0  0
    0.2872    5.8353   -4.3534 H   0  0  0  0  0  0  0  0  0  0  0  0
    1.7593    1.9977   -5.6400 H   0  0  0  0  0  0  0  0  0  0  0  0
    1.0845    4.3146   -6.1567 H   0  0  0  0  0  0  0  0  0  0  0  0
    1.1147   -0.4612    1.4255 N   0  0  0  0  0  0  0  0  0  0  0  0
    1.6634   -1.5205    2.2414 C   0  0  2  0  0  0  0  0  0  0  0  0
    0.5112   -2.4020    2.7049 C   0  0  0  0  0  0  0  0  0  0  0  0
   -0.6530   -2.0111    2.7584 O   0  0  0  0  0  0  0  0  0  0  0  0
    2.4327   -0.9625    3.4286 C   0  0  0  0  0  0  0  0  0  0  0  0
    1.3843    0.4960    1.6325 H   0  0  0  0  0  0  0  0  0  0  0  0
    2.3323   -2.1016    1.5972 H   0  0  0  0  0  0  0  0  0  0  0  0
    1.7789   -0.3772    4.0855 H   0  0  0  0  0  0  0  0  0  0  0  0
    2.8718   -1.7655    4.0297 H   0  0  0  0  0  0  0  0  0  0  0  0
    3.2424   -0.3050    3.0942 H   0  0  0  0  0  0  0  0  0  0  0  0
    0.9422   -3.6629    3.0929 N   0  0  0  0  0  0  0  0  0  0  0  0
    0.0400   -4.6784    3.5836 C   0  0  0  0  0  0  0  0  0  0  0  0
    1.9235   -3.9070    2.9970 H   0  0  0  0  0  0  0  0  0  0  0  0
   -0.0159   -4.6208    4.6807 H   0  0  0  0  0  0  0  0  0  0  0  0
   -0.9608   -4.5169    3.1567 H   0  0  0  0  0  0  0  0  0  0  0  0
    0.4093   -5.6712    3.2870 H   0  0  0  0  0  0  0  0  0  0  0  0
 29 30  2  0  0  0  0
 27 29  1  0  0  0  0
 28 30  1  0  0  0  0
 24 27  2  0  0  0  0
 26 28  2  0  0  0  0
 22 23  2  0  0  0  0
 23 25  1  0  0  0  0
 22 24  1  0  0  0  0
 24 26  1  0  0  0  0
 21 22  1  0  0  0  0
 25 26  1  0  0  0  0
  1  3  1  0  0  0  0
  1  7  1  0  0  0  0
  1  2  2  0  0  0  0
 42 43  1  0  0  0  0
 43 51  1  0  0  0  0
 43 44  2  0  0  0  0
  8  9  1  0  0  0  0
  9 17  1  0  0  0  0
  9 10  2  0  0  0  0
 18 19  1  0  0  0  0
 19 41  1  0  0  0  0
 19 20  2  0  0  0  0
 42 45  1  0  0  0  0
  8 11  1  0  0  0  0
 51 52  1  0  0  0  0
 18 21  1  0  0  0  0
 41 42  1  0  0  0  0
  7  8  1  0  0  0  0
 17 18  1  0  0  0  0
 29 39  1  0  0  0  0
 30 40  1  0  0  0  0
 27 37  1  0  0  0  0
 28 38  1  0  0  0  0
 23 35  1  0  0  0  0
  3  4  1  0  0  0  0
  3  5  1  0  0  0  0
  3  6  1  0  0  0  0
 45 48  1  0  0  0  0
 45 49  1  0  0  0  0
 45 50  1  0  0  0  0
 11 14  1  0  0  0  0
 11 15  1  0  0  0  0
 11 16  1  0  0  0  0
 52 54  1  0  0  0  0
 52 55  1  0  0  0  0
 52 56  1  0  0  0  0
 21 33  1  0  0  0  0
 21 34  1  0  0  0  0
 42 47  1  0  0  0  0
  8 13  1  0  0  0  0
 18 32  1  0  0  0  0
 25 36  1  0  0  0  0
 51 53  1  0  0  0  0
  7 12  1  0  0  0  0
 41 46  1  0  0  0  0
 17 31  1  0  0  0  0
M  END
$$$$

  -OEChem-05262214473D

 56 57  0     1  0  0  0  0  0999 V2000
   -2.2900    0.3401    4.1553 C   0  0  0  0  0  0  0  0  0  0  0  0
   -1.3426   -0.2746    3.6796 O   0  0  0  0  0  0  0  0  0  0  0  0
   -2.7219    0.0577    5.5560 C   0  0  0  0  0  0  0  0  0  0  0  0
   -3.4815   -0.7386    5.6094 H   0  0  0  0  0  0  0  0  0  0  0  0
   -1.8906   -0.2899    6.1903 H   0  0  0  0  0  0  0  0  0  0  0  0
   -3.1599    0.9126    6.0956 H   0  0  0  0  0  0  0  0  0  0  0  0
   -3.0397    1.3125    3.5142 N   0  0  0  0  0  0  0  0  0  0  0  0
   -2.7928    1.7385    2.1618 C   0  0  2  0  0  0  0  0  0  0  0  0
   -1.4579    1.1532    1.7206 C   0  0  0  0  0  0  0  0  0  0  0  0
   -0.5858    0.8004    2.5118 O   0  0  0  0  0  0  0  0  0  0  0  0
   -2.7841    3.2553    2.0523 C   0  0  0  0  0  0  0  0  0  0  0  0
   -3.8047    1.7484    4.0260 H   0  0  0  0  0  0  0  0  0  0  0  0
   -3.5969    1.3201    1.5466 H   0  0  0  0  0  0  0  0  0  0  0  0
   -1.9850    3.6926    2.6620 H   0  0  0  0  0  0  0  0  0  0  0  0
   -2.6246    3.5776    1.0180 H   0  0  0  0  0  0  0  0  0  0  0  0
   -3.7342    3.6765    2.3981 H   0  0  0  0  0  0  0  0  0  0  0  0
   -1.3352    1.1101    0.3372 N   0  0  0  0  0  0  0  0  0  0  0  0
   -0.1579    0.6093   -0.3265 C   0  0  2  0  0  0  0  0  0  0  0  0
    0.2378   -0.6860    0.3734 C   0  0  0  0  0  0  0  0  0  0  0  0
    0.0805   -1.7951   -0.1328 O   0  0  0  0  0  0  0  0  0  0  0  0
    1.0006    1.6124   -0.2857 C   0  0  0  0  0  0  0  0  0  0  0  0
    0.7255    2.8551   -1.0967 C   0  0  0  0  0  0  0  0  0  0  0  0
    0.2519    4.0485   -0.6023 C   0  0  0  0  0  0  0  0  0  0  0  0
    0.9073    3.0091   -2.4996 C   0  0  0  0  0  0  0  0  0  0  0  0
    0.1379    4.9229   -1.6497 N   0  0  0  0  0  0  0  0  0  0  0  0
    0.5314    4.3152   -2.8206 C   0  0  0  0  0  0  0  0  0  0  0  0
    1.3570    2.1600   -3.5303 C   0  0  0  0  0  0  0  0  0  0  0  0
    0.5830    4.8167   -4.1261 C   0  0  0  0  0  0  0  0  0  0  0  0
    1.4138    2.6480   -4.8408 C   0  0  0  0  0  0  0  0  0  0  0  0
    1.0323    3.9563   -5.1319 C   0  0  0  0  0  0  0  0  0  0  0  0
   -2.1183    1.4068   -0.2401 H   0  0  0  0  0  0  0  0  0  0  0  0
   -0.4528    0.3842   -1.3582 H   0  0  0  0  0  0  0  0  0  0  0  0
    1.9267    1.1386   -0.6385 H   0  0  0  0  0  0  0  0  0  0  0  0
    1.2088    1.9161    0.7488 H   0  0  0  0  0  0  0  0  0  0  0  0
   -0.0158    4.3544    0.3997 H   0  0  0  0  0  0  0  0  0  0  0  0
   -0.1878    5.8767   -1.5749 H   0  0  0  0  0  0  0  0  0  0  0  0
    1.6570    1.1374   -3.3198 H   0  0  0  0  0  0  0  0  0  0  0  0
    0.2872    5.8353   -4.3534 H   0  0  0  0  0  0  0  0  0  0  0  0
    1.7593    1.9977   -5.6400 H   0  0  0  0  0  0  0  0  0  0  0  0
    1.0845    4.3146   -6.1567 H   0  0  0  0  0  0  0  0  0  0  0  0
    0.8313   -0.4504    1.6057 N   0  0  0  0  0  0  0  0  0  0  0  0
    1.3203   -1.5042    2.4655 C   0  0  2  0  0  0  0  0  0  0  0  0
    0.2161   -2.5429    2.6110 C   0  0  0  0  0  0  0  0  0  0  0  0
   -0.9721   -2.2896    2.4234 O   0  0  0  0  0  0  0  0  0  0  0  0
    1.7384   -0.9614    3.8231 C   0  0  0  0  0  0  0  0  0  0  0  0
    0.9268    0.5111    1.9191 H   0  0  0  0  0  0  0  0  0  0  0  0
    2.1804   -1.9535    1.9571 H   0  0  0  0  0  0  0  0  0  0  0  0
    0.8897   -0.5073    4.3474 H   0  0  0  0  0  0  0  0  0  0  0  0
    2.1353   -1.7563    4.4632 H   0  0  0  0  0  0  0  0  0  0  0  0
    2.5116   -0.1931    3.7145 H   0  0  0  0  0  0  0  0  0  0  0  0
    0.7089   -3.7751    3.0171 N   0  0  0  0  0  0  0  0  0  0  0  0
   -0.1423   -4.9209    3.2379 C   0  0  0  0  0  0  0  0  0  0  0  0
    1.7105   -3.8999    3.1305 H   0  0  0  0  0  0  0  0  0  0  0  0
   -0.4405   -4.9583    4.2960 H   0  0  0  0  0  0  0  0  0  0  0  0
   -1.0395   -4.8379    2.6070 H   0  0  0  0  0  0  0  0  0  0  0  0
    0.4048   -5.8393    2.9785 H   0  0  0  0  0  0  0  0  0  0  0  0
 29 30  2  0  0  0  0
 27 29  1  0  0  0  0
 28 30  1  0  0  0  0
 24 27  2  0  0  0  0
 26 28  2  0  0  0  0
 22 23  2  0  0  0  0
 23 25  1  0  0  0  0
 22 24  1  0  0  0  0
 24 26  1  0  0  0  0
 21 22  1  0  0  0  0
 25 26  1  0  0  0  0
  1  3  1  0  0  0  0
  1  7  1  0  0  0  0
  1  2  2  0  0  0  0
 42 43  1  0  0  0  0
 43 51  1  0  0  0  0
 43 44  2  0  0  0  0
  8  9  1  0  0  0  0
  9 17  1  0  0  0  0
  9 10  2  0  0  0  0
 18 19  1  0  0  0  0
 19 41  1  0  0  0  0
 19 20  2  0  0  0  0
 42 45  1  0  0  0  0
  8 11  1  0  0  0  0
 51 52  1  0  0  0  0
 18 21  1  0  0  0  0
 41 42  1  0  0  0  0
  7  8  1  0  0  0  0
 17 18  1  0  0  0  0
 29 39  1  0  0  0  0
 30 40  1  0  0  0  0
 27 37  1  0  0  0  0
 28 38  1  0  0  0  0
 23 35  1  0  0  0  0
  3  4  1  0  0  0  0
  3  5  1  0  0  0  0
  3  6  1  0  0  0  0
 45 48  1  0  0  0  0
 45 49  1  0  0  0  0
 45 50  1  0  0  0  0
 11 14  1  0  0  0  0
 11 15  1  0  0  0  0
 11 16  1  0  0  0  0
 52 54  1  0  0  0  0
 52 55  1  0  0  0  0
 52 56  1  0  0  0  0
 21 33  1  0  0  0  0
 21 34  1  0  0  0  0
 42 47  1  0  0  0  0
  8 13  1  0  0  0  0
 18 32  1  0  0  0  0
 25 36  1  0  0  0  0
 51 53  1  0  0  0  0
  7 12  1  0  0  0  0
 41 46  1  0  0  0  0
 17 31  1  0  0  0  0
M  END
$$$$

  -OEChem-05262214473D

 56 57  0     1  0  0  0  0  0999 V2000
   -2.2900    0.3401    4.1553 C   0  0  0  0  0  0  0  0  0  0  0  0
   -1.3426   -0.2746    3.6796 O   0  0  0  0  0  0  0  0  0  0  0  0
   -2.7219    0.0577    5.5560 C   0  0  0  0  0  0  0  0  0  0  0  0
   -3.4815   -0.7386    5.6094 H   0  0  0  0  0  0  0  0  0  0  0  0
   -1.8906   -0.2899    6.1903 H   0  0  0  0  0  0  0  0  0  0  0  0
   -3.1599    0.9126    6.0956 H   0  0  0  0  0  0  0  0  0  0  0  0
   -3.0397    1.3125    3.5142 N   0  0  0  0  0  0  0  0  0  0  0  0
   -2.7928    1.7385    2.1618 C   0  0  2  0  0  0  0  0  0  0  0  0
   -1.4579    1.1532    1.7206 C   0  0  0  0  0  0  0  0  0  0  0  0
   -0.5858    0.8004    2.5118 O   0  0  0  0  0  0  0  0  0  0  0  0
   -2.7841    3.2553    2.0523 C   0  0  0  0  0  0  0  0  0  0  0  0
   -3.8047    1.7484    4.0260 H   0  0  0  0  0  0  0  0  0  0  0  0
   -3.5969    1.3201    1.5466 H   0  0  0  0  0  0  0  0  0  0  0  0
   -1.9850    3.6926    2.6620 H   0  0  0  0  0  0  0  0  0  0  0  0
   -2.6246    3.5776    1.0180 H   0  0  0  0  0  0  0  0  0  0  0  0
   -3.7342    3.6765    2.3981 H   0  0  0  0  0  0  0  0  0  0  0  0
   -1.3352    1.1101    0.3372 N   0  0  0  0  0  0  0  0  0  0  0  0
   -0.1579    0.6093   -0.3265 C   0  0  2  0  0  0  0  0  0  0  0  0
    0.2378   -0.6860    0.3734 C   0  0  0  0  0  0  0  0  0  0  0  0
    0.3349   -1.7613   -0.2141 O   0  0  0  0  0  0  0  0  0  0  0  0
    1.0006    1.6124   -0.2857 C   0  0  0  0  0  0  0  0  0  0  0  0
    0.7255    2.8551   -1.0967 C   0  0  0  0  0  0  0  0  0  0  0  0
    0.2519    4.0485   -0.6023 C   0  0  0  0  0  0  0  0  0  0  0  0
    0.9073    3.0091   -2.4996 C   0  0  0  0  0  0  0  0  0  0  0  0
    0.1379    4.9229   -1.6497 N   0  0  0  0  0  0  0  0  0  0  0  0
    0.5314    4.3152   -2.8206 C   0  0  0  0  0  0  0  0  0  0  0  0
    1.3570    2.1600   -3.5303 C   0  0  0  0  0  0  0  0  0  0  0  0
    0.5830    4.8167   -4.1261 C   0  0  0  0  0  0  0  0  0  0  0  0
    1.4138    2.6480   -4.8408 C   0  0  0  0  0  0  0  0  0  0  0  0
    1.0323    3.9563   -5.1319 C   0  0  0  0  0  0  0  0  0  0  0  0
   -2.1183    1.4068   -0.2401 H   0  0  0  0  0  0  0  0  0  0  0  0
   -0.4528    0.3842   -1.3582 H   0  0  0  0  0  0  0  0  0  0  0  0
    1.9267    1.1386   -0.6385 H   0  0  0  0  0  0  0  0  0  0  0  0
    1.2088    1.9161    0.7488 H   0  0  0  0  0  0  0  0  0  0  0  0
   -0.0158    4.3544    0.3997 H   0  0  0  0  0  0  0  0  0  0  0  0
   -0.1878    5.8767   -1.5749 H   0  0  0  0  0  0  0  0  0  0  0  0
    1.6570    1.1374   -3.3198 H   0  0  0  0  0  0  0  0  0  0  0  0
    0.2872    5.8353   -4.3534 H   0  0  0  0  0  0  0  0  0  0  0  0
    1.7593    1.9977   -5.6400 H   0  0  0  0  0  0  0  0  0  0  0  0
    1.0845    4.3146   -6.1567 H   0  0  0  0  0  0  0  0  0  0  0  0
    0.5167   -0.4857    1.7182 N   0  0  0  0  0  0  0  0  0  0  0  0
    0.9377   -1.5443    2.6076 C   0  0  2  0  0  0  0  0  0  0  0  0
   -0.0316   -2.7077    2.4459 C   0  0  0  0  0  0  0  0  0  0  0  0
   -1.1735   -2.5740    2.0109 O   0  0  0  0  0  0  0  0  0  0  0  0
    0.9809   -1.0693    4.0516 C   0  0  0  0  0  0  0  0  0  0  0  0
    0.4200    0.4521    2.0964 H   0  0  0  0  0  0  0  0  0  0  0  0
    1.9370   -1.8527    2.2814 H   0  0  0  0  0  0  0  0  0  0  0  0
   -0.0114   -0.7561    4.3962 H   0  0  0  0  0  0  0  0  0  0  0  0
    1.3274   -1.8640    4.7205 H   0  0  0  0  0  0  0  0  0  0  0  0
    1.6559   -0.2135    4.1604 H   0  0  0  0  0  0  0  0  0  0  0  0
    0.5135   -3.9061    2.8851 N   0  0  0  0  0  0  0  0  0  0  0  0
   -0.2135   -5.1535    2.8476 C   0  0  0  0  0  0  0  0  0  0  0  0
    1.4747   -3.9274    3.2130 H   0  0  0  0  0  0  0  0  0  0  0  0
   -0.7259   -5.3090    3.8085 H   0  0  0  0  0  0  0  0  0  0  0  0
   -0.9565   -5.1205    2.0371 H   0  0  0  0  0  0  0  0  0  0  0  0
    0.4882   -5.9815    2.6682 H   0  0  0  0  0  0  0  0  0  0  0  0
 29 30  2  0  0  0  0
 27 29  1  0  0  0  0
 28 30  1  0  0  0  0
 24 27  2  0  0  0  0
 26 28  2  0  0  0  0
 22 23  2  0  0  0  0
 23 25  1  0  0  0  0
 22 24  1  0  0  0  0
 24 26  1  0  0  0  0
 21 22  1  0  0  0  0
 25 26  1  0  0  0  0
  1  3  1  0  0  0  0
  1  7  1  0  0  0  0
  1  2  2  0  0  0  0
 42 43  1  0  0  0  0
 43 51  1  0  0  0  0
 43 44  2  0  0  0  0
  8  9  1  0  0  0  0
  9 17  1  0  0  0  0
  9 10  2  0  0  0  0
 18 19  1  0  0  0  0
 19 41  1  0  0  0  0
 19 20  2  0  0  0  0
 42 45  1  0  0  0  0
  8 11  1  0  0  0  0
 51 52  1  0  0  0  0
 18 21  1  0  0  0  0
 41 42  1  0  0  0  0
  7  8  1  0  0  0  0
 17 18  1  0  0  0  0
 29 39  1  0  0  0  0
 30 40  1  0  0  0  0
 27 37  1  0  0  0  0
 28 38  1  0  0  0  0
 23 35  1  0  0  0  0
  3  4  1  0  0  0  0
  3  5  1  0  0  0  0
  3  6  1  0  0  0  0
 45 48  1  0  0  0  0
 45 49  1  0  0  0  0
 45 50  1  0  0  0  0
 11 14  1  0  0  0  0
 11 15  1  0  0  0  0
 11 16  1  0  0  0  0
 52 54  1  0  0  0  0
 52 55  1  0  0  0  0
 52 56  1  0  0  0  0
 21 33  1  0  0  0  0
 21 34  1  0  0  0  0
 42 47  1  0  0  0  0
  8 13  1  0  0  0  0
 18 32  1  0  0  0  0
 25 36  1  0  0  0  0
 51 53  1  0  0  0  0
  7 12  1  0  0  0  0
 41 46  1  0  0  0  0
 17 31  1  0  0  0  0
M  END
$$$$

  -OEChem-05262214473D

 56 57  0     1  0  0  0  0  0999 V2000
   -2.2900    0.3401    4.1553 C   0  0  0  0  0  0  0  0  0  0  0  0
   -1.3426   -0.2746    3.6796 O   0  0  0  0  0  0  0  0  0  0  0  0
   -2.7219    0.0577    5.5560 C   0  0  0  0  0  0  0  0  0  0  0  0
   -3.4815   -0.7386    5.6094 H   0  0  0  0  0  0  0  0  0  0  0  0
   -1.8906   -0.2899    6.1903 H   0  0  0  0  0  0  0  0  0  0  0  0
   -3.1599    0.9126    6.0956 H   0  0  0  0  0  0  0  0  0  0  0  0
   -3.0397    1.3125    3.5142 N   0  0  0  0  0  0  0  0  0  0  0  0
   -2.7928    1.7385    2.1618 C   0  0  2  0  0  0  0  0  0  0  0  0
   -1.4579    1.1532    1.7206 C   0  0  0  0  0  0  0  0  0  0  0  0
   -0.5858    0.8004    2.5118 O   0  0  0  0  0  0  0  0  0  0  0  0
   -2.7841    3.2553    2.0523 C   0  0  0  0  0  0  0  0  0  0  0  0
   -3.8047    1.7484    4.0260 H   0  0  0  0  0  0  0  0  0  0  0  0
   -3.5969    1.3201    1.5466 H   0  0  0  0  0  0  0  0  0  0  0  0
   -1.9850    3.6926    2.6620 H   0  0  0  0  0  0  0  0  0  0  0  0
   -2.6246    3.5776    1.0180 H   0  0  0  0  0  0  0  0  0  0  0  0
   -3.7342    3.6765    2.3981 H   0  0  0  0  0  0  0  0  0  0  0  0
   -1.3352    1.1101    0.3372 N   0  0  0  0  0  0  0  0  0  0  0  0
   -0.1579    0.6093   -0.3265 C   0  0  2  0  0  0  0  0  0  0  0  0
    0.2378   -0.6860    0.3734 C   0  0  0  0  0  0  0  0  0  0  0  0
    0.5944   -1.6931   -0.2345 O   0  0  0  0  0  0  0  0  0  0  0  0
    1.0006    1.6124   -0.2857 C   0  0  0  0  0  0  0  0  0  0  0  0
    0.7255    2.8551   -1.0967 C   0  0  0  0  0  0  0  0  0  0  0  0
    0.2519    4.0485   -0.6023 C   0  0  0  0  0  0  0  0  0  0  0  0
    0.9073    3.0091   -2.4996 C   0  0  0  0  0  0  0  0  0  0  0  0
    0.1379    4.9229   -1.6497 N   0  0  0  0  0  0  0  0  0  0  0  0
    0.5314    4.3152   -2.8206 C   0  0  0  0  0  0  0  0  0  0  0  0
    1.3570    2.1600   -3.5303 C   0  0  0  0  0  0  0  0  0  0  0  0
    0.5830    4.8167   -4.1261 C   0  0  0  0  0  0  0  0  0  0  0  0
    1.4138    2.6480   -4.8408 C   0  0  0  0  0  0  0  0  0  0  0  0
    1.0323    3.9563   -5.1319 C   0  0  0  0  0  0  0  0  0  0  0  0
   -2.1183    1.4068   -0.2401 H   0  0  0  0  0  0  0  0  0  0  0  0
   -0.4528    0.3842   -1.3582 H   0  0  0  0  0  0  0  0  0  0  0  0
    1.9267    1.1386   -0.6385 H   0  0  0  0  0  0  0  0  0  0  0  0
    1.2088    1.9161    0.7488 H   0  0  0  0  0  0  0  0  0  0  0  0
   -0.0158    4.3544    0.3997 H   0  0  0  0  0  0  0  0  0  0  0  0
   -0.1878    5.8767   -1.5749 H   0  0  0  0  0  0  0  0  0  0  0  0
    1.6570    1.1374   -3.3198 H   0  0  0  0  0  0  0  0  0  0  0  0
    0.2872    5.8353   -4.3534 H   0  0  0  0  0  0  0  0  0  0  0  0
    1.7593    1.9977   -5.6400 H   0  0  0  0  0  0  0  0  0  0  0  0
    1.0845    4.3146   -6.1567 H   0  0  0  0  0  0  0  0  0  0  0  0
    0.1922   -0.5648    1.7553 N   0  0  0  0  0  0  0  0  0  0  0  0
    0.5417   -1.6380    2.6580 C   0  0  2  0  0  0  0  0  0  0  0  0
   -0.2150   -2.8853    2.2209 C   0  0  0  0  0  0  0  0  0  0  0  0
   -1.2436   -2.8449    1.5490 O   0  0  0  0  0  0  0  0  0  0  0  0
    0.2118   -1.2789    4.0985 C   0  0  0  0  0  0  0  0  0  0  0  0
   -0.1015    0.3229    2.1522 H   0  0  0  0  0  0  0  0  0  0  0  0
    1.6185   -1.8060    2.5477 H   0  0  0  0  0  0  0  0  0  0  0  0
   -0.8629   -1.1069    4.2284 H   0  0  0  0  0  0  0  0  0  0  0  0
    0.5033   -2.0814    4.7841 H   0  0  0  0  0  0  0  0  0  0  0  0
    0.7337   -0.3649    4.4016 H   0  0  0  0  0  0  0  0  0  0  0  0
    0.3694   -4.0470    2.7058 N   0  0  0  0  0  0  0  0  0  0  0  0
   -0.1688   -5.3605    2.4392 C   0  0  0  0  0  0  0  0  0  0  0  0
    1.2319   -3.9875    3.2390 H   0  0  0  0  0  0  0  0  0  0  0  0
   -0.8526   -5.6488    3.2512 H   0  0  0  0  0  0  0  0  0  0  0  0
   -0.7175   -5.3452    1.4860 H   0  0  0  0  0  0  0  0  0  0  0  0
    0.6539   -6.0881    2.3772 H   0  0  0  0  0  0  0  0  0  0  0  0
 29 30  2  0  0  0  0
 27 29  1  0  0  0  0
 28 30  1  0  0  0  0
 24 27  2  0  0  0  0
 26 28  2  0  0  0  0
 22 23  2  0  0  0  0
 23 25  1  0  0  0  0
 22 24  1  0  0  0  0
 24 26  1  0  0  0  0
 21 22  1  0  0  0  0
 25 26  1  0  0  0  0
  1  3  1  0  0  0  0
  1  7  1  0  0  0  0
  1  2  2  0  0  0  0
 42 43  1  0  0  0  0
 43 51  1  0  0  0  0
 43 44  2  0  0  0  0
  8  9  1  0  0  0  0
  9 17  1  0  0  0  0
  9 10  2  0  0  0  0
 18 19  1  0  0  0  0
 19 41  1  0  0  0  0
 19 20  2  0  0  0  0
 42 45  1  0  0  0  0
  8 11  1  0  0  0  0
 51 52  1  0  0  0  0
 18 21  1  0  0  0  0
 41 42  1  0  0  0  0
  7  8  1  0  0  0  0
 17 18  1  0  0  0  0
 29 39  1  0  0  0  0
 30 40  1  0  0  0  0
 27 37  1  0  0  0  0
 28 38  1  0  0  0  0
 23 35  1  0  0  0  0
  3  4  1  0  0  0  0
  3  5  1  0  0  0  0
  3  6  1  0  0  0  0
 45 48  1  0  0  0  0
 45 49  1  0  0  0  0
 45 50  1  0  0  0  0
 11 14  1  0  0  0  0
 11 15  1  0  0  0  0
 11 16  1  0  0  0  0
 52 54  1  0  0  0  0
 52 55  1  0  0  0  0
 52 56  1  0  0  0  0
 21 33  1  0  0  0  0
 21 34  1  0  0  0  0
 42 47  1  0  0  0  0
  8 13  1  0  0  0  0
 18 32  1  0  0  0  0
 25 36  1  0  0  0  0
 51 53  1  0  0  0  0
  7 12  1  0  0  0  0
 41 46  1  0  0  0  0
 17 31  1  0  0  0  0
M  END
$$$$

  -OEChem-05262214473D

 56 57  0     1  0  0  0  0  0999 V2000
   -2.2900    0.3401    4.1553 C   0  0  0  0  0  0  0  0  0  0  0  0
   -1.3426   -0.2746    3.6796 O   0  0  0  0  0  0  0  0  0  0  0  0
   -2.7219    0.0577    5.5560 C   0  0  0  0  0  0  0  0  0  0  0  0
   -3.4815   -0.7386    5.6094 H   0  0  0  0  0  0  0  0  0  0  0  0
   -1.8906   -0.2899    6.1903 H   0  0  0  0  0  0  0  0  0  0  0  0
   -3.1599    0.9126    6.0956 H   0  0  0  0  0  0  0  0  0  0  0  0
   -3.0397    1.3125    3.5142 N   0  0  0  0  0  0  0  0  0  0  0  0
   -2.7928    1.7385    2.1618 C   0  0  2  0  0  0  0  0  0  0  0  0
   -1.4579    1.1532    1.7206 C   0  0  0  0  0  0  0  0  0  0  0  0
   -0.5858    0.8004    2.5118 O   0  0  0  0  0  0  0  0  0  0  0  0
   -2.7841    3.2553    2.0523 C   0  0  0  0  0  0  0  0  0  0  0  0
   -3.8047    1.7484    4.0260 H   0  0  0  0  0  0  0  0  0  0  0  0
   -3.5969    1.3201    1.5466 H   0  0  0  0  0  0  0  0  0  0  0  0
   -1.9850    3.6926    2.6620 H   0  0  0  0  0  0  0  0  0  0  0  0
   -2.6246    3.5776    1.0180 H   0  0  0  0  0  0  0  0  0  0  0  0
   -3.7342    3.6765    2.3981 H   0  0  0  0  0  0  0  0  0  0  0  0
   -1.3352    1.1101    0.3372 N   0  0  0  0  0  0  0  0  0  0  0  0
   -0.1579    0.6093   -0.3265 C   0  0  2  0  0  0  0  0  0  0  0  0
    0.2378   -0.6860    0.3734 C   0  0  0  0  0  0  0  0  0  0  0  0
    0.8415   -1.5949   -0.1925 O   0  0  0  0  0  0  0  0  0  0  0  0
    1.0006    1.6124   -0.2857 C   0  0  0  0  0  0  0  0  0  0  0  0
    0.7255    2.8551   -1.0967 C   0  0  0  0  0  0  0  0  0  0  0  0
    0.2519    4.0485   -0.6023 C   0  0  0  0  0  0  0  0  0  0  0  0
    0.9073    3.0091   -2.4996 C   0  0  0  0  0  0  0  0  0  0  0  0
    0.1379    4.9229   -1.6497 N   0  0  0  0  0  0  0  0  0  0  0  0
    0.5314    4.3152   -2.8206 C   0  0  0  0  0  0  0  0  0  0  0  0
    1.3570    2.1600   -3.5303 C   0  0  0  0  0  0  0  0  0  0  0  0
    0.5830    4.8167   -4.1261 C   0  0  0  0  0  0  0  0  0  0  0  0
    1.4138    2.6480   -4.8408 C   0  0  0  0  0  0  0  0  0  0  0  0
    1.0323    3.9563   -5.1319 C   0  0  0  0  0  0  0  0  0  0  0  0
   -2.1183    1.4068   -0.2401 H   0  0  0  0  0  0  0  0  0  0  0  0
   -0.4528    0.3842   -1.3582 H   0  0  0  0  0  0  0  0  0  0  0  0
    1.9267    1.1386   -0.6385 H   0  0  0  0  0  0  0  0  0  0  0  0
    1.2088    1.9161    0.7488 H   0  0  0  0  0  0  0  0  0  0  0  0
   -0.0158    4.3544    0.3997 H   0  0  0  0  0  0  0  0  0  0  0  0
   -0.1878    5.8767   -1.5749 H   0  0  0  0  0  0  0  0  0  0  0  0
    1.6570    1.1374   -3.3198 H   0  0  0  0  0  0  0  0  0  0  0  0
    0.2872    5.8353   -4.3534 H   0  0  0  0  0  0  0  0  0  0  0  0
    1.7593    1.9977   -5.6400 H   0  0  0  0  0  0  0  0  0  0  0  0
    1.0845    4.3146   -6.1567 H   0  0  0  0  0  0  0  0  0  0  0  0
   -0.1199   -0.6822    1.7145 N   0  0  0  0  0  0  0  0  0  0  0  0
    0.1592   -1.7790    2.6133 C   0  0  2  0  0  0  0  0  0  0  0  0
   -0.3216   -3.0635    1.9513 C   0  0  0  0  0  0  0  0  0  0  0  0
   -1.1776   -3.0839    1.0693 O   0  0  0  0  0  0  0  0  0  0  0  0
   -0.5165   -1.5759    3.9605 C   0  0  0  0  0  0  0  0  0  0  0  0
   -0.6021    0.1325    2.0827 H   0  0  0  0  0  0  0  0  0  0  0  0
    1.2468   -1.8167    2.7382 H   0  0  0  0  0  0  0  0  0  0  0  0
   -1.6069   -1.5356    3.8556 H   0  0  0  0  0  0  0  0  0  0  0  0
   -0.2809   -2.3935    4.6498 H   0  0  0  0  0  0  0  0  0  0  0  0
   -0.1921   -0.6368    4.4217 H   0  0  0  0  0  0  0  0  0  0  0  0
    0.2864   -4.1882    2.4915 N   0  0  0  0  0  0  0  0  0  0  0  0
   -0.0112   -5.5277    2.0408 C   0  0  0  0  0  0  0  0  0  0  0  0
    0.9989   -4.0761    3.2067 H   0  0  0  0  0  0  0  0  0  0  0  0
   -0.8122   -5.9547    2.6622 H   0  0  0  0  0  0  0  0  0  0  0  0
   -0.3386   -5.4969    0.9911 H   0  0  0  0  0  0  0  0  0  0  0  0
    0.8906   -6.1518    2.1255 H   0  0  0  0  0  0  0  0  0  0  0  0
 29 30  2  0  0  0  0
 27 29  1  0  0  0  0
 28 30  1  0  0  0  0
 24 27  2  0  0  0  0
 26 28  2  0  0  0  0
 22 23  2  0  0  0  0
 23 25  1  0  0  0  0
 22 24  1  0  0  0  0
 24 26  1  0  0  0  0
 21 22  1  0  0  0  0
 25 26  1  0  0  0  0
  1  3  1  0  0  0  0
  1  7  1  0  0  0  0
  1  2  2  0  0  0  0
 42 43  1  0  0  0  0
 43 51  1  0  0  0  0
 43 44  2  0  0  0  0
  8  9  1  0  0  0  0
  9 17  1  0  0  0  0
  9 10  2  0  0  0  0
 18 19  1  0  0  0  0
 19 41  1  0  0  0  0
 19 20  2  0  0  0  0
 42 45  1  0  0  0  0
  8 11  1  0  0  0  0
 51 52  1  0  0  0  0
 18 21  1  0  0  0  0
 41 42  1  0  0  0  0
  7  8  1  0  0  0  0
 17 18  1  0  0  0  0
 29 39  1  0  0  0  0
 30 40  1  0  0  0  0
 27 37  1  0  0  0  0
 28 38  1  0  0  0  0
 23 35  1  0  0  0  0
  3  4  1  0  0  0  0
  3  5  1  0  0  0  0
  3  6  1  0  0  0  0
 45 48  1  0  0  0  0
 45 49  1  0  0  0  0
 45 50  1  0  0  0  0
 11 14  1  0  0  0  0
 11 15  1  0  0  0  0
 11 16  1  0  0  0  0
 52 54  1  0  0  0  0
 52 55  1  0  0  0  0
 52 56  1  0  0  0  0
 21 33  1  0  0  0  0
 21 34  1  0  0  0  0
 42 47  1  0  0  0  0
  8 13  1  0  0  0  0
 18 32  1  0  0  0  0
 25 36  1  0  0  0  0
 51 53  1  0  0  0  0
  7 12  1  0  0  0  0
 41 46  1  0  0  0  0
 17 31  1  0  0  0  0
M  END
$$$$

  -OEChem-05262214473D

 56 57  0     1  0  0  0  0  0999 V2000
   -2.2900    0.3401    4.1553 C   0  0  0  0  0  0  0  0  0  0  0  0
   -1.3426   -0.2746    3.6796 O   0  0  0  0  0  0  0  0  0  0  0  0
   -2.7219    0.0577    5.5560 C   0  0  0  0  0  0  0  0  0  0  0  0
   -3.4815   -0.7386    5.6094 H   0  0  0  0  0  0  0  0  0  0  0  0
   -1.8906   -0.2899    6.1903 H   0  0  0  0  0  0  0  0  0  0  0  0
   -3.1599    0.9126    6.0956 H   0  0  0  0  0  0  0  0  0  0  0  0
   -3.0397    1.3125    3.5142 N   0  0  0  0  0  0  0  0  0  0  0  0
   -2.7928    1.7385    2.1618 C   0  0  2  0  0  0  0  0  0  0  0  0
   -1.4579    1.1532    1.7206 C   0  0  0  0  0  0  0  0  0  0  0  0
   -0.5858    0.8004    2.5118 O   0  0  0  0  0  0  0  0  0  0  0  0
   -2.7841    3.2553    2.0523 C   0  0  0  0  0  0  0  0  0  0  0  0
   -3.8047    1.7484    4.0260 H   0  0  0  0  0  0  0  0  0  0  0  0
   -3.5969    1.3201    1.5466 H   0  0  0  0  0  0  0  0  0  0  0  0
   -1.9850    3.6926    2.6620 H   0  0  0  0  0  0  0  0  0  0  0  0
   -2.6246    3.5776    1.0180 H   0  0  0  0  0  0  0  0  0  0  0  0
   -3.7342    3.6765    2.3981 H   0  0  0  0  0  0  0  0  0  0  0  0
   -1.3352    1.1101    0.3372 N   0  0  0  0  0  0  0  0  0  0  0  0
   -0.1579    0.6093   -0.3265 C   0  0  2  0  0  0  0  0  0  0  0  0
    0.2378   -0.6860    0.3734 C   0  0  0  0  0  0  0  0  0  0  0  0
    1.0593   -1.4735   -0.0911 O   0  0  0  0  0  0  0  0  0  0  0  0
    1.0006    1.6124   -0.2857 C   0  0  0  0  0  0  0  0  0  0  0  0
    0.7255    2.8551   -1.0967 C   0  0  0  0  0  0  0  0  0  0  0  0
    0.2519    4.0485   -0.6023 C   0  0  0  0  0  0  0  0  0  0  0  0
    0.9073    3.0091   -2.4996 C   0  0  0  0  0  0  0  0  0  0  0  0
    0.1379    4.9229   -1.6497 N   0  0  0  0  0  0  0  0  0  0  0  0
    0.5314    4.3152   -2.8206 C   0  0  0  0  0  0  0  0  0  0  0  0
    1.3570    2.1600   -3.5303 C   0  0  0  0  0  0  0  0  0  0  0  0
    0.5830    4.8167   -4.1261 C   0  0  0  0  0  0  0  0  0  0  0  0
    1.4138    2.6480   -4.8408 C   0  0  0  0  0  0  0  0  0  0  0  0
    1.0323    3.9563   -5.1319 C   0  0  0  0  0  0  0  0  0  0  0  0
   -2.1183    1.4068   -0.2401 H   0  0  0  0  0  0  0  0  0  0  0  0
   -0.4528    0.3842   -1.3582 H   0  0  0  0  0  0  0  0  0  0  0  0
    1.9267    1.1386   -0.6385 H   0  0  0  0  0  0  0  0  0  0  0  0
    1.2088    1.9161    0.7488 H   0  0  0  0  0  0  0  0  0  0  0  0
   -0.0158    4.3544    0.3997 H   0  0  0  0  0  0  0  0  0  0  0  0
   -0.1878    5.8767   -1.5749 H   0  0  0  0  0  0  0  0  0  0  0  0
    1.6570    1.1374   -3.3198 H   0  0  0  0  0  0  0  0  0  0  0  0
    0.2872    5.8353   -4.3534 H   0  0  0  0  0  0  0  0  0  0  0  0
    1.7593    1.9977   -5.6400 H   0  0  0  0  0  0  0  0  0  0  0  0
    1.0845    4.3146   -6.1567 H   0  0  0  0  0  0  0  0  0  0  0  0
   -0.3985   -0.8299    1.5985 N   0  0  0  0  0  0  0  0  0  0  0  0
   -0.1838   -1.9576    2.4766 C   0  0  2  0  0  0  0  0  0  0  0  0
   -0.3440   -3.2302    1.6555 C   0  0  0  0  0  0  0  0  0  0  0  0
   -0.9799   -3.2747    0.6044 O   0  0  0  0  0  0  0  0  0  0  0  0
   -1.1544   -1.9401    3.6472 C   0  0  0  0  0  0  0  0  0  0  0  0
   -1.0477   -0.1063    1.8928 H   0  0  0  0  0  0  0  0  0  0  0  0
    0.8472   -1.8839    2.8396 H   0  0  0  0  0  0  0  0  0  0  0  0
   -2.1925   -2.0130    3.3030 H   0  0  0  0  0  0  0  0  0  0  0  0
   -0.9717   -2.7791    4.3267 H   0  0  0  0  0  0  0  0  0  0  0  0
   -1.0584   -1.0109    4.2192 H   0  0  0  0  0  0  0  0  0  0  0  0
    0.2701   -4.3200    2.2567 N   0  0  0  0  0  0  0  0  0  0  0  0
    0.2484   -5.6437    1.6793 C   0  0  0  0  0  0  0  0  0  0  0  0
    0.7914   -4.1873    3.1183 H   0  0  0  0  0  0  0  0  0  0  0  0
   -0.6073   -6.2058    2.0816 H   0  0  0  0  0  0  0  0  0  0  0  0
    0.1541   -5.5652    0.5862 H   0  0  0  0  0  0  0  0  0  0  0  0
    1.1822   -6.1683    1.9301 H   0  0  0  0  0  0  0  0  0  0  0  0
 29 30  2  0  0  0  0
 27 29  1  0  0  0  0
 28 30  1  0  0  0  0
 24 27  2  0  0  0  0
 26 28  2  0  0  0  0
 22 23  2  0  0  0  0
 23 25  1  0  0  0  0
 22 24  1  0  0  0  0
 24 26  1  0  0  0  0
 21 22  1  0  0  0  0
 25 26  1  0  0  0  0
  1  3  1  0  0  0  0
  1  7  1  0  0  0  0
  1  2  2  0  0  0  0
 42 43  1  0  0  0  0
 43 51  1  0  0  0  0
 43 44  2  0  0  0  0
  8  9  1  0  0  0  0
  9 17  1  0  0  0  0
  9 10  2  0  0  0  0
 18 19  1  0  0  0  0
 19 41  1  0  0  0  0
 19 20  2  0  0  0  0
 42 45  1  0  0  0  0
  8 11  1  0  0  0  0
 51 52  1  0  0  0  0
 18 21  1  0  0  0  0
 41 42  1  0  0  0  0
  7  8  1  0  0  0  0
 17 18  1  0  0  0  0
 29 39  1  0  0  0  0
 30 40  1  0  0  0  0
 27 37  1  0  0  0  0
 28 38  1  0  0  0  0
 23 35  1  0  0  0  0
  3  4  1  0  0  0  0
  3  5  1  0  0  0  0
  3  6  1  0  0  0  0
 45 48  1  0  0  0  0
 45 49  1  0  0  0  0
 45 50  1  0  0  0  0
 11 14  1  0  0  0  0
 11 15  1  0  0  0  0
 11 16  1  0  0  0  0
 52 54  1  0  0  0  0
 52 55  1  0  0  0  0
 52 56  1  0  0  0  0
 21 33  1  0  0  0  0
 21 34  1  0  0  0  0
 42 47  1  0  0  0  0
  8 13  1  0  0  0  0
 18 32  1  0  0  0  0
 25 36  1  0  0  0  0
 51 53  1  0  0  0  0
  7 12  1  0  0  0  0
 41 46  1  0  0  0  0
 17 31  1  0  0  0  0
M  END
$$$$

  -OEChem-05262214473D

 56 57  0     1  0  0  0  0  0999 V2000
   -2.2900    0.3401    4.1553 C   0  0  0  0  0  0  0  0  0  0  0  0
   -1.3426   -0.2746    3.6796 O   0  0  0  0  0  0  0  0  0  0  0  0
   -2.7219    0.0577    5.5560 C   0  0  0  0  0  0  0  0  0  0  0  0
   -3.4815   -0.7386    5.6094 H   0  0  0  0  0  0  0  0  0  0  0  0
   -1.8906   -0.2899    6.1903 H   0  0  0  0  0  0  0  0  0  0  0  0
   -3.1599    0.9126    6.0956 H   0  0  0  0  0  0  0  0  0  0  0  0
   -3.0397    1.3125    3.5142 N   0  0  0  0  0  0  0  0  0  0  0  0
   -2.7928    1.7385    2.1618 C   0  0  2  0  0  0  0  0  0  0  0  0
   -1.4579    1.1532    1.7206 C   0  0  0  0  0  0  0  0  0  0  0  0
   -0.5858    0.8004    2.5118 O   0  0  0  0  0  0  0  0  0  0  0  0
   -2.7841    3.2553    2.0523 C   0  0  0  0  0  0  0  0  0  0  0  0
   -3.8047    1.7484    4.0260 H   0  0  0  0  0  0  0  0  0  0  0  0
   -3.5969    1.3201    1.5466 H   0  0  0  0  0  0  0  0  0  0  0  0
   -1.9850    3.6926    2.6620 H   0  0  0  0  0  0  0  0  0  0  0  0
   -2.6246    3.5776    1.0180 H   0  0  0  0  0  0  0  0  0  0  0  0
   -3.7342    3.6765    2.3981 H   0  0  0  0  0  0  0  0  0  0  0  0
   -1.3352    1.1101    0.3372 N   0  0  0  0  0  0  0  0  0  0  0  0
   -0.1579    0.6093   -0.3265 C   0  0  2  0  0  0  0  0  0  0  0  0
    0.2378   -0.6860    0.3734 C   0  0  0  0  0  0  0  0  0  0  0  0
    1.2330   -1.3373    0.0630 O   0  0  0  0  0  0  0  0  0  0  0  0
    1.0006    1.6124   -0.2857 C   0  0  0  0  0  0  0  0  0  0  0  0
    0.7255    2.8551   -1.0967 C   0  0  0  0  0  0  0  0  0  0  0  0
    0.2519    4.0485   -0.6023 C   0  0  0  0  0  0  0  0  0  0  0  0
    0.9073    3.0091   -2.4996 C   0  0  0  0  0  0  0  0  0  0  0  0
    0.1379    4.9229   -1.6497 N   0  0  0  0  0  0  0  0  0  0  0  0
    0.5314    4.3152   -2.8206 C   0  0  0  0  0  0  0  0  0  0  0  0
    1.3570    2.1600   -3.5303 C   0  0  0  0  0  0  0  0  0  0  0  0
    0.5830    4.8167   -4.1261 C   0  0  0  0  0  0  0  0  0  0  0  0
    1.4138    2.6480   -4.8408 C   0  0  0  0  0  0  0  0  0  0  0  0
    1.0323    3.9563   -5.1319 C   0  0  0  0  0  0  0  0  0  0  0  0
   -2.1183    1.4068   -0.2401 H   0  0  0  0  0  0  0  0  0  0  0  0
   -0.4528    0.3842   -1.3582 H   0  0  0  0  0  0  0  0  0  0  0  0
    1.9267    1.1386   -0.6385 H   0  0  0  0  0  0  0  0  0  0  0  0
    1.2088    1.9161    0.7488 H   0  0  0  0  0  0  0  0  0  0  0  0
   -0.0158    4.3544    0.3997 H   0  0  0  0  0  0  0  0  0  0  0  0
   -0.1878    5.8767   -1.5749 H   0  0  0  0  0  0  0  0  0  0  0  0
    1.6570    1.1374   -3.3198 H   0  0  0  0  0  0  0  0  0  0  0  0
    0.2872    5.8353   -4.3534 H   0  0  0  0  0  0  0  0  0  0  0  0
    1.7593    1.9977   -5.6400 H   0  0  0  0  0  0  0  0  0  0  0  0
    1.0845    4.3146   -6.1567 H   0  0  0  0  0  0  0  0  0  0  0  0
   -0.6245   -0.9980    1.4153 N   0  0  0  0  0  0  0  0  0  0  0  0
   -0.4637   -2.1617    2.2571 C   0  0  2  0  0  0  0  0  0  0  0  0
   -0.2809   -3.3740    1.3537 C   0  0  0  0  0  0  0  0  0  0  0  0
   -0.6640   -3.4043    0.1860 O   0  0  0  0  0  0  0  0  0  0  0  0
   -1.6584   -2.3466    3.1798 C   0  0  0  0  0  0  0  0  0  0  0  0
   -1.4081   -0.3771    1.5952 H   0  0  0  0  0  0  0  0  0  0  0  0
    0.4468   -2.0032    2.8453 H   0  0  0  0  0  0  0  0  0  0  0  0
   -2.5800   -2.5067    2.6084 H   0  0  0  0  0  0  0  0  0  0  0  0
   -1.5222   -3.2120    3.8367 H   0  0  0  0  0  0  0  0  0  0  0  0
   -1.8063   -1.4615    3.8080 H   0  0  0  0  0  0  0  0  0  0  0  0
    0.3217   -4.4335    2.0175 N   0  0  0  0  0  0  0  0  0  0  0  0
    0.5925   -5.7006    1.3795 C   0  0  0  0  0  0  0  0  0  0  0  0
    0.6236   -4.3133    2.9799 H   0  0  0  0  0  0  0  0  0  0  0  0
   -0.2518   -6.3850    1.5490 H   0  0  0  0  0  0  0  0  0  0  0  0
    0.7272   -5.5454    0.2988 H   0  0  0  0  0  0  0  0  0  0  0  0
    1.5087   -6.1365    1.8043 H   0  0  0  0  0  0  0  0  0  0  0  0
 29 30  2  0  0  0  0
 27 29  1  0  0  0  0
 28 30  1  0  0  0  0
 24 27  2  0  0  0  0
 26 28  2  0  0  0  0
 22 23  2  0  0  0  0
 23 25  1  0  0  0  0
 22 24  1  0  0  0  0
 24 26  1  0  0  0  0
 21 22  1  0  0  0  0
 25 26  1  0  0  0  0
  1  3  1  0  0  0  0
  1  7  1  0  0  0  0
  1  2  2  0  0  0  0
 42 43  1  0  0  0  0
 43 51  1  0  0  0  0
 43 44  2  0  0  0  0
  8  9  1  0  0  0  0
  9 17  1  0  0  0  0
  9 10  2  0  0  0  0
 18 19  1  0  0  0  0
 19 41  1  0  0  0  0
 19 20  2  0  0  0  0
 42 45  1  0  0  0  0
  8 11  1  0  0  0  0
 51 52  1  0  0  0  0
 18 21  1  0  0  0  0
 41 42  1  0  0  0  0
  7  8  1  0  0  0  0
 17 18  1  0  0  0  0
 29 39  1  0  0  0  0
 30 40  1  0  0  0  0
 27 37  1  0  0  0  0
 28 38  1  0  0  0  0
 23 35  1  0  0  0  0
  3  4  1  0  0  0  0
  3  5  1  0  0  0  0
  3  6  1  0  0  0  0
 45 48  1  0  0  0  0
 45 49  1  0  0  0  0
 45 50  1  0  0  0  0
 11 14  1  0  0  0  0
 11 15  1  0  0  0  0
 11 16  1  0  0  0  0
 52 54  1  0  0  0  0
 52 55  1  0  0  0  0
 52 56  1  0  0  0  0
 21 33  1  0  0  0  0
 21 34  1  0  0  0  0
 42 47  1  0  0  0  0
  8 13  1  0  0  0  0
 18 32  1  0  0  0  0
 25 36  1  0  0  0  0
 51 53  1  0  0  0  0
  7 12  1  0  0  0  0
 41 46  1  0  0  0  0
 17 31  1  0  0  0  0
M  END
$$$$

  -OEChem-05262214473D

 56 57  0     1  0  0  0  0  0999 V2000
   -2.2900    0.3401    4.1553 C   0  0  0  0  0  0  0  0  0  0  0  0
   -1.3426   -0.2746    3.6796 O   0  0  0  0  0  0  0  0  0  0  0  0
   -2.7219    0.0577    5.5560 C   0  0  0  0  0  0  0  0  0  0  0  0
   -3.4815   -0.7386    5.6094 H   0  0  0  0  0  0  0  0  0  0  0  0
   -1.8906   -0.2899    6.1903 H   0  0  0  0  0  0  0  0  0  0  0  0
   -3.1599    0.9126    6.0956 H   0  0  0  0  0  0  0  0  0  0  0  0
   -3.0397    1.3125    3.5142 N   0  0  0  0  0  0  0  0  0  0  0  0
   -2.7928    1.7385    2.1618 C   0  0  2  0  0  0  0  0  0  0  0  0
   -1.4579    1.1532    1.7206 C   0  0  0  0  0  0  0  0  0  0  0  0
   -0.5858    0.8004    2.5118 O   0  0  0  0  0  0  0  0  0  0  0  0
   -2.7841    3.2553    2.0523 C   0  0  0  0  0  0  0  0  0  0  0  0
   -3.8047    1.7484    4.0260 H   0  0  0  0  0  0  0  0  0  0  0  0
   -3.5969    1.3201    1.5466 H   0  0  0  0  0  0  0  0  0  0  0  0
   -1.9850    3.6926    2.6620 H   0  0  0  0  0  0  0  0  0  0  0  0
   -2.6246    3.5776    1.0180 H   0  0  0  0  0  0  0  0  0  0  0  0
   -3.7342    3.6765    2.3981 H   0  0  0  0  0  0  0  0  0  0  0  0
   -1.3352    1.1101    0.3372 N   0  0  0  0  0  0  0  0  0  0  0  0
   -0.1579    0.6093   -0.3265 C   0  0  2  0  0  0  0  0  0  0  0  0
    0.2378   -0.6860    0.3734 C   0  0  0  0  0  0  0  0  0  0  0  0
    1.3506   -1.1954    0.2591 O   0  0  0  0  0  0  0  0  0  0  0  0
    1.0006    1.6124   -0.2857 C   0  0  0  0  0  0  0  0  0  0  0  0
    0.7255    2.8551   -1.0967 C   0  0  0  0  0  0  0  0  0  0  0  0
    0.2519    4.0485   -0.6023 C   0  0  0  0  0  0  0  0  0  0  0  0
    0.9073    3.0091   -2.4996 C   0  0  0  0  0  0  0  0  0  0  0  0
    0.1379    4.9229   -1.6497 N   0  0  0  0  0  0  0  0  0  0  0  0
    0.5314    4.3152   -2.8206 C   0  0  0  0  0  0  0  0  0  0  0  0
    1.3570    2.1600   -3.5303 C   0  0  0  0  0  0  0  0  0  0  0  0
    0.5830    4.8167   -4.1261 C   0  0  0  0  0  0  0  0  0  0  0  0
    1.4138    2.6480   -4.8408 C   0  0  0  0  0  0  0  0  0  0  0  0
    1.0323    3.9563   -5.1319 C   0  0  0  0  0  0  0  0  0  0  0  0
   -2.1183    1.4068   -0.2401 H   0  0  0  0  0  0  0  0  0  0  0  0
   -0.4528    0.3842   -1.3582 H   0  0  0  0  0  0  0  0  0  0  0  0
    1.9267    1.1386   -0.6385 H   0  0  0  0  0  0  0  0  0  0  0  0
    1.2088    1.9161    0.7488 H   0  0  0  0  0  0  0  0  0  0  0  0
   -0.0158    4.3544    0.3997 H   0  0  0  0  0  0  0  0  0  0  0  0
   -0.1878    5.8767   -1.5749 H   0  0  0  0  0  0  0  0  0  0  0  0
    1.6570    1.1374   -3.3198 H   0  0  0  0  0  0  0  0  0  0  0  0
    0.2872    5.8353   -4.3534 H   0  0  0  0  0  0  0  0  0  0  0  0
    1.7593    1.9977   -5.6400 H   0  0  0  0  0  0  0  0  0  0  0  0
    1.0845    4.3146   -6.1567 H   0  0  0  0  0  0  0  0  0  0  0  0
   -0.7826   -1.1748    1.1774 N   0  0  0  0  0  0  0  0  0  0  0  0
   -0.6616   -2.3773    1.9699 C   0  0  2  0  0  0  0  0  0  0  0  0
   -0.1364   -3.4852    1.0663 C   0  0  0  0  0  0  0  0  0  0  0  0
   -0.2515   -3.4639   -0.1573 O   0  0  0  0  0  0  0  0  0  0  0  0
   -1.9941   -2.7677    2.5902 C   0  0  0  0  0  0  0  0  0  0  0  0
   -1.6585   -0.6615    1.2104 H   0  0  0  0  0  0  0  0  0  0  0  0
    0.0730   -2.1663    2.7546 H   0  0  0  0  0  0  0  0  0  0  0  0
   -2.7429   -2.9829    1.8192 H   0  0  0  0  0  0  0  0  0  0  0  0
   -1.8947   -3.6626    3.2133 H   0  0  0  0  0  0  0  0  0  0  0  0
   -2.3847   -1.9580    3.2160 H   0  0  0  0  0  0  0  0  0  0  0  0
    0.4375   -4.5209    1.7902 N   0  0  0  0  0  0  0  0  0  0  0  0
    0.9976   -5.6945    1.1617 C   0  0  0  0  0  0  0  0  0  0  0  0
    0.5070   -4.4457    2.8008 H   0  0  0  0  0  0  0  0  0  0  0  0
    0.2300   -6.4801    1.1007 H   0  0  0  0  0  0  0  0  0  0  0  0
    1.3417   -5.4389    0.1486 H   0  0  0  0  0  0  0  0  0  0  0  0
    1.8481   -6.0585    1.7568 H   0  0  0  0  0  0  0  0  0  0  0  0
 29 30  2  0  0  0  0
 27 29  1  0  0  0  0
 28 30  1  0  0  0  0
 24 27  2  0  0  0  0
 26 28  2  0  0  0  0
 22 23  2  0  0  0  0
 23 25  1  0  0  0  0
 22 24  1  0  0  0  0
 24 26  1  0  0  0  0
 21 22  1  0  0  0  0
 25 26  1  0  0  0  0
  1  3  1  0  0  0  0
  1  7  1  0  0  0  0
  1  2  2  0  0  0  0
 42 43  1  0  0  0  0
 43 51  1  0  0  0  0
 43 44  2  0  0  0  0
  8  9  1  0  0  0  0
  9 17  1  0  0  0  0
  9 10  2  0  0  0  0
 18 19  1  0  0  0  0
 19 41  1  0  0  0  0
 19 20  2  0  0  0  0
 42 45  1  0  0  0  0
  8 11  1  0  0  0  0
 51 52  1  0  0  0  0
 18 21  1  0  0  0  0
 41 42  1  0  0  0  0
  7  8  1  0  0  0  0
 17 18  1  0  0  0  0
 29 39  1  0  0  0  0
 30 40  1  0  0  0  0
 27 37  1  0  0  0  0
 28 38  1  0  0  0  0
 23 35  1  0  0  0  0
  3  4  1  0  0  0  0
  3  5  1  0  0  0  0
  3  6  1  0  0  0  0
 45 48  1  0  0  0  0
 45 49  1  0  0  0  0
 45 50  1  0  0  0  0
 11 14  1  0  0  0  0
 11 15  1  0  0  0  0
 11 16  1  0  0  0  0
 52 54  1  0  0  0  0
 52 55  1  0  0  0  0
 52 56  1  0  0  0  0
 21 33  1  0  0  0  0
 21 34  1  0  0  0  0
 42 47  1  0  0  0  0
  8 13  1  0  0  0  0
 18 32  1  0  0  0  0
 25 36  1  0  0  0  0
 51 53  1  0  0  0  0
  7 12  1  0  0  0  0
 41 46  1  0  0  0  0
 17 31  1  0  0  0  0
M  END
$$$$

  -OEChem-05262214473D

 56 57  0     1  0  0  0  0  0999 V2000
   -2.2900    0.3401    4.1553 C   0  0  0  0  0  0  0  0  0  0  0  0
   -1.3426   -0.2746    3.6796 O   0  0  0  0  0  0  0  0  0  0  0  0
   -2.7219    0.0577    5.5560 C   0  0  0  0  0  0  0  0  0  0  0  0
   -3.4815   -0.7386    5.6094 H   0  0  0  0  0  0  0  0  0  0  0  0
   -1.8906   -0.2899    6.1903 H   0  0  0  0  0  0  0  0  0  0  0  0
   -3.1599    0.9126    6.0956 H   0  0  0  0  0  0  0  0  0  0  0  0
   -3.0397    1.3125    3.5142 N   0  0  0  0  0  0  0  0  0  0  0  0
   -2.7928    1.7385    2.1618 C   0  0  2  0  0  0  0  0  0  0  0  0
   -1.4579    1.1532    1.7206 C   0  0  0  0  0  0  0  0  0  0  0  0
   -0.5858    0.8004    2.5118 O   0  0  0  0  0  0  0  0  0  0  0  0
   -2.7841    3.2553    2.0523 C   0  0  0  0  0  0  0  0  0  0  0  0
   -3.8047    1.7484    4.0260 H   0  0  0  0  0  0  0  0  0  0  0  0
   -3.5969    1.3201    1.5466 H   0  0  0  0  0  0  0  0  0  0  0  0
   -1.9850    3.6926    2.6620 H   0  0  0  0  0  0  0  0  0  0  0  0
   -2.6246    3.5776    1.0180 H   0  0  0  0  0  0  0  0  0  0  0  0
   -3.7342    3.6765    2.3981 H   0  0  0  0  0  0  0  0  0  0  0  0
   -1.3352    1.1101    0.3372 N   0  0  0  0  0  0  0  0  0  0  0  0
   -0.1579    0.6093   -0.3265 C   0  0  2  0  0  0  0  0  0  0  0  0
    0.2378   -0.6860    0.3734 C   0  0  0  0  0  0  0  0  0  0  0  0
    1.4042   -1.0575    0.4840 O   0  0  0  0  0  0  0  0  0  0  0  0
    1.0006    1.6124   -0.2857 C   0  0  0  0  0  0  0  0  0  0  0  0
    0.7255    2.8551   -1.0967 C   0  0  0  0  0  0  0  0  0  0  0  0
    0.2519    4.0485   -0.6023 C   0  0  0  0  0  0  0  0  0  0  0  0
    0.9073    3.0091   -2.4996 C   0  0  0  0  0  0  0  0  0  0  0  0
    0.1379    4.9229   -1.6497 N   0  0  0  0  0  0  0  0  0  0  0  0
    0.5314    4.3152   -2.8206 C   0  0  0  0  0  0  0  0  0  0  0  0
    1.3570    2.1600   -3.5303 C   0  0  0  0  0  0  0  0  0  0  0  0
    0.5830    4.8167   -4.1261 C   0  0  0  0  0  0  0  0  0  0  0  0
    1.4138    2.6480   -4.8408 C   0  0  0  0  0  0  0  0  0  0  0  0
    1.0323    3.9563   -5.1319 C   0  0  0  0  0  0  0  0  0  0  0  0
   -2.1183    1.4068   -0.2401 H   0  0  0  0  0  0  0  0  0  0  0  0
   -0.4528    0.3842   -1.3582 H   0  0  0  0  0  0  0  0  0  0  0  0
    1.9267    1.1386   -0.6385 H   0  0  0  0  0  0  0  0  0  0  0  0
    1.2088    1.9161    0.7488 H   0  0  0  0  0  0  0  0  0  0  0  0
   -0.0158    4.3544    0.3997 H   0  0  0  0  0  0  0  0  0  0  0  0
   -0.1878    5.8767   -1.5749 H   0  0  0  0  0  0  0  0  0  0  0  0
    1.6570    1.1374   -3.3198 H   0  0  0  0  0  0  0  0  0  0  0  0
    0.2872    5.8353   -4.3534 H   0  0  0  0  0  0  0  0  0  0  0  0
    1.7593    1.9977   -5.6400 H   0  0  0  0  0  0  0  0  0  0  0  0
    1.0845    4.3146   -6.1567 H   0  0  0  0  0  0  0  0  0  0  0  0
   -0.8620   -1.3484    0.9009 N   0  0  0  0  0  0  0  0  0  0  0  0
   -0.7639   -2.5899    1.6344 C   0  0  2  0  0  0  0  0  0  0  0  0
    0.0795   -3.5560    0.8131 C   0  0  0  0  0  0  0  0  0  0  0  0
    0.2295   -3.4493   -0.4023 O   0  0  0  0  0  0  0  0  0  0  0  0
   -2.1386   -3.1747    1.9185 C   0  0  0  0  0  0  0  0  0  0  0  0
   -1.7820   -0.9402    0.7645 H   0  0  0  0  0  0  0  0  0  0  0  0
   -0.2487   -2.3622    2.5740 H   0  0  0  0  0  0  0  0  0  0  0  0
   -2.6700   -3.4092    0.9890 H   0  0  0  0  0  0  0  0  0  0  0  0
   -2.0638   -4.1002    2.4990 H   0  0  0  0  0  0  0  0  0  0  0  0
   -2.7542   -2.4666    2.4837 H   0  0  0  0  0  0  0  0  0  0  0  0
    0.6099   -4.5763    1.5902 N   0  0  0  0  0  0  0  0  0  0  0  0
    1.4360   -5.6259    1.0408 C   0  0  0  0  0  0  0  0  0  0  0  0
    0.4495   -4.5754    2.5932 H   0  0  0  0  0  0  0  0  0  0  0  0
    0.8052   -6.4845    0.7672 H   0  0  0  0  0  0  0  0  0  0  0  0
    1.9555   -5.2529    0.1458 H   0  0  0  0  0  0  0  0  0  0  0  0
    2.1770   -5.9397    1.7908 H   0  0  0  0  0  0  0  0  0  0  0  0
 29 30  2  0  0  0  0
 27 29  1  0  0  0  0
 28 30  1  0  0  0  0
 24 27  2  0  0  0  0
 26 28  2  0  0  0  0
 22 23  2  0  0  0  0
 23 25  1  0  0  0  0
 22 24  1  0  0  0  0
 24 26  1  0  0  0  0
 21 22  1  0  0  0  0
 25 26  1  0  0  0  0
  1  3  1  0  0  0  0
  1  7  1  0  0  0  0
  1  2  2  0  0  0  0
 42 43  1  0  0  0  0
 43 51  1  0  0  0  0
 43 44  2  0  0  0  0
  8  9  1  0  0  0  0
  9 17  1  0  0  0  0
  9 10  2  0  0  0  0
 18 19  1  0  0  0  0
 19 41  1  0  0  0  0
 19 20  2  0  0  0  0
 42 45  1  0  0  0  0
  8 11  1  0  0  0  0
 51 52  1  0  0  0  0
 18 21  1  0  0  0  0
 41 42  1  0  0  0  0
  7  8  1  0  0  0  0
 17 18  1  0  0  0  0
 29 39  1  0  0  0  0
 30 40  1  0  0  0  0
 27 37  1  0  0  0  0
 28 38  1  0  0  0  0
 23 35  1  0  0  0  0
  3  4  1  0  0  0  0
  3  5  1  0  0  0  0
  3  6  1  0  0  0  0
 45 48  1  0  0  0  0
 45 49  1  0  0  0  0
 45 50  1  0  0  0  0
 11 14  1  0  0  0  0
 11 15  1  0  0  0  0
 11 16  1  0  0  0  0
 52 54  1  0  0  0  0
 52 55  1  0  0  0  0
 52 56  1  0  0  0  0
 21 33  1  0  0  0  0
 21 34  1  0  0  0  0
 42 47  1  0  0  0  0
  8 13  1  0  0  0  0
 18 32  1  0  0  0  0
 25 36  1  0  0  0  0
 51 53  1  0  0  0  0
  7 12  1  0  0  0  0
 41 46  1  0  0  0  0
 17 31  1  0  0  0  0
M  END
$$$$

  -OEChem-05262214473D

 56 57  0     1  0  0  0  0  0999 V2000
   -2.2900    0.3401    4.1553 C   0  0  0  0  0  0  0  0  0  0  0  0
   -1.3426   -0.2746    3.6796 O   0  0  0  0  0  0  0  0  0  0  0  0
   -2.7219    0.0577    5.5560 C   0  0  0  0  0  0  0  0  0  0  0  0
   -3.4815   -0.7386    5.6094 H   0  0  0  0  0  0  0  0  0  0  0  0
   -1.8906   -0.2899    6.1903 H   0  0  0  0  0  0  0  0  0  0  0  0
   -3.1599    0.9126    6.0956 H   0  0  0  0  0  0  0  0  0  0  0  0
   -3.0397    1.3125    3.5142 N   0  0  0  0  0  0  0  0  0  0  0  0
   -2.7928    1.7385    2.1618 C   0  0  2  0  0  0  0  0  0  0  0  0
   -1.4579    1.1532    1.7206 C   0  0  0  0  0  0  0  0  0  0  0  0
   -0.5858    0.8004    2.5118 O   0  0  0  0  0  0  0  0  0  0  0  0
   -2.7841    3.2553    2.0523 C   0  0  0  0  0  0  0  0  0  0  0  0
   -3.8047    1.7484    4.0260 H   0  0  0  0  0  0  0  0  0  0  0  0
   -3.5969    1.3201    1.5466 H   0  0  0  0  0  0  0  0  0  0  0  0
   -1.9850    3.6926    2.6620 H   0  0  0  0  0  0  0  0  0  0  0  0
   -2.6246    3.5776    1.0180 H   0  0  0  0  0  0  0  0  0  0  0  0
   -3.7342    3.6765    2.3981 H   0  0  0  0  0  0  0  0  0  0  0  0
   -1.3352    1.1101    0.3372 N   0  0  0  0  0  0  0  0  0  0  0  0
   -0.1579    0.6093   -0.3265 C   0  0  2  0  0  0  0  0  0  0  0  0
    0.2378   -0.6860    0.3734 C   0  0  0  0  0  0  0  0  0  0  0  0
    1.3902   -0.9330    0.7223 O   0  0  0  0  0  0  0  0  0  0  0  0
    1.0006    1.6124   -0.2857 C   0  0  0  0  0  0  0  0  0  0  0  0
    0.7255    2.8551   -1.0967 C   0  0  0  0  0  0  0  0  0  0  0  0
    0.2519    4.0485   -0.6023 C   0  0  0  0  0  0  0  0  0  0  0  0
    0.9073    3.0091   -2.4996 C   0  0  0  0  0  0  0  0  0  0  0  0
    0.1379    4.9229   -1.6497 N   0  0  0  0  0  0  0  0  0  0  0  0
    0.5314    4.3152   -2.8206 C   0  0  0  0  0  0  0  0  0  0  0  0
    1.3570    2.1600   -3.5303 C   0  0  0  0  0  0  0  0  0  0  0  0
    0.5830    4.8167   -4.1261 C   0  0  0  0  0  0  0  0  0  0  0  0
    1.4138    2.6480   -4.8408 C   0  0  0  0  0  0  0  0  0  0  0  0
    1.0323    3.9563   -5.1319 C   0  0  0  0  0  0  0  0  0  0  0  0
   -2.1183    1.4068   -0.2401 H   0  0  0  0  0  0  0  0  0  0  0  0
   -0.4528    0.3842   -1.3582 H   0  0  0  0  0  0  0  0  0  0  0  0
    1.9267    1.1386   -0.6385 H   0  0  0  0  0  0  0  0  0  0  0  0
    1.2088    1.9161    0.7488 H   0  0  0  0  0  0  0  0  0  0  0  0
   -0.0158    4.3544    0.3997 H   0  0  0  0  0  0  0  0  0  0  0  0
   -0.1878    5.8767   -1.5749 H   0  0  0  0  0  0  0  0  0  0  0  0
    1.6570    1.1374   -3.3198 H   0  0  0  0  0  0  0  0  0  0  0  0
    0.2872    5.8353   -4.3534 H   0  0  0  0  0  0  0  0  0  0  0  0
    1.7593    1.9977   -5.6400 H   0  0  0  0  0  0  0  0  0  0  0  0
    1.0845    4.3146   -6.1567 H   0  0  0  0  0  0  0  0  0  0  0  0
   -0.8572   -1.5070    0.6047 N   0  0  0  0  0  0  0  0  0  0  0  0
   -0.7637   -2.7848    1.2736 C   0  0  2  0  0  0  0  0  0  0  0  0
    0.3522   -3.5818    0.6112 C   0  0  0  0  0  0  0  0  0  0  0  0
    0.7463   -3.3616   -0.5322 O   0  0  0  0  0  0  0  0  0  0  0  0
   -2.0822   -3.5400    1.2107 C   0  0  0  0  0  0  0  0  0  0  0  0
   -1.7701   -1.1941    0.2879 H   0  0  0  0  0  0  0  0  0  0  0  0
   -0.4965   -2.5775    2.3155 H   0  0  0  0  0  0  0  0  0  0  0  0
   -2.3665   -3.7566    0.1744 H   0  0  0  0  0  0  0  0  0  0  0  0
   -2.0182   -4.4951    1.7424 H   0  0  0  0  0  0  0  0  0  0  0  0
   -2.8897   -2.9525    1.6609 H   0  0  0  0  0  0  0  0  0  0  0  0
    0.8269   -4.5960    1.4312 N   0  0  0  0  0  0  0  0  0  0  0  0
    1.8780   -5.4994    1.0250 C   0  0  0  0  0  0  0  0  0  0  0  0
    0.4550   -4.6936    2.3714 H   0  0  0  0  0  0  0  0  0  0  0  0
    1.4347   -6.3981    0.5713 H   0  0  0  0  0  0  0  0  0  0  0  0
    2.5270   -5.0001    0.2906 H   0  0  0  0  0  0  0  0  0  0  0  0
    2.4731   -5.7881    1.9039 H   0  0  0  0  0  0  0  0  0  0  0  0
 29 30  2  0  0  0  0
 27 29  1  0  0  0  0
 28 30  1  0  0  0  0
 24 27  2  0  0  0  0
 26 28  2  0  0  0  0
 22 23  2  0  0  0  0
 23 25  1  0  0  0  0
 22 24  1  0  0  0  0
 24 26  1  0  0  0  0
 21 22  1  0  0  0  0
 25 26  1  0  0  0  0
  1  3  1  0  0  0  0
  1  7  1  0  0  0  0
  1  2  2  0  0  0  0
 42 43  1  0  0  0  0
 43 51  1  0  0  0  0
 43 44  2  0  0  0  0
  8  9  1  0  0  0  0
  9 17  1  0  0  0  0
  9 10  2  0  0  0  0
 18 19  1  0  0  0  0
 19 41  1  0  0  0  0
 19 20  2  0  0  0  0
 42 45  1  0  0  0  0
  8 11  1  0  0  0  0
 51 52  1  0  0  0  0
 18 21  1  0  0  0  0
 41 42  1  0  0  0  0
  7  8  1  0  0  0  0
 17 18  1  0  0  0  0
 29 39  1  0  0  0  0
 30 40  1  0  0  0  0
 27 37  1  0  0  0  0
 28 38  1  0  0  0  0
 23 35  1  0  0  0  0
  3  4  1  0  0  0  0
  3  5  1  0  0  0  0
  3  6  1  0  0  0  0
 45 48  1  0  0  0  0
 45 49  1  0  0  0  0
 45 50  1  0  0  0  0
 11 14  1  0  0  0  0
 11 15  1  0  0  0  0
 11 16  1  0  0  0  0
 52 54  1  0  0  0  0
 52 55  1  0  0  0  0
 52 56  1  0  0  0  0
 21 33  1  0  0  0  0
 21 34  1  0  0  0  0
 42 47  1  0  0  0  0
  8 13  1  0  0  0  0
 18 32  1  0  0  0  0
 25 36  1  0  0  0  0
 51 53  1  0  0  0  0
  7 12  1  0  0  0  0
 41 46  1  0  0  0  0
 17 31  1  0  0  0  0
M  END
$$$$

  -OEChem-05262214473D

 56 57  0     1  0  0  0  0  0999 V2000
   -2.2900    0.3401    4.1553 C   0  0  0  0  0  0  0  0  0  0  0  0
   -1.3426   -0.2746    3.6796 O   0  0  0  0  0  0  0  0  0  0  0  0
   -2.7219    0.0577    5.5560 C   0  0  0  0  0  0  0  0  0  0  0  0
   -3.4815   -0.7386    5.6094 H   0  0  0  0  0  0  0  0  0  0  0  0
   -1.8906   -0.2899    6.1903 H   0  0  0  0  0  0  0  0  0  0  0  0
   -3.1599    0.9126    6.0956 H   0  0  0  0  0  0  0  0  0  0  0  0
   -3.0397    1.3125    3.5142 N   0  0  0  0  0  0  0  0  0  0  0  0
   -2.7928    1.7385    2.1618 C   0  0  2  0  0  0  0  0  0  0  0  0
   -1.4579    1.1532    1.7206 C   0  0  0  0  0  0  0  0  0  0  0  0
   -0.5858    0.8004    2.5118 O   0  0  0  0  0  0  0  0  0  0  0  0
   -2.7841    3.2553    2.0523 C   0  0  0  0  0  0  0  0  0  0  0  0
   -3.8047    1.7484    4.0260 H   0  0  0  0  0  0  0  0  0  0  0  0
   -3.5969    1.3201    1.5466 H   0  0  0  0  0  0  0  0  0  0  0  0
   -1.9850    3.6926    2.6620 H   0  0  0  0  0  0  0  0  0  0  0  0
   -2.6246    3.5776    1.0180 H   0  0  0  0  0  0  0  0  0  0  0  0
   -3.7342    3.6765    2.3981 H   0  0  0  0  0  0  0  0  0  0  0  0
   -1.3352    1.1101    0.3372 N   0  0  0  0  0  0  0  0  0  0  0  0
   -0.1579    0.6093   -0.3265 C   0  0  2  0  0  0  0  0  0  0  0  0
    0.2378   -0.6860    0.3734 C   0  0  0  0  0  0  0  0  0  0  0  0
    1.3095   -0.8305    0.9577 O   0  0  0  0  0  0  0  0  0  0  0  0
    1.0006    1.6124   -0.2857 C   0  0  0  0  0  0  0  0  0  0  0  0
    0.7255    2.8551   -1.0967 C   0  0  0  0  0  0  0  0  0  0  0  0
    0.2519    4.0485   -0.6023 C   0  0  0  0  0  0  0  0  0  0  0  0
    0.9073    3.0091   -2.4996 C   0  0  0  0  0  0  0  0  0  0  0  0
    0.1379    4.9229   -1.6497 N   0  0  0  0  0  0  0  0  0  0  0  0
    0.5314    4.3152   -2.8206 C   0  0  0  0  0  0  0  0  0  0  0  0
    1.3570    2.1600   -3.5303 C   0  0  0  0  0  0  0  0  0  0  0  0
    0.5830    4.8167   -4.1261 C   0  0  0  0  0  0  0  0  0  0  0  0
    1.4138    2.6480   -4.8408 C   0  0  0  0  0  0  0  0  0  0  0  0
    1.0323    3.9563   -5.1319 C   0  0  0  0  0  0  0  0  0  0  0  0
   -2.1183    1.4068   -0.2401 H   0  0  0  0  0  0  0  0  0  0  0  0
   -0.4528    0.3842   -1.3582 H   0  0  0  0  0  0  0  0  0  0  0  0
    1.9267    1.1386   -0.6385 H   0  0  0  0  0  0  0  0  0  0  0  0
    1.2088    1.9161    0.7488 H   0  0  0  0  0  0  0  0  0  0  0  0
   -0.0158    4.3544    0.3997 H   0  0  0  0  0  0  0  0  0  0  0  0
   -0.1878    5.8767   -1.5749 H   0  0  0  0  0  0  0  0  0  0  0  0
    1.6570    1.1374   -3.3198 H   0  0  0  0  0  0  0  0  0  0  0  0
    0.2872    5.8353   -4.3534 H   0  0  0  0  0  0  0  0  0  0  0  0
    1.7593    1.9977   -5.6400 H   0  0  0  0  0  0  0  0  0  0  0  0
    1.0845    4.3146   -6.1567 H   0  0  0  0  0  0  0  0  0  0  0  0
   -0.7686   -1.6397    0.3090 N   0  0  0  0  0  0  0  0  0  0  0  0
   -0.6611   -2.9488    0.9120 C   0  0  2  0  0  0  0  0  0  0  0  0
    0.6631   -3.5608    0.4744 C   0  0  0  0  0  0  0  0  0  0  0  0
    1.2636   -3.2068   -0.5381 O   0  0  0  0  0  0  0  0  0  0  0  0
   -1.8287   -3.8385    0.5148 C   0  0  0  0  0  0  0  0  0  0  0  0
   -1.6237   -1.4059   -0.1868 H   0  0  0  0  0  0  0  0  0  0  0  0
   -0.6534   -2.7976    1.9969 H   0  0  0  0  0  0  0  0  0  0  0  0
   -1.8529   -4.0014   -0.5689 H   0  0  0  0  0  0  0  0  0  0  0  0
   -1.7608   -4.8202    0.9951 H   0  0  0  0  0  0  0  0  0  0  0  0
   -2.7819   -3.3827    0.8037 H   0  0  0  0  0  0  0  0  0  0  0  0
    1.0738   -4.5785    1.3240 N   0  0  0  0  0  0  0  0  0  0  0  0
    2.2933   -5.3237    1.1155 C   0  0  0  0  0  0  0  0  0  0  0  0
    0.5231   -4.7922    2.1504 H   0  0  0  0  0  0  0  0  0  0  0  0
    2.0756   -6.2267    0.5263 H   0  0  0  0  0  0  0  0  0  0  0  0
    3.0171   -4.6977    0.5731 H   0  0  0  0  0  0  0  0  0  0  0  0
    2.7163   -5.6141    2.0885 H   0  0  0  0  0  0  0  0  0  0  0  0
 29 30  2  0  0  0  0
 27 29  1  0  0  0  0
 28 30  1  0  0  0  0
 24 27  2  0  0  0  0
 26 28  2  0  0  0  0
 22 23  2  0  0  0  0
 23 25  1  0  0  0  0
 22 24  1  0  0  0  0
 24 26  1  0  0  0  0
 21 22  1  0  0  0  0
 25 26  1  0  0  0  0
  1  3  1  0  0  0  0
  1  7  1  0  0  0  0
  1  2  2  0  0  0  0
 42 43  1  0  0  0  0
 43 51  1  0  0  0  0
 43 44  2  0  0  0  0
  8  9  1  0  0  0  0
  9 17  1  0  0  0  0
  9 10  2  0  0  0  0
 18 19  1  0  0  0  0
 19 41  1  0  0  0  0
 19 20  2  0  0  0  0
 42 45  1  0  0  0  0
  8 11  1  0  0  0  0
 51 52  1  0  0  0  0
 18 21  1  0  0  0  0
 41 42  1  0  0  0  0
  7  8  1  0  0  0  0
 17 18  1  0  0  0  0
 29 39  1  0  0  0  0
 30 40  1  0  0  0  0
 27 37  1  0  0  0  0
 28 38  1  0  0  0  0
 23 35  1  0  0  0  0
  3  4  1  0  0  0  0
  3  5  1  0  0  0  0
  3  6  1  0  0  0  0
 45 48  1  0  0  0  0
 45 49  1  0  0  0  0
 45 50  1  0  0  0  0
 11 14  1  0  0  0  0
 11 15  1  0  0  0  0
 11 16  1  0  0  0  0
 52 54  1  0  0  0  0
 52 55  1  0  0  0  0
 52 56  1  0  0  0  0
 21 33  1  0  0  0  0
 21 34  1  0  0  0  0
 42 47  1  0  0  0  0
  8 13  1  0  0  0  0
 18 32  1  0  0  0  0
 25 36  1  0  0  0  0
 51 53  1  0  0  0  0
  7 12  1  0  0  0  0
 41 46  1  0  0  0  0
 17 31  1  0  0  0  0
M  END
$$$$

  -OEChem-05262214473D

 56 57  0     1  0  0  0  0  0999 V2000
   -2.2900    0.3401    4.1553 C   0  0  0  0  0  0  0  0  0  0  0  0
   -1.3426   -0.2746    3.6796 O   0  0  0  0  0  0  0  0  0  0  0  0
   -2.7219    0.0577    5.5560 C   0  0  0  0  0  0  0  0  0  0  0  0
   -3.4815   -0.7386    5.6094 H   0  0  0  0  0  0  0  0  0  0  0  0
   -1.8906   -0.2899    6.1903 H   0  0  0  0  0  0  0  0  0  0  0  0
   -3.1599    0.9126    6.0956 H   0  0  0  0  0  0  0  0  0  0  0  0
   -3.0397    1.3125    3.5142 N   0  0  0  0  0  0  0  0  0  0  0  0
   -2.7928    1.7385    2.1618 C   0  0  2  0  0  0  0  0  0  0  0  0
   -1.4579    1.1532    1.7206 C   0  0  0  0  0  0  0  0  0  0  0  0
   -0.5858    0.8004    2.5118 O   0  0  0  0  0  0  0  0  0  0  0  0
   -2.7841    3.2553    2.0523 C   0  0  0  0  0  0  0  0  0  0  0  0
   -3.8047    1.7484    4.0260 H   0  0  0  0  0  0  0  0  0  0  0  0
   -3.5969    1.3201    1.5466 H   0  0  0  0  0  0  0  0  0  0  0  0
   -1.9850    3.6926    2.6620 H   0  0  0  0  0  0  0  0  0  0  0  0
   -2.6246    3.5776    1.0180 H   0  0  0  0  0  0  0  0  0  0  0  0
   -3.7342    3.6765    2.3981 H   0  0  0  0  0  0  0  0  0  0  0  0
   -1.3352    1.1101    0.3372 N   0  0  0  0  0  0  0  0  0  0  0  0
   -0.1579    0.6093   -0.3265 C   0  0  2  0  0  0  0  0  0  0  0  0
    0.2378   -0.6860    0.3734 C   0  0  0  0  0  0  0  0  0  0  0  0
    1.1676   -0.7568    1.1742 O   0  0  0  0  0  0  0  0  0  0  0  0
    1.0006    1.6124   -0.2857 C   0  0  0  0  0  0  0  0  0  0  0  0
    0.7255    2.8551   -1.0967 C   0  0  0  0  0  0  0  0  0  0  0  0
    0.2519    4.0485   -0.6023 C   0  0  0  0  0  0  0  0  0  0  0  0
    0.9073    3.0091   -2.4996 C   0  0  0  0  0  0  0  0  0  0  0  0
    0.1379    4.9229   -1.6497 N   0  0  0  0  0  0  0  0  0  0  0  0
    0.5314    4.3152   -2.8206 C   0  0  0  0  0  0  0  0  0  0  0  0
    1.3570    2.1600   -3.5303 C   0  0  0  0  0  0  0  0  0  0  0  0
    0.5830    4.8167   -4.1261 C   0  0  0  0  0  0  0  0  0  0  0  0
    1.4138    2.6480   -4.8408 C   0  0  0  0  0  0  0  0  0  0  0  0
    1.0323    3.9563   -5.1319 C   0  0  0  0  0  0  0  0  0  0  0  0
   -2.1183    1.4068   -0.2401 H   0  0  0  0  0  0  0  0  0  0  0  0
   -0.4528    0.3842   -1.3582 H   0  0  0  0  0  0  0  0  0  0  0  0
    1.9267    1.1386   -0.6385 H   0  0  0  0  0  0  0  0  0  0  0  0
    1.2088    1.9161    0.7488 H   0  0  0  0  0  0  0  0  0  0  0  0
   -0.0158    4.3544    0.3997 H   0  0  0  0  0  0  0  0  0  0  0  0
   -0.1878    5.8767   -1.5749 H   0  0  0  0  0  0  0  0  0  0  0  0
    1.6570    1.1374   -3.3198 H   0  0  0  0  0  0  0  0  0  0  0  0
    0.2872    5.8353   -4.3534 H   0  0  0  0  0  0  0  0  0  0  0  0
    1.7593    1.9977   -5.6400 H   0  0  0  0  0  0  0  0  0  0  0  0
    1.0845    4.3146   -6.1567 H   0  0  0  0  0  0  0  0  0  0  0  0
   -0.6022   -1.7375    0.0340 N   0  0  0  0  0  0  0  0  0  0  0  0
   -0.4629   -3.0707    0.5743 C   0  0  2  0  0  0  0  0  0  0  0  0
    0.9910   -3.4943    0.4121 C   0  0  0  0  0  0  0  0  0  0  0  0
    1.7462   -2.9954   -0.4196 O   0  0  0  0  0  0  0  0  0  0  0  0
   -1.3953   -4.0500   -0.1217 C   0  0  0  0  0  0  0  0  0  0  0  0
   -1.3527   -1.5611   -0.6275 H   0  0  0  0  0  0  0  0  0  0  0  0
   -0.7087   -3.0074    1.6399 H   0  0  0  0  0  0  0  0  0  0  0  0
   -1.1642   -4.1268   -1.1904 H   0  0  0  0  0  0  0  0  0  0  0  0
   -1.3091   -5.0535    0.3080 H   0  0  0  0  0  0  0  0  0  0  0  0
   -2.4381   -3.7279   -0.0294 H   0  0  0  0  0  0  0  0  0  0  0  0
    1.3337   -4.5250    1.2760 N   0  0  0  0  0  0  0  0  0  0  0  0
    2.6536   -5.1107    1.3060 C   0  0  0  0  0  0  0  0  0  0  0  0
    0.6492   -4.8645    1.9452 H   0  0  0  0  0  0  0  0  0  0  0  0
    2.6841   -5.9819    0.6352 H   0  0  0  0  0  0  0  0  0  0  0  0
    3.3925   -4.3664    0.9741 H   0  0  0  0  0  0  0  0  0  0  0  0
    2.8899   -5.4295    2.3320 H   0  0  0  0  0  0  0  0  0  0  0  0
 29 30  2  0  0  0  0
 27 29  1  0  0  0  0
 28 30  1  0  0  0  0
 24 27  2  0  0  0  0
 26 28  2  0  0  0  0
 22 23  2  0  0  0  0
 23 25  1  0  0  0  0
 22 24  1  0  0  0  0
 24 26  1  0  0  0  0
 21 22  1  0  0  0  0
 25 26  1  0  0  0  0
  1  3  1  0  0  0  0
  1  7  1  0  0  0  0
  1  2  2  0  0  0  0
 42 43  1  0  0  0  0
 43 51  1  0  0  0  0
 43 44  2  0  0  0  0
  8  9  1  0  0  0  0
  9 17  1  0  0  0  0
  9 10  2  0  0  0  0
 18 19  1  0  0  0  0
 19 41  1  0  0  0  0
 19 20  2  0  0  0  0
 42 45  1  0  0  0  0
  8 11  1  0  0  0  0
 51 52  1  0  0  0  0
 18 21  1  0  0  0  0
 41 42  1  0  0  0  0
  7  8  1  0  0  0  0
 17 18  1  0  0  0  0
 29 39  1  0  0  0  0
 30 40  1  0  0  0  0
 27 37  1  0  0  0  0
 28 38  1  0  0  0  0
 23 35  1  0  0  0  0
  3  4  1  0  0  0  0
  3  5  1  0  0  0  0
  3  6  1  0  0  0  0
 45 48  1  0  0  0  0
 45 49  1  0  0  0  0
 45 50  1  0  0  0  0
 11 14  1  0  0  0  0
 11 15  1  0  0  0  0
 11 16  1  0  0  0  0
 52 54  1  0  0  0  0
 52 55  1  0  0  0  0
 52 56  1  0  0  0  0
 21 33  1  0  0  0  0
 21 34  1  0  0  0  0
 42 47  1  0  0  0  0
  8 13  1  0  0  0  0
 18 32  1  0  0  0  0
 25 36  1  0  0  0  0
 51 53  1  0  0  0  0
  7 12  1  0  0  0  0
 41 46  1  0  0  0  0
 17 31  1  0  0  0  0
M  END
$$$$

  -OEChem-05262214473D

 56 57  0     1  0  0  0  0  0999 V2000
   -2.2900    0.3401    4.1553 C   0  0  0  0  0  0  0  0  0  0  0  0
   -1.3426   -0.2746    3.6796 O   0  0  0  0  0  0  0  0  0  0  0  0
   -2.7219    0.0577    5.5560 C   0  0  0  0  0  0  0  0  0  0  0  0
   -3.4815   -0.7386    5.6094 H   0  0  0  0  0  0  0  0  0  0  0  0
   -1.8906   -0.2899    6.1903 H   0  0  0  0  0  0  0  0  0  0  0  0
   -3.1599    0.9126    6.0956 H   0  0  0  0  0  0  0  0  0  0  0  0
   -3.0397    1.3125    3.5142 N   0  0  0  0  0  0  0  0  0  0  0  0
   -2.7928    1.7385    2.1618 C   0  0  2  0  0  0  0  0  0  0  0  0
   -1.4579    1.1532    1.7206 C   0  0  0  0  0  0  0  0  0  0  0  0
   -0.5858    0.8004    2.5118 O   0  0  0  0  0  0  0  0  0  0  0  0
   -2.7841    3.2553    2.0523 C   0  0  0  0  0  0  0  0  0  0  0  0
   -3.8047    1.7484    4.0260 H   0  0  0  0  0  0  0  0  0  0  0  0
   -3.5969    1.3201    1.5466 H   0  0  0  0  0  0  0  0  0  0  0  0
   -1.9850    3.6926    2.6620 H   0  0  0  0  0  0  0  0  0  0  0  0
   -2.6246    3.5776    1.0180 H   0  0  0  0  0  0  0  0  0  0  0  0
   -3.7342    3.6765    2.3981 H   0  0  0  0  0  0  0  0  0  0  0  0
   -1.3352    1.1101    0.3372 N   0  0  0  0  0  0  0  0  0  0  0  0
   -0.1579    0.6093   -0.3265 C   0  0  2  0  0  0  0  0  0  0  0  0
    0.2378   -0.6860    0.3734 C   0  0  0  0  0  0  0  0  0  0  0  0
    0.9741   -0.7171    1.3571 O   0  0  0  0  0  0  0  0  0  0  0  0
    1.0006    1.6124   -0.2857 C   0  0  0  0  0  0  0  0  0  0  0  0
    0.7255    2.8551   -1.0967 C   0  0  0  0  0  0  0  0  0  0  0  0
    0.2519    4.0485   -0.6023 C   0  0  0  0  0  0  0  0  0  0  0  0
    0.9073    3.0091   -2.4996 C   0  0  0  0  0  0  0  0  0  0  0  0
    0.1379    4.9229   -1.6497 N   0  0  0  0  0  0  0  0  0  0  0  0
    0.5314    4.3152   -2.8206 C   0  0  0  0  0  0  0  0  0  0  0  0
    1.3570    2.1600   -3.5303 C   0  0  0  0  0  0  0  0  0  0  0  0
    0.5830    4.8167   -4.1261 C   0  0  0  0  0  0  0  0  0  0  0  0
    1.4138    2.6480   -4.8408 C   0  0  0  0  0  0  0  0  0  0  0  0
    1.0323    3.9563   -5.1319 C   0  0  0  0  0  0  0  0  0  0  0  0
   -2.1183    1.4068   -0.2401 H   0  0  0  0  0  0  0  0  0  0  0  0
   -0.4528    0.3842   -1.3582 H   0  0  0  0  0  0  0  0  0  0  0  0
    1.9267    1.1386   -0.6385 H   0  0  0  0  0  0  0  0  0  0  0  0
    1.2088    1.9161    0.7488 H   0  0  0  0  0  0  0  0  0  0  0  0
   -0.0158    4.3544    0.3997 H   0  0  0  0  0  0  0  0  0  0  0  0
   -0.1878    5.8767   -1.5749 H   0  0  0  0  0  0  0  0  0  0  0  0
    1.6570    1.1374   -3.3198 H   0  0  0  0  0  0  0  0  0  0  0  0
    0.2872    5.8353   -4.3534 H   0  0  0  0  0  0  0  0  0  0  0  0
    1.7593    1.9977   -5.6400 H   0  0  0  0  0  0  0  0  0  0  0  0
    1.0845    4.3146   -6.1567 H   0  0  0  0  0  0  0  0  0  0  0  0
   -0.3694   -1.7937   -0.2017 N   0  0  0  0  0  0  0  0  0  0  0  0
   -0.1827   -3.1423    0.2834 C   0  0  2  0  0  0  0  0  0  0  0  0
    1.3135   -3.3870    0.4284 C   0  0  0  0  0  0  0  0  0  0  0  0
    2.1612   -2.7418   -0.1849 O   0  0  0  0  0  0  0  0  0  0  0  0
   -0.8115   -4.1601   -0.6554 C   0  0  0  0  0  0  0  0  0  0  0  0
   -0.9756   -1.6493   -1.0039 H   0  0  0  0  0  0  0  0  0  0  0  0
   -0.6588   -3.1927    1.2688 H   0  0  0  0  0  0  0  0  0  0  0  0
   -0.3474   -4.1244   -1.6477 H   0  0  0  0  0  0  0  0  0  0  0  0
   -0.6941   -5.1790   -0.2720 H   0  0  0  0  0  0  0  0  0  0  0  0
   -1.8819   -3.9645   -0.7818 H   0  0  0  0  0  0  0  0  0  0  0  0
    1.5891   -4.4393    1.2903 N   0  0  0  0  0  0  0  0  0  0  0  0
    2.9345   -4.8749    1.5836 C   0  0  0  0  0  0  0  0  0  0  0  0
    0.8248   -4.9056    1.7700 H   0  0  0  0  0  0  0  0  0  0  0  0
    3.2189   -5.6805    0.8907 H   0  0  0  0  0  0  0  0  0  0  0  0
    3.6275   -4.0288    1.4662 H   0  0  0  0  0  0  0  0  0  0  0  0
    2.9821   -5.2470    2.6177 H   0  0  0  0  0  0  0  0  0  0  0  0
 29 30  2  0  0  0  0
 27 29  1  0  0  0  0
 28 30  1  0  0  0  0
 24 27  2  0  0  0  0
 26 28  2  0  0  0  0
 22 23  2  0  0  0  0
 23 25  1  0  0  0  0
 22 24  1  0  0  0  0
 24 26  1  0  0  0  0
 21 22  1  0  0  0  0
 25 26  1  0  0  0  0
  1  3  1  0  0  0  0
  1  7  1  0  0  0  0
  1  2  2  0  0  0  0
 42 43  1  0  0  0  0
 43 51  1  0  0  0  0
 43 44  2  0  0  0  0
  8  9  1  0  0  0  0
  9 17  1  0  0  0  0
  9 10  2  0  0  0  0
 18 19  1  0  0  0  0
 19 41  1  0  0  0  0
 19 20  2  0  0  0  0
 42 45  1  0  0  0  0
  8 11  1  0  0  0  0
 51 52  1  0  0  0  0
 18 21  1  0  0  0  0
 41 42  1  0  0  0  0
  7  8  1  0  0  0  0
 17 18  1  0  0  0  0
 29 39  1  0  0  0  0
 30 40  1  0  0  0  0
 27 37  1  0  0  0  0
 28 38  1  0  0  0  0
 23 35  1  0  0  0  0
  3  4  1  0  0  0  0
  3  5  1  0  0  0  0
  3  6  1  0  0  0  0
 45 48  1  0  0  0  0
 45 49  1  0  0  0  0
 45 50  1  0  0  0  0
 11 14  1  0  0  0  0
 11 15  1  0  0  0  0
 11 16  1  0  0  0  0
 52 54  1  0  0  0  0
 52 55  1  0  0  0  0
 52 56  1  0  0  0  0
 21 33  1  0  0  0  0
 21 34  1  0  0  0  0
 42 47  1  0  0  0  0
  8 13  1  0  0  0  0
 18 32  1  0  0  0  0
 25 36  1  0  0  0  0
 51 53  1  0  0  0  0
  7 12  1  0  0  0  0
 41 46  1  0  0  0  0
 17 31  1  0  0  0  0
M  END
$$$$

  -OEChem-05262214473D

 56 57  0     1  0  0  0  0  0999 V2000
   -2.2900    0.3401    4.1553 C   0  0  0  0  0  0  0  0  0  0  0  0
   -1.3426   -0.2746    3.6796 O   0  0  0  0  0  0  0  0  0  0  0  0
   -2.7219    0.0577    5.5560 C   0  0  0  0  0  0  0  0  0  0  0  0
   -3.4815   -0.7386    5.6094 H   0  0  0  0  0  0  0  0  0  0  0  0
   -1.8906   -0.2899    6.1903 H   0  0  0  0  0  0  0  0  0  0  0  0
   -3.1599    0.9126    6.0956 H   0  0  0  0  0  0  0  0  0  0  0  0
   -3.0397    1.3125    3.5142 N   0  0  0  0  0  0  0  0  0  0  0  0
   -2.7928    1.7385    2.1618 C   0  0  2  0  0  0  0  0  0  0  0  0
   -1.4579    1.1532    1.7206 C   0  0  0  0  0  0  0  0  0  0  0  0
   -0.5858    0.8004    2.5118 O   0  0  0  0  0  0  0  0  0  0  0  0
   -2.7841    3.2553    2.0523 C   0  0  0  0  0  0  0  0  0  0  0  0
   -3.8047    1.7484    4.0260 H   0  0  0  0  0  0  0  0  0  0  0  0
   -3.5969    1.3201    1.5466 H   0  0  0  0  0  0  0  0  0  0  0  0
   -1.9850    3.6926    2.6620 H   0  0  0  0  0  0  0  0  0  0  0  0
   -2.6246    3.5776    1.0180 H   0  0  0  0  0  0  0  0  0  0  0  0
   -3.7342    3.6765    2.3981 H   0  0  0  0  0  0  0  0  0  0  0  0
   -1.3352    1.1101    0.3372 N   0  0  0  0  0  0  0  0  0  0  0  0
   -0.1579    0.6093   -0.3265 C   0  0  2  0  0  0  0  0  0  0  0  0
    0.2378   -0.6860    0.3734 C   0  0  0  0  0  0  0  0  0  0  0  0
    0.7423   -0.7140    1.4939 O   0  0  0  0  0  0  0  0  0  0  0  0
    1.0006    1.6124   -0.2857 C   0  0  0  0  0  0  0  0  0  0  0  0
    0.7255    2.8551   -1.0967 C   0  0  0  0  0  0  0  0  0  0  0  0
    0.2519    4.0485   -0.6023 C   0  0  0  0  0  0  0  0  0  0  0  0
    0.9073    3.0091   -2.4996 C   0  0  0  0  0  0  0  0  0  0  0  0
    0.1379    4.9229   -1.6497 N   0  0  0  0  0  0  0  0  0  0  0  0
    0.5314    4.3152   -2.8206 C   0  0  0  0  0  0  0  0  0  0  0  0
    1.3570    2.1600   -3.5303 C   0  0  0  0  0  0  0  0  0  0  0  0
    0.5830    4.8167   -4.1261 C   0  0  0  0  0  0  0  0  0  0  0  0
    1.4138    2.6480   -4.8408 C   0  0  0  0  0  0  0  0  0  0  0  0
    1.0323    3.9563   -5.1319 C   0  0  0  0  0  0  0  0  0  0  0  0
   -2.1183    1.4068   -0.2401 H   0  0  0  0  0  0  0  0  0  0  0  0
   -0.4528    0.3842   -1.3582 H   0  0  0  0  0  0  0  0  0  0  0  0
    1.9267    1.1386   -0.6385 H   0  0  0  0  0  0  0  0  0  0  0  0
    1.2088    1.9161    0.7488 H   0  0  0  0  0  0  0  0  0  0  0  0
   -0.0158    4.3544    0.3997 H   0  0  0  0  0  0  0  0  0  0  0  0
   -0.1878    5.8767   -1.5749 H   0  0  0  0  0  0  0  0  0  0  0  0
    1.6570    1.1374   -3.3198 H   0  0  0  0  0  0  0  0  0  0  0  0
    0.2872    5.8353   -4.3534 H   0  0  0  0  0  0  0  0  0  0  0  0
    1.7593    1.9977   -5.6400 H   0  0  0  0  0  0  0  0  0  0  0  0
    1.0845    4.3146   -6.1567 H   0  0  0  0  0  0  0  0  0  0  0  0
   -0.0861   -1.8045   -0.3819 N   0  0  0  0  0  0  0  0  0  0  0  0
    0.1604   -3.1586    0.0594 C   0  0  2  0  0  0  0  0  0  0  0  0
    1.6086   -3.2461    0.5223 C   0  0  0  0  0  0  0  0  0  0  0  0
    2.4803   -2.4633    0.1501 O   0  0  0  0  0  0  0  0  0  0  0  0
   -0.1173   -4.1612   -1.0499 C   0  0  0  0  0  0  0  0  0  0  0  0
   -0.5180   -1.6644   -1.2905 H   0  0  0  0  0  0  0  0  0  0  0  0
   -0.5069   -3.3407    0.9089 H   0  0  0  0  0  0  0  0  0  0  0  0
    0.5418   -3.9944   -1.9097 H   0  0  0  0  0  0  0  0  0  0  0  0
    0.0424   -5.1883   -0.7054 H   0  0  0  0  0  0  0  0  0  0  0  0
   -1.1510   -4.0764   -1.4021 H   0  0  0  0  0  0  0  0  0  0  0  0
    1.8224   -4.3271    1.3661 N   0  0  0  0  0  0  0  0  0  0  0  0
    3.1168   -4.6324    1.9294 C   0  0  0  0  0  0  0  0  0  0  0  0
    1.0377   -4.9126    1.6366 H   0  0  0  0  0  0  0  0  0  0  0  0
    3.6435   -5.3430    1.2754 H   0  0  0  0  0  0  0  0  0  0  0  0
    3.7063   -3.7077    2.0158 H   0  0  0  0  0  0  0  0  0  0  0  0
    2.9867   -5.0789    2.9262 H   0  0  0  0  0  0  0  0  0  0  0  0
 29 30  2  0  0  0  0
 27 29  1  0  0  0  0
 28 30  1  0  0  0  0
 24 27  2  0  0  0  0
 26 28  2  0  0  0  0
 22 23  2  0  0  0  0
 23 25  1  0  0  0  0
 22 24  1  0  0  0  0
 24 26  1  0  0  0  0
 21 22  1  0  0  0  0
 25 26  1  0  0  0  0
  1  3  1  0  0  0  0
  1  7  1  0  0  0  0
  1  2  2  0  0  0  0
 42 43  1  0  0  0  0
 43 51  1  0  0  0  0
 43 44  2  0  0  0  0
  8  9  1  0  0  0  0
  9 17  1  0  0  0  0
  9 10  2  0  0  0  0
 18 19  1  0  0  0  0
 19 41  1  0  0  0  0
 19 20  2  0  0  0  0
 42 45  1  0  0  0  0
  8 11  1  0  0  0  0
 51 52  1  0  0  0  0
 18 21  1  0  0  0  0
 41 42  1  0  0  0  0
  7  8  1  0  0  0  0
 17 18  1  0  0  0  0
 29 39  1  0  0  0  0
 30 40  1  0  0  0  0
 27 37  1  0  0  0  0
 28 38  1  0  0  0  0
 23 35  1  0  0  0  0
  3  4  1  0  0  0  0
  3  5  1  0  0  0  0
  3  6  1  0  0  0  0
 45 48  1  0  0  0  0
 45 49  1  0  0  0  0
 45 50  1  0  0  0  0
 11 14  1  0  0  0  0
 11 15  1  0  0  0  0
 11 16  1  0  0  0  0
 52 54  1  0  0  0  0
 52 55  1  0  0  0  0
 52 56  1  0  0  0  0
 21 33  1  0  0  0  0
 21 34  1  0  0  0  0
 42 47  1  0  0  0  0
  8 13  1  0  0  0  0
 18 32  1  0  0  0  0
 25 36  1  0  0  0  0
 51 53  1  0  0  0  0
  7 12  1  0  0  0  0
 41 46  1  0  0  0  0
 17 31  1  0  0  0  0
M  END
$$$$

  -OEChem-05262214473D

 56 57  0     1  0  0  0  0  0999 V2000
   -2.2900    0.3401    4.1553 C   0  0  0  0  0  0  0  0  0  0  0  0
   -1.3426   -0.2746    3.6796 O   0  0  0  0  0  0  0  0  0  0  0  0
   -2.7219    0.0577    5.5560 C   0  0  0  0  0  0  0  0  0  0  0  0
   -3.4815   -0.7386    5.6094 H   0  0  0  0  0  0  0  0  0  0  0  0
   -1.8906   -0.2899    6.1903 H   0  0  0  0  0  0  0  0  0  0  0  0
   -3.1599    0.9126    6.0956 H   0  0  0  0  0  0  0  0  0  0  0  0
   -3.0397    1.3125    3.5142 N   0  0  0  0  0  0  0  0  0  0  0  0
   -2.7928    1.7385    2.1618 C   0  0  2  0  0  0  0  0  0  0  0  0
   -1.4579    1.1532    1.7206 C   0  0  0  0  0  0  0  0  0  0  0  0
   -0.5858    0.8004    2.5118 O   0  0  0  0  0  0  0  0  0  0  0  0
   -2.7841    3.2553    2.0523 C   0  0  0  0  0  0  0  0  0  0  0  0
   -3.8047    1.7484    4.0260 H   0  0  0  0  0  0  0  0  0  0  0  0
   -3.5969    1.3201    1.5466 H   0  0  0  0  0  0  0  0  0  0  0  0
   -1.9850    3.6926    2.6620 H   0  0  0  0  0  0  0  0  0  0  0  0
   -2.6246    3.5776    1.0180 H   0  0  0  0  0  0  0  0  0  0  0  0
   -3.7342    3.6765    2.3981 H   0  0  0  0  0  0  0  0  0  0  0  0
   -1.3352    1.1101    0.3372 N   0  0  0  0  0  0  0  0  0  0  0  0
   -0.1579    0.6093   -0.3265 C   0  0  2  0  0  0  0  0  0  0  0  0
    0.2378   -0.6860    0.3734 C   0  0  0  0  0  0  0  0  0  0  0  0
    0.4880   -0.7477    1.5753 O   0  0  0  0  0  0  0  0  0  0  0  0
    1.0006    1.6124   -0.2857 C   0  0  0  0  0  0  0  0  0  0  0  0
    0.7255    2.8551   -1.0967 C   0  0  0  0  0  0  0  0  0  0  0  0
    0.2519    4.0485   -0.6023 C   0  0  0  0  0  0  0  0  0  0  0  0
    0.9073    3.0091   -2.4996 C   0  0  0  0  0  0  0  0  0  0  0  0
    0.1379    4.9229   -1.6497 N   0  0  0  0  0  0  0  0  0  0  0  0
    0.5314    4.3152   -2.8206 C   0  0  0  0  0  0  0  0  0  0  0  0
    1.3570    2.1600   -3.5303 C   0  0  0  0  0  0  0  0  0  0  0  0
    0.5830    4.8167   -4.1261 C   0  0  0  0  0  0  0  0  0  0  0  0
    1.4138    2.6480   -4.8408 C   0  0  0  0  0  0  0  0  0  0  0  0
    1.0323    3.9563   -5.1319 C   0  0  0  0  0  0  0  0  0  0  0  0
   -2.1183    1.4068   -0.2401 H   0  0  0  0  0  0  0  0  0  0  0  0
   -0.4528    0.3842   -1.3582 H   0  0  0  0  0  0  0  0  0  0  0  0
    1.9267    1.1386   -0.6385 H   0  0  0  0  0  0  0  0  0  0  0  0
    1.2088    1.9161    0.7488 H   0  0  0  0  0  0  0  0  0  0  0  0
   -0.0158    4.3544    0.3997 H   0  0  0  0  0  0  0  0  0  0  0  0
   -0.1878    5.8767   -1.5749 H   0  0  0  0  0  0  0  0  0  0  0  0
    1.6570    1.1374   -3.3198 H   0  0  0  0  0  0  0  0  0  0  0  0
    0.2872    5.8353   -4.3534 H   0  0  0  0  0  0  0  0  0  0  0  0
    1.7593    1.9977   -5.6400 H   0  0  0  0  0  0  0  0  0  0  0  0
    1.0845    4.3146   -6.1567 H   0  0  0  0  0  0  0  0  0  0  0  0
    0.2285   -1.7692   -0.4944 N   0  0  0  0  0  0  0  0  0  0  0  0
    0.5430   -3.1185   -0.0828 C   0  0  2  0  0  0  0  0  0  0  0  0
    1.8563   -3.0812    0.6874 C   0  0  0  0  0  0  0  0  0  0  0  0
    2.6817   -2.1789    0.5626 O   0  0  0  0  0  0  0  0  0  0  0  0
    0.6402   -4.0533   -1.2784 C   0  0  0  0  0  0  0  0  0  0  0  0
   -0.0113   -1.6054   -1.4677 H   0  0  0  0  0  0  0  0  0  0  0  0
   -0.2634   -3.4415    0.5847 H   0  0  0  0  0  0  0  0  0  0  0  0
    1.4429   -3.7455   -1.9585 H   0  0  0  0  0  0  0  0  0  0  0  0
    0.8503   -5.0805   -0.9628 H   0  0  0  0  0  0  0  0  0  0  0  0
   -0.2953   -4.0560   -1.8481 H   0  0  0  0  0  0  0  0  0  0  0  0
    2.0177   -4.1961    1.4981 N   0  0  0  0  0  0  0  0  0  0  0  0
    3.1880   -4.3998    2.3197 C   0  0  0  0  0  0  0  0  0  0  0  0
    1.2736   -4.8852    1.5540 H   0  0  0  0  0  0  0  0  0  0  0  0
    3.9289   -4.9924    1.7630 H   0  0  0  0  0  0  0  0  0  0  0  0
    3.6232   -3.4252    2.5857 H   0  0  0  0  0  0  0  0  0  0  0  0
    2.9032   -4.9367    3.2365 H   0  0  0  0  0  0  0  0  0  0  0  0
 29 30  2  0  0  0  0
 27 29  1  0  0  0  0
 28 30  1  0  0  0  0
 24 27  2  0  0  0  0
 26 28  2  0  0  0  0
 22 23  2  0  0  0  0
 23 25  1  0  0  0  0
 22 24  1  0  0  0  0
 24 26  1  0  0  0  0
 21 22  1  0  0  0  0
 25 26  1  0  0  0  0
  1  3  1  0  0  0  0
  1  7  1  0  0  0  0
  1  2  2  0  0  0  0
 42 43  1  0  0  0  0
 43 51  1  0  0  0  0
 43 44  2  0  0  0  0
  8  9  1  0  0  0  0
  9 17  1  0  0  0  0
  9 10  2  0  0  0  0
 18 19  1  0  0  0  0
 19 41  1  0  0  0  0
 19 20  2  0  0  0  0
 42 45  1  0  0  0  0
  8 11  1  0  0  0  0
 51 52  1  0  0  0  0
 18 21  1  0  0  0  0
 41 42  1  0  0  0  0
  7  8  1  0  0  0  0
 17 18  1  0  0  0  0
 29 39  1  0  0  0  0
 30 40  1  0  0  0  0
 27 37  1  0  0  0  0
 28 38  1  0  0  0  0
 23 35  1  0  0  0  0
  3  4  1  0  0  0  0
  3  5  1  0  0  0  0
  3  6  1  0  0  0  0
 45 48  1  0  0  0  0
 45 49  1  0  0  0  0
 45 50  1  0  0  0  0
 11 14  1  0  0  0  0
 11 15  1  0  0  0  0
 11 16  1  0  0  0  0
 52 54  1  0  0  0  0
 52 55  1  0  0  0  0
 52 56  1  0  0  0  0
 21 33  1  0  0  0  0
 21 34  1  0  0  0  0
 42 47  1  0  0  0  0
  8 13  1  0  0  0  0
 18 32  1  0  0  0  0
 25 36  1  0  0  0  0
 51 53  1  0  0  0  0
  7 12  1  0  0  0  0
 41 46  1  0  0  0  0
 17 31  1  0  0  0  0
M  END
$$$$

  -OEChem-05262214473D

 56 57  0     1  0  0  0  0  0999 V2000
   -2.2900    0.3401    4.1553 C   0  0  0  0  0  0  0  0  0  0  0  0
   -1.3426   -0.2746    3.6796 O   0  0  0  0  0  0  0  0  0  0  0  0
   -2.7219    0.0577    5.5560 C   0  0  0  0  0  0  0  0  0  0  0  0
   -3.4815   -0.7386    5.6094 H   0  0  0  0  0  0  0  0  0  0  0  0
   -1.8906   -0.2899    6.1903 H   0  0  0  0  0  0  0  0  0  0  0  0
   -3.1599    0.9126    6.0956 H   0  0  0  0  0  0  0  0  0  0  0  0
   -3.0397    1.3125    3.5142 N   0  0  0  0  0  0  0  0  0  0  0  0
   -2.7928    1.7385    2.1618 C   0  0  2  0  0  0  0  0  0  0  0  0
   -1.4579    1.1532    1.7206 C   0  0  0  0  0  0  0  0  0  0  0  0
   -0.5858    0.8004    2.5118 O   0  0  0  0  0  0  0  0  0  0  0  0
   -2.7841    3.2553    2.0523 C   0  0  0  0  0  0  0  0  0  0  0  0
   -3.8047    1.7484    4.0260 H   0  0  0  0  0  0  0  0  0  0  0  0
   -3.5969    1.3201    1.5466 H   0  0  0  0  0  0  0  0  0  0  0  0
   -1.9850    3.6926    2.6620 H   0  0  0  0  0  0  0  0  0  0  0  0
   -2.6246    3.5776    1.0180 H   0  0  0  0  0  0  0  0  0  0  0  0
   -3.7342    3.6765    2.3981 H   0  0  0  0  0  0  0  0  0  0  0  0
   -1.3352    1.1101    0.3372 N   0  0  0  0  0  0  0  0  0  0  0  0
   -0.1579    0.6093   -0.3265 C   0  0  2  0  0  0  0  0  0  0  0  0
    0.2378   -0.6860    0.3734 C   0  0  0  0  0  0  0  0  0  0  0  0
    0.2284   -0.8160    1.5956 O   0  0  0  0  0  0  0  0  0  0  0  0
    1.0006    1.6124   -0.2857 C   0  0  0  0  0  0  0  0  0  0  0  0
    0.7255    2.8551   -1.0967 C   0  0  0  0  0  0  0  0  0  0  0  0
    0.2519    4.0485   -0.6023 C   0  0  0  0  0  0  0  0  0  0  0  0
    0.9073    3.0091   -2.4996 C   0  0  0  0  0  0  0  0  0  0  0  0
    0.1379    4.9229   -1.6497 N   0  0  0  0  0  0  0  0  0  0  0  0
    0.5314    4.3152   -2.8206 C   0  0  0  0  0  0  0  0  0  0  0  0
    1.3570    2.1600   -3.5303 C   0  0  0  0  0  0  0  0  0  0  0  0
    0.5830    4.8167   -4.1261 C   0  0  0  0  0  0  0  0  0  0  0  0
    1.4138    2.6480   -4.8408 C   0  0  0  0  0  0  0  0  0  0  0  0
    1.0323    3.9563   -5.1319 C   0  0  0  0  0  0  0  0  0  0  0  0
   -2.1183    1.4068   -0.2401 H   0  0  0  0  0  0  0  0  0  0  0  0
   -0.4528    0.3842   -1.3582 H   0  0  0  0  0  0  0  0  0  0  0  0
    1.9267    1.1386   -0.6385 H   0  0  0  0  0  0  0  0  0  0  0  0
    1.2088    1.9161    0.7488 H   0  0  0  0  0  0  0  0  0  0  0  0
   -0.0158    4.3544    0.3997 H   0  0  0  0  0  0  0  0  0  0  0  0
   -0.1878    5.8767   -1.5749 H   0  0  0  0  0  0  0  0  0  0  0  0
    1.6570    1.1374   -3.3198 H   0  0  0  0  0  0  0  0  0  0  0  0
    0.2872    5.8353   -4.3534 H   0  0  0  0  0  0  0  0  0  0  0  0
    1.7593    1.9977   -5.6400 H   0  0  0  0  0  0  0  0  0  0  0  0
    1.0845    4.3146   -6.1567 H   0  0  0  0  0  0  0  0  0  0  0  0
    0.5530   -1.6902   -0.5315 N   0  0  0  0  0  0  0  0  0  0  0  0
    0.9390   -3.0248   -0.1332 C   0  0  2  0  0  0  0  0  0  0  0  0
    2.0397   -2.9036    0.9124 C   0  0  0  0  0  0  0  0  0  0  0  0
    2.7518   -1.9079    1.0245 O   0  0  0  0  0  0  0  0  0  0  0  0
    1.4094   -3.8436   -1.3252 C   0  0  0  0  0  0  0  0  0  0  0  0
    0.5102   -1.4763   -1.5235 H   0  0  0  0  0  0  0  0  0  0  0  0
    0.0550   -3.4882    0.3183 H   0  0  0  0  0  0  0  0  0  0  0  0
    2.2944   -3.3947   -1.7907 H   0  0  0  0  0  0  0  0  0  0  0  0
    1.6744   -4.8632   -1.0264 H   0  0  0  0  0  0  0  0  0  0  0  0
    0.6269   -3.9047   -2.0893 H   0  0  0  0  0  0  0  0  0  0  0  0
    2.1618   -4.0552    1.6774 N   0  0  0  0  0  0  0  0  0  0  0  0
    3.1433   -4.1928    2.7280 C   0  0  0  0  0  0  0  0  0  0  0  0
    1.5163   -4.8251    1.5280 H   0  0  0  0  0  0  0  0  0  0  0  0
    4.0557   -4.6525    2.3203 H   0  0  0  0  0  0  0  0  0  0  0  0
    3.3842   -3.2004    3.1368 H   0  0  0  0  0  0  0  0  0  0  0  0
    2.7375   -4.8301    3.5275 H   0  0  0  0  0  0  0  0  0  0  0  0
 29 30  2  0  0  0  0
 27 29  1  0  0  0  0
 28 30  1  0  0  0  0
 24 27  2  0  0  0  0
 26 28  2  0  0  0  0
 22 23  2  0  0  0  0
 23 25  1  0  0  0  0
 22 24  1  0  0  0  0
 24 26  1  0  0  0  0
 21 22  1  0  0  0  0
 25 26  1  0  0  0  0
  1  3  1  0  0  0  0
  1  7  1  0  0  0  0
  1  2  2  0  0  0  0
 42 43  1  0  0  0  0
 43 51  1  0  0  0  0
 43 44  2  0  0  0  0
  8  9  1  0  0  0  0
  9 17  1  0  0  0  0
  9 10  2  0  0  0  0
 18 19  1  0  0  0  0
 19 41  1  0  0  0  0
 19 20  2  0  0  0  0
 42 45  1  0  0  0  0
  8 11  1  0  0  0  0
 51 52  1  0  0  0  0
 18 21  1  0  0  0  0
 41 42  1  0  0  0  0
  7  8  1  0  0  0  0
 17 18  1  0  0  0  0
 29 39  1  0  0  0  0
 30 40  1  0  0  0  0
 27 37  1  0  0  0  0
 28 38  1  0  0  0  0
 23 35  1  0  0  0  0
  3  4  1  0  0  0  0
  3  5  1  0  0  0  0
  3  6  1  0  0  0  0
 45 48  1  0  0  0  0
 45 49  1  0  0  0  0
 45 50  1  0  0  0  0
 11 14  1  0  0  0  0
 11 15  1  0  0  0  0
 11 16  1  0  0  0  0
 52 54  1  0  0  0  0
 52 55  1  0  0  0  0
 52 56  1  0  0  0  0
 21 33  1  0  0  0  0
 21 34  1  0  0  0  0
 42 47  1  0  0  0  0
  8 13  1  0  0  0  0
 18 32  1  0  0  0  0
 25 36  1  0  0  0  0
 51 53  1  0  0  0  0
  7 12  1  0  0  0  0
 41 46  1  0  0  0  0
 17 31  1  0  0  0  0
M  END
$$$$

  -OEChem-05262214473D

 56 57  0     1  0  0  0  0  0999 V2000
   -2.2900    0.3401    4.1553 C   0  0  0  0  0  0  0  0  0  0  0  0
   -1.3426   -0.2746    3.6796 O   0  0  0  0  0  0  0  0  0  0  0  0
   -2.7219    0.0577    5.5560 C   0  0  0  0  0  0  0  0  0  0  0  0
   -3.4815   -0.7386    5.6094 H   0  0  0  0  0  0  0  0  0  0  0  0
   -1.8906   -0.2899    6.1903 H   0  0  0  0  0  0  0  0  0  0  0  0
   -3.1599    0.9126    6.0956 H   0  0  0  0  0  0  0  0  0  0  0  0
   -3.0397    1.3125    3.5142 N   0  0  0  0  0  0  0  0  0  0  0  0
   -2.7928    1.7385    2.1618 C   0  0  2  0  0  0  0  0  0  0  0  0
   -1.4579    1.1532    1.7206 C   0  0  0  0  0  0  0  0  0  0  0  0
   -0.5858    0.8004    2.5118 O   0  0  0  0  0  0  0  0  0  0  0  0
   -2.7841    3.2553    2.0523 C   0  0  0  0  0  0  0  0  0  0  0  0
   -3.8047    1.7484    4.0260 H   0  0  0  0  0  0  0  0  0  0  0  0
   -3.5969    1.3201    1.5466 H   0  0  0  0  0  0  0  0  0  0  0  0
   -1.9850    3.6926    2.6620 H   0  0  0  0  0  0  0  0  0  0  0  0
   -2.6246    3.5776    1.0180 H   0  0  0  0  0  0  0  0  0  0  0  0
   -3.7342    3.6765    2.3981 H   0  0  0  0  0  0  0  0  0  0  0  0
   -1.3352    1.1101    0.3372 N   0  0  0  0  0  0  0  0  0  0  0  0
   -0.1579    0.6093   -0.3265 C   0  0  2  0  0  0  0  0  0  0  0  0
    0.2378   -0.6860    0.3734 C   0  0  0  0  0  0  0  0  0  0  0  0
   -0.0187   -0.9141    1.5537 O   0  0  0  0  0  0  0  0  0  0  0  0
    1.0006    1.6124   -0.2857 C   0  0  0  0  0  0  0  0  0  0  0  0
    0.7255    2.8551   -1.0967 C   0  0  0  0  0  0  0  0  0  0  0  0
    0.2519    4.0485   -0.6023 C   0  0  0  0  0  0  0  0  0  0  0  0
    0.9073    3.0091   -2.4996 C   0  0  0  0  0  0  0  0  0  0  0  0
    0.1379    4.9229   -1.6497 N   0  0  0  0  0  0  0  0  0  0  0  0
    0.5314    4.3152   -2.8206 C   0  0  0  0  0  0  0  0  0  0  0  0
    1.3570    2.1600   -3.5303 C   0  0  0  0  0  0  0  0  0  0  0  0
    0.5830    4.8167   -4.1261 C   0  0  0  0  0  0  0  0  0  0  0  0
    1.4138    2.6480   -4.8408 C   0  0  0  0  0  0  0  0  0  0  0  0
    1.0323    3.9563   -5.1319 C   0  0  0  0  0  0  0  0  0  0  0  0
   -2.1183    1.4068   -0.2401 H   0  0  0  0  0  0  0  0  0  0  0  0
   -0.4528    0.3842   -1.3582 H   0  0  0  0  0  0  0  0  0  0  0  0
    1.9267    1.1386   -0.6385 H   0  0  0  0  0  0  0  0  0  0  0  0
    1.2088    1.9161    0.7488 H   0  0  0  0  0  0  0  0  0  0  0  0
   -0.0158    4.3544    0.3997 H   0  0  0  0  0  0  0  0  0  0  0  0
   -0.1878    5.8767   -1.5749 H   0  0  0  0  0  0  0  0  0  0  0  0
    1.6570    1.1374   -3.3198 H   0  0  0  0  0  0  0  0  0  0  0  0
    0.2872    5.8353   -4.3534 H   0  0  0  0  0  0  0  0  0  0  0  0
    1.7593    1.9977   -5.6400 H   0  0  0  0  0  0  0  0  0  0  0  0
    1.0845    4.3146   -6.1567 H   0  0  0  0  0  0  0  0  0  0  0  0
    0.8651   -1.5728   -0.4906 N   0  0  0  0  0  0  0  0  0  0  0  0
    1.3215   -2.8838   -0.0885 C   0  0  2  0  0  0  0  0  0  0  0  0
    2.1463   -2.7254    1.1820 C   0  0  0  0  0  0  0  0  0  0  0  0
    2.6858   -1.6689    1.5042 O   0  0  0  0  0  0  0  0  0  0  0  0
    2.1377   -3.5466   -1.1873 C   0  0  0  0  0  0  0  0  0  0  0  0
    1.0108   -1.2858   -1.4541 H   0  0  0  0  0  0  0  0  0  0  0  0
    0.4267   -3.4776    0.1278 H   0  0  0  0  0  0  0  0  0  0  0  0
    3.0383   -2.9660   -1.4178 H   0  0  0  0  0  0  0  0  0  0  0  0
    2.4586   -4.5511   -0.8921 H   0  0  0  0  0  0  0  0  0  0  0  0
    1.5527   -3.6327   -2.1093 H   0  0  0  0  0  0  0  0  0  0  0  0
    2.2449   -3.9140    1.8917 N   0  0  0  0  0  0  0  0  0  0  0  0
    2.9858   -4.0256    3.1265 C   0  0  0  0  0  0  0  0  0  0  0  0
    1.7494   -4.7365    1.5603 H   0  0  0  0  0  0  0  0  0  0  0  0
    4.0152   -4.3467    2.9093 H   0  0  0  0  0  0  0  0  0  0  0  0
    3.0054   -3.0487    3.6317 H   0  0  0  0  0  0  0  0  0  0  0  0
    2.5008   -4.7664    3.7792 H   0  0  0  0  0  0  0  0  0  0  0  0
 29 30  2  0  0  0  0
 27 29  1  0  0  0  0
 28 30  1  0  0  0  0
 24 27  2  0  0  0  0
 26 28  2  0  0  0  0
 22 23  2  0  0  0  0
 23 25  1  0  0  0  0
 22 24  1  0  0  0  0
 24 26  1  0  0  0  0
 21 22  1  0  0  0  0
 25 26  1  0  0  0  0
  1  3  1  0  0  0  0
  1  7  1  0  0  0  0
  1  2  2  0  0  0  0
 42 43  1  0  0  0  0
 43 51  1  0  0  0  0
 43 44  2  0  0  0  0
  8  9  1  0  0  0  0
  9 17  1  0  0  0  0
  9 10  2  0  0  0  0
 18 19  1  0  0  0  0
 19 41  1  0  0  0  0
 19 20  2  0  0  0  0
 42 45  1  0  0  0  0
  8 11  1  0  0  0  0
 51 52  1  0  0  0  0
 18 21  1  0  0  0  0
 41 42  1  0  0  0  0
  7  8  1  0  0  0  0
 17 18  1  0  0  0  0
 29 39  1  0  0  0  0
 30 40  1  0  0  0  0
 27 37  1  0  0  0  0
 28 38  1  0  0  0  0
 23 35  1  0  0  0  0
  3  4  1  0  0  0  0
  3  5  1  0  0  0  0
  3  6  1  0  0  0  0
 45 48  1  0  0  0  0
 45 49  1  0  0  0  0
 45 50  1  0  0  0  0
 11 14  1  0  0  0  0
 11 15  1  0  0  0  0
 11 16  1  0  0  0  0
 52 54  1  0  0  0  0
 52 55  1  0  0  0  0
 52 56  1  0  0  0  0
 21 33  1  0  0  0  0
 21 34  1  0  0  0  0
 42 47  1  0  0  0  0
  8 13  1  0  0  0  0
 18 32  1  0  0  0  0
 25 36  1  0  0  0  0
 51 53  1  0  0  0  0
  7 12  1  0  0  0  0
 41 46  1  0  0  0  0
 17 31  1  0  0  0  0
M  END
$$$$

  -OEChem-05262214473D

 56 57  0     1  0  0  0  0  0999 V2000
   -2.2900    0.3401    4.1553 C   0  0  0  0  0  0  0  0  0  0  0  0
   -1.3426   -0.2746    3.6796 O   0  0  0  0  0  0  0  0  0  0  0  0
   -2.7219    0.0577    5.5560 C   0  0  0  0  0  0  0  0  0  0  0  0
   -3.4815   -0.7386    5.6094 H   0  0  0  0  0  0  0  0  0  0  0  0
   -1.8906   -0.2899    6.1903 H   0  0  0  0  0  0  0  0  0  0  0  0
   -3.1599    0.9126    6.0956 H   0  0  0  0  0  0  0  0  0  0  0  0
   -3.0397    1.3125    3.5142 N   0  0  0  0  0  0  0  0  0  0  0  0
   -2.7928    1.7385    2.1618 C   0  0  2  0  0  0  0  0  0  0  0  0
   -1.4579    1.1532    1.7206 C   0  0  0  0  0  0  0  0  0  0  0  0
   -0.5858    0.8004    2.5118 O   0  0  0  0  0  0  0  0  0  0  0  0
   -2.7841    3.2553    2.0523 C   0  0  0  0  0  0  0  0  0  0  0  0
   -3.8047    1.7484    4.0260 H   0  0  0  0  0  0  0  0  0  0  0  0
   -3.5969    1.3201    1.5466 H   0  0  0  0  0  0  0  0  0  0  0  0
   -1.9850    3.6926    2.6620 H   0  0  0  0  0  0  0  0  0  0  0  0
   -2.6246    3.5776    1.0180 H   0  0  0  0  0  0  0  0  0  0  0  0
   -3.7342    3.6765    2.3981 H   0  0  0  0  0  0  0  0  0  0  0  0
   -1.3352    1.1101    0.3372 N   0  0  0  0  0  0  0  0  0  0  0  0
   -0.1579    0.6093   -0.3265 C   0  0  2  0  0  0  0  0  0  0  0  0
    0.2378   -0.6860    0.3734 C   0  0  0  0  0  0  0  0  0  0  0  0
   -0.2365   -1.0355    1.4522 O   0  0  0  0  0  0  0  0  0  0  0  0
    1.0006    1.6124   -0.2857 C   0  0  0  0  0  0  0  0  0  0  0  0
    0.7255    2.8551   -1.0967 C   0  0  0  0  0  0  0  0  0  0  0  0
    0.2519    4.0485   -0.6023 C   0  0  0  0  0  0  0  0  0  0  0  0
    0.9073    3.0091   -2.4996 C   0  0  0  0  0  0  0  0  0  0  0  0
    0.1379    4.9229   -1.6497 N   0  0  0  0  0  0  0  0  0  0  0  0
    0.5314    4.3152   -2.8206 C   0  0  0  0  0  0  0  0  0  0  0  0
    1.3570    2.1600   -3.5303 C   0  0  0  0  0  0  0  0  0  0  0  0
    0.5830    4.8167   -4.1261 C   0  0  0  0  0  0  0  0  0  0  0  0
    1.4138    2.6480   -4.8408 C   0  0  0  0  0  0  0  0  0  0  0  0
    1.0323    3.9563   -5.1319 C   0  0  0  0  0  0  0  0  0  0  0  0
   -2.1183    1.4068   -0.2401 H   0  0  0  0  0  0  0  0  0  0  0  0
   -0.4528    0.3842   -1.3582 H   0  0  0  0  0  0  0  0  0  0  0  0
    1.9267    1.1386   -0.6385 H   0  0  0  0  0  0  0  0  0  0  0  0
    1.2088    1.9161    0.7488 H   0  0  0  0  0  0  0  0  0  0  0  0
   -0.0158    4.3544    0.3997 H   0  0  0  0  0  0  0  0  0  0  0  0
   -0.1878    5.8767   -1.5749 H   0  0  0  0  0  0  0  0  0  0  0  0
    1.6570    1.1374   -3.3198 H   0  0  0  0  0  0  0  0  0  0  0  0
    0.2872    5.8353   -4.3534 H   0  0  0  0  0  0  0  0  0  0  0  0
    1.7593    1.9977   -5.6400 H   0  0  0  0  0  0  0  0  0  0  0  0
    1.0845    4.3146   -6.1567 H   0  0  0  0  0  0  0  0  0  0  0  0
    1.1437   -1.4250   -0.3747 N   0  0  0  0  0  0  0  0  0  0  0  0
    1.6644   -2.7052    0.0482 C   0  0  2  0  0  0  0  0  0  0  0  0
    2.1687   -2.5587    1.4778 C   0  0  0  0  0  0  0  0  0  0  0  0
    2.4881   -1.4781    1.9691 O   0  0  0  0  0  0  0  0  0  0  0  0
    2.7755   -3.1825   -0.8739 C   0  0  0  0  0  0  0  0  0  0  0  0
    1.4565   -1.0471   -1.2641 H   0  0  0  0  0  0  0  0  0  0  0  0
    0.8264   -3.4103    0.0264 H   0  0  0  0  0  0  0  0  0  0  0  0
    3.6240   -2.4886   -0.8653 H   0  0  0  0  0  0  0  0  0  0  0  0
    3.1494   -4.1655   -0.5689 H   0  0  0  0  0  0  0  0  0  0  0  0
    2.4190   -3.2587   -1.9068 H   0  0  0  0  0  0  0  0  0  0  0  0
    2.2612   -3.7822    2.1265 N   0  0  0  0  0  0  0  0  0  0  0  0
    2.7261   -3.9096    3.4879 C   0  0  0  0  0  0  0  0  0  0  0  0
    1.9569   -4.6253    1.6487 H   0  0  0  0  0  0  0  0  0  0  0  0
    3.8103   -4.0956    3.4898 H   0  0  0  0  0  0  0  0  0  0  0  0
    2.5126   -2.9804    4.0366 H   0  0  0  0  0  0  0  0  0  0  0  0
    2.2092   -4.7499    3.9746 H   0  0  0  0  0  0  0  0  0  0  0  0
 29 30  2  0  0  0  0
 27 29  1  0  0  0  0
 28 30  1  0  0  0  0
 24 27  2  0  0  0  0
 26 28  2  0  0  0  0
 22 23  2  0  0  0  0
 23 25  1  0  0  0  0
 22 24  1  0  0  0  0
 24 26  1  0  0  0  0
 21 22  1  0  0  0  0
 25 26  1  0  0  0  0
  1  3  1  0  0  0  0
  1  7  1  0  0  0  0
  1  2  2  0  0  0  0
 42 43  1  0  0  0  0
 43 51  1  0  0  0  0
 43 44  2  0  0  0  0
  8  9  1  0  0  0  0
  9 17  1  0  0  0  0
  9 10  2  0  0  0  0
 18 19  1  0  0  0  0
 19 41  1  0  0  0  0
 19 20  2  0  0  0  0
 42 45  1  0  0  0  0
  8 11  1  0  0  0  0
 51 52  1  0  0  0  0
 18 21  1  0  0  0  0
 41 42  1  0  0  0  0
  7  8  1  0  0  0  0
 17 18  1  0  0  0  0
 29 39  1  0  0  0  0
 30 40  1  0  0  0  0
 27 37  1  0  0  0  0
 28 38  1  0  0  0  0
 23 35  1  0  0  0  0
  3  4  1  0  0  0  0
  3  5  1  0  0  0  0
  3  6  1  0  0  0  0
 45 48  1  0  0  0  0
 45 49  1  0  0  0  0
 45 50  1  0  0  0  0
 11 14  1  0  0  0  0
 11 15  1  0  0  0  0
 11 16  1  0  0  0  0
 52 54  1  0  0  0  0
 52 55  1  0  0  0  0
 52 56  1  0  0  0  0
 21 33  1  0  0  0  0
 21 34  1  0  0  0  0
 42 47  1  0  0  0  0
  8 13  1  0  0  0  0
 18 32  1  0  0  0  0
 25 36  1  0  0  0  0
 51 53  1  0  0  0  0
  7 12  1  0  0  0  0
 41 46  1  0  0  0  0
 17 31  1  0  0  0  0
M  END
$$$$

  -OEChem-05262214473D

 56 57  0     1  0  0  0  0  0999 V2000
   -2.2900    0.3401    4.1553 C   0  0  0  0  0  0  0  0  0  0  0  0
   -1.3426   -0.2746    3.6796 O   0  0  0  0  0  0  0  0  0  0  0  0
   -2.7219    0.0577    5.5560 C   0  0  0  0  0  0  0  0  0  0  0  0
   -3.4815   -0.7386    5.6094 H   0  0  0  0  0  0  0  0  0  0  0  0
   -1.8906   -0.2899    6.1903 H   0  0  0  0  0  0  0  0  0  0  0  0
   -3.1599    0.9126    6.0956 H   0  0  0  0  0  0  0  0  0  0  0  0
   -3.0397    1.3125    3.5142 N   0  0  0  0  0  0  0  0  0  0  0  0
   -2.7928    1.7385    2.1618 C   0  0  2  0  0  0  0  0  0  0  0  0
   -1.4579    1.1532    1.7206 C   0  0  0  0  0  0  0  0  0  0  0  0
   -0.5858    0.8004    2.5118 O   0  0  0  0  0  0  0  0  0  0  0  0
   -2.7841    3.2553    2.0523 C   0  0  0  0  0  0  0  0  0  0  0  0
   -3.8047    1.7484    4.0260 H   0  0  0  0  0  0  0  0  0  0  0  0
   -3.5969    1.3201    1.5466 H   0  0  0  0  0  0  0  0  0  0  0  0
   -1.9850    3.6926    2.6620 H   0  0  0  0  0  0  0  0  0  0  0  0
   -2.6246    3.5776    1.0180 H   0  0  0  0  0  0  0  0  0  0  0  0
   -3.7342    3.6765    2.3981 H   0  0  0  0  0  0  0  0  0  0  0  0
   -1.3352    1.1101    0.3372 N   0  0  0  0  0  0  0  0  0  0  0  0
   -0.1579    0.6093   -0.3265 C   0  0  2  0  0  0  0  0  0  0  0  0
    0.0195   -0.8423    0.1042 C   0  0  0  0  0  0  0  0  0  0  0  0
   -0.7692   -1.4205    0.8488 O   0  0  0  0  0  0  0  0  0  0  0  0
    1.0932    1.4247    0.0201 C   0  0  0  0  0  0  0  0  0  0  0  0
    1.0405    2.8326   -0.5208 C   0  0  0  0  0  0  0  0  0  0  0  0
    0.6522    3.9495    0.1825 C   0  0  0  0  0  0  0  0  0  0  0  0
    1.3813    3.2476   -1.8387 C   0  0  0  0  0  0  0  0  0  0  0  0
    0.7429    5.0281   -0.6559 N   0  0  0  0  0  0  0  0  0  0  0  0
    1.1857    4.6291   -1.8968 C   0  0  0  0  0  0  0  0  0  0  0  0
    1.8388    2.5782   -2.9911 C   0  0  0  0  0  0  0  0  0  0  0  0
    1.4257    5.3778   -3.0545 C   0  0  0  0  0  0  0  0  0  0  0  0
    2.0831    3.3142   -4.1563 C   0  0  0  0  0  0  0  0  0  0  0  0
    1.8791    4.6924   -4.1852 C   0  0  0  0  0  0  0  0  0  0  0  0
   -2.1183    1.4068   -0.2401 H   0  0  0  0  0  0  0  0  0  0  0  0
   -0.3681    0.6414   -1.4020 H   0  0  0  0  0  0  0  0  0  0  0  0
    1.9931    0.9184   -0.3546 H   0  0  0  0  0  0  0  0  0  0  0  0
    1.2259    1.4794    1.1087 H   0  0  0  0  0  0  0  0  0  0  0  0
    0.3181    4.0743    1.2033 H   0  0  0  0  0  0  0  0  0  0  0  0
    0.5176    5.9799   -0.4014 H   0  0  0  0  0  0  0  0  0  0  0  0
    2.0018    1.5043   -2.9850 H   0  0  0  0  0  0  0  0  0  0  0  0
    1.2682    6.4508   -3.0776 H   0  0  0  0  0  0  0  0  0  0  0  0
    2.4355    2.8035   -5.0484 H   0  0  0  0  0  0  0  0  0  0  0  0
    2.0752    5.2443   -5.1008 H   0  0  0  0  0  0  0  0  0  0  0  0
    1.1342   -1.4257   -0.4820 N   0  0  0  0  0  0  0  0  0  0  0  0
    1.5189   -2.8011   -0.2607 C   0  0  2  0  0  0  0  0  0  0  0  0
    1.5323   -3.0498    1.2418 C   0  0  0  0  0  0  0  0  0  0  0  0
    1.6525   -2.1491    2.0697 O   0  0  0  0  0  0  0  0  0  0  0  0
    2.8780   -3.1010   -0.8735 C   0  0  0  0  0  0  0  0  0  0  0  0
    1.7085   -0.8573   -1.0976 H   0  0  0  0  0  0  0  0  0  0  0  0
    0.7483   -3.4241   -0.7277 H   0  0  0  0  0  0  0  0  0  0  0  0
    3.6630   -2.4862   -0.4181 H   0  0  0  0  0  0  0  0  0  0  0  0
    3.1552   -4.1506   -0.7297 H   0  0  0  0  0  0  0  0  0  0  0  0
    2.8751   -2.8933   -1.9489 H   0  0  0  0  0  0  0  0  0  0  0  0
    1.4377   -4.4001    1.5482 N   0  0  0  0  0  0  0  0  0  0  0  0
    1.4418   -4.8937    2.9055 C   0  0  0  0  0  0  0  0  0  0  0  0
    1.3221   -5.0757    0.7985 H   0  0  0  0  0  0  0  0  0  0  0  0
    2.4714   -5.1420    3.2028 H   0  0  0  0  0  0  0  0  0  0  0  0
    1.0426   -4.1202    3.5781 H   0  0  0  0  0  0  0  0  0  0  0  0
    0.8143   -5.7949    2.9697 H   0  0  0  0  0  0  0  0  0  0  0  0
 29 30  2  0  0  0  0
 27 29  1  0  0  0  0
 28 30  1  0  0  0  0
 24 27  2  0  0  0  0
 26 28  2  0  0  0  0
 22 23  2  0  0  0  0
 23 25  1  0  0  0  0
 22 24  1  0  0  0  0
 24 26  1  0  0  0  0
 21 22  1  0  0  0  0
 25 26  1  0  0  0  0
  1  3  1  0  0  0  0
  1  7  1  0  0  0  0
  1  2  2  0  0  0  0
 42 43  1  0  0  0  0
 43 51  1  0  0  0  0
 43 44  2  0  0  0  0
  8  9  1  0  0  0  0
  9 17  1  0  0  0  0
  9 10  2  0  0  0  0
 18 19  1  0  0  0  0
 19 41  1  0  0  0  0
 19 20  2  0  0  0  0
 42 45  1  0  0  0  0
  8 11  1  0  0  0  0
 51 52  1  0  0  0  0
 18 21  1  0  0  0  0
 41 42  1  0  0  0  0
  7  8  1  0  0  0  0
 17 18  1  0  0  0  0
 29 39  1  0  0  0  0
 30 40  1  0  0  0  0
 27 37  1  0  0  0  0
 28 38  1  0  0  0  0
 23 35  1  0  0  0  0
  3  4  1  0  0  0  0
  3  5  1  0  0  0  0
  3  6  1  0  0  0  0
 45 48  1  0  0  0  0
 45 49  1  0  0  0  0
 45 50  1  0  0  0  0
 11 14  1  0  0  0  0
 11 15  1  0  0  0  0
 11 16  1  0  0  0  0
 52 54  1  0  0  0  0
 52 55  1  0  0  0  0
 52 56  1  0  0  0  0
 21 33  1  0  0  0  0
 21 34  1  0  0  0  0
 42 47  1  0  0  0  0
  8 13  1  0  0  0  0
 18 32  1  0  0  0  0
 25 36  1  0  0  0  0
 51 53  1  0  0  0  0
  7 12  1  0  0  0  0
 41 46  1  0  0  0  0
 17 31  1  0  0  0  0
M  END
$$$$

  -OEChem-05262214473D

 56 57  0     1  0  0  0  0  0999 V2000
   -2.2900    0.3401    4.1553 C   0  0  0  0  0  0  0  0  0  0  0  0
   -1.3426   -0.2746    3.6796 O   0  0  0  0  0  0  0  0  0  0  0  0
   -2.7219    0.0577    5.5560 C   0  0  0  0  0  0  0  0  0  0  0  0
   -3.4815   -0.7386    5.6094 H   0  0  0  0  0  0  0  0  0  0  0  0
   -1.8906   -0.2899    6.1903 H   0  0  0  0  0  0  0  0  0  0  0  0
   -3.1599    0.9126    6.0956 H   0  0  0  0  0  0  0  0  0  0  0  0
   -3.0397    1.3125    3.5142 N   0  0  0  0  0  0  0  0  0  0  0  0
   -2.7928    1.7385    2.1618 C   0  0  2  0  0  0  0  0  0  0  0  0
   -1.4579    1.1532    1.7206 C   0  0  0  0  0  0  0  0  0  0  0  0
   -0.5858    0.8004    2.5118 O   0  0  0  0  0  0  0  0  0  0  0  0
   -2.7841    3.2553    2.0523 C   0  0  0  0  0  0  0  0  0  0  0  0
   -3.8047    1.7484    4.0260 H   0  0  0  0  0  0  0  0  0  0  0  0
   -3.5969    1.3201    1.5466 H   0  0  0  0  0  0  0  0  0  0  0  0
   -1.9850    3.6926    2.6620 H   0  0  0  0  0  0  0  0  0  0  0  0
   -2.6246    3.5776    1.0180 H   0  0  0  0  0  0  0  0  0  0  0  0
   -3.7342    3.6765    2.3981 H   0  0  0  0  0  0  0  0  0  0  0  0
   -1.3352    1.1101    0.3372 N   0  0  0  0  0  0  0  0  0  0  0  0
   -0.1579    0.6093   -0.3265 C   0  0  2  0  0  0  0  0  0  0  0  0
    0.0195   -0.8423    0.1042 C   0  0  0  0  0  0  0  0  0  0  0  0
   -0.8809   -1.5026    0.6181 O   0  0  0  0  0  0  0  0  0  0  0  0
    1.0932    1.4247    0.0201 C   0  0  0  0  0  0  0  0  0  0  0  0
    1.0405    2.8326   -0.5208 C   0  0  0  0  0  0  0  0  0  0  0  0
    0.6522    3.9495    0.1825 C   0  0  0  0  0  0  0  0  0  0  0  0
    1.3813    3.2476   -1.8387 C   0  0  0  0  0  0  0  0  0  0  0  0
    0.7429    5.0281   -0.6559 N   0  0  0  0  0  0  0  0  0  0  0  0
    1.1857    4.6291   -1.8968 C   0  0  0  0  0  0  0  0  0  0  0  0
    1.8388    2.5782   -2.9911 C   0  0  0  0  0  0  0  0  0  0  0  0
    1.4257    5.3778   -3.0545 C   0  0  0  0  0  0  0  0  0  0  0  0
    2.0831    3.3142   -4.1563 C   0  0  0  0  0  0  0  0  0  0  0  0
    1.8791    4.6924   -4.1852 C   0  0  0  0  0  0  0  0  0  0  0  0
   -2.1183    1.4068   -0.2401 H   0  0  0  0  0  0  0  0  0  0  0  0
   -0.3681    0.6414   -1.4020 H   0  0  0  0  0  0  0  0  0  0  0  0
    1.9931    0.9184   -0.3546 H   0  0  0  0  0  0  0  0  0  0  0  0
    1.2259    1.4794    1.1087 H   0  0  0  0  0  0  0  0  0  0  0  0
    0.3181    4.0743    1.2033 H   0  0  0  0  0  0  0  0  0  0  0  0
    0.5176    5.9799   -0.4014 H   0  0  0  0  0  0  0  0  0  0  0  0
    2.0018    1.5043   -2.9850 H   0  0  0  0  0  0  0  0  0  0  0  0
    1.2682    6.4508   -3.0776 H   0  0  0  0  0  0  0  0  0  0  0  0
    2.4355    2.8035   -5.0484 H   0  0  0  0  0  0  0  0  0  0  0  0
    2.0752    5.2443   -5.1008 H   0  0  0  0  0  0  0  0  0  0  0  0
    1.2854   -1.3235   -0.1999 N   0  0  0  0  0  0  0  0  0  0  0  0
    1.7086   -2.6766    0.0809 C   0  0  2  0  0  0  0  0  0  0  0  0
    1.3721   -2.9825    1.5344 C   0  0  0  0  0  0  0  0  0  0  0  0
    1.2159   -2.1089    2.3850 O   0  0  0  0  0  0  0  0  0  0  0  0
    3.1955   -2.8572   -0.1825 C   0  0  0  0  0  0  0  0  0  0  0  0
    1.9477   -0.6930   -0.6421 H   0  0  0  0  0  0  0  0  0  0  0  0
    1.1264   -3.3327   -0.5753 H   0  0  0  0  0  0  0  0  0  0  0  0
    3.7951   -2.2078    0.4658 H   0  0  0  0  0  0  0  0  0  0  0  0
    3.5088   -3.8898    0.0034 H   0  0  0  0  0  0  0  0  0  0  0  0
    3.4405   -2.6081   -1.2206 H   0  0  0  0  0  0  0  0  0  0  0  0
    1.3093   -4.3471    1.7795 N   0  0  0  0  0  0  0  0  0  0  0  0
    1.0183   -4.8922    3.0849 C   0  0  0  0  0  0  0  0  0  0  0  0
    1.4335   -4.9991    1.0106 H   0  0  0  0  0  0  0  0  0  0  0  0
    1.9594   -5.0800    3.6225 H   0  0  0  0  0  0  0  0  0  0  0  0
    0.4080   -4.1753    3.6537 H   0  0  0  0  0  0  0  0  0  0  0  0
    0.4655   -5.8366    2.9729 H   0  0  0  0  0  0  0  0  0  0  0  0
 29 30  2  0  0  0  0
 27 29  1  0  0  0  0
 28 30  1  0  0  0  0
 24 27  2  0  0  0  0
 26 28  2  0  0  0  0
 22 23  2  0  0  0  0
 23 25  1  0  0  0  0
 22 24  1  0  0  0  0
 24 26  1  0  0  0  0
 21 22  1  0  0  0  0
 25 26  1  0  0  0  0
  1  3  1  0  0  0  0
  1  7  1  0  0  0  0
  1  2  2  0  0  0  0
 42 43  1  0  0  0  0
 43 51  1  0  0  0  0
 43 44  2  0  0  0  0
  8  9  1  0  0  0  0
  9 17  1  0  0  0  0
  9 10  2  0  0  0  0
 18 19  1  0  0  0  0
 19 41  1  0  0  0  0
 19 20  2  0  0  0  0
 42 45  1  0  0  0  0
  8 11  1  0  0  0  0
 51 52  1  0  0  0  0
 18 21  1  0  0  0  0
 41 42  1  0  0  0  0
  7  8  1  0  0  0  0
 17 18  1  0  0  0  0
 29 39  1  0  0  0  0
 30 40  1  0  0  0  0
 27 37  1  0  0  0  0
 28 38  1  0  0  0  0
 23 35  1  0  0  0  0
  3  4  1  0  0  0  0
  3  5  1  0  0  0  0
  3  6  1  0  0  0  0
 45 48  1  0  0  0  0
 45 49  1  0  0  0  0
 45 50  1  0  0  0  0
 11 14  1  0  0  0  0
 11 15  1  0  0  0  0
 11 16  1  0  0  0  0
 52 54  1  0  0  0  0
 52 55  1  0  0  0  0
 52 56  1  0  0  0  0
 21 33  1  0  0  0  0
 21 34  1  0  0  0  0
 42 47  1  0  0  0  0
  8 13  1  0  0  0  0
 18 32  1  0  0  0  0
 25 36  1  0  0  0  0
 51 53  1  0  0  0  0
  7 12  1  0  0  0  0
 41 46  1  0  0  0  0
 17 31  1  0  0  0  0
M  END
$$$$

  -OEChem-05262214473D

 56 57  0     1  0  0  0  0  0999 V2000
   -2.2900    0.3401    4.1553 C   0  0  0  0  0  0  0  0  0  0  0  0
   -1.3426   -0.2746    3.6796 O   0  0  0  0  0  0  0  0  0  0  0  0
   -2.7219    0.0577    5.5560 C   0  0  0  0  0  0  0  0  0  0  0  0
   -3.4815   -0.7386    5.6094 H   0  0  0  0  0  0  0  0  0  0  0  0
   -1.8906   -0.2899    6.1903 H   0  0  0  0  0  0  0  0  0  0  0  0
   -3.1599    0.9126    6.0956 H   0  0  0  0  0  0  0  0  0  0  0  0
   -3.0397    1.3125    3.5142 N   0  0  0  0  0  0  0  0  0  0  0  0
   -2.7928    1.7385    2.1618 C   0  0  2  0  0  0  0  0  0  0  0  0
   -1.4579    1.1532    1.7206 C   0  0  0  0  0  0  0  0  0  0  0  0
   -0.5858    0.8004    2.5118 O   0  0  0  0  0  0  0  0  0  0  0  0
   -2.7841    3.2553    2.0523 C   0  0  0  0  0  0  0  0  0  0  0  0
   -3.8047    1.7484    4.0260 H   0  0  0  0  0  0  0  0  0  0  0  0
   -3.5969    1.3201    1.5466 H   0  0  0  0  0  0  0  0  0  0  0  0
   -1.9850    3.6926    2.6620 H   0  0  0  0  0  0  0  0  0  0  0  0
   -2.6246    3.5776    1.0180 H   0  0  0  0  0  0  0  0  0  0  0  0
   -3.7342    3.6765    2.3981 H   0  0  0  0  0  0  0  0  0  0  0  0
   -1.3352    1.1101    0.3372 N   0  0  0  0  0  0  0  0  0  0  0  0
   -0.1579    0.6093   -0.3265 C   0  0  2  0  0  0  0  0  0  0  0  0
    0.0195   -0.8423    0.1042 C   0  0  0  0  0  0  0  0  0  0  0  0
   -0.9260   -1.5832    0.3652 O   0  0  0  0  0  0  0  0  0  0  0  0
    1.0932    1.4247    0.0201 C   0  0  0  0  0  0  0  0  0  0  0  0
    1.0405    2.8326   -0.5208 C   0  0  0  0  0  0  0  0  0  0  0  0
    0.6522    3.9495    0.1825 C   0  0  0  0  0  0  0  0  0  0  0  0
    1.3813    3.2476   -1.8387 C   0  0  0  0  0  0  0  0  0  0  0  0
    0.7429    5.0281   -0.6559 N   0  0  0  0  0  0  0  0  0  0  0  0
    1.1857    4.6291   -1.8968 C   0  0  0  0  0  0  0  0  0  0  0  0
    1.8388    2.5782   -2.9911 C   0  0  0  0  0  0  0  0  0  0  0  0
    1.4257    5.3778   -3.0545 C   0  0  0  0  0  0  0  0  0  0  0  0
    2.0831    3.3142   -4.1563 C   0  0  0  0  0  0  0  0  0  0  0  0
    1.8791    4.6924   -4.1852 C   0  0  0  0  0  0  0  0  0  0  0  0
   -2.1183    1.4068   -0.2401 H   0  0  0  0  0  0  0  0  0  0  0  0
   -0.3681    0.6414   -1.4020 H   0  0  0  0  0  0  0  0  0  0  0  0
    1.9931    0.9184   -0.3546 H   0  0  0  0  0  0  0  0  0  0  0  0
    1.2259    1.4794    1.1087 H   0  0  0  0  0  0  0  0  0  0  0  0
    0.3181    4.0743    1.2033 H   0  0  0  0  0  0  0  0  0  0  0  0
    0.5176    5.9799   -0.4014 H   0  0  0  0  0  0  0  0  0  0  0  0
    2.0018    1.5043   -2.9850 H   0  0  0  0  0  0  0  0  0  0  0  0
    1.2682    6.4508   -3.0776 H   0  0  0  0  0  0  0  0  0  0  0  0
    2.4355    2.8035   -5.0484 H   0  0  0  0  0  0  0  0  0  0  0  0
    2.0752    5.2443   -5.1008 H   0  0  0  0  0  0  0  0  0  0  0  0
    1.3544   -1.2223    0.1129 N   0  0  0  0  0  0  0  0  0  0  0  0
    1.7986   -2.5527    0.4613 C   0  0  2  0  0  0  0  0  0  0  0  0
    1.1404   -2.9381    1.7796 C   0  0  0  0  0  0  0  0  0  0  0  0
    0.7136   -2.1115    2.5831 O   0  0  0  0  0  0  0  0  0  0  0  0
    3.3140   -2.6193    0.5705 C   0  0  0  0  0  0  0  0  0  0  0  0
    2.0545   -0.5304   -0.1383 H   0  0  0  0  0  0  0  0  0  0  0  0
    1.4473   -3.2213   -0.3321 H   0  0  0  0  0  0  0  0  0  0  0  0
    3.6845   -1.9559    1.3605 H   0  0  0  0  0  0  0  0  0  0  0  0
    3.6506   -3.6342    0.8065 H   0  0  0  0  0  0  0  0  0  0  0  0
    3.7863   -2.3132   -0.3692 H   0  0  0  0  0  0  0  0  0  0  0  0
    1.1245   -4.3124    1.9728 N   0  0  0  0  0  0  0  0  0  0  0  0
    0.5649   -4.9272    3.1539 C   0  0  0  0  0  0  0  0  0  0  0  0
    1.4833   -4.9235    1.2451 H   0  0  0  0  0  0  0  0  0  0  0  0
    1.3570   -5.0702    3.9037 H   0  0  0  0  0  0  0  0  0  0  0  0
   -0.2195   -4.2772    3.5688 H   0  0  0  0  0  0  0  0  0  0  0  0
    0.1307   -5.9024    2.8887 H   0  0  0  0  0  0  0  0  0  0  0  0
 29 30  2  0  0  0  0
 27 29  1  0  0  0  0
 28 30  1  0  0  0  0
 24 27  2  0  0  0  0
 26 28  2  0  0  0  0
 22 23  2  0  0  0  0
 23 25  1  0  0  0  0
 22 24  1  0  0  0  0
 24 26  1  0  0  0  0
 21 22  1  0  0  0  0
 25 26  1  0  0  0  0
  1  3  1  0  0  0  0
  1  7  1  0  0  0  0
  1  2  2  0  0  0  0
 42 43  1  0  0  0  0
 43 51  1  0  0  0  0
 43 44  2  0  0  0  0
  8  9  1  0  0  0  0
  9 17  1  0  0  0  0
  9 10  2  0  0  0  0
 18 19  1  0  0  0  0
 19 41  1  0  0  0  0
 19 20  2  0  0  0  0
 42 45  1  0  0  0  0
  8 11  1  0  0  0  0
 51 52  1  0  0  0  0
 18 21  1  0  0  0  0
 41 42  1  0  0  0  0
  7  8  1  0  0  0  0
 17 18  1  0  0  0  0
 29 39  1  0  0  0  0
 30 40  1  0  0  0  0
 27 37  1  0  0  0  0
 28 38  1  0  0  0  0
 23 35  1  0  0  0  0
  3  4  1  0  0  0  0
  3  5  1  0  0  0  0
  3  6  1  0  0  0  0
 45 48  1  0  0  0  0
 45 49  1  0  0  0  0
 45 50  1  0  0  0  0
 11 14  1  0  0  0  0
 11 15  1  0  0  0  0
 11 16  1  0  0  0  0
 52 54  1  0  0  0  0
 52 55  1  0  0  0  0
 52 56  1  0  0  0  0
 21 33  1  0  0  0  0
 21 34  1  0  0  0  0
 42 47  1  0  0  0  0
  8 13  1  0  0  0  0
 18 32  1  0  0  0  0
 25 36  1  0  0  0  0
 51 53  1  0  0  0  0
  7 12  1  0  0  0  0
 41 46  1  0  0  0  0
 17 31  1  0  0  0  0
M  END
$$$$

  -OEChem-05262214473D

 56 57  0     1  0  0  0  0  0999 V2000
   -2.2900    0.3401    4.1553 C   0  0  0  0  0  0  0  0  0  0  0  0
   -1.3426   -0.2746    3.6796 O   0  0  0  0  0  0  0  0  0  0  0  0
   -2.7219    0.0577    5.5560 C   0  0  0  0  0  0  0  0  0  0  0  0
   -3.4815   -0.7386    5.6094 H   0  0  0  0  0  0  0  0  0  0  0  0
   -1.8906   -0.2899    6.1903 H   0  0  0  0  0  0  0  0  0  0  0  0
   -3.1599    0.9126    6.0956 H   0  0  0  0  0  0  0  0  0  0  0  0
   -3.0397    1.3125    3.5142 N   0  0  0  0  0  0  0  0  0  0  0  0
   -2.7928    1.7385    2.1618 C   0  0  2  0  0  0  0  0  0  0  0  0
   -1.4579    1.1532    1.7206 C   0  0  0  0  0  0  0  0  0  0  0  0
   -0.5858    0.8004    2.5118 O   0  0  0  0  0  0  0  0  0  0  0  0
   -2.7841    3.2553    2.0523 C   0  0  0  0  0  0  0  0  0  0  0  0
   -3.8047    1.7484    4.0260 H   0  0  0  0  0  0  0  0  0  0  0  0
   -3.5969    1.3201    1.5466 H   0  0  0  0  0  0  0  0  0  0  0  0
   -1.9850    3.6926    2.6620 H   0  0  0  0  0  0  0  0  0  0  0  0
   -2.6246    3.5776    1.0180 H   0  0  0  0  0  0  0  0  0  0  0  0
   -3.7342    3.6765    2.3981 H   0  0  0  0  0  0  0  0  0  0  0  0
   -1.3352    1.1101    0.3372 N   0  0  0  0  0  0  0  0  0  0  0  0
   -0.1579    0.6093   -0.3265 C   0  0  2  0  0  0  0  0  0  0  0  0
    0.0195   -0.8423    0.1042 C   0  0  0  0  0  0  0  0  0  0  0  0
   -0.9013   -1.6566    0.1075 O   0  0  0  0  0  0  0  0  0  0  0  0
    1.0932    1.4247    0.0201 C   0  0  0  0  0  0  0  0  0  0  0  0
    1.0405    2.8326   -0.5208 C   0  0  0  0  0  0  0  0  0  0  0  0
    0.6522    3.9495    0.1825 C   0  0  0  0  0  0  0  0  0  0  0  0
    1.3813    3.2476   -1.8387 C   0  0  0  0  0  0  0  0  0  0  0  0
    0.7429    5.0281   -0.6559 N   0  0  0  0  0  0  0  0  0  0  0  0
    1.1857    4.6291   -1.8968 C   0  0  0  0  0  0  0  0  0  0  0  0
    1.8388    2.5782   -2.9911 C   0  0  0  0  0  0  0  0  0  0  0  0
    1.4257    5.3778   -3.0545 C   0  0  0  0  0  0  0  0  0  0  0  0
    2.0831    3.3142   -4.1563 C   0  0  0  0  0  0  0  0  0  0  0  0
    1.8791    4.6924   -4.1852 C   0  0  0  0  0  0  0  0  0  0  0  0
   -2.1183    1.4068   -0.2401 H   0  0  0  0  0  0  0  0  0  0  0  0
   -0.3681    0.6414   -1.4020 H   0  0  0  0  0  0  0  0  0  0  0  0
    1.9931    0.9184   -0.3546 H   0  0  0  0  0  0  0  0  0  0  0  0
    1.2259    1.4794    1.1087 H   0  0  0  0  0  0  0  0  0  0  0  0
    0.3181    4.0743    1.2033 H   0  0  0  0  0  0  0  0  0  0  0  0
    0.5176    5.9799   -0.4014 H   0  0  0  0  0  0  0  0  0  0  0  0
    2.0018    1.5043   -2.9850 H   0  0  0  0  0  0  0  0  0  0  0  0
    1.2682    6.4508   -3.0776 H   0  0  0  0  0  0  0  0  0  0  0  0
    2.4355    2.8035   -5.0484 H   0  0  0  0  0  0  0  0  0  0  0  0
    2.0752    5.2443   -5.1008 H   0  0  0  0  0  0  0  0  0  0  0  0
    1.3367   -1.1288    0.4351 N   0  0  0  0  0  0  0  0  0  0  0  0
    1.7827   -2.4379    0.8547 C   0  0  2  0  0  0  0  0  0  0  0  0
    0.8529   -2.9195    1.9606 C   0  0  0  0  0  0  0  0  0  0  0  0
    0.1797   -2.1567    2.6506 O   0  0  0  0  0  0  0  0  0  0  0  0
    3.2255   -2.4035    1.3343 C   0  0  0  0  0  0  0  0  0  0  0  0
    2.0216   -0.3808    0.3797 H   0  0  0  0  0  0  0  0  0  0  0  0
    1.6893   -3.0976   -0.0148 H   0  0  0  0  0  0  0  0  0  0  0  0
    3.3387   -1.7476    2.2051 H   0  0  0  0  0  0  0  0  0  0  0  0
    3.5709   -3.4012    1.6249 H   0  0  0  0  0  0  0  0  0  0  0  0
    3.8889   -2.0287    0.5474 H   0  0  0  0  0  0  0  0  0  0  0  0
    0.8958   -4.2981    2.1151 N   0  0  0  0  0  0  0  0  0  0  0  0
    0.1125   -4.9962    3.1077 C   0  0  0  0  0  0  0  0  0  0  0  0
    1.4680   -4.8538    1.4862 H   0  0  0  0  0  0  0  0  0  0  0  0
    0.7050   -5.1133    4.0271 H   0  0  0  0  0  0  0  0  0  0  0  0
   -0.7973   -4.4189    3.3290 H   0  0  0  0  0  0  0  0  0  0  0  0
   -0.1670   -5.9880    2.7229 H   0  0  0  0  0  0  0  0  0  0  0  0
 29 30  2  0  0  0  0
 27 29  1  0  0  0  0
 28 30  1  0  0  0  0
 24 27  2  0  0  0  0
 26 28  2  0  0  0  0
 22 23  2  0  0  0  0
 23 25  1  0  0  0  0
 22 24  1  0  0  0  0
 24 26  1  0  0  0  0
 21 22  1  0  0  0  0
 25 26  1  0  0  0  0
  1  3  1  0  0  0  0
  1  7  1  0  0  0  0
  1  2  2  0  0  0  0
 42 43  1  0  0  0  0
 43 51  1  0  0  0  0
 43 44  2  0  0  0  0
  8  9  1  0  0  0  0
  9 17  1  0  0  0  0
  9 10  2  0  0  0  0
 18 19  1  0  0  0  0
 19 41  1  0  0  0  0
 19 20  2  0  0  0  0
 42 45  1  0  0  0  0
  8 11  1  0  0  0  0
 51 52  1  0  0  0  0
 18 21  1  0  0  0  0
 41 42  1  0  0  0  0
  7  8  1  0  0  0  0
 17 18  1  0  0  0  0
 29 39  1  0  0  0  0
 30 40  1  0  0  0  0
 27 37  1  0  0  0  0
 28 38  1  0  0  0  0
 23 35  1  0  0  0  0
  3  4  1  0  0  0  0
  3  5  1  0  0  0  0
  3  6  1  0  0  0  0
 45 48  1  0  0  0  0
 45 49  1  0  0  0  0
 45 50  1  0  0  0  0
 11 14  1  0  0  0  0
 11 15  1  0  0  0  0
 11 16  1  0  0  0  0
 52 54  1  0  0  0  0
 52 55  1  0  0  0  0
 52 56  1  0  0  0  0
 21 33  1  0  0  0  0
 21 34  1  0  0  0  0
 42 47  1  0  0  0  0
  8 13  1  0  0  0  0
 18 32  1  0  0  0  0
 25 36  1  0  0  0  0
 51 53  1  0  0  0  0
  7 12  1  0  0  0  0
 41 46  1  0  0  0  0
 17 31  1  0  0  0  0
M  END
$$$$

  -OEChem-05262214473D

 56 57  0     1  0  0  0  0  0999 V2000
   -2.2900    0.3401    4.1553 C   0  0  0  0  0  0  0  0  0  0  0  0
   -1.3426   -0.2746    3.6796 O   0  0  0  0  0  0  0  0  0  0  0  0
   -2.7219    0.0577    5.5560 C   0  0  0  0  0  0  0  0  0  0  0  0
   -3.4815   -0.7386    5.6094 H   0  0  0  0  0  0  0  0  0  0  0  0
   -1.8906   -0.2899    6.1903 H   0  0  0  0  0  0  0  0  0  0  0  0
   -3.1599    0.9126    6.0956 H   0  0  0  0  0  0  0  0  0  0  0  0
   -3.0397    1.3125    3.5142 N   0  0  0  0  0  0  0  0  0  0  0  0
   -2.7928    1.7385    2.1618 C   0  0  2  0  0  0  0  0  0  0  0  0
   -1.4579    1.1532    1.7206 C   0  0  0  0  0  0  0  0  0  0  0  0
   -0.5858    0.8004    2.5118 O   0  0  0  0  0  0  0  0  0  0  0  0
   -2.7841    3.2553    2.0523 C   0  0  0  0  0  0  0  0  0  0  0  0
   -3.8047    1.7484    4.0260 H   0  0  0  0  0  0  0  0  0  0  0  0
   -3.5969    1.3201    1.5466 H   0  0  0  0  0  0  0  0  0  0  0  0
   -1.9850    3.6926    2.6620 H   0  0  0  0  0  0  0  0  0  0  0  0
   -2.6246    3.5776    1.0180 H   0  0  0  0  0  0  0  0  0  0  0  0
   -3.7342    3.6765    2.3981 H   0  0  0  0  0  0  0  0  0  0  0  0
   -1.3352    1.1101    0.3372 N   0  0  0  0  0  0  0  0  0  0  0  0
   -0.1579    0.6093   -0.3265 C   0  0  2  0  0  0  0  0  0  0  0  0
    0.0195   -0.8423    0.1042 C   0  0  0  0  0  0  0  0  0  0  0  0
   -0.8085   -1.7180   -0.1377 O   0  0  0  0  0  0  0  0  0  0  0  0
    1.0932    1.4247    0.0201 C   0  0  0  0  0  0  0  0  0  0  0  0
    1.0405    2.8326   -0.5208 C   0  0  0  0  0  0  0  0  0  0  0  0
    0.6522    3.9495    0.1825 C   0  0  0  0  0  0  0  0  0  0  0  0
    1.3813    3.2476   -1.8387 C   0  0  0  0  0  0  0  0  0  0  0  0
    0.7429    5.0281   -0.6559 N   0  0  0  0  0  0  0  0  0  0  0  0
    1.1857    4.6291   -1.8968 C   0  0  0  0  0  0  0  0  0  0  0  0
    1.8388    2.5782   -2.9911 C   0  0  0  0  0  0  0  0  0  0  0  0
    1.4257    5.3778   -3.0545 C   0  0  0  0  0  0  0  0  0  0  0  0
    2.0831    3.3142   -4.1563 C   0  0  0  0  0  0  0  0  0  0  0  0
    1.8791    4.6924   -4.1852 C   0  0  0  0  0  0  0  0  0  0  0  0
   -2.1183    1.4068   -0.2401 H   0  0  0  0  0  0  0  0  0  0  0  0
   -0.3681    0.6414   -1.4020 H   0  0  0  0  0  0  0  0  0  0  0  0
    1.9931    0.9184   -0.3546 H   0  0  0  0  0  0  0  0  0  0  0  0
    1.2259    1.4794    1.1087 H   0  0  0  0  0  0  0  0  0  0  0  0
    0.3181    4.0743    1.2033 H   0  0  0  0  0  0  0  0  0  0  0  0
    0.5176    5.9799   -0.4014 H   0  0  0  0  0  0  0  0  0  0  0  0
    2.0018    1.5043   -2.9850 H   0  0  0  0  0  0  0  0  0  0  0  0
    1.2682    6.4508   -3.0776 H   0  0  0  0  0  0  0  0  0  0  0  0
    2.4355    2.8035   -5.0484 H   0  0  0  0  0  0  0  0  0  0  0  0
    2.0752    5.2443   -5.1008 H   0  0  0  0  0  0  0  0  0  0  0  0
    1.2332   -1.0496    0.7448 N   0  0  0  0  0  0  0  0  0  0  0  0
    1.6620   -2.3401    1.2343 C   0  0  2  0  0  0  0  0  0  0  0  0
    0.5291   -2.9281    2.0652 C   0  0  0  0  0  0  0  0  0  0  0  0
   -0.3493   -2.2415    2.5829 O   0  0  0  0  0  0  0  0  0  0  0  0
    2.9360   -2.2246    2.0567 C   0  0  0  0  0  0  0  0  0  0  0  0
    1.8512   -0.2543    0.8763 H   0  0  0  0  0  0  0  0  0  0  0  0
    1.8358   -2.9700    0.3550 H   0  0  0  0  0  0  0  0  0  0  0  0
    2.7813   -1.5971    2.9420 H   0  0  0  0  0  0  0  0  0  0  0  0
    3.2752   -3.2065    2.4028 H   0  0  0  0  0  0  0  0  0  0  0  0
    3.7413   -1.7741    1.4665 H   0  0  0  0  0  0  0  0  0  0  0  0
    0.6387   -4.3054    2.1965 N   0  0  0  0  0  0  0  0  0  0  0  0
   -0.3080   -5.0945    2.9495 C   0  0  0  0  0  0  0  0  0  0  0  0
    1.3887   -4.7949    1.7174 H   0  0  0  0  0  0  0  0  0  0  0  0
    0.0480   -5.2063    3.9843 H   0  0  0  0  0  0  0  0  0  0  0  0
   -1.2860   -4.5909    2.9507 H   0  0  0  0  0  0  0  0  0  0  0  0
   -0.4075   -6.0875    2.4868 H   0  0  0  0  0  0  0  0  0  0  0  0
 29 30  2  0  0  0  0
 27 29  1  0  0  0  0
 28 30  1  0  0  0  0
 24 27  2  0  0  0  0
 26 28  2  0  0  0  0
 22 23  2  0  0  0  0
 23 25  1  0  0  0  0
 22 24  1  0  0  0  0
 24 26  1  0  0  0  0
 21 22  1  0  0  0  0
 25 26  1  0  0  0  0
  1  3  1  0  0  0  0
  1  7  1  0  0  0  0
  1  2  2  0  0  0  0
 42 43  1  0  0  0  0
 43 51  1  0  0  0  0
 43 44  2  0  0  0  0
  8  9  1  0  0  0  0
  9 17  1  0  0  0  0
  9 10  2  0  0  0  0
 18 19  1  0  0  0  0
 19 41  1  0  0  0  0
 19 20  2  0  0  0  0
 42 45  1  0  0  0  0
  8 11  1  0  0  0  0
 51 52  1  0  0  0  0
 18 21  1  0  0  0  0
 41 42  1  0  0  0  0
  7  8  1  0  0  0  0
 17 18  1  0  0  0  0
 29 39  1  0  0  0  0
 30 40  1  0  0  0  0
 27 37  1  0  0  0  0
 28 38  1  0  0  0  0
 23 35  1  0  0  0  0
  3  4  1  0  0  0  0
  3  5  1  0  0  0  0
  3  6  1  0  0  0  0
 45 48  1  0  0  0  0
 45 49  1  0  0  0  0
 45 50  1  0  0  0  0
 11 14  1  0  0  0  0
 11 15  1  0  0  0  0
 11 16  1  0  0  0  0
 52 54  1  0  0  0  0
 52 55  1  0  0  0  0
 52 56  1  0  0  0  0
 21 33  1  0  0  0  0
 21 34  1  0  0  0  0
 42 47  1  0  0  0  0
  8 13  1  0  0  0  0
 18 32  1  0  0  0  0
 25 36  1  0  0  0  0
 51 53  1  0  0  0  0
  7 12  1  0  0  0  0
 41 46  1  0  0  0  0
 17 31  1  0  0  0  0
M  END
$$$$

  -OEChem-05262214473D

 56 57  0     1  0  0  0  0  0999 V2000
   -2.2900    0.3401    4.1553 C   0  0  0  0  0  0  0  0  0  0  0  0
   -1.3426   -0.2746    3.6796 O   0  0  0  0  0  0  0  0  0  0  0  0
   -2.7219    0.0577    5.5560 C   0  0  0  0  0  0  0  0  0  0  0  0
   -3.4815   -0.7386    5.6094 H   0  0  0  0  0  0  0  0  0  0  0  0
   -1.8906   -0.2899    6.1903 H   0  0  0  0  0  0  0  0  0  0  0  0
   -3.1599    0.9126    6.0956 H   0  0  0  0  0  0  0  0  0  0  0  0
   -3.0397    1.3125    3.5142 N   0  0  0  0  0  0  0  0  0  0  0  0
   -2.7928    1.7385    2.1618 C   0  0  2  0  0  0  0  0  0  0  0  0
   -1.4579    1.1532    1.7206 C   0  0  0  0  0  0  0  0  0  0  0  0
   -0.5858    0.8004    2.5118 O   0  0  0  0  0  0  0  0  0  0  0  0
   -2.7841    3.2553    2.0523 C   0  0  0  0  0  0  0  0  0  0  0  0
   -3.8047    1.7484    4.0260 H   0  0  0  0  0  0  0  0  0  0  0  0
   -3.5969    1.3201    1.5466 H   0  0  0  0  0  0  0  0  0  0  0  0
   -1.9850    3.6926    2.6620 H   0  0  0  0  0  0  0  0  0  0  0  0
   -2.6246    3.5776    1.0180 H   0  0  0  0  0  0  0  0  0  0  0  0
   -3.7342    3.6765    2.3981 H   0  0  0  0  0  0  0  0  0  0  0  0
   -1.3352    1.1101    0.3372 N   0  0  0  0  0  0  0  0  0  0  0  0
   -0.1579    0.6093   -0.3265 C   0  0  2  0  0  0  0  0  0  0  0  0
    0.0195   -0.8423    0.1042 C   0  0  0  0  0  0  0  0  0  0  0  0
   -0.6540   -1.7631   -0.3534 O   0  0  0  0  0  0  0  0  0  0  0  0
    1.0932    1.4247    0.0201 C   0  0  0  0  0  0  0  0  0  0  0  0
    1.0405    2.8326   -0.5208 C   0  0  0  0  0  0  0  0  0  0  0  0
    0.6522    3.9495    0.1825 C   0  0  0  0  0  0  0  0  0  0  0  0
    1.3813    3.2476   -1.8387 C   0  0  0  0  0  0  0  0  0  0  0  0
    0.7429    5.0281   -0.6559 N   0  0  0  0  0  0  0  0  0  0  0  0
    1.1857    4.6291   -1.8968 C   0  0  0  0  0  0  0  0  0  0  0  0
    1.8388    2.5782   -2.9911 C   0  0  0  0  0  0  0  0  0  0  0  0
    1.4257    5.3778   -3.0545 C   0  0  0  0  0  0  0  0  0  0  0  0
    2.0831    3.3142   -4.1563 C   0  0  0  0  0  0  0  0  0  0  0  0
    1.8791    4.6924   -4.1852 C   0  0  0  0  0  0  0  0  0  0  0  0
   -2.1183    1.4068   -0.2401 H   0  0  0  0  0  0  0  0  0  0  0  0
   -0.3681    0.6414   -1.4020 H   0  0  0  0  0  0  0  0  0  0  0  0
    1.9931    0.9184   -0.3546 H   0  0  0  0  0  0  0  0  0  0  0  0
    1.2259    1.4794    1.1087 H   0  0  0  0  0  0  0  0  0  0  0  0
    0.3181    4.0743    1.2033 H   0  0  0  0  0  0  0  0  0  0  0  0
    0.5176    5.9799   -0.4014 H   0  0  0  0  0  0  0  0  0  0  0  0
    2.0018    1.5043   -2.9850 H   0  0  0  0  0  0  0  0  0  0  0  0
    1.2682    6.4508   -3.0776 H   0  0  0  0  0  0  0  0  0  0  0  0
    2.4355    2.8035   -5.0484 H   0  0  0  0  0  0  0  0  0  0  0  0
    2.0752    5.2443   -5.1008 H   0  0  0  0  0  0  0  0  0  0  0  0
    1.0512   -0.9899    1.0209 N   0  0  0  0  0  0  0  0  0  0  0  0
    1.4447   -2.2658    1.5741 C   0  0  2  0  0  0  0  0  0  0  0  0
    0.1913   -2.9631    2.0861 C   0  0  0  0  0  0  0  0  0  0  0  0
   -0.8374   -2.3600    2.3846 O   0  0  0  0  0  0  0  0  0  0  0  0
    2.4653   -2.0947    2.6885 C   0  0  0  0  0  0  0  0  0  0  0  0
    1.5550   -0.1594    1.3179 H   0  0  0  0  0  0  0  0  0  0  0  0
    1.8768   -2.8471    0.7522 H   0  0  0  0  0  0  0  0  0  0  0  0
    2.0504   -1.5146    3.5209 H   0  0  0  0  0  0  0  0  0  0  0  0
    2.7837   -3.0635    3.0871 H   0  0  0  0  0  0  0  0  0  0  0  0
    3.3537   -1.5665    2.3257 H   0  0  0  0  0  0  0  0  0  0  0  0
    0.3709   -4.3336    2.2116 N   0  0  0  0  0  0  0  0  0  0  0  0
   -0.6680   -5.2155    2.6901 C   0  0  0  0  0  0  0  0  0  0  0  0
    1.2509   -4.7508    1.9230 H   0  0  0  0  0  0  0  0  0  0  0  0
   -0.5692   -5.3429    3.7782 H   0  0  0  0  0  0  0  0  0  0  0  0
   -1.6522   -4.7813    2.4598 H   0  0  0  0  0  0  0  0  0  0  0  0
   -0.5743   -6.1940    2.1965 H   0  0  0  0  0  0  0  0  0  0  0  0
 29 30  2  0  0  0  0
 27 29  1  0  0  0  0
 28 30  1  0  0  0  0
 24 27  2  0  0  0  0
 26 28  2  0  0  0  0
 22 23  2  0  0  0  0
 23 25  1  0  0  0  0
 22 24  1  0  0  0  0
 24 26  1  0  0  0  0
 21 22  1  0  0  0  0
 25 26  1  0  0  0  0
  1  3  1  0  0  0  0
  1  7  1  0  0  0  0
  1  2  2  0  0  0  0
 42 43  1  0  0  0  0
 43 51  1  0  0  0  0
 43 44  2  0  0  0  0
  8  9  1  0  0  0  0
  9 17  1  0  0  0  0
  9 10  2  0  0  0  0
 18 19  1  0  0  0  0
 19 41  1  0  0  0  0
 19 20  2  0  0  0  0
 42 45  1  0  0  0  0
  8 11  1  0  0  0  0
 51 52  1  0  0  0  0
 18 21  1  0  0  0  0
 41 42  1  0  0  0  0
  7  8  1  0  0  0  0
 17 18  1  0  0  0  0
 29 39  1  0  0  0  0
 30 40  1  0  0  0  0
 27 37  1  0  0  0  0
 28 38  1  0  0  0  0
 23 35  1  0  0  0  0
  3  4  1  0  0  0  0
  3  5  1  0  0  0  0
  3  6  1  0  0  0  0
 45 48  1  0  0  0  0
 45 49  1  0  0  0  0
 45 50  1  0  0  0  0
 11 14  1  0  0  0  0
 11 15  1  0  0  0  0
 11 16  1  0  0  0  0
 52 54  1  0  0  0  0
 52 55  1  0  0  0  0
 52 56  1  0  0  0  0
 21 33  1  0  0  0  0
 21 34  1  0  0  0  0
 42 47  1  0  0  0  0
  8 13  1  0  0  0  0
 18 32  1  0  0  0  0
 25 36  1  0  0  0  0
 51 53  1  0  0  0  0
  7 12  1  0  0  0  0
 41 46  1  0  0  0  0
 17 31  1  0  0  0  0
M  END
$$$$

  -OEChem-05262214473D

 56 57  0     1  0  0  0  0  0999 V2000
   -2.2900    0.3401    4.1553 C   0  0  0  0  0  0  0  0  0  0  0  0
   -1.3426   -0.2746    3.6796 O   0  0  0  0  0  0  0  0  0  0  0  0
   -2.7219    0.0577    5.5560 C   0  0  0  0  0  0  0  0  0  0  0  0
   -3.4815   -0.7386    5.6094 H   0  0  0  0  0  0  0  0  0  0  0  0
   -1.8906   -0.2899    6.1903 H   0  0  0  0  0  0  0  0  0  0  0  0
   -3.1599    0.9126    6.0956 H   0  0  0  0  0  0  0  0  0  0  0  0
   -3.0397    1.3125    3.5142 N   0  0  0  0  0  0  0  0  0  0  0  0
   -2.7928    1.7385    2.1618 C   0  0  2  0  0  0  0  0  0  0  0  0
   -1.4579    1.1532    1.7206 C   0  0  0  0  0  0  0  0  0  0  0  0
   -0.5858    0.8004    2.5118 O   0  0  0  0  0  0  0  0  0  0  0  0
   -2.7841    3.2553    2.0523 C   0  0  0  0  0  0  0  0  0  0  0  0
   -3.8047    1.7484    4.0260 H   0  0  0  0  0  0  0  0  0  0  0  0
   -3.5969    1.3201    1.5466 H   0  0  0  0  0  0  0  0  0  0  0  0
   -1.9850    3.6926    2.6620 H   0  0  0  0  0  0  0  0  0  0  0  0
   -2.6246    3.5776    1.0180 H   0  0  0  0  0  0  0  0  0  0  0  0
   -3.7342    3.6765    2.3981 H   0  0  0  0  0  0  0  0  0  0  0  0
   -1.3352    1.1101    0.3372 N   0  0  0  0  0  0  0  0  0  0  0  0
   -0.1579    0.6093   -0.3265 C   0  0  2  0  0  0  0  0  0  0  0  0
    0.0195   -0.8423    0.1042 C   0  0  0  0  0  0  0  0  0  0  0  0
   -0.4483   -1.7889   -0.5251 O   0  0  0  0  0  0  0  0  0  0  0  0
    1.0932    1.4247    0.0201 C   0  0  0  0  0  0  0  0  0  0  0  0
    1.0405    2.8326   -0.5208 C   0  0  0  0  0  0  0  0  0  0  0  0
    0.6522    3.9495    0.1825 C   0  0  0  0  0  0  0  0  0  0  0  0
    1.3813    3.2476   -1.8387 C   0  0  0  0  0  0  0  0  0  0  0  0
    0.7429    5.0281   -0.6559 N   0  0  0  0  0  0  0  0  0  0  0  0
    1.1857    4.6291   -1.8968 C   0  0  0  0  0  0  0  0  0  0  0  0
    1.8388    2.5782   -2.9911 C   0  0  0  0  0  0  0  0  0  0  0  0
    1.4257    5.3778   -3.0545 C   0  0  0  0  0  0  0  0  0  0  0  0
    2.0831    3.3142   -4.1563 C   0  0  0  0  0  0  0  0  0  0  0  0
    1.8791    4.6924   -4.1852 C   0  0  0  0  0  0  0  0  0  0  0  0
   -2.1183    1.4068   -0.2401 H   0  0  0  0  0  0  0  0  0  0  0  0
   -0.3681    0.6414   -1.4020 H   0  0  0  0  0  0  0  0  0  0  0  0
    1.9931    0.9184   -0.3546 H   0  0  0  0  0  0  0  0  0  0  0  0
    1.2259    1.4794    1.1087 H   0  0  0  0  0  0  0  0  0  0  0  0
    0.3181    4.0743    1.2033 H   0  0  0  0  0  0  0  0  0  0  0  0
    0.5176    5.9799   -0.4014 H   0  0  0  0  0  0  0  0  0  0  0  0
    2.0018    1.5043   -2.9850 H   0  0  0  0  0  0  0  0  0  0  0  0
    1.2682    6.4508   -3.0776 H   0  0  0  0  0  0  0  0  0  0  0  0
    2.4355    2.8035   -5.0484 H   0  0  0  0  0  0  0  0  0  0  0  0
    2.0752    5.2443   -5.1008 H   0  0  0  0  0  0  0  0  0  0  0  0
    0.8030   -0.9540    1.2444 N   0  0  0  0  0  0  0  0  0  0  0  0
    1.1457   -2.2202    1.8510 C   0  0  2  0  0  0  0  0  0  0  0  0
   -0.1376   -3.0223    2.0221 C   0  0  0  0  0  0  0  0  0  0  0  0
   -1.2513   -2.5042    2.0691 O   0  0  0  0  0  0  0  0  0  0  0  0
    1.8454   -2.0226    3.1867 C   0  0  0  0  0  0  0  0  0  0  0  0
    1.1531   -0.1028    1.6743 H   0  0  0  0  0  0  0  0  0  0  0  0
    1.8096   -2.7374    1.1497 H   0  0  0  0  0  0  0  0  0  0  0  0
    1.1956   -1.5059    3.9024 H   0  0  0  0  0  0  0  0  0  0  0  0
    2.1298   -2.9820    3.6314 H   0  0  0  0  0  0  0  0  0  0  0  0
    2.7523   -1.4203    3.0662 H   0  0  0  0  0  0  0  0  0  0  0  0
    0.1105   -4.3809    2.1594 N   0  0  0  0  0  0  0  0  0  0  0  0
   -0.9431   -5.3508    2.3472 C   0  0  0  0  0  0  0  0  0  0  0  0
    1.0639   -4.7244    2.0889 H   0  0  0  0  0  0  0  0  0  0  0  0
   -1.1047   -5.5137    3.4230 H   0  0  0  0  0  0  0  0  0  0  0  0
   -1.8710   -4.9772    1.8895 H   0  0  0  0  0  0  0  0  0  0  0  0
   -0.6562   -6.3003    1.8717 H   0  0  0  0  0  0  0  0  0  0  0  0
 29 30  2  0  0  0  0
 27 29  1  0  0  0  0
 28 30  1  0  0  0  0
 24 27  2  0  0  0  0
 26 28  2  0  0  0  0
 22 23  2  0  0  0  0
 23 25  1  0  0  0  0
 22 24  1  0  0  0  0
 24 26  1  0  0  0  0
 21 22  1  0  0  0  0
 25 26  1  0  0  0  0
  1  3  1  0  0  0  0
  1  7  1  0  0  0  0
  1  2  2  0  0  0  0
 42 43  1  0  0  0  0
 43 51  1  0  0  0  0
 43 44  2  0  0  0  0
  8  9  1  0  0  0  0
  9 17  1  0  0  0  0
  9 10  2  0  0  0  0
 18 19  1  0  0  0  0
 19 41  1  0  0  0  0
 19 20  2  0  0  0  0
 42 45  1  0  0  0  0
  8 11  1  0  0  0  0
 51 52  1  0  0  0  0
 18 21  1  0  0  0  0
 41 42  1  0  0  0  0
  7  8  1  0  0  0  0
 17 18  1  0  0  0  0
 29 39  1  0  0  0  0
 30 40  1  0  0  0  0
 27 37  1  0  0  0  0
 28 38  1  0  0  0  0
 23 35  1  0  0  0  0
  3  4  1  0  0  0  0
  3  5  1  0  0  0  0
  3  6  1  0  0  0  0
 45 48  1  0  0  0  0
 45 49  1  0  0  0  0
 45 50  1  0  0  0  0
 11 14  1  0  0  0  0
 11 15  1  0  0  0  0
 11 16  1  0  0  0  0
 52 54  1  0  0  0  0
 52 55  1  0  0  0  0
 52 56  1  0  0  0  0
 21 33  1  0  0  0  0
 21 34  1  0  0  0  0
 42 47  1  0  0  0  0
  8 13  1  0  0  0  0
 18 32  1  0  0  0  0
 25 36  1  0  0  0  0
 51 53  1  0  0  0  0
  7 12  1  0  0  0  0
 41 46  1  0  0  0  0
 17 31  1  0  0  0  0
M  END
$$$$

  -OEChem-05262214473D

 56 57  0     1  0  0  0  0  0999 V2000
   -2.2900    0.3401    4.1553 C   0  0  0  0  0  0  0  0  0  0  0  0
   -1.3426   -0.2746    3.6796 O   0  0  0  0  0  0  0  0  0  0  0  0
   -2.7219    0.0577    5.5560 C   0  0  0  0  0  0  0  0  0  0  0  0
   -3.4815   -0.7386    5.6094 H   0  0  0  0  0  0  0  0  0  0  0  0
   -1.8906   -0.2899    6.1903 H   0  0  0  0  0  0  0  0  0  0  0  0
   -3.1599    0.9126    6.0956 H   0  0  0  0  0  0  0  0  0  0  0  0
   -3.0397    1.3125    3.5142 N   0  0  0  0  0  0  0  0  0  0  0  0
   -2.7928    1.7385    2.1618 C   0  0  2  0  0  0  0  0  0  0  0  0
   -1.4579    1.1532    1.7206 C   0  0  0  0  0  0  0  0  0  0  0  0
   -0.5858    0.8004    2.5118 O   0  0  0  0  0  0  0  0  0  0  0  0
   -2.7841    3.2553    2.0523 C   0  0  0  0  0  0  0  0  0  0  0  0
   -3.8047    1.7484    4.0260 H   0  0  0  0  0  0  0  0  0  0  0  0
   -3.5969    1.3201    1.5466 H   0  0  0  0  0  0  0  0  0  0  0  0
   -1.9850    3.6926    2.6620 H   0  0  0  0  0  0  0  0  0  0  0  0
   -2.6246    3.5776    1.0180 H   0  0  0  0  0  0  0  0  0  0  0  0
   -3.7342    3.6765    2.3981 H   0  0  0  0  0  0  0  0  0  0  0  0
   -1.3352    1.1101    0.3372 N   0  0  0  0  0  0  0  0  0  0  0  0
   -0.1579    0.6093   -0.3265 C   0  0  2  0  0  0  0  0  0  0  0  0
    0.0195   -0.8423    0.1042 C   0  0  0  0  0  0  0  0  0  0  0  0
   -0.2054   -1.7936   -0.6410 O   0  0  0  0  0  0  0  0  0  0  0  0
    1.0932    1.4247    0.0201 C   0  0  0  0  0  0  0  0  0  0  0  0
    1.0405    2.8326   -0.5208 C   0  0  0  0  0  0  0  0  0  0  0  0
    0.6522    3.9495    0.1825 C   0  0  0  0  0  0  0  0  0  0  0  0
    1.3813    3.2476   -1.8387 C   0  0  0  0  0  0  0  0  0  0  0  0
    0.7429    5.0281   -0.6559 N   0  0  0  0  0  0  0  0  0  0  0  0
    1.1857    4.6291   -1.8968 C   0  0  0  0  0  0  0  0  0  0  0  0
    1.8388    2.5782   -2.9911 C   0  0  0  0  0  0  0  0  0  0  0  0
    1.4257    5.3778   -3.0545 C   0  0  0  0  0  0  0  0  0  0  0  0
    2.0831    3.3142   -4.1563 C   0  0  0  0  0  0  0  0  0  0  0  0
    1.8791    4.6924   -4.1852 C   0  0  0  0  0  0  0  0  0  0  0  0
   -2.1183    1.4068   -0.2401 H   0  0  0  0  0  0  0  0  0  0  0  0
   -0.3681    0.6414   -1.4020 H   0  0  0  0  0  0  0  0  0  0  0  0
    1.9931    0.9184   -0.3546 H   0  0  0  0  0  0  0  0  0  0  0  0
    1.2259    1.4794    1.1087 H   0  0  0  0  0  0  0  0  0  0  0  0
    0.3181    4.0743    1.2033 H   0  0  0  0  0  0  0  0  0  0  0  0
    0.5176    5.9799   -0.4014 H   0  0  0  0  0  0  0  0  0  0  0  0
    2.0018    1.5043   -2.9850 H   0  0  0  0  0  0  0  0  0  0  0  0
    1.2682    6.4508   -3.0776 H   0  0  0  0  0  0  0  0  0  0  0  0
    2.4355    2.8035   -5.0484 H   0  0  0  0  0  0  0  0  0  0  0  0
    2.0752    5.2443   -5.1008 H   0  0  0  0  0  0  0  0  0  0  0  0
    0.5055   -0.9441    1.4003 N   0  0  0  0  0  0  0  0  0  0  0  0
    0.7853   -2.2064    2.0461 C   0  0  2  0  0  0  0  0  0  0  0  0
   -0.4352   -3.1016    1.8774 C   0  0  0  0  0  0  0  0  0  0  0  0
   -1.5628   -2.6642    1.6581 O   0  0  0  0  0  0  0  0  0  0  0  0
    1.1185   -2.0133    3.5173 C   0  0  0  0  0  0  0  0  0  0  0  0
    0.6730   -0.0882    1.9212 H   0  0  0  0  0  0  0  0  0  0  0  0
    1.6386   -2.6483    1.5204 H   0  0  0  0  0  0  0  0  0  0  0  0
    0.2753   -1.5714    4.0606 H   0  0  0  0  0  0  0  0  0  0  0  0
    1.3581   -2.9674    3.9984 H   0  0  0  0  0  0  0  0  0  0  0  0
    1.9782   -1.3453    3.6378 H   0  0  0  0  0  0  0  0  0  0  0  0
   -0.1246   -4.4441    2.0433 N   0  0  0  0  0  0  0  0  0  0  0  0
   -1.1143   -5.4913    1.9441 C   0  0  0  0  0  0  0  0  0  0  0  0
    0.8404   -4.7176    2.2038 H   0  0  0  0  0  0  0  0  0  0  0  0
   -1.5219   -5.7072    2.9427 H   0  0  0  0  0  0  0  0  0  0  0  0
   -1.9274   -5.1653    1.2789 H   0  0  0  0  0  0  0  0  0  0  0  0
   -0.6474   -6.3993    1.5346 H   0  0  0  0  0  0  0  0  0  0  0  0
 29 30  2  0  0  0  0
 27 29  1  0  0  0  0
 28 30  1  0  0  0  0
 24 27  2  0  0  0  0
 26 28  2  0  0  0  0
 22 23  2  0  0  0  0
 23 25  1  0  0  0  0
 22 24  1  0  0  0  0
 24 26  1  0  0  0  0
 21 22  1  0  0  0  0
 25 26  1  0  0  0  0
  1  3  1  0  0  0  0
  1  7  1  0  0  0  0
  1  2  2  0  0  0  0
 42 43  1  0  0  0  0
 43 51  1  0  0  0  0
 43 44  2  0  0  0  0
  8  9  1  0  0  0  0
  9 17  1  0  0  0  0
  9 10  2  0  0  0  0
 18 19  1  0  0  0  0
 19 41  1  0  0  0  0
 19 20  2  0  0  0  0
 42 45  1  0  0  0  0
  8 11  1  0  0  0  0
 51 52  1  0  0  0  0
 18 21  1  0  0  0  0
 41 42  1  0  0  0  0
  7  8  1  0  0  0  0
 17 18  1  0  0  0  0
 29 39  1  0  0  0  0
 30 40  1  0  0  0  0
 27 37  1  0  0  0  0
 28 38  1  0  0  0  0
 23 35  1  0  0  0  0
  3  4  1  0  0  0  0
  3  5  1  0  0  0  0
  3  6  1  0  0  0  0
 45 48  1  0  0  0  0
 45 49  1  0  0  0  0
 45 50  1  0  0  0  0
 11 14  1  0  0  0  0
 11 15  1  0  0  0  0
 11 16  1  0  0  0  0
 52 54  1  0  0  0  0
 52 55  1  0  0  0  0
 52 56  1  0  0  0  0
 21 33  1  0  0  0  0
 21 34  1  0  0  0  0
 42 47  1  0  0  0  0
  8 13  1  0  0  0  0
 18 32  1  0  0  0  0
 25 36  1  0  0  0  0
 51 53  1  0  0  0  0
  7 12  1  0  0  0  0
 41 46  1  0  0  0  0
 17 31  1  0  0  0  0
M  END
$$$$

  -OEChem-05262214473D

 56 57  0     1  0  0  0  0  0999 V2000
   -2.2900    0.3401    4.1553 C   0  0  0  0  0  0  0  0  0  0  0  0
   -1.3426   -0.2746    3.6796 O   0  0  0  0  0  0  0  0  0  0  0  0
   -2.7219    0.0577    5.5560 C   0  0  0  0  0  0  0  0  0  0  0  0
   -3.4815   -0.7386    5.6094 H   0  0  0  0  0  0  0  0  0  0  0  0
   -1.8906   -0.2899    6.1903 H   0  0  0  0  0  0  0  0  0  0  0  0
   -3.1599    0.9126    6.0956 H   0  0  0  0  0  0  0  0  0  0  0  0
   -3.0397    1.3125    3.5142 N   0  0  0  0  0  0  0  0  0  0  0  0
   -2.7928    1.7385    2.1618 C   0  0  2  0  0  0  0  0  0  0  0  0
   -1.4579    1.1532    1.7206 C   0  0  0  0  0  0  0  0  0  0  0  0
   -0.5858    0.8004    2.5118 O   0  0  0  0  0  0  0  0  0  0  0  0
   -2.7841    3.2553    2.0523 C   0  0  0  0  0  0  0  0  0  0  0  0
   -3.8047    1.7484    4.0260 H   0  0  0  0  0  0  0  0  0  0  0  0
   -3.5969    1.3201    1.5466 H   0  0  0  0  0  0  0  0  0  0  0  0
   -1.9850    3.6926    2.6620 H   0  0  0  0  0  0  0  0  0  0  0  0
   -2.6246    3.5776    1.0180 H   0  0  0  0  0  0  0  0  0  0  0  0
   -3.7342    3.6765    2.3981 H   0  0  0  0  0  0  0  0  0  0  0  0
   -1.3352    1.1101    0.3372 N   0  0  0  0  0  0  0  0  0  0  0  0
   -0.1579    0.6093   -0.3265 C   0  0  2  0  0  0  0  0  0  0  0  0
    0.0195   -0.8423    0.1042 C   0  0  0  0  0  0  0  0  0  0  0  0
    0.0581   -1.7769   -0.6933 O   0  0  0  0  0  0  0  0  0  0  0  0
    1.0932    1.4247    0.0201 C   0  0  0  0  0  0  0  0  0  0  0  0
    1.0405    2.8326   -0.5208 C   0  0  0  0  0  0  0  0  0  0  0  0
    0.6522    3.9495    0.1825 C   0  0  0  0  0  0  0  0  0  0  0  0
    1.3813    3.2476   -1.8387 C   0  0  0  0  0  0  0  0  0  0  0  0
    0.7429    5.0281   -0.6559 N   0  0  0  0  0  0  0  0  0  0  0  0
    1.1857    4.6291   -1.8968 C   0  0  0  0  0  0  0  0  0  0  0  0
    1.8388    2.5782   -2.9911 C   0  0  0  0  0  0  0  0  0  0  0  0
    1.4257    5.3778   -3.0545 C   0  0  0  0  0  0  0  0  0  0  0  0
    2.0831    3.3142   -4.1563 C   0  0  0  0  0  0  0  0  0  0  0  0
    1.8791    4.6924   -4.1852 C   0  0  0  0  0  0  0  0  0  0  0  0
   -2.1183    1.4068   -0.2401 H   0  0  0  0  0  0  0  0  0  0  0  0
   -0.3681    0.6414   -1.4020 H   0  0  0  0  0  0  0  0  0  0  0  0
    1.9931    0.9184   -0.3546 H   0  0  0  0  0  0  0  0  0  0  0  0
    1.2259    1.4794    1.1087 H   0  0  0  0  0  0  0  0  0  0  0  0
    0.3181    4.0743    1.2033 H   0  0  0  0  0  0  0  0  0  0  0  0
    0.5176    5.9799   -0.4014 H   0  0  0  0  0  0  0  0  0  0  0  0
    2.0018    1.5043   -2.9850 H   0  0  0  0  0  0  0  0  0  0  0  0
    1.2682    6.4508   -3.0776 H   0  0  0  0  0  0  0  0  0  0  0  0
    2.4355    2.8035   -5.0484 H   0  0  0  0  0  0  0  0  0  0  0  0
    2.0752    5.2443   -5.1008 H   0  0  0  0  0  0  0  0  0  0  0  0
    0.1790   -0.9610    1.4779 N   0  0  0  0  0  0  0  0  0  0  0  0
    0.3880   -2.2252    2.1462 C   0  0  2  0  0  0  0  0  0  0  0  0
   -0.6812   -3.1956    1.6619 C   0  0  0  0  0  0  0  0  0  0  0  0
   -1.7508   -2.8292    1.1795 O   0  0  0  0  0  0  0  0  0  0  0  0
    0.3343   -2.0675    3.6579 C   0  0  0  0  0  0  0  0  0  0  0  0
    0.1473   -0.1167    2.0418 H   0  0  0  0  0  0  0  0  0  0  0  0
    1.3757   -2.5860    1.8390 H   0  0  0  0  0  0  0  0  0  0  0  0
   -0.6478   -1.7068    3.9846 H   0  0  0  0  0  0  0  0  0  0  0  0
    0.5212   -3.0208    4.1631 H   0  0  0  0  0  0  0  0  0  0  0  0
    1.0842   -1.3467    4.0014 H   0  0  0  0  0  0  0  0  0  0  0  0
   -0.3185   -4.5188    1.8714 N   0  0  0  0  0  0  0  0  0  0  0  0
   -1.1701   -5.6274    1.5083 C   0  0  0  0  0  0  0  0  0  0  0  0
    0.5957   -4.7308    2.2600 H   0  0  0  0  0  0  0  0  0  0  0  0
   -1.7924   -5.9101    2.3702 H   0  0  0  0  0  0  0  0  0  0  0  0
   -1.8178   -5.3327    0.6695 H   0  0  0  0  0  0  0  0  0  0  0  0
   -0.5486   -6.4840    1.2083 H   0  0  0  0  0  0  0  0  0  0  0  0
 29 30  2  0  0  0  0
 27 29  1  0  0  0  0
 28 30  1  0  0  0  0
 24 27  2  0  0  0  0
 26 28  2  0  0  0  0
 22 23  2  0  0  0  0
 23 25  1  0  0  0  0
 22 24  1  0  0  0  0
 24 26  1  0  0  0  0
 21 22  1  0  0  0  0
 25 26  1  0  0  0  0
  1  3  1  0  0  0  0
  1  7  1  0  0  0  0
  1  2  2  0  0  0  0
 42 43  1  0  0  0  0
 43 51  1  0  0  0  0
 43 44  2  0  0  0  0
  8  9  1  0  0  0  0
  9 17  1  0  0  0  0
  9 10  2  0  0  0  0
 18 19  1  0  0  0  0
 19 41  1  0  0  0  0
 19 20  2  0  0  0  0
 42 45  1  0  0  0  0
  8 11  1  0  0  0  0
 51 52  1  0  0  0  0
 18 21  1  0  0  0  0
 41 42  1  0  0  0  0
  7  8  1  0  0  0  0
 17 18  1  0  0  0  0
 29 39  1  0  0  0  0
 30 40  1  0  0  0  0
 27 37  1  0  0  0  0
 28 38  1  0  0  0  0
 23 35  1  0  0  0  0
  3  4  1  0  0  0  0
  3  5  1  0  0  0  0
  3  6  1  0  0  0  0
 45 48  1  0  0  0  0
 45 49  1  0  0  0  0
 45 50  1  0  0  0  0
 11 14  1  0  0  0  0
 11 15  1  0  0  0  0
 11 16  1  0  0  0  0
 52 54  1  0  0  0  0
 52 55  1  0  0  0  0
 52 56  1  0  0  0  0
 21 33  1  0  0  0  0
 21 34  1  0  0  0  0
 42 47  1  0  0  0  0
  8 13  1  0  0  0  0
 18 32  1  0  0  0  0
 25 36  1  0  0  0  0
 51 53  1  0  0  0  0
  7 12  1  0  0  0  0
 41 46  1  0  0  0  0
 17 31  1  0  0  0  0
M  END
$$$$

  -OEChem-05262214473D

 56 57  0     1  0  0  0  0  0999 V2000
   -2.2900    0.3401    4.1553 C   0  0  0  0  0  0  0  0  0  0  0  0
   -1.3426   -0.2746    3.6796 O   0  0  0  0  0  0  0  0  0  0  0  0
   -2.7219    0.0577    5.5560 C   0  0  0  0  0  0  0  0  0  0  0  0
   -3.4815   -0.7386    5.6094 H   0  0  0  0  0  0  0  0  0  0  0  0
   -1.8906   -0.2899    6.1903 H   0  0  0  0  0  0  0  0  0  0  0  0
   -3.1599    0.9126    6.0956 H   0  0  0  0  0  0  0  0  0  0  0  0
   -3.0397    1.3125    3.5142 N   0  0  0  0  0  0  0  0  0  0  0  0
   -2.7928    1.7385    2.1618 C   0  0  2  0  0  0  0  0  0  0  0  0
   -1.4579    1.1532    1.7206 C   0  0  0  0  0  0  0  0  0  0  0  0
   -0.5858    0.8004    2.5118 O   0  0  0  0  0  0  0  0  0  0  0  0
   -2.7841    3.2553    2.0523 C   0  0  0  0  0  0  0  0  0  0  0  0
   -3.8047    1.7484    4.0260 H   0  0  0  0  0  0  0  0  0  0  0  0
   -3.5969    1.3201    1.5466 H   0  0  0  0  0  0  0  0  0  0  0  0
   -1.9850    3.6926    2.6620 H   0  0  0  0  0  0  0  0  0  0  0  0
   -2.6246    3.5776    1.0180 H   0  0  0  0  0  0  0  0  0  0  0  0
   -3.7342    3.6765    2.3981 H   0  0  0  0  0  0  0  0  0  0  0  0
   -1.3352    1.1101    0.3372 N   0  0  0  0  0  0  0  0  0  0  0  0
   -0.1579    0.6093   -0.3265 C   0  0  2  0  0  0  0  0  0  0  0  0
    0.0195   -0.8423    0.1042 C   0  0  0  0  0  0  0  0  0  0  0  0
    0.3243   -1.7400   -0.6783 O   0  0  0  0  0  0  0  0  0  0  0  0
    1.0932    1.4247    0.0201 C   0  0  0  0  0  0  0  0  0  0  0  0
    1.0405    2.8326   -0.5208 C   0  0  0  0  0  0  0  0  0  0  0  0
    0.6522    3.9495    0.1825 C   0  0  0  0  0  0  0  0  0  0  0  0
    1.3813    3.2476   -1.8387 C   0  0  0  0  0  0  0  0  0  0  0  0
    0.7429    5.0281   -0.6559 N   0  0  0  0  0  0  0  0  0  0  0  0
    1.1857    4.6291   -1.8968 C   0  0  0  0  0  0  0  0  0  0  0  0
    1.8388    2.5782   -2.9911 C   0  0  0  0  0  0  0  0  0  0  0  0
    1.4257    5.3778   -3.0545 C   0  0  0  0  0  0  0  0  0  0  0  0
    2.0831    3.3142   -4.1563 C   0  0  0  0  0  0  0  0  0  0  0  0
    1.8791    4.6924   -4.1852 C   0  0  0  0  0  0  0  0  0  0  0  0
   -2.1183    1.4068   -0.2401 H   0  0  0  0  0  0  0  0  0  0  0  0
   -0.3681    0.6414   -1.4020 H   0  0  0  0  0  0  0  0  0  0  0  0
    1.9931    0.9184   -0.3546 H   0  0  0  0  0  0  0  0  0  0  0  0
    1.2259    1.4794    1.1087 H   0  0  0  0  0  0  0  0  0  0  0  0
    0.3181    4.0743    1.2033 H   0  0  0  0  0  0  0  0  0  0  0  0
    0.5176    5.9799   -0.4014 H   0  0  0  0  0  0  0  0  0  0  0  0
    2.0018    1.5043   -2.9850 H   0  0  0  0  0  0  0  0  0  0  0  0
    1.2682    6.4508   -3.0776 H   0  0  0  0  0  0  0  0  0  0  0  0
    2.4355    2.8035   -5.0484 H   0  0  0  0  0  0  0  0  0  0  0  0
    2.0752    5.2443   -5.1008 H   0  0  0  0  0  0  0  0  0  0  0  0
   -0.1542   -1.0035    1.4718 N   0  0  0  0  0  0  0  0  0  0  0  0
   -0.0190   -2.2755    2.1445 C   0  0  2  0  0  0  0  0  0  0  0  0
   -0.8588   -3.2979    1.3903 C   0  0  0  0  0  0  0  0  0  0  0  0
   -1.8023   -2.9878    0.6659 O   0  0  0  0  0  0  0  0  0  0  0  0
   -0.4538   -2.1814    3.5987 C   0  0  0  0  0  0  0  0  0  0  0  0
   -0.3881   -0.1863    2.0279 H   0  0  0  0  0  0  0  0  0  0  0  0
    1.0386   -2.5545    2.0838 H   0  0  0  0  0  0  0  0  0  0  0  0
   -1.5109   -1.9028    3.6796 H   0  0  0  0  0  0  0  0  0  0  0  0
   -0.3239   -3.1385    4.1144 H   0  0  0  0  0  0  0  0  0  0  0  0
    0.1311   -1.4244    4.1322 H   0  0  0  0  0  0  0  0  0  0  0  0
   -0.4580   -4.6000    1.6553 N   0  0  0  0  0  0  0  0  0  0  0  0
   -1.1066   -5.7499    1.0695 C   0  0  0  0  0  0  0  0  0  0  0  0
    0.3464   -4.7632    2.2536 H   0  0  0  0  0  0  0  0  0  0  0  0
   -1.8977   -6.1087    1.7444 H   0  0  0  0  0  0  0  0  0  0  0  0
   -1.5494   -5.4680    0.1028 H   0  0  0  0  0  0  0  0  0  0  0  0
   -0.3665   -6.5489    0.9148 H   0  0  0  0  0  0  0  0  0  0  0  0
 29 30  2  0  0  0  0
 27 29  1  0  0  0  0
 28 30  1  0  0  0  0
 24 27  2  0  0  0  0
 26 28  2  0  0  0  0
 22 23  2  0  0  0  0
 23 25  1  0  0  0  0
 22 24  1  0  0  0  0
 24 26  1  0  0  0  0
 21 22  1  0  0  0  0
 25 26  1  0  0  0  0
  1  3  1  0  0  0  0
  1  7  1  0  0  0  0
  1  2  2  0  0  0  0
 42 43  1  0  0  0  0
 43 51  1  0  0  0  0
 43 44  2  0  0  0  0
  8  9  1  0  0  0  0
  9 17  1  0  0  0  0
  9 10  2  0  0  0  0
 18 19  1  0  0  0  0
 19 41  1  0  0  0  0
 19 20  2  0  0  0  0
 42 45  1  0  0  0  0
  8 11  1  0  0  0  0
 51 52  1  0  0  0  0
 18 21  1  0  0  0  0
 41 42  1  0  0  0  0
  7  8  1  0  0  0  0
 17 18  1  0  0  0  0
 29 39  1  0  0  0  0
 30 40  1  0  0  0  0
 27 37  1  0  0  0  0
 28 38  1  0  0  0  0
 23 35  1  0  0  0  0
  3  4  1  0  0  0  0
  3  5  1  0  0  0  0
  3  6  1  0  0  0  0
 45 48  1  0  0  0  0
 45 49  1  0  0  0  0
 45 50  1  0  0  0  0
 11 14  1  0  0  0  0
 11 15  1  0  0  0  0
 11 16  1  0  0  0  0
 52 54  1  0  0  0  0
 52 55  1  0  0  0  0
 52 56  1  0  0  0  0
 21 33  1  0  0  0  0
 21 34  1  0  0  0  0
 42 47  1  0  0  0  0
  8 13  1  0  0  0  0
 18 32  1  0  0  0  0
 25 36  1  0  0  0  0
 51 53  1  0  0  0  0
  7 12  1  0  0  0  0
 41 46  1  0  0  0  0
 17 31  1  0  0  0  0
M  END
$$$$

  -OEChem-05262214473D

 56 57  0     1  0  0  0  0  0999 V2000
   -2.2900    0.3401    4.1553 C   0  0  0  0  0  0  0  0  0  0  0  0
   -1.3426   -0.2746    3.6796 O   0  0  0  0  0  0  0  0  0  0  0  0
   -2.7219    0.0577    5.5560 C   0  0  0  0  0  0  0  0  0  0  0  0
   -3.4815   -0.7386    5.6094 H   0  0  0  0  0  0  0  0  0  0  0  0
   -1.8906   -0.2899    6.1903 H   0  0  0  0  0  0  0  0  0  0  0  0
   -3.1599    0.9126    6.0956 H   0  0  0  0  0  0  0  0  0  0  0  0
   -3.0397    1.3125    3.5142 N   0  0  0  0  0  0  0  0  0  0  0  0
   -2.7928    1.7385    2.1618 C   0  0  2  0  0  0  0  0  0  0  0  0
   -1.4579    1.1532    1.7206 C   0  0  0  0  0  0  0  0  0  0  0  0
   -0.5858    0.8004    2.5118 O   0  0  0  0  0  0  0  0  0  0  0  0
   -2.7841    3.2553    2.0523 C   0  0  0  0  0  0  0  0  0  0  0  0
   -3.8047    1.7484    4.0260 H   0  0  0  0  0  0  0  0  0  0  0  0
   -3.5969    1.3201    1.5466 H   0  0  0  0  0  0  0  0  0  0  0  0
   -1.9850    3.6926    2.6620 H   0  0  0  0  0  0  0  0  0  0  0  0
   -2.6246    3.5776    1.0180 H   0  0  0  0  0  0  0  0  0  0  0  0
   -3.7342    3.6765    2.3981 H   0  0  0  0  0  0  0  0  0  0  0  0
   -1.3352    1.1101    0.3372 N   0  0  0  0  0  0  0  0  0  0  0  0
   -0.1579    0.6093   -0.3265 C   0  0  2  0  0  0  0  0  0  0  0  0
    0.0195   -0.8423    0.1042 C   0  0  0  0  0  0  0  0  0  0  0  0
    0.5751   -1.6852   -0.5971 O   0  0  0  0  0  0  0  0  0  0  0  0
    1.0932    1.4247    0.0201 C   0  0  0  0  0  0  0  0  0  0  0  0
    1.0405    2.8326   -0.5208 C   0  0  0  0  0  0  0  0  0  0  0  0
    0.6522    3.9495    0.1825 C   0  0  0  0  0  0  0  0  0  0  0  0
    1.3813    3.2476   -1.8387 C   0  0  0  0  0  0  0  0  0  0  0  0
    0.7429    5.0281   -0.6559 N   0  0  0  0  0  0  0  0  0  0  0  0
    1.1857    4.6291   -1.8968 C   0  0  0  0  0  0  0  0  0  0  0  0
    1.8388    2.5782   -2.9911 C   0  0  0  0  0  0  0  0  0  0  0  0
    1.4257    5.3778   -3.0545 C   0  0  0  0  0  0  0  0  0  0  0  0
    2.0831    3.3142   -4.1563 C   0  0  0  0  0  0  0  0  0  0  0  0
    1.8791    4.6924   -4.1852 C   0  0  0  0  0  0  0  0  0  0  0  0
   -2.1183    1.4068   -0.2401 H   0  0  0  0  0  0  0  0  0  0  0  0
   -0.3681    0.6414   -1.4020 H   0  0  0  0  0  0  0  0  0  0  0  0
    1.9931    0.9184   -0.3546 H   0  0  0  0  0  0  0  0  0  0  0  0
    1.2259    1.4794    1.1087 H   0  0  0  0  0  0  0  0  0  0  0  0
    0.3181    4.0743    1.2033 H   0  0  0  0  0  0  0  0  0  0  0  0
    0.5176    5.9799   -0.4014 H   0  0  0  0  0  0  0  0  0  0  0  0
    2.0018    1.5043   -2.9850 H   0  0  0  0  0  0  0  0  0  0  0  0
    1.2682    6.4508   -3.0776 H   0  0  0  0  0  0  0  0  0  0  0  0
    2.4355    2.8035   -5.0484 H   0  0  0  0  0  0  0  0  0  0  0  0
    2.0752    5.2443   -5.1008 H   0  0  0  0  0  0  0  0  0  0  0  0
   -0.4715   -1.0687    1.3825 N   0  0  0  0  0  0  0  0  0  0  0  0
   -0.4080   -2.3538    2.0409 C   0  0  2  0  0  0  0  0  0  0  0  0
   -0.9560   -3.4016    1.0810 C   0  0  0  0  0  0  0  0  0  0  0  0
   -1.7138   -3.1294    0.1523 O   0  0  0  0  0  0  0  0  0  0  0  0
   -1.1922   -2.3472    3.3439 C   0  0  0  0  0  0  0  0  0  0  0  0
   -0.8968   -0.2922    1.8804 H   0  0  0  0  0  0  0  0  0  0  0  0
    0.6504   -2.5562    2.2381 H   0  0  0  0  0  0  0  0  0  0  0  0
   -2.2550   -2.1460    3.1664 H   0  0  0  0  0  0  0  0  0  0  0  0
   -1.1196   -3.3126    3.8555 H   0  0  0  0  0  0  0  0  0  0  0  0
   -0.8160   -1.5731    4.0213 H   0  0  0  0  0  0  0  0  0  0  0  0
   -0.5335   -4.6821    1.4097 N   0  0  0  0  0  0  0  0  0  0  0  0
   -0.9282   -5.8503    0.6576 C   0  0  0  0  0  0  0  0  0  0  0  0
    0.1096   -4.8125    2.1850 H   0  0  0  0  0  0  0  0  0  0  0  0
   -1.8307   -6.2893    1.1080 H   0  0  0  0  0  0  0  0  0  0  0  0
   -1.1407   -5.5621   -0.3825 H   0  0  0  0  0  0  0  0  0  0  0  0
   -0.1136   -6.5893    0.6742 H   0  0  0  0  0  0  0  0  0  0  0  0
 29 30  2  0  0  0  0
 27 29  1  0  0  0  0
 28 30  1  0  0  0  0
 24 27  2  0  0  0  0
 26 28  2  0  0  0  0
 22 23  2  0  0  0  0
 23 25  1  0  0  0  0
 22 24  1  0  0  0  0
 24 26  1  0  0  0  0
 21 22  1  0  0  0  0
 25 26  1  0  0  0  0
  1  3  1  0  0  0  0
  1  7  1  0  0  0  0
  1  2  2  0  0  0  0
 42 43  1  0  0  0  0
 43 51  1  0  0  0  0
 43 44  2  0  0  0  0
  8  9  1  0  0  0  0
  9 17  1  0  0  0  0
  9 10  2  0  0  0  0
 18 19  1  0  0  0  0
 19 41  1  0  0  0  0
 19 20  2  0  0  0  0
 42 45  1  0  0  0  0
  8 11  1  0  0  0  0
 51 52  1  0  0  0  0
 18 21  1  0  0  0  0
 41 42  1  0  0  0  0
  7  8  1  0  0  0  0
 17 18  1  0  0  0  0
 29 39  1  0  0  0  0
 30 40  1  0  0  0  0
 27 37  1  0  0  0  0
 28 38  1  0  0  0  0
 23 35  1  0  0  0  0
  3  4  1  0  0  0  0
  3  5  1  0  0  0  0
  3  6  1  0  0  0  0
 45 48  1  0  0  0  0
 45 49  1  0  0  0  0
 45 50  1  0  0  0  0
 11 14  1  0  0  0  0
 11 15  1  0  0  0  0
 11 16  1  0  0  0  0
 52 54  1  0  0  0  0
 52 55  1  0  0  0  0
 52 56  1  0  0  0  0
 21 33  1  0  0  0  0
 21 34  1  0  0  0  0
 42 47  1  0  0  0  0
  8 13  1  0  0  0  0
 18 32  1  0  0  0  0
 25 36  1  0  0  0  0
 51 53  1  0  0  0  0
  7 12  1  0  0  0  0
 41 46  1  0  0  0  0
 17 31  1  0  0  0  0
M  END
$$$$

  -OEChem-05262214473D

 56 57  0     1  0  0  0  0  0999 V2000
   -2.2900    0.3401    4.1553 C   0  0  0  0  0  0  0  0  0  0  0  0
   -1.3426   -0.2746    3.6796 O   0  0  0  0  0  0  0  0  0  0  0  0
   -2.7219    0.0577    5.5560 C   0  0  0  0  0  0  0  0  0  0  0  0
   -3.4815   -0.7386    5.6094 H   0  0  0  0  0  0  0  0  0  0  0  0
   -1.8906   -0.2899    6.1903 H   0  0  0  0  0  0  0  0  0  0  0  0
   -3.1599    0.9126    6.0956 H   0  0  0  0  0  0  0  0  0  0  0  0
   -3.0397    1.3125    3.5142 N   0  0  0  0  0  0  0  0  0  0  0  0
   -2.7928    1.7385    2.1618 C   0  0  2  0  0  0  0  0  0  0  0  0
   -1.4579    1.1532    1.7206 C   0  0  0  0  0  0  0  0  0  0  0  0
   -0.5858    0.8004    2.5118 O   0  0  0  0  0  0  0  0  0  0  0  0
   -2.7841    3.2553    2.0523 C   0  0  0  0  0  0  0  0  0  0  0  0
   -3.8047    1.7484    4.0260 H   0  0  0  0  0  0  0  0  0  0  0  0
   -3.5969    1.3201    1.5466 H   0  0  0  0  0  0  0  0  0  0  0  0
   -1.9850    3.6926    2.6620 H   0  0  0  0  0  0  0  0  0  0  0  0
   -2.6246    3.5776    1.0180 H   0  0  0  0  0  0  0  0  0  0  0  0
   -3.7342    3.6765    2.3981 H   0  0  0  0  0  0  0  0  0  0  0  0
   -1.3352    1.1101    0.3372 N   0  0  0  0  0  0  0  0  0  0  0  0
   -0.1579    0.6093   -0.3265 C   0  0  2  0  0  0  0  0  0  0  0  0
    0.0195   -0.8423    0.1042 C   0  0  0  0  0  0  0  0  0  0  0  0
    0.7932   -1.6165   -0.4552 O   0  0  0  0  0  0  0  0  0  0  0  0
    1.0932    1.4247    0.0201 C   0  0  0  0  0  0  0  0  0  0  0  0
    1.0405    2.8326   -0.5208 C   0  0  0  0  0  0  0  0  0  0  0  0
    0.6522    3.9495    0.1825 C   0  0  0  0  0  0  0  0  0  0  0  0
    1.3813    3.2476   -1.8387 C   0  0  0  0  0  0  0  0  0  0  0  0
    0.7429    5.0281   -0.6559 N   0  0  0  0  0  0  0  0  0  0  0  0
    1.1857    4.6291   -1.8968 C   0  0  0  0  0  0  0  0  0  0  0  0
    1.8388    2.5782   -2.9911 C   0  0  0  0  0  0  0  0  0  0  0  0
    1.4257    5.3778   -3.0545 C   0  0  0  0  0  0  0  0  0  0  0  0
    2.0831    3.3142   -4.1563 C   0  0  0  0  0  0  0  0  0  0  0  0
    1.8791    4.6924   -4.1852 C   0  0  0  0  0  0  0  0  0  0  0  0
   -2.1183    1.4068   -0.2401 H   0  0  0  0  0  0  0  0  0  0  0  0
   -0.3681    0.6414   -1.4020 H   0  0  0  0  0  0  0  0  0  0  0  0
    1.9931    0.9184   -0.3546 H   0  0  0  0  0  0  0  0  0  0  0  0
    1.2259    1.4794    1.1087 H   0  0  0  0  0  0  0  0  0  0  0  0
    0.3181    4.0743    1.2033 H   0  0  0  0  0  0  0  0  0  0  0  0
    0.5176    5.9799   -0.4014 H   0  0  0  0  0  0  0  0  0  0  0  0
    2.0018    1.5043   -2.9850 H   0  0  0  0  0  0  0  0  0  0  0  0
    1.2682    6.4508   -3.0776 H   0  0  0  0  0  0  0  0  0  0  0  0
    2.4355    2.8035   -5.0484 H   0  0  0  0  0  0  0  0  0  0  0  0
    2.0752    5.2443   -5.1008 H   0  0  0  0  0  0  0  0  0  0  0  0
   -0.7512   -1.1523    1.2161 N   0  0  0  0  0  0  0  0  0  0  0  0
   -0.7526   -2.4547    1.8427 C   0  0  2  0  0  0  0  0  0  0  0  0
   -0.9660   -3.4994    0.7553 C   0  0  0  0  0  0  0  0  0  0  0  0
   -1.4915   -3.2442   -0.3263 O   0  0  0  0  0  0  0  0  0  0  0  0
   -1.8306   -2.5537    2.9108 C   0  0  0  0  0  0  0  0  0  0  0  0
   -1.3440   -0.4273    1.6094 H   0  0  0  0  0  0  0  0  0  0  0  0
    0.2374   -2.5908    2.2915 H   0  0  0  0  0  0  0  0  0  0  0  0
   -2.8295   -2.4199    2.4800 H   0  0  0  0  0  0  0  0  0  0  0  0
   -1.8117   -3.5311    3.4041 H   0  0  0  0  0  0  0  0  0  0  0  0
   -1.6927   -1.7826    3.6763 H   0  0  0  0  0  0  0  0  0  0  0  0
   -0.5399   -4.7595    1.1514 N   0  0  0  0  0  0  0  0  0  0  0  0
   -0.6470   -5.9218    0.3007 C   0  0  0  0  0  0  0  0  0  0  0  0
   -0.0986   -4.8754    2.0588 H   0  0  0  0  0  0  0  0  0  0  0  0
   -1.5959   -6.4397    0.5043 H   0  0  0  0  0  0  0  0  0  0  0  0
   -0.6193   -5.6084   -0.7533 H   0  0  0  0  0  0  0  0  0  0  0  0
    0.1929   -6.6027    0.5030 H   0  0  0  0  0  0  0  0  0  0  0  0
 29 30  2  0  0  0  0
 27 29  1  0  0  0  0
 28 30  1  0  0  0  0
 24 27  2  0  0  0  0
 26 28  2  0  0  0  0
 22 23  2  0  0  0  0
 23 25  1  0  0  0  0
 22 24  1  0  0  0  0
 24 26  1  0  0  0  0
 21 22  1  0  0  0  0
 25 26  1  0  0  0  0
  1  3  1  0  0  0  0
  1  7  1  0  0  0  0
  1  2  2  0  0  0  0
 42 43  1  0  0  0  0
 43 51  1  0  0  0  0
 43 44  2  0  0  0  0
  8  9  1  0  0  0  0
  9 17  1  0  0  0  0
  9 10  2  0  0  0  0
 18 19  1  0  0  0  0
 19 41  1  0  0  0  0
 19 20  2  0  0  0  0
 42 45  1  0  0  0  0
  8 11  1  0  0  0  0
 51 52  1  0  0  0  0
 18 21  1  0  0  0  0
 41 42  1  0  0  0  0
  7  8  1  0  0  0  0
 17 18  1  0  0  0  0
 29 39  1  0  0  0  0
 30 40  1  0  0  0  0
 27 37  1  0  0  0  0
 28 38  1  0  0  0  0
 23 35  1  0  0  0  0
  3  4  1  0  0  0  0
  3  5  1  0  0  0  0
  3  6  1  0  0  0  0
 45 48  1  0  0  0  0
 45 49  1  0  0  0  0
 45 50  1  0  0  0  0
 11 14  1  0  0  0  0
 11 15  1  0  0  0  0
 11 16  1  0  0  0  0
 52 54  1  0  0  0  0
 52 55  1  0  0  0  0
 52 56  1  0  0  0  0
 21 33  1  0  0  0  0
 21 34  1  0  0  0  0
 42 47  1  0  0  0  0
  8 13  1  0  0  0  0
 18 32  1  0  0  0  0
 25 36  1  0  0  0  0
 51 53  1  0  0  0  0
  7 12  1  0  0  0  0
 41 46  1  0  0  0  0
 17 31  1  0  0  0  0
M  END
$$$$

  -OEChem-05262214473D

 56 57  0     1  0  0  0  0  0999 V2000
   -2.2900    0.3401    4.1553 C   0  0  0  0  0  0  0  0  0  0  0  0
   -1.3426   -0.2746    3.6796 O   0  0  0  0  0  0  0  0  0  0  0  0
   -2.7219    0.0577    5.5560 C   0  0  0  0  0  0  0  0  0  0  0  0
   -3.4815   -0.7386    5.6094 H   0  0  0  0  0  0  0  0  0  0  0  0
   -1.8906   -0.2899    6.1903 H   0  0  0  0  0  0  0  0  0  0  0  0
   -3.1599    0.9126    6.0956 H   0  0  0  0  0  0  0  0  0  0  0  0
   -3.0397    1.3125    3.5142 N   0  0  0  0  0  0  0  0  0  0  0  0
   -2.7928    1.7385    2.1618 C   0  0  2  0  0  0  0  0  0  0  0  0
   -1.4579    1.1532    1.7206 C   0  0  0  0  0  0  0  0  0  0  0  0
   -0.5858    0.8004    2.5118 O   0  0  0  0  0  0  0  0  0  0  0  0
   -2.7841    3.2553    2.0523 C   0  0  0  0  0  0  0  0  0  0  0  0
   -3.8047    1.7484    4.0260 H   0  0  0  0  0  0  0  0  0  0  0  0
   -3.5969    1.3201    1.5466 H   0  0  0  0  0  0  0  0  0  0  0  0
   -1.9850    3.6926    2.6620 H   0  0  0  0  0  0  0  0  0  0  0  0
   -2.6246    3.5776    1.0180 H   0  0  0  0  0  0  0  0  0  0  0  0
   -3.7342    3.6765    2.3981 H   0  0  0  0  0  0  0  0  0  0  0  0
   -1.3352    1.1101    0.3372 N   0  0  0  0  0  0  0  0  0  0  0  0
   -0.1579    0.6093   -0.3265 C   0  0  2  0  0  0  0  0  0  0  0  0
    0.0195   -0.8423    0.1042 C   0  0  0  0  0  0  0  0  0  0  0  0
    0.9640   -1.5384   -0.2624 O   0  0  0  0  0  0  0  0  0  0  0  0
    1.0932    1.4247    0.0201 C   0  0  0  0  0  0  0  0  0  0  0  0
    1.0405    2.8326   -0.5208 C   0  0  0  0  0  0  0  0  0  0  0  0
    0.6522    3.9495    0.1825 C   0  0  0  0  0  0  0  0  0  0  0  0
    1.3813    3.2476   -1.8387 C   0  0  0  0  0  0  0  0  0  0  0  0
    0.7429    5.0281   -0.6559 N   0  0  0  0  0  0  0  0  0  0  0  0
    1.1857    4.6291   -1.8968 C   0  0  0  0  0  0  0  0  0  0  0  0
    1.8388    2.5782   -2.9911 C   0  0  0  0  0  0  0  0  0  0  0  0
    1.4257    5.3778   -3.0545 C   0  0  0  0  0  0  0  0  0  0  0  0
    2.0831    3.3142   -4.1563 C   0  0  0  0  0  0  0  0  0  0  0  0
    1.8791    4.6924   -4.1852 C   0  0  0  0  0  0  0  0  0  0  0  0
   -2.1183    1.4068   -0.2401 H   0  0  0  0  0  0  0  0  0  0  0  0
   -0.3681    0.6414   -1.4020 H   0  0  0  0  0  0  0  0  0  0  0  0
    1.9931    0.9184   -0.3546 H   0  0  0  0  0  0  0  0  0  0  0  0
    1.2259    1.4794    1.1087 H   0  0  0  0  0  0  0  0  0  0  0  0
    0.3181    4.0743    1.2033 H   0  0  0  0  0  0  0  0  0  0  0  0
    0.5176    5.9799   -0.4014 H   0  0  0  0  0  0  0  0  0  0  0  0
    2.0018    1.5043   -2.9850 H   0  0  0  0  0  0  0  0  0  0  0  0
    1.2682    6.4508   -3.0776 H   0  0  0  0  0  0  0  0  0  0  0  0
    2.4355    2.8035   -5.0484 H   0  0  0  0  0  0  0  0  0  0  0  0
    2.0752    5.2443   -5.1008 H   0  0  0  0  0  0  0  0  0  0  0  0
   -0.9742   -1.2484    0.9840 N   0  0  0  0  0  0  0  0  0  0  0  0
   -1.0291   -2.5714    1.5633 C   0  0  2  0  0  0  0  0  0  0  0  0
   -0.8883   -3.5849    0.4352 C   0  0  0  0  0  0  0  0  0  0  0  0
   -1.1504   -3.3244   -0.7372 O   0  0  0  0  0  0  0  0  0  0  0  0
   -2.3253   -2.7868    2.3289 C   0  0  0  0  0  0  0  0  0  0  0  0
   -1.6994   -0.5823    1.2333 H   0  0  0  0  0  0  0  0  0  0  0  0
   -0.1720   -2.6561    2.2402 H   0  0  0  0  0  0  0  0  0  0  0  0
   -3.1953   -2.7057    1.6671 H   0  0  0  0  0  0  0  0  0  0  0  0
   -2.3529   -3.7792    2.7910 H   0  0  0  0  0  0  0  0  0  0  0  0
   -2.4392   -2.0386    3.1207 H   0  0  0  0  0  0  0  0  0  0  0  0
   -0.4768   -4.8270    0.8980 N   0  0  0  0  0  0  0  0  0  0  0  0
   -0.2823   -5.9596    0.0231 C   0  0  0  0  0  0  0  0  0  0  0  0
   -0.2640   -4.9475    1.8838 H   0  0  0  0  0  0  0  0  0  0  0  0
   -1.2094   -6.5496   -0.0254 H   0  0  0  0  0  0  0  0  0  0  0  0
   -0.0210   -5.6038   -0.9845 H   0  0  0  0  0  0  0  0  0  0  0  0
    0.5322   -6.5880    0.4127 H   0  0  0  0  0  0  0  0  0  0  0  0
 29 30  2  0  0  0  0
 27 29  1  0  0  0  0
 28 30  1  0  0  0  0
 24 27  2  0  0  0  0
 26 28  2  0  0  0  0
 22 23  2  0  0  0  0
 23 25  1  0  0  0  0
 22 24  1  0  0  0  0
 24 26  1  0  0  0  0
 21 22  1  0  0  0  0
 25 26  1  0  0  0  0
  1  3  1  0  0  0  0
  1  7  1  0  0  0  0
  1  2  2  0  0  0  0
 42 43  1  0  0  0  0
 43 51  1  0  0  0  0
 43 44  2  0  0  0  0
  8  9  1  0  0  0  0
  9 17  1  0  0  0  0
  9 10  2  0  0  0  0
 18 19  1  0  0  0  0
 19 41  1  0  0  0  0
 19 20  2  0  0  0  0
 42 45  1  0  0  0  0
  8 11  1  0  0  0  0
 51 52  1  0  0  0  0
 18 21  1  0  0  0  0
 41 42  1  0  0  0  0
  7  8  1  0  0  0  0
 17 18  1  0  0  0  0
 29 39  1  0  0  0  0
 30 40  1  0  0  0  0
 27 37  1  0  0  0  0
 28 38  1  0  0  0  0
 23 35  1  0  0  0  0
  3  4  1  0  0  0  0
  3  5  1  0  0  0  0
  3  6  1  0  0  0  0
 45 48  1  0  0  0  0
 45 49  1  0  0  0  0
 45 50  1  0  0  0  0
 11 14  1  0  0  0  0
 11 15  1  0  0  0  0
 11 16  1  0  0  0  0
 52 54  1  0  0  0  0
 52 55  1  0  0  0  0
 52 56  1  0  0  0  0
 21 33  1  0  0  0  0
 21 34  1  0  0  0  0
 42 47  1  0  0  0  0
  8 13  1  0  0  0  0
 18 32  1  0  0  0  0
 25 36  1  0  0  0  0
 51 53  1  0  0  0  0
  7 12  1  0  0  0  0
 41 46  1  0  0  0  0
 17 31  1  0  0  0  0
M  END
$$$$

  -OEChem-05262214473D

 56 57  0     1  0  0  0  0  0999 V2000
   -2.2900    0.3401    4.1553 C   0  0  0  0  0  0  0  0  0  0  0  0
   -1.3426   -0.2746    3.6796 O   0  0  0  0  0  0  0  0  0  0  0  0
   -2.7219    0.0577    5.5560 C   0  0  0  0  0  0  0  0  0  0  0  0
   -3.4815   -0.7386    5.6094 H   0  0  0  0  0  0  0  0  0  0  0  0
   -1.8906   -0.2899    6.1903 H   0  0  0  0  0  0  0  0  0  0  0  0
   -3.1599    0.9126    6.0956 H   0  0  0  0  0  0  0  0  0  0  0  0
   -3.0397    1.3125    3.5142 N   0  0  0  0  0  0  0  0  0  0  0  0
   -2.7928    1.7385    2.1618 C   0  0  2  0  0  0  0  0  0  0  0  0
   -1.4579    1.1532    1.7206 C   0  0  0  0  0  0  0  0  0  0  0  0
   -0.5858    0.8004    2.5118 O   0  0  0  0  0  0  0  0  0  0  0  0
   -2.7841    3.2553    2.0523 C   0  0  0  0  0  0  0  0  0  0  0  0
   -3.8047    1.7484    4.0260 H   0  0  0  0  0  0  0  0  0  0  0  0
   -3.5969    1.3201    1.5466 H   0  0  0  0  0  0  0  0  0  0  0  0
   -1.9850    3.6926    2.6620 H   0  0  0  0  0  0  0  0  0  0  0  0
   -2.6246    3.5776    1.0180 H   0  0  0  0  0  0  0  0  0  0  0  0
   -3.7342    3.6765    2.3981 H   0  0  0  0  0  0  0  0  0  0  0  0
   -1.3352    1.1101    0.3372 N   0  0  0  0  0  0  0  0  0  0  0  0
   -0.1579    0.6093   -0.3265 C   0  0  2  0  0  0  0  0  0  0  0  0
    0.0195   -0.8423    0.1042 C   0  0  0  0  0  0  0  0  0  0  0  0
    1.0757   -1.4563   -0.0316 O   0  0  0  0  0  0  0  0  0  0  0  0
    1.0932    1.4247    0.0201 C   0  0  0  0  0  0  0  0  0  0  0  0
    1.0405    2.8326   -0.5208 C   0  0  0  0  0  0  0  0  0  0  0  0
    0.6522    3.9495    0.1825 C   0  0  0  0  0  0  0  0  0  0  0  0
    1.3813    3.2476   -1.8387 C   0  0  0  0  0  0  0  0  0  0  0  0
    0.7429    5.0281   -0.6559 N   0  0  0  0  0  0  0  0  0  0  0  0
    1.1857    4.6291   -1.8968 C   0  0  0  0  0  0  0  0  0  0  0  0
    1.8388    2.5782   -2.9911 C   0  0  0  0  0  0  0  0  0  0  0  0
    1.4257    5.3778   -3.0545 C   0  0  0  0  0  0  0  0  0  0  0  0
    2.0831    3.3142   -4.1563 C   0  0  0  0  0  0  0  0  0  0  0  0
    1.8791    4.6924   -4.1852 C   0  0  0  0  0  0  0  0  0  0  0  0
   -2.1183    1.4068   -0.2401 H   0  0  0  0  0  0  0  0  0  0  0  0
   -0.3681    0.6414   -1.4020 H   0  0  0  0  0  0  0  0  0  0  0  0
    1.9931    0.9184   -0.3546 H   0  0  0  0  0  0  0  0  0  0  0  0
    1.2259    1.4794    1.1087 H   0  0  0  0  0  0  0  0  0  0  0  0
    0.3181    4.0743    1.2033 H   0  0  0  0  0  0  0  0  0  0  0  0
    0.5176    5.9799   -0.4014 H   0  0  0  0  0  0  0  0  0  0  0  0
    2.0018    1.5043   -2.9850 H   0  0  0  0  0  0  0  0  0  0  0  0
    1.2682    6.4508   -3.0776 H   0  0  0  0  0  0  0  0  0  0  0  0
    2.4355    2.8035   -5.0484 H   0  0  0  0  0  0  0  0  0  0  0  0
    2.0752    5.2443   -5.1008 H   0  0  0  0  0  0  0  0  0  0  0  0
   -1.1254   -1.3506    0.7019 N   0  0  0  0  0  0  0  0  0  0  0  0
   -1.2189   -2.6959    1.2217 C   0  0  2  0  0  0  0  0  0  0  0  0
   -0.7281   -3.6521    0.1426 C   0  0  0  0  0  0  0  0  0  0  0  0
   -0.7138   -3.3646   -1.0524 O   0  0  0  0  0  0  0  0  0  0  0  0
   -2.6427   -3.0306    1.6379 C   0  0  0  0  0  0  0  0  0  0  0  0
   -1.9386   -0.7467    0.7778 H   0  0  0  0  0  0  0  0  0  0  0  0
   -0.5501   -2.7475    2.0878 H   0  0  0  0  0  0  0  0  0  0  0  0
   -3.3274   -2.9841    0.7832 H   0  0  0  0  0  0  0  0  0  0  0  0
   -2.7065   -4.0399    2.0579 H   0  0  0  0  0  0  0  0  0  0  0  0
   -3.0046   -2.3238    2.3924 H   0  0  0  0  0  0  0  0  0  0  0  0
   -0.3485   -4.8799    0.6667 N   0  0  0  0  0  0  0  0  0  0  0  0
    0.1413   -5.9610   -0.1563 C   0  0  0  0  0  0  0  0  0  0  0  0
   -0.3754   -5.0240    1.6718 H   0  0  0  0  0  0  0  0  0  0  0  0
   -0.6974   -6.6116   -0.4452 H   0  0  0  0  0  0  0  0  0  0  0  0
    0.6135   -5.5487   -1.0601 H   0  0  0  0  0  0  0  0  0  0  0  0
    0.8811   -6.5463    0.4096 H   0  0  0  0  0  0  0  0  0  0  0  0
 29 30  2  0  0  0  0
 27 29  1  0  0  0  0
 28 30  1  0  0  0  0
 24 27  2  0  0  0  0
 26 28  2  0  0  0  0
 22 23  2  0  0  0  0
 23 25  1  0  0  0  0
 22 24  1  0  0  0  0
 24 26  1  0  0  0  0
 21 22  1  0  0  0  0
 25 26  1  0  0  0  0
  1  3  1  0  0  0  0
  1  7  1  0  0  0  0
  1  2  2  0  0  0  0
 42 43  1  0  0  0  0
 43 51  1  0  0  0  0
 43 44  2  0  0  0  0
  8  9  1  0  0  0  0
  9 17  1  0  0  0  0
  9 10  2  0  0  0  0
 18 19  1  0  0  0  0
 19 41  1  0  0  0  0
 19 20  2  0  0  0  0
 42 45  1  0  0  0  0
  8 11  1  0  0  0  0
 51 52  1  0  0  0  0
 18 21  1  0  0  0  0
 41 42  1  0  0  0  0
  7  8  1  0  0  0  0
 17 18  1  0  0  0  0
 29 39  1  0  0  0  0
 30 40  1  0  0  0  0
 27 37  1  0  0  0  0
 28 38  1  0  0  0  0
 23 35  1  0  0  0  0
  3  4  1  0  0  0  0
  3  5  1  0  0  0  0
  3  6  1  0  0  0  0
 45 48  1  0  0  0  0
 45 49  1  0  0  0  0
 45 50  1  0  0  0  0
 11 14  1  0  0  0  0
 11 15  1  0  0  0  0
 11 16  1  0  0  0  0
 52 54  1  0  0  0  0
 52 55  1  0  0  0  0
 52 56  1  0  0  0  0
 21 33  1  0  0  0  0
 21 34  1  0  0  0  0
 42 47  1  0  0  0  0
  8 13  1  0  0  0  0
 18 32  1  0  0  0  0
 25 36  1  0  0  0  0
 51 53  1  0  0  0  0
  7 12  1  0  0  0  0
 41 46  1  0  0  0  0
 17 31  1  0  0  0  0
M  END
$$$$

  -OEChem-05262214473D

 56 57  0     1  0  0  0  0  0999 V2000
   -2.2900    0.3401    4.1553 C   0  0  0  0  0  0  0  0  0  0  0  0
   -1.3426   -0.2746    3.6796 O   0  0  0  0  0  0  0  0  0  0  0  0
   -2.7219    0.0577    5.5560 C   0  0  0  0  0  0  0  0  0  0  0  0
   -3.4815   -0.7386    5.6094 H   0  0  0  0  0  0  0  0  0  0  0  0
   -1.8906   -0.2899    6.1903 H   0  0  0  0  0  0  0  0  0  0  0  0
   -3.1599    0.9126    6.0956 H   0  0  0  0  0  0  0  0  0  0  0  0
   -3.0397    1.3125    3.5142 N   0  0  0  0  0  0  0  0  0  0  0  0
   -2.7928    1.7385    2.1618 C   0  0  2  0  0  0  0  0  0  0  0  0
   -1.4579    1.1532    1.7206 C   0  0  0  0  0  0  0  0  0  0  0  0
   -0.5858    0.8004    2.5118 O   0  0  0  0  0  0  0  0  0  0  0  0
   -2.7841    3.2553    2.0523 C   0  0  0  0  0  0  0  0  0  0  0  0
   -3.8047    1.7484    4.0260 H   0  0  0  0  0  0  0  0  0  0  0  0
   -3.5969    1.3201    1.5466 H   0  0  0  0  0  0  0  0  0  0  0  0
   -1.9850    3.6926    2.6620 H   0  0  0  0  0  0  0  0  0  0  0  0
   -2.6246    3.5776    1.0180 H   0  0  0  0  0  0  0  0  0  0  0  0
   -3.7342    3.6765    2.3981 H   0  0  0  0  0  0  0  0  0  0  0  0
   -1.3352    1.1101    0.3372 N   0  0  0  0  0  0  0  0  0  0  0  0
   -0.1579    0.6093   -0.3265 C   0  0  2  0  0  0  0  0  0  0  0  0
    0.0195   -0.8423    0.1042 C   0  0  0  0  0  0  0  0  0  0  0  0
    1.1207   -1.3757    0.2212 O   0  0  0  0  0  0  0  0  0  0  0  0
    1.0932    1.4247    0.0201 C   0  0  0  0  0  0  0  0  0  0  0  0
    1.0405    2.8326   -0.5208 C   0  0  0  0  0  0  0  0  0  0  0  0
    0.6522    3.9495    0.1825 C   0  0  0  0  0  0  0  0  0  0  0  0
    1.3813    3.2476   -1.8387 C   0  0  0  0  0  0  0  0  0  0  0  0
    0.7429    5.0281   -0.6559 N   0  0  0  0  0  0  0  0  0  0  0  0
    1.1857    4.6291   -1.8968 C   0  0  0  0  0  0  0  0  0  0  0  0
    1.8388    2.5782   -2.9911 C   0  0  0  0  0  0  0  0  0  0  0  0
    1.4257    5.3778   -3.0545 C   0  0  0  0  0  0  0  0  0  0  0  0
    2.0831    3.3142   -4.1563 C   0  0  0  0  0  0  0  0  0  0  0  0
    1.8791    4.6924   -4.1852 C   0  0  0  0  0  0  0  0  0  0  0  0
   -2.1183    1.4068   -0.2401 H   0  0  0  0  0  0  0  0  0  0  0  0
   -0.3681    0.6414   -1.4020 H   0  0  0  0  0  0  0  0  0  0  0  0
    1.9931    0.9184   -0.3546 H   0  0  0  0  0  0  0  0  0  0  0  0
    1.2259    1.4794    1.1087 H   0  0  0  0  0  0  0  0  0  0  0  0
    0.3181    4.0743    1.2033 H   0  0  0  0  0  0  0  0  0  0  0  0
    0.5176    5.9799   -0.4014 H   0  0  0  0  0  0  0  0  0  0  0  0
    2.0018    1.5043   -2.9850 H   0  0  0  0  0  0  0  0  0  0  0  0
    1.2682    6.4508   -3.0776 H   0  0  0  0  0  0  0  0  0  0  0  0
    2.4355    2.8035   -5.0484 H   0  0  0  0  0  0  0  0  0  0  0  0
    2.0752    5.2443   -5.1008 H   0  0  0  0  0  0  0  0  0  0  0  0
   -1.1945   -1.4519    0.3891 N   0  0  0  0  0  0  0  0  0  0  0  0
   -1.3088   -2.8198    0.8412 C   0  0  2  0  0  0  0  0  0  0  0  0
   -0.4964   -3.6966   -0.1025 C   0  0  0  0  0  0  0  0  0  0  0  0
   -0.2115   -3.3620   -1.2506 O   0  0  0  0  0  0  0  0  0  0  0  0
   -2.7612   -3.2685    0.8849 C   0  0  0  0  0  0  0  0  0  0  0  0
   -2.0454   -0.9092    0.2739 H   0  0  0  0  0  0  0  0  0  0  0  0
   -0.8711   -2.8589    1.8447 H   0  0  0  0  0  0  0  0  0  0  0  0
   -3.2168   -3.2361   -0.1116 H   0  0  0  0  0  0  0  0  0  0  0  0
   -2.8483   -4.2955    1.2548 H   0  0  0  0  0  0  0  0  0  0  0  0
   -3.3504   -2.6187    1.5410 H   0  0  0  0  0  0  0  0  0  0  0  0
   -0.1636   -4.9147    0.4734 N   0  0  0  0  0  0  0  0  0  0  0  0
    0.5947   -5.9261   -0.2252 C   0  0  0  0  0  0  0  0  0  0  0  0
   -0.4251   -5.0997    1.4373 H   0  0  0  0  0  0  0  0  0  0  0  0
   -0.0949   -6.6214   -0.7263 H   0  0  0  0  0  0  0  0  0  0  0  0
    1.2411   -5.4468   -0.9752 H   0  0  0  0  0  0  0  0  0  0  0  0
    1.2158   -6.4804    0.4938 H   0  0  0  0  0  0  0  0  0  0  0  0
 29 30  2  0  0  0  0
 27 29  1  0  0  0  0
 28 30  1  0  0  0  0
 24 27  2  0  0  0  0
 26 28  2  0  0  0  0
 22 23  2  0  0  0  0
 23 25  1  0  0  0  0
 22 24  1  0  0  0  0
 24 26  1  0  0  0  0
 21 22  1  0  0  0  0
 25 26  1  0  0  0  0
  1  3  1  0  0  0  0
  1  7  1  0  0  0  0
  1  2  2  0  0  0  0
 42 43  1  0  0  0  0
 43 51  1  0  0  0  0
 43 44  2  0  0  0  0
  8  9  1  0  0  0  0
  9 17  1  0  0  0  0
  9 10  2  0  0  0  0
 18 19  1  0  0  0  0
 19 41  1  0  0  0  0
 19 20  2  0  0  0  0
 42 45  1  0  0  0  0
  8 11  1  0  0  0  0
 51 52  1  0  0  0  0
 18 21  1  0  0  0  0
 41 42  1  0  0  0  0
  7  8  1  0  0  0  0
 17 18  1  0  0  0  0
 29 39  1  0  0  0  0
 30 40  1  0  0  0  0
 27 37  1  0  0  0  0
 28 38  1  0  0  0  0
 23 35  1  0  0  0  0
  3  4  1  0  0  0  0
  3  5  1  0  0  0  0
  3  6  1  0  0  0  0
 45 48  1  0  0  0  0
 45 49  1  0  0  0  0
 45 50  1  0  0  0  0
 11 14  1  0  0  0  0
 11 15  1  0  0  0  0
 11 16  1  0  0  0  0
 52 54  1  0  0  0  0
 52 55  1  0  0  0  0
 52 56  1  0  0  0  0
 21 33  1  0  0  0  0
 21 34  1  0  0  0  0
 42 47  1  0  0  0  0
  8 13  1  0  0  0  0
 18 32  1  0  0  0  0
 25 36  1  0  0  0  0
 51 53  1  0  0  0  0
  7 12  1  0  0  0  0
 41 46  1  0  0  0  0
 17 31  1  0  0  0  0
M  END
$$$$

  -OEChem-05262214473D

 56 57  0     1  0  0  0  0  0999 V2000
   -2.2900    0.3401    4.1553 C   0  0  0  0  0  0  0  0  0  0  0  0
   -1.3426   -0.2746    3.6796 O   0  0  0  0  0  0  0  0  0  0  0  0
   -2.7219    0.0577    5.5560 C   0  0  0  0  0  0  0  0  0  0  0  0
   -3.4815   -0.7386    5.6094 H   0  0  0  0  0  0  0  0  0  0  0  0
   -1.8906   -0.2899    6.1903 H   0  0  0  0  0  0  0  0  0  0  0  0
   -3.1599    0.9126    6.0956 H   0  0  0  0  0  0  0  0  0  0  0  0
   -3.0397    1.3125    3.5142 N   0  0  0  0  0  0  0  0  0  0  0  0
   -2.7928    1.7385    2.1618 C   0  0  2  0  0  0  0  0  0  0  0  0
   -1.4579    1.1532    1.7206 C   0  0  0  0  0  0  0  0  0  0  0  0
   -0.5858    0.8004    2.5118 O   0  0  0  0  0  0  0  0  0  0  0  0
   -2.7841    3.2553    2.0523 C   0  0  0  0  0  0  0  0  0  0  0  0
   -3.8047    1.7484    4.0260 H   0  0  0  0  0  0  0  0  0  0  0  0
   -3.5969    1.3201    1.5466 H   0  0  0  0  0  0  0  0  0  0  0  0
   -1.9850    3.6926    2.6620 H   0  0  0  0  0  0  0  0  0  0  0  0
   -2.6246    3.5776    1.0180 H   0  0  0  0  0  0  0  0  0  0  0  0
   -3.7342    3.6765    2.3981 H   0  0  0  0  0  0  0  0  0  0  0  0
   -1.3352    1.1101    0.3372 N   0  0  0  0  0  0  0  0  0  0  0  0
   -0.1579    0.6093   -0.3265 C   0  0  2  0  0  0  0  0  0  0  0  0
    0.0195   -0.8423    0.1042 C   0  0  0  0  0  0  0  0  0  0  0  0
    1.0960   -1.3023    0.4790 O   0  0  0  0  0  0  0  0  0  0  0  0
    1.0932    1.4247    0.0201 C   0  0  0  0  0  0  0  0  0  0  0  0
    1.0405    2.8326   -0.5208 C   0  0  0  0  0  0  0  0  0  0  0  0
    0.6522    3.9495    0.1825 C   0  0  0  0  0  0  0  0  0  0  0  0
    1.3813    3.2476   -1.8387 C   0  0  0  0  0  0  0  0  0  0  0  0
    0.7429    5.0281   -0.6559 N   0  0  0  0  0  0  0  0  0  0  0  0
    1.1857    4.6291   -1.8968 C   0  0  0  0  0  0  0  0  0  0  0  0
    1.8388    2.5782   -2.9911 C   0  0  0  0  0  0  0  0  0  0  0  0
    1.4257    5.3778   -3.0545 C   0  0  0  0  0  0  0  0  0  0  0  0
    2.0831    3.3142   -4.1563 C   0  0  0  0  0  0  0  0  0  0  0  0
    1.8791    4.6924   -4.1852 C   0  0  0  0  0  0  0  0  0  0  0  0
   -2.1183    1.4068   -0.2401 H   0  0  0  0  0  0  0  0  0  0  0  0
   -0.3681    0.6414   -1.4020 H   0  0  0  0  0  0  0  0  0  0  0  0
    1.9931    0.9184   -0.3546 H   0  0  0  0  0  0  0  0  0  0  0  0
    1.2259    1.4794    1.1087 H   0  0  0  0  0  0  0  0  0  0  0  0
    0.3181    4.0743    1.2033 H   0  0  0  0  0  0  0  0  0  0  0  0
    0.5176    5.9799   -0.4014 H   0  0  0  0  0  0  0  0  0  0  0  0
    2.0018    1.5043   -2.9850 H   0  0  0  0  0  0  0  0  0  0  0  0
    1.2682    6.4508   -3.0776 H   0  0  0  0  0  0  0  0  0  0  0  0
    2.4355    2.8035   -5.0484 H   0  0  0  0  0  0  0  0  0  0  0  0
    2.0752    5.2443   -5.1008 H   0  0  0  0  0  0  0  0  0  0  0  0
   -1.1767   -1.5453    0.0668 N   0  0  0  0  0  0  0  0  0  0  0  0
   -1.2929   -2.9346    0.4478 C   0  0  2  0  0  0  0  0  0  0  0  0
   -0.2088   -3.7151   -0.2836 C   0  0  0  0  0  0  0  0  0  0  0  0
    0.3224   -3.3168   -1.3181 O   0  0  0  0  0  0  0  0  0  0  0  0
   -2.6727   -3.4843    0.1212 C   0  0  0  0  0  0  0  0  0  0  0  0
   -2.0125   -1.0588   -0.2440 H   0  0  0  0  0  0  0  0  0  0  0  0
   -1.1131   -2.9826    1.5273 H   0  0  0  0  0  0  0  0  0  0  0  0
   -2.8710   -3.4444   -0.9561 H   0  0  0  0  0  0  0  0  0  0  0  0
   -2.7686   -4.5286    0.4364 H   0  0  0  0  0  0  0  0  0  0  0  0
   -3.4530   -2.9032    0.6244 H   0  0  0  0  0  0  0  0  0  0  0  0
    0.0651   -4.9289    0.3311 N   0  0  0  0  0  0  0  0  0  0  0  0
    1.0470   -5.8571   -0.1790 C   0  0  0  0  0  0  0  0  0  0  0  0
   -0.4099   -5.1694    1.1962 H   0  0  0  0  0  0  0  0  0  0  0  0
    0.5570   -6.5783   -0.8497 H   0  0  0  0  0  0  0  0  0  0  0  0
    1.8189   -5.3051   -0.7354 H   0  0  0  0  0  0  0  0  0  0  0  0
    1.5135   -6.3948    0.6596 H   0  0  0  0  0  0  0  0  0  0  0  0
 29 30  2  0  0  0  0
 27 29  1  0  0  0  0
 28 30  1  0  0  0  0
 24 27  2  0  0  0  0
 26 28  2  0  0  0  0
 22 23  2  0  0  0  0
 23 25  1  0  0  0  0
 22 24  1  0  0  0  0
 24 26  1  0  0  0  0
 21 22  1  0  0  0  0
 25 26  1  0  0  0  0
  1  3  1  0  0  0  0
  1  7  1  0  0  0  0
  1  2  2  0  0  0  0
 42 43  1  0  0  0  0
 43 51  1  0  0  0  0
 43 44  2  0  0  0  0
  8  9  1  0  0  0  0
  9 17  1  0  0  0  0
  9 10  2  0  0  0  0
 18 19  1  0  0  0  0
 19 41  1  0  0  0  0
 19 20  2  0  0  0  0
 42 45  1  0  0  0  0
  8 11  1  0  0  0  0
 51 52  1  0  0  0  0
 18 21  1  0  0  0  0
 41 42  1  0  0  0  0
  7  8  1  0  0  0  0
 17 18  1  0  0  0  0
 29 39  1  0  0  0  0
 30 40  1  0  0  0  0
 27 37  1  0  0  0  0
 28 38  1  0  0  0  0
 23 35  1  0  0  0  0
  3  4  1  0  0  0  0
  3  5  1  0  0  0  0
  3  6  1  0  0  0  0
 45 48  1  0  0  0  0
 45 49  1  0  0  0  0
 45 50  1  0  0  0  0
 11 14  1  0  0  0  0
 11 15  1  0  0  0  0
 11 16  1  0  0  0  0
 52 54  1  0  0  0  0
 52 55  1  0  0  0  0
 52 56  1  0  0  0  0
 21 33  1  0  0  0  0
 21 34  1  0  0  0  0
 42 47  1  0  0  0  0
  8 13  1  0  0  0  0
 18 32  1  0  0  0  0
 25 36  1  0  0  0  0
 51 53  1  0  0  0  0
  7 12  1  0  0  0  0
 41 46  1  0  0  0  0
 17 31  1  0  0  0  0
M  END
$$$$

  -OEChem-05262214473D

 56 57  0     1  0  0  0  0  0999 V2000
   -2.2900    0.3401    4.1553 C   0  0  0  0  0  0  0  0  0  0  0  0
   -1.3426   -0.2746    3.6796 O   0  0  0  0  0  0  0  0  0  0  0  0
   -2.7219    0.0577    5.5560 C   0  0  0  0  0  0  0  0  0  0  0  0
   -3.4815   -0.7386    5.6094 H   0  0  0  0  0  0  0  0  0  0  0  0
   -1.8906   -0.2899    6.1903 H   0  0  0  0  0  0  0  0  0  0  0  0
   -3.1599    0.9126    6.0956 H   0  0  0  0  0  0  0  0  0  0  0  0
   -3.0397    1.3125    3.5142 N   0  0  0  0  0  0  0  0  0  0  0  0
   -2.7928    1.7385    2.1618 C   0  0  2  0  0  0  0  0  0  0  0  0
   -1.4579    1.1532    1.7206 C   0  0  0  0  0  0  0  0  0  0  0  0
   -0.5858    0.8004    2.5118 O   0  0  0  0  0  0  0  0  0  0  0  0
   -2.7841    3.2553    2.0523 C   0  0  0  0  0  0  0  0  0  0  0  0
   -3.8047    1.7484    4.0260 H   0  0  0  0  0  0  0  0  0  0  0  0
   -3.5969    1.3201    1.5466 H   0  0  0  0  0  0  0  0  0  0  0  0
   -1.9850    3.6926    2.6620 H   0  0  0  0  0  0  0  0  0  0  0  0
   -2.6246    3.5776    1.0180 H   0  0  0  0  0  0  0  0  0  0  0  0
   -3.7342    3.6765    2.3981 H   0  0  0  0  0  0  0  0  0  0  0  0
   -1.3352    1.1101    0.3372 N   0  0  0  0  0  0  0  0  0  0  0  0
   -0.1579    0.6093   -0.3265 C   0  0  2  0  0  0  0  0  0  0  0  0
    0.0195   -0.8423    0.1042 C   0  0  0  0  0  0  0  0  0  0  0  0
    1.0033   -1.2409    0.7241 O   0  0  0  0  0  0  0  0  0  0  0  0
    1.0932    1.4247    0.0201 C   0  0  0  0  0  0  0  0  0  0  0  0
    1.0405    2.8326   -0.5208 C   0  0  0  0  0  0  0  0  0  0  0  0
    0.6522    3.9495    0.1825 C   0  0  0  0  0  0  0  0  0  0  0  0
    1.3813    3.2476   -1.8387 C   0  0  0  0  0  0  0  0  0  0  0  0
    0.7429    5.0281   -0.6559 N   0  0  0  0  0  0  0  0  0  0  0  0
    1.1857    4.6291   -1.8968 C   0  0  0  0  0  0  0  0  0  0  0  0
    1.8388    2.5782   -2.9911 C   0  0  0  0  0  0  0  0  0  0  0  0
    1.4257    5.3778   -3.0545 C   0  0  0  0  0  0  0  0  0  0  0  0
    2.0831    3.3142   -4.1563 C   0  0  0  0  0  0  0  0  0  0  0  0
    1.8791    4.6924   -4.1852 C   0  0  0  0  0  0  0  0  0  0  0  0
   -2.1183    1.4068   -0.2401 H   0  0  0  0  0  0  0  0  0  0  0  0
   -0.3681    0.6414   -1.4020 H   0  0  0  0  0  0  0  0  0  0  0  0
    1.9931    0.9184   -0.3546 H   0  0  0  0  0  0  0  0  0  0  0  0
    1.2259    1.4794    1.1087 H   0  0  0  0  0  0  0  0  0  0  0  0
    0.3181    4.0743    1.2033 H   0  0  0  0  0  0  0  0  0  0  0  0
    0.5176    5.9799   -0.4014 H   0  0  0  0  0  0  0  0  0  0  0  0
    2.0018    1.5043   -2.9850 H   0  0  0  0  0  0  0  0  0  0  0  0
    1.2682    6.4508   -3.0776 H   0  0  0  0  0  0  0  0  0  0  0  0
    2.4355    2.8035   -5.0484 H   0  0  0  0  0  0  0  0  0  0  0  0
    2.0752    5.2443   -5.1008 H   0  0  0  0  0  0  0  0  0  0  0  0
   -1.0733   -1.6245   -0.2429 N   0  0  0  0  0  0  0  0  0  0  0  0
   -1.1723   -3.0324    0.0683 C   0  0  2  0  0  0  0  0  0  0  0  0
    0.1149   -3.7066   -0.3881 C   0  0  0  0  0  0  0  0  0  0  0  0
    0.8514   -3.2320   -1.2504 O   0  0  0  0  0  0  0  0  0  0  0  0
   -2.3833   -3.6633   -0.6012 C   0  0  0  0  0  0  0  0  0  0  0  0
   -1.8421   -1.1854   -0.7406 H   0  0  0  0  0  0  0  0  0  0  0  0
   -1.2596   -3.1102    1.1575 H   0  0  0  0  0  0  0  0  0  0  0  0
   -2.3136   -3.5949   -1.6930 H   0  0  0  0  0  0  0  0  0  0  0  0
   -2.4729   -4.7232   -0.3415 H   0  0  0  0  0  0  0  0  0  0  0  0
   -3.3054   -3.1578   -0.2947 H   0  0  0  0  0  0  0  0  0  0  0  0
    0.3221   -4.9217    0.2496 N   0  0  0  0  0  0  0  0  0  0  0  0
    1.4676   -5.7588   -0.0208 C   0  0  0  0  0  0  0  0  0  0  0  0
   -0.3306   -5.2283    0.9650 H   0  0  0  0  0  0  0  0  0  0  0  0
    1.2140   -6.4853   -0.8069 H   0  0  0  0  0  0  0  0  0  0  0  0
    2.3075   -5.1331   -0.3571 H   0  0  0  0  0  0  0  0  0  0  0  0
    1.7540   -6.2954    0.8957 H   0  0  0  0  0  0  0  0  0  0  0  0
 29 30  2  0  0  0  0
 27 29  1  0  0  0  0
 28 30  1  0  0  0  0
 24 27  2  0  0  0  0
 26 28  2  0  0  0  0
 22 23  2  0  0  0  0
 23 25  1  0  0  0  0
 22 24  1  0  0  0  0
 24 26  1  0  0  0  0
 21 22  1  0  0  0  0
 25 26  1  0  0  0  0
  1  3  1  0  0  0  0
  1  7  1  0  0  0  0
  1  2  2  0  0  0  0
 42 43  1  0  0  0  0
 43 51  1  0  0  0  0
 43 44  2  0  0  0  0
  8  9  1  0  0  0  0
  9 17  1  0  0  0  0
  9 10  2  0  0  0  0
 18 19  1  0  0  0  0
 19 41  1  0  0  0  0
 19 20  2  0  0  0  0
 42 45  1  0  0  0  0
  8 11  1  0  0  0  0
 51 52  1  0  0  0  0
 18 21  1  0  0  0  0
 41 42  1  0  0  0  0
  7  8  1  0  0  0  0
 17 18  1  0  0  0  0
 29 39  1  0  0  0  0
 30 40  1  0  0  0  0
 27 37  1  0  0  0  0
 28 38  1  0  0  0  0
 23 35  1  0  0  0  0
  3  4  1  0  0  0  0
  3  5  1  0  0  0  0
  3  6  1  0  0  0  0
 45 48  1  0  0  0  0
 45 49  1  0  0  0  0
 45 50  1  0  0  0  0
 11 14  1  0  0  0  0
 11 15  1  0  0  0  0
 11 16  1  0  0  0  0
 52 54  1  0  0  0  0
 52 55  1  0  0  0  0
 52 56  1  0  0  0  0
 21 33  1  0  0  0  0
 21 34  1  0  0  0  0
 42 47  1  0  0  0  0
  8 13  1  0  0  0  0
 18 32  1  0  0  0  0
 25 36  1  0  0  0  0
 51 53  1  0  0  0  0
  7 12  1  0  0  0  0
 41 46  1  0  0  0  0
 17 31  1  0  0  0  0
M  END
$$$$

  -OEChem-05262214473D

 56 57  0     1  0  0  0  0  0999 V2000
   -2.2900    0.3401    4.1553 C   0  0  0  0  0  0  0  0  0  0  0  0
   -1.3426   -0.2746    3.6796 O   0  0  0  0  0  0  0  0  0  0  0  0
   -2.7219    0.0577    5.5560 C   0  0  0  0  0  0  0  0  0  0  0  0
   -3.4815   -0.7386    5.6094 H   0  0  0  0  0  0  0  0  0  0  0  0
   -1.8906   -0.2899    6.1903 H   0  0  0  0  0  0  0  0  0  0  0  0
   -3.1599    0.9126    6.0956 H   0  0  0  0  0  0  0  0  0  0  0  0
   -3.0397    1.3125    3.5142 N   0  0  0  0  0  0  0  0  0  0  0  0
   -2.7928    1.7385    2.1618 C   0  0  2  0  0  0  0  0  0  0  0  0
   -1.4579    1.1532    1.7206 C   0  0  0  0  0  0  0  0  0  0  0  0
   -0.5858    0.8004    2.5118 O   0  0  0  0  0  0  0  0  0  0  0  0
   -2.7841    3.2553    2.0523 C   0  0  0  0  0  0  0  0  0  0  0  0
   -3.8047    1.7484    4.0260 H   0  0  0  0  0  0  0  0  0  0  0  0
   -3.5969    1.3201    1.5466 H   0  0  0  0  0  0  0  0  0  0  0  0
   -1.9850    3.6926    2.6620 H   0  0  0  0  0  0  0  0  0  0  0  0
   -2.6246    3.5776    1.0180 H   0  0  0  0  0  0  0  0  0  0  0  0
   -3.7342    3.6765    2.3981 H   0  0  0  0  0  0  0  0  0  0  0  0
   -1.3352    1.1101    0.3372 N   0  0  0  0  0  0  0  0  0  0  0  0
   -0.1579    0.6093   -0.3265 C   0  0  2  0  0  0  0  0  0  0  0  0
    0.0195   -0.8423    0.1042 C   0  0  0  0  0  0  0  0  0  0  0  0
    0.8488   -1.1958    0.9399 O   0  0  0  0  0  0  0  0  0  0  0  0
    1.0932    1.4247    0.0201 C   0  0  0  0  0  0  0  0  0  0  0  0
    1.0405    2.8326   -0.5208 C   0  0  0  0  0  0  0  0  0  0  0  0
    0.6522    3.9495    0.1825 C   0  0  0  0  0  0  0  0  0  0  0  0
    1.3813    3.2476   -1.8387 C   0  0  0  0  0  0  0  0  0  0  0  0
    0.7429    5.0281   -0.6559 N   0  0  0  0  0  0  0  0  0  0  0  0
    1.1857    4.6291   -1.8968 C   0  0  0  0  0  0  0  0  0  0  0  0
    1.8388    2.5782   -2.9911 C   0  0  0  0  0  0  0  0  0  0  0  0
    1.4257    5.3778   -3.0545 C   0  0  0  0  0  0  0  0  0  0  0  0
    2.0831    3.3142   -4.1563 C   0  0  0  0  0  0  0  0  0  0  0  0
    1.8791    4.6924   -4.1852 C   0  0  0  0  0  0  0  0  0  0  0  0
   -2.1183    1.4068   -0.2401 H   0  0  0  0  0  0  0  0  0  0  0  0
   -0.3681    0.6414   -1.4020 H   0  0  0  0  0  0  0  0  0  0  0  0
    1.9931    0.9184   -0.3546 H   0  0  0  0  0  0  0  0  0  0  0  0
    1.2259    1.4794    1.1087 H   0  0  0  0  0  0  0  0  0  0  0  0
    0.3181    4.0743    1.2033 H   0  0  0  0  0  0  0  0  0  0  0  0
    0.5176    5.9799   -0.4014 H   0  0  0  0  0  0  0  0  0  0  0  0
    2.0018    1.5043   -2.9850 H   0  0  0  0  0  0  0  0  0  0  0  0
    1.2682    6.4508   -3.0776 H   0  0  0  0  0  0  0  0  0  0  0  0
    2.4355    2.8035   -5.0484 H   0  0  0  0  0  0  0  0  0  0  0  0
    2.0752    5.2443   -5.1008 H   0  0  0  0  0  0  0  0  0  0  0  0
   -0.8912   -1.6842   -0.5189 N   0  0  0  0  0  0  0  0  0  0  0  0
   -0.9550   -3.1067   -0.2715 C   0  0  2  0  0  0  0  0  0  0  0  0
    0.4527   -3.6715   -0.4091 C   0  0  0  0  0  0  0  0  0  0  0  0
    1.3395   -3.1135   -1.0520 O   0  0  0  0  0  0  0  0  0  0  0  0
   -1.9125   -3.7932   -1.2331 C   0  0  0  0  0  0  0  0  0  0  0  0
   -1.5459   -1.2802   -1.1822 H   0  0  0  0  0  0  0  0  0  0  0  0
   -1.3006   -3.2331    0.7603 H   0  0  0  0  0  0  0  0  0  0  0  0
   -1.5827   -3.6773   -2.2719 H   0  0  0  0  0  0  0  0  0  0  0  0
   -1.9814   -4.8662   -1.0259 H   0  0  0  0  0  0  0  0  0  0  0  0
   -2.9178   -3.3653   -1.1539 H   0  0  0  0  0  0  0  0  0  0  0  0
    0.5899   -4.8934    0.2345 N   0  0  0  0  0  0  0  0  0  0  0  0
    1.8276   -5.6378    0.2385 C   0  0  0  0  0  0  0  0  0  0  0  0
   -0.1928   -5.2724    0.7594 H   0  0  0  0  0  0  0  0  0  0  0  0
    1.8313   -6.3487   -0.6008 H   0  0  0  0  0  0  0  0  0  0  0  0
    2.6737   -4.9427    0.1339 H   0  0  0  0  0  0  0  0  0  0  0  0
    1.9209   -6.1888    1.1860 H   0  0  0  0  0  0  0  0  0  0  0  0
 29 30  2  0  0  0  0
 27 29  1  0  0  0  0
 28 30  1  0  0  0  0
 24 27  2  0  0  0  0
 26 28  2  0  0  0  0
 22 23  2  0  0  0  0
 23 25  1  0  0  0  0
 22 24  1  0  0  0  0
 24 26  1  0  0  0  0
 21 22  1  0  0  0  0
 25 26  1  0  0  0  0
  1  3  1  0  0  0  0
  1  7  1  0  0  0  0
  1  2  2  0  0  0  0
 42 43  1  0  0  0  0
 43 51  1  0  0  0  0
 43 44  2  0  0  0  0
  8  9  1  0  0  0  0
  9 17  1  0  0  0  0
  9 10  2  0  0  0  0
 18 19  1  0  0  0  0
 19 41  1  0  0  0  0
 19 20  2  0  0  0  0
 42 45  1  0  0  0  0
  8 11  1  0  0  0  0
 51 52  1  0  0  0  0
 18 21  1  0  0  0  0
 41 42  1  0  0  0  0
  7  8  1  0  0  0  0
 17 18  1  0  0  0  0
 29 39  1  0  0  0  0
 30 40  1  0  0  0  0
 27 37  1  0  0  0  0
 28 38  1  0  0  0  0
 23 35  1  0  0  0  0
  3  4  1  0  0  0  0
  3  5  1  0  0  0  0
  3  6  1  0  0  0  0
 45 48  1  0  0  0  0
 45 49  1  0  0  0  0
 45 50  1  0  0  0  0
 11 14  1  0  0  0  0
 11 15  1  0  0  0  0
 11 16  1  0  0  0  0
 52 54  1  0  0  0  0
 52 55  1  0  0  0  0
 52 56  1  0  0  0  0
 21 33  1  0  0  0  0
 21 34  1  0  0  0  0
 42 47  1  0  0  0  0
  8 13  1  0  0  0  0
 18 32  1  0  0  0  0
 25 36  1  0  0  0  0
 51 53  1  0  0  0  0
  7 12  1  0  0  0  0
 41 46  1  0  0  0  0
 17 31  1  0  0  0  0
M  END
$$$$

  -OEChem-05262214473D

 56 57  0     1  0  0  0  0  0999 V2000
   -2.2900    0.3401    4.1553 C   0  0  0  0  0  0  0  0  0  0  0  0
   -1.3426   -0.2746    3.6796 O   0  0  0  0  0  0  0  0  0  0  0  0
   -2.7219    0.0577    5.5560 C   0  0  0  0  0  0  0  0  0  0  0  0
   -3.4815   -0.7386    5.6094 H   0  0  0  0  0  0  0  0  0  0  0  0
   -1.8906   -0.2899    6.1903 H   0  0  0  0  0  0  0  0  0  0  0  0
   -3.1599    0.9126    6.0956 H   0  0  0  0  0  0  0  0  0  0  0  0
   -3.0397    1.3125    3.5142 N   0  0  0  0  0  0  0  0  0  0  0  0
   -2.7928    1.7385    2.1618 C   0  0  2  0  0  0  0  0  0  0  0  0
   -1.4579    1.1532    1.7206 C   0  0  0  0  0  0  0  0  0  0  0  0
   -0.5858    0.8004    2.5118 O   0  0  0  0  0  0  0  0  0  0  0  0
   -2.7841    3.2553    2.0523 C   0  0  0  0  0  0  0  0  0  0  0  0
   -3.8047    1.7484    4.0260 H   0  0  0  0  0  0  0  0  0  0  0  0
   -3.5969    1.3201    1.5466 H   0  0  0  0  0  0  0  0  0  0  0  0
   -1.9850    3.6926    2.6620 H   0  0  0  0  0  0  0  0  0  0  0  0
   -2.6246    3.5776    1.0180 H   0  0  0  0  0  0  0  0  0  0  0  0
   -3.7342    3.6765    2.3981 H   0  0  0  0  0  0  0  0  0  0  0  0
   -1.3352    1.1101    0.3372 N   0  0  0  0  0  0  0  0  0  0  0  0
   -0.1579    0.6093   -0.3265 C   0  0  2  0  0  0  0  0  0  0  0  0
    0.0195   -0.8423    0.1042 C   0  0  0  0  0  0  0  0  0  0  0  0
    0.6431   -1.1700    1.1115 O   0  0  0  0  0  0  0  0  0  0  0  0
    1.0932    1.4247    0.0201 C   0  0  0  0  0  0  0  0  0  0  0  0
    1.0405    2.8326   -0.5208 C   0  0  0  0  0  0  0  0  0  0  0  0
    0.6522    3.9495    0.1825 C   0  0  0  0  0  0  0  0  0  0  0  0
    1.3813    3.2476   -1.8387 C   0  0  0  0  0  0  0  0  0  0  0  0
    0.7429    5.0281   -0.6559 N   0  0  0  0  0  0  0  0  0  0  0  0
    1.1857    4.6291   -1.8968 C   0  0  0  0  0  0  0  0  0  0  0  0
    1.8388    2.5782   -2.9911 C   0  0  0  0  0  0  0  0  0  0  0  0
    1.4257    5.3778   -3.0545 C   0  0  0  0  0  0  0  0  0  0  0  0
    2.0831    3.3142   -4.1563 C   0  0  0  0  0  0  0  0  0  0  0  0
    1.8791    4.6924   -4.1852 C   0  0  0  0  0  0  0  0  0  0  0  0
   -2.1183    1.4068   -0.2401 H   0  0  0  0  0  0  0  0  0  0  0  0
   -0.3681    0.6414   -1.4020 H   0  0  0  0  0  0  0  0  0  0  0  0
    1.9931    0.9184   -0.3546 H   0  0  0  0  0  0  0  0  0  0  0  0
    1.2259    1.4794    1.1087 H   0  0  0  0  0  0  0  0  0  0  0  0
    0.3181    4.0743    1.2033 H   0  0  0  0  0  0  0  0  0  0  0  0
    0.5176    5.9799   -0.4014 H   0  0  0  0  0  0  0  0  0  0  0  0
    2.0018    1.5043   -2.9850 H   0  0  0  0  0  0  0  0  0  0  0  0
    1.2682    6.4508   -3.0776 H   0  0  0  0  0  0  0  0  0  0  0  0
    2.4355    2.8035   -5.0484 H   0  0  0  0  0  0  0  0  0  0  0  0
    2.0752    5.2443   -5.1008 H   0  0  0  0  0  0  0  0  0  0  0  0
   -0.6430   -1.7202   -0.7425 N   0  0  0  0  0  0  0  0  0  0  0  0
   -0.6559   -3.1523   -0.5484 C   0  0  2  0  0  0  0  0  0  0  0  0
    0.7816   -3.6123   -0.3451 C   0  0  0  0  0  0  0  0  0  0  0  0
    1.7534   -2.9694   -0.7366 O   0  0  0  0  0  0  0  0  0  0  0  0
   -1.2926   -3.8652   -1.7313 C   0  0  0  0  0  0  0  0  0  0  0  0
   -1.1440   -1.3368   -1.5386 H   0  0  0  0  0  0  0  0  0  0  0  0
   -1.2333   -3.3428    0.3628 H   0  0  0  0  0  0  0  0  0  0  0  0
   -0.7279   -3.6861   -2.6535 H   0  0  0  0  0  0  0  0  0  0  0  0
   -1.3275   -4.9478   -1.5701 H   0  0  0  0  0  0  0  0  0  0  0  0
   -2.3164   -3.5116   -1.8944 H   0  0  0  0  0  0  0  0  0  0  0  0
    0.8503   -4.8461    0.2868 N   0  0  0  0  0  0  0  0  0  0  0  0
    2.1026   -5.5024    0.5815 C   0  0  0  0  0  0  0  0  0  0  0  0
   -0.0057   -5.2988    0.5935 H   0  0  0  0  0  0  0  0  0  0  0  0
    2.3668   -6.1779   -0.2456 H   0  0  0  0  0  0  0  0  0  0  0  0
    2.8925   -4.7468    0.7041 H   0  0  0  0  0  0  0  0  0  0  0  0
    2.0027   -6.0825    1.5108 H   0  0  0  0  0  0  0  0  0  0  0  0
 29 30  2  0  0  0  0
 27 29  1  0  0  0  0
 28 30  1  0  0  0  0
 24 27  2  0  0  0  0
 26 28  2  0  0  0  0
 22 23  2  0  0  0  0
 23 25  1  0  0  0  0
 22 24  1  0  0  0  0
 24 26  1  0  0  0  0
 21 22  1  0  0  0  0
 25 26  1  0  0  0  0
  1  3  1  0  0  0  0
  1  7  1  0  0  0  0
  1  2  2  0  0  0  0
 42 43  1  0  0  0  0
 43 51  1  0  0  0  0
 43 44  2  0  0  0  0
  8  9  1  0  0  0  0
  9 17  1  0  0  0  0
  9 10  2  0  0  0  0
 18 19  1  0  0  0  0
 19 41  1  0  0  0  0
 19 20  2  0  0  0  0
 42 45  1  0  0  0  0
  8 11  1  0  0  0  0
 51 52  1  0  0  0  0
 18 21  1  0  0  0  0
 41 42  1  0  0  0  0
  7  8  1  0  0  0  0
 17 18  1  0  0  0  0
 29 39  1  0  0  0  0
 30 40  1  0  0  0  0
 27 37  1  0  0  0  0
 28 38  1  0  0  0  0
 23 35  1  0  0  0  0
  3  4  1  0  0  0  0
  3  5  1  0  0  0  0
  3  6  1  0  0  0  0
 45 48  1  0  0  0  0
 45 49  1  0  0  0  0
 45 50  1  0  0  0  0
 11 14  1  0  0  0  0
 11 15  1  0  0  0  0
 11 16  1  0  0  0  0
 52 54  1  0  0  0  0
 52 55  1  0  0  0  0
 52 56  1  0  0  0  0
 21 33  1  0  0  0  0
 21 34  1  0  0  0  0
 42 47  1  0  0  0  0
  8 13  1  0  0  0  0
 18 32  1  0  0  0  0
 25 36  1  0  0  0  0
 51 53  1  0  0  0  0
  7 12  1  0  0  0  0
 41 46  1  0  0  0  0
 17 31  1  0  0  0  0
M  END
$$$$

  -OEChem-05262214473D

 56 57  0     1  0  0  0  0  0999 V2000
   -2.2900    0.3401    4.1553 C   0  0  0  0  0  0  0  0  0  0  0  0
   -1.3426   -0.2746    3.6796 O   0  0  0  0  0  0  0  0  0  0  0  0
   -2.7219    0.0577    5.5560 C   0  0  0  0  0  0  0  0  0  0  0  0
   -3.4815   -0.7386    5.6094 H   0  0  0  0  0  0  0  0  0  0  0  0
   -1.8906   -0.2899    6.1903 H   0  0  0  0  0  0  0  0  0  0  0  0
   -3.1599    0.9126    6.0956 H   0  0  0  0  0  0  0  0  0  0  0  0
   -3.0397    1.3125    3.5142 N   0  0  0  0  0  0  0  0  0  0  0  0
   -2.7928    1.7385    2.1618 C   0  0  2  0  0  0  0  0  0  0  0  0
   -1.4579    1.1532    1.7206 C   0  0  0  0  0  0  0  0  0  0  0  0
   -0.5858    0.8004    2.5118 O   0  0  0  0  0  0  0  0  0  0  0  0
   -2.7841    3.2553    2.0523 C   0  0  0  0  0  0  0  0  0  0  0  0
   -3.8047    1.7484    4.0260 H   0  0  0  0  0  0  0  0  0  0  0  0
   -3.5969    1.3201    1.5466 H   0  0  0  0  0  0  0  0  0  0  0  0
   -1.9850    3.6926    2.6620 H   0  0  0  0  0  0  0  0  0  0  0  0
   -2.6246    3.5776    1.0180 H   0  0  0  0  0  0  0  0  0  0  0  0
   -3.7342    3.6765    2.3981 H   0  0  0  0  0  0  0  0  0  0  0  0
   -1.3352    1.1101    0.3372 N   0  0  0  0  0  0  0  0  0  0  0  0
   -0.1579    0.6093   -0.3265 C   0  0  2  0  0  0  0  0  0  0  0  0
    0.0195   -0.8423    0.1042 C   0  0  0  0  0  0  0  0  0  0  0  0
    0.4002   -1.1653    1.2275 O   0  0  0  0  0  0  0  0  0  0  0  0
    1.0932    1.4247    0.0201 C   0  0  0  0  0  0  0  0  0  0  0  0
    1.0405    2.8326   -0.5208 C   0  0  0  0  0  0  0  0  0  0  0  0
    0.6522    3.9495    0.1825 C   0  0  0  0  0  0  0  0  0  0  0  0
    1.3813    3.2476   -1.8387 C   0  0  0  0  0  0  0  0  0  0  0  0
    0.7429    5.0281   -0.6559 N   0  0  0  0  0  0  0  0  0  0  0  0
    1.1857    4.6291   -1.8968 C   0  0  0  0  0  0  0  0  0  0  0  0
    1.8388    2.5782   -2.9911 C   0  0  0  0  0  0  0  0  0  0  0  0
    1.4257    5.3778   -3.0545 C   0  0  0  0  0  0  0  0  0  0  0  0
    2.0831    3.3142   -4.1563 C   0  0  0  0  0  0  0  0  0  0  0  0
    1.8791    4.6924   -4.1852 C   0  0  0  0  0  0  0  0  0  0  0  0
   -2.1183    1.4068   -0.2401 H   0  0  0  0  0  0  0  0  0  0  0  0
   -0.3681    0.6414   -1.4020 H   0  0  0  0  0  0  0  0  0  0  0  0
    1.9931    0.9184   -0.3546 H   0  0  0  0  0  0  0  0  0  0  0  0
    1.2259    1.4794    1.1087 H   0  0  0  0  0  0  0  0  0  0  0  0
    0.3181    4.0743    1.2033 H   0  0  0  0  0  0  0  0  0  0  0  0
    0.5176    5.9799   -0.4014 H   0  0  0  0  0  0  0  0  0  0  0  0
    2.0018    1.5043   -2.9850 H   0  0  0  0  0  0  0  0  0  0  0  0
    1.2682    6.4508   -3.0776 H   0  0  0  0  0  0  0  0  0  0  0  0
    2.4355    2.8035   -5.0484 H   0  0  0  0  0  0  0  0  0  0  0  0
    2.0752    5.2443   -5.1008 H   0  0  0  0  0  0  0  0  0  0  0  0
   -0.3455   -1.7301   -0.8984 N   0  0  0  0  0  0  0  0  0  0  0  0
   -0.2955   -3.1662   -0.7436 C   0  0  2  0  0  0  0  0  0  0  0  0
    1.0792   -3.5330   -0.2004 C   0  0  0  0  0  0  0  0  0  0  0  0
    2.0649   -2.8093   -0.3256 O   0  0  0  0  0  0  0  0  0  0  0  0
   -0.5658   -3.8745   -2.0619 C   0  0  0  0  0  0  0  0  0  0  0  0
   -0.6639   -1.3514   -1.7855 H   0  0  0  0  0  0  0  0  0  0  0  0
   -1.0624   -3.4319   -0.0079 H   0  0  0  0  0  0  0  0  0  0  0  0
    0.1924   -3.6205   -2.8116 H   0  0  0  0  0  0  0  0  0  0  0  0
   -0.5558   -4.9623   -1.9371 H   0  0  0  0  0  0  0  0  0  0  0  0
   -1.5423   -3.5865   -2.4660 H   0  0  0  0  0  0  0  0  0  0  0  0
    1.0855   -4.7829    0.4028 N   0  0  0  0  0  0  0  0  0  0  0  0
    2.2739   -5.3619    0.9846 C   0  0  0  0  0  0  0  0  0  0  0  0
    0.2178   -5.3056    0.4785 H   0  0  0  0  0  0  0  0  0  0  0  0
    2.7839   -5.9844    0.2347 H   0  0  0  0  0  0  0  0  0  0  0  0
    2.9490   -4.5587    1.3147 H   0  0  0  0  0  0  0  0  0  0  0  0
    1.9939   -5.9836    1.8478 H   0  0  0  0  0  0  0  0  0  0  0  0
 29 30  2  0  0  0  0
 27 29  1  0  0  0  0
 28 30  1  0  0  0  0
 24 27  2  0  0  0  0
 26 28  2  0  0  0  0
 22 23  2  0  0  0  0
 23 25  1  0  0  0  0
 22 24  1  0  0  0  0
 24 26  1  0  0  0  0
 21 22  1  0  0  0  0
 25 26  1  0  0  0  0
  1  3  1  0  0  0  0
  1  7  1  0  0  0  0
  1  2  2  0  0  0  0
 42 43  1  0  0  0  0
 43 51  1  0  0  0  0
 43 44  2  0  0  0  0
  8  9  1  0  0  0  0
  9 17  1  0  0  0  0
  9 10  2  0  0  0  0
 18 19  1  0  0  0  0
 19 41  1  0  0  0  0
 19 20  2  0  0  0  0
 42 45  1  0  0  0  0
  8 11  1  0  0  0  0
 51 52  1  0  0  0  0
 18 21  1  0  0  0  0
 41 42  1  0  0  0  0
  7  8  1  0  0  0  0
 17 18  1  0  0  0  0
 29 39  1  0  0  0  0
 30 40  1  0  0  0  0
 27 37  1  0  0  0  0
 28 38  1  0  0  0  0
 23 35  1  0  0  0  0
  3  4  1  0  0  0  0
  3  5  1  0  0  0  0
  3  6  1  0  0  0  0
 45 48  1  0  0  0  0
 45 49  1  0  0  0  0
 45 50  1  0  0  0  0
 11 14  1  0  0  0  0
 11 15  1  0  0  0  0
 11 16  1  0  0  0  0
 52 54  1  0  0  0  0
 52 55  1  0  0  0  0
 52 56  1  0  0  0  0
 21 33  1  0  0  0  0
 21 34  1  0  0  0  0
 42 47  1  0  0  0  0
  8 13  1  0  0  0  0
 18 32  1  0  0  0  0
 25 36  1  0  0  0  0
 51 53  1  0  0  0  0
  7 12  1  0  0  0  0
 41 46  1  0  0  0  0
 17 31  1  0  0  0  0
M  END
$$$$

  -OEChem-05262214473D

 56 57  0     1  0  0  0  0  0999 V2000
   -2.2900    0.3401    4.1553 C   0  0  0  0  0  0  0  0  0  0  0  0
   -1.3426   -0.2746    3.6796 O   0  0  0  0  0  0  0  0  0  0  0  0
   -2.7219    0.0577    5.5560 C   0  0  0  0  0  0  0  0  0  0  0  0
   -3.4815   -0.7386    5.6094 H   0  0  0  0  0  0  0  0  0  0  0  0
   -1.8906   -0.2899    6.1903 H   0  0  0  0  0  0  0  0  0  0  0  0
   -3.1599    0.9126    6.0956 H   0  0  0  0  0  0  0  0  0  0  0  0
   -3.0397    1.3125    3.5142 N   0  0  0  0  0  0  0  0  0  0  0  0
   -2.7928    1.7385    2.1618 C   0  0  2  0  0  0  0  0  0  0  0  0
   -1.4579    1.1532    1.7206 C   0  0  0  0  0  0  0  0  0  0  0  0
   -0.5858    0.8004    2.5118 O   0  0  0  0  0  0  0  0  0  0  0  0
   -2.7841    3.2553    2.0523 C   0  0  0  0  0  0  0  0  0  0  0  0
   -3.8047    1.7484    4.0260 H   0  0  0  0  0  0  0  0  0  0  0  0
   -3.5969    1.3201    1.5466 H   0  0  0  0  0  0  0  0  0  0  0  0
   -1.9850    3.6926    2.6620 H   0  0  0  0  0  0  0  0  0  0  0  0
   -2.6246    3.5776    1.0180 H   0  0  0  0  0  0  0  0  0  0  0  0
   -3.7342    3.6765    2.3981 H   0  0  0  0  0  0  0  0  0  0  0  0
   -1.3352    1.1101    0.3372 N   0  0  0  0  0  0  0  0  0  0  0  0
   -0.1579    0.6093   -0.3265 C   0  0  2  0  0  0  0  0  0  0  0  0
    0.0195   -0.8423    0.1042 C   0  0  0  0  0  0  0  0  0  0  0  0
    0.1366   -1.1820    1.2797 O   0  0  0  0  0  0  0  0  0  0  0  0
    1.0932    1.4247    0.0201 C   0  0  0  0  0  0  0  0  0  0  0  0
    1.0405    2.8326   -0.5208 C   0  0  0  0  0  0  0  0  0  0  0  0
    0.6522    3.9495    0.1825 C   0  0  0  0  0  0  0  0  0  0  0  0
    1.3813    3.2476   -1.8387 C   0  0  0  0  0  0  0  0  0  0  0  0
    0.7429    5.0281   -0.6559 N   0  0  0  0  0  0  0  0  0  0  0  0
    1.1857    4.6291   -1.8968 C   0  0  0  0  0  0  0  0  0  0  0  0
    1.8388    2.5782   -2.9911 C   0  0  0  0  0  0  0  0  0  0  0  0
    1.4257    5.3778   -3.0545 C   0  0  0  0  0  0  0  0  0  0  0  0
    2.0831    3.3142   -4.1563 C   0  0  0  0  0  0  0  0  0  0  0  0
    1.8791    4.6924   -4.1852 C   0  0  0  0  0  0  0  0  0  0  0  0
   -2.1183    1.4068   -0.2401 H   0  0  0  0  0  0  0  0  0  0  0  0
   -0.3681    0.6414   -1.4020 H   0  0  0  0  0  0  0  0  0  0  0  0
    1.9931    0.9184   -0.3546 H   0  0  0  0  0  0  0  0  0  0  0  0
    1.2259    1.4794    1.1087 H   0  0  0  0  0  0  0  0  0  0  0  0
    0.3181    4.0743    1.2033 H   0  0  0  0  0  0  0  0  0  0  0  0
    0.5176    5.9799   -0.4014 H   0  0  0  0  0  0  0  0  0  0  0  0
    2.0018    1.5043   -2.9850 H   0  0  0  0  0  0  0  0  0  0  0  0
    1.2682    6.4508   -3.0776 H   0  0  0  0  0  0  0  0  0  0  0  0
    2.4355    2.8035   -5.0484 H   0  0  0  0  0  0  0  0  0  0  0  0
    2.0752    5.2443   -5.1008 H   0  0  0  0  0  0  0  0  0  0  0  0
   -0.0191   -1.7132   -0.9759 N   0  0  0  0  0  0  0  0  0  0  0  0
    0.1017   -3.1473   -0.8437 C   0  0  2  0  0  0  0  0  0  0  0  0
    1.3252   -3.4390    0.0151 C   0  0  0  0  0  0  0  0  0  0  0  0
    2.2529   -2.6444    0.1531 O   0  0  0  0  0  0  0  0  0  0  0  0
    0.2184   -3.8204   -2.2024 C   0  0  0  0  0  0  0  0  0  0  0  0
   -0.1382   -1.3229   -1.9061 H   0  0  0  0  0  0  0  0  0  0  0  0
   -0.7994   -3.4942   -0.3264 H   0  0  0  0  0  0  0  0  0  0  0  0
    1.1155   -3.4851   -2.7356 H   0  0  0  0  0  0  0  0  0  0  0  0
    0.2811   -4.9089   -2.1019 H   0  0  0  0  0  0  0  0  0  0  0  0
   -0.6483   -3.5851   -2.8295 H   0  0  0  0  0  0  0  0  0  0  0  0
    1.2794   -4.7082    0.5748 N   0  0  0  0  0  0  0  0  0  0  0  0
    2.3296   -5.2258    1.4204 C   0  0  0  0  0  0  0  0  0  0  0  0
    0.4625   -5.2923    0.4223 H   0  0  0  0  0  0  0  0  0  0  0  0
    3.0544   -5.7815    0.8072 H   0  0  0  0  0  0  0  0  0  0  0  0
    2.8393   -4.3913    1.9241 H   0  0  0  0  0  0  0  0  0  0  0  0
    1.8951   -5.8988    2.1742 H   0  0  0  0  0  0  0  0  0  0  0  0
 29 30  2  0  0  0  0
 27 29  1  0  0  0  0
 28 30  1  0  0  0  0
 24 27  2  0  0  0  0
 26 28  2  0  0  0  0
 22 23  2  0  0  0  0
 23 25  1  0  0  0  0
 22 24  1  0  0  0  0
 24 26  1  0  0  0  0
 21 22  1  0  0  0  0
 25 26  1  0  0  0  0
  1  3  1  0  0  0  0
  1  7  1  0  0  0  0
  1  2  2  0  0  0  0
 42 43  1  0  0  0  0
 43 51  1  0  0  0  0
 43 44  2  0  0  0  0
  8  9  1  0  0  0  0
  9 17  1  0  0  0  0
  9 10  2  0  0  0  0
 18 19  1  0  0  0  0
 19 41  1  0  0  0  0
 19 20  2  0  0  0  0
 42 45  1  0  0  0  0
  8 11  1  0  0  0  0
 51 52  1  0  0  0  0
 18 21  1  0  0  0  0
 41 42  1  0  0  0  0
  7  8  1  0  0  0  0
 17 18  1  0  0  0  0
 29 39  1  0  0  0  0
 30 40  1  0  0  0  0
 27 37  1  0  0  0  0
 28 38  1  0  0  0  0
 23 35  1  0  0  0  0
  3  4  1  0  0  0  0
  3  5  1  0  0  0  0
  3  6  1  0  0  0  0
 45 48  1  0  0  0  0
 45 49  1  0  0  0  0
 45 50  1  0  0  0  0
 11 14  1  0  0  0  0
 11 15  1  0  0  0  0
 11 16  1  0  0  0  0
 52 54  1  0  0  0  0
 52 55  1  0  0  0  0
 52 56  1  0  0  0  0
 21 33  1  0  0  0  0
 21 34  1  0  0  0  0
 42 47  1  0  0  0  0
  8 13  1  0  0  0  0
 18 32  1  0  0  0  0
 25 36  1  0  0  0  0
 51 53  1  0  0  0  0
  7 12  1  0  0  0  0
 41 46  1  0  0  0  0
 17 31  1  0  0  0  0
M  END
$$$$

  -OEChem-05262214473D

 56 57  0     1  0  0  0  0  0999 V2000
   -2.2900    0.3401    4.1553 C   0  0  0  0  0  0  0  0  0  0  0  0
   -1.3426   -0.2746    3.6796 O   0  0  0  0  0  0  0  0  0  0  0  0
   -2.7219    0.0577    5.5560 C   0  0  0  0  0  0  0  0  0  0  0  0
   -3.4815   -0.7386    5.6094 H   0  0  0  0  0  0  0  0  0  0  0  0
   -1.8906   -0.2899    6.1903 H   0  0  0  0  0  0  0  0  0  0  0  0
   -3.1599    0.9126    6.0956 H   0  0  0  0  0  0  0  0  0  0  0  0
   -3.0397    1.3125    3.5142 N   0  0  0  0  0  0  0  0  0  0  0  0
   -2.7928    1.7385    2.1618 C   0  0  2  0  0  0  0  0  0  0  0  0
   -1.4579    1.1532    1.7206 C   0  0  0  0  0  0  0  0  0  0  0  0
   -0.5858    0.8004    2.5118 O   0  0  0  0  0  0  0  0  0  0  0  0
   -2.7841    3.2553    2.0523 C   0  0  0  0  0  0  0  0  0  0  0  0
   -3.8047    1.7484    4.0260 H   0  0  0  0  0  0  0  0  0  0  0  0
   -3.5969    1.3201    1.5466 H   0  0  0  0  0  0  0  0  0  0  0  0
   -1.9850    3.6926    2.6620 H   0  0  0  0  0  0  0  0  0  0  0  0
   -2.6246    3.5776    1.0180 H   0  0  0  0  0  0  0  0  0  0  0  0
   -3.7342    3.6765    2.3981 H   0  0  0  0  0  0  0  0  0  0  0  0
   -1.3352    1.1101    0.3372 N   0  0  0  0  0  0  0  0  0  0  0  0
   -0.1579    0.6093   -0.3265 C   0  0  2  0  0  0  0  0  0  0  0  0
    0.0195   -0.8423    0.1042 C   0  0  0  0  0  0  0  0  0  0  0  0
   -0.1296   -1.2190    1.2647 O   0  0  0  0  0  0  0  0  0  0  0  0
    1.0932    1.4247    0.0201 C   0  0  0  0  0  0  0  0  0  0  0  0
    1.0405    2.8326   -0.5208 C   0  0  0  0  0  0  0  0  0  0  0  0
    0.6522    3.9495    0.1825 C   0  0  0  0  0  0  0  0  0  0  0  0
    1.3813    3.2476   -1.8387 C   0  0  0  0  0  0  0  0  0  0  0  0
    0.7429    5.0281   -0.6559 N   0  0  0  0  0  0  0  0  0  0  0  0
    1.1857    4.6291   -1.8968 C   0  0  0  0  0  0  0  0  0  0  0  0
    1.8388    2.5782   -2.9911 C   0  0  0  0  0  0  0  0  0  0  0  0
    1.4257    5.3778   -3.0545 C   0  0  0  0  0  0  0  0  0  0  0  0
    2.0831    3.3142   -4.1563 C   0  0  0  0  0  0  0  0  0  0  0  0
    1.8791    4.6924   -4.1852 C   0  0  0  0  0  0  0  0  0  0  0  0
   -2.1183    1.4068   -0.2401 H   0  0  0  0  0  0  0  0  0  0  0  0
   -0.3681    0.6414   -1.4020 H   0  0  0  0  0  0  0  0  0  0  0  0
    1.9931    0.9184   -0.3546 H   0  0  0  0  0  0  0  0  0  0  0  0
    1.2259    1.4794    1.1087 H   0  0  0  0  0  0  0  0  0  0  0  0
    0.3181    4.0743    1.2033 H   0  0  0  0  0  0  0  0  0  0  0  0
    0.5176    5.9799   -0.4014 H   0  0  0  0  0  0  0  0  0  0  0  0
    2.0018    1.5043   -2.9850 H   0  0  0  0  0  0  0  0  0  0  0  0
    1.2682    6.4508   -3.0776 H   0  0  0  0  0  0  0  0  0  0  0  0
    2.4355    2.8035   -5.0484 H   0  0  0  0  0  0  0  0  0  0  0  0
    2.0752    5.2443   -5.1008 H   0  0  0  0  0  0  0  0  0  0  0  0
    0.3142   -1.6706   -0.9698 N   0  0  0  0  0  0  0  0  0  0  0  0
    0.5088   -3.0970   -0.8419 C   0  0  2  0  0  0  0  0  0  0  0  0
    1.5028   -3.3367    0.2868 C   0  0  0  0  0  0  0  0  0  0  0  0
    2.3044   -2.4857    0.6667 O   0  0  0  0  0  0  0  0  0  0  0  0
    1.0066   -3.7065   -2.1432 C   0  0  0  0  0  0  0  0  0  0  0  0
    0.3972   -1.2533   -1.8922 H   0  0  0  0  0  0  0  0  0  0  0  0
   -0.4623   -3.5257   -0.5712 H   0  0  0  0  0  0  0  0  0  0  0  0
    1.9786   -3.2892   -2.4306 H   0  0  0  0  0  0  0  0  0  0  0  0
    1.1262   -4.7912   -2.0532 H   0  0  0  0  0  0  0  0  0  0  0  0
    0.3048   -3.5075   -2.9604 H   0  0  0  0  0  0  0  0  0  0  0  0
    1.4188   -4.6270    0.7909 N   0  0  0  0  0  0  0  0  0  0  0  0
    2.2662   -5.1034    1.8591 C   0  0  0  0  0  0  0  0  0  0  0  0
    0.7117   -5.2600    0.4288 H   0  0  0  0  0  0  0  0  0  0  0  0
    3.1597   -5.5829    1.4330 H   0  0  0  0  0  0  0  0  0  0  0  0
    2.5710   -4.2560    2.4908 H   0  0  0  0  0  0  0  0  0  0  0  0
    1.7131   -5.8340    2.4677 H   0  0  0  0  0  0  0  0  0  0  0  0
 29 30  2  0  0  0  0
 27 29  1  0  0  0  0
 28 30  1  0  0  0  0
 24 27  2  0  0  0  0
 26 28  2  0  0  0  0
 22 23  2  0  0  0  0
 23 25  1  0  0  0  0
 22 24  1  0  0  0  0
 24 26  1  0  0  0  0
 21 22  1  0  0  0  0
 25 26  1  0  0  0  0
  1  3  1  0  0  0  0
  1  7  1  0  0  0  0
  1  2  2  0  0  0  0
 42 43  1  0  0  0  0
 43 51  1  0  0  0  0
 43 44  2  0  0  0  0
  8  9  1  0  0  0  0
  9 17  1  0  0  0  0
  9 10  2  0  0  0  0
 18 19  1  0  0  0  0
 19 41  1  0  0  0  0
 19 20  2  0  0  0  0
 42 45  1  0  0  0  0
  8 11  1  0  0  0  0
 51 52  1  0  0  0  0
 18 21  1  0  0  0  0
 41 42  1  0  0  0  0
  7  8  1  0  0  0  0
 17 18  1  0  0  0  0
 29 39  1  0  0  0  0
 30 40  1  0  0  0  0
 27 37  1  0  0  0  0
 28 38  1  0  0  0  0
 23 35  1  0  0  0  0
  3  4  1  0  0  0  0
  3  5  1  0  0  0  0
  3  6  1  0  0  0  0
 45 48  1  0  0  0  0
 45 49  1  0  0  0  0
 45 50  1  0  0  0  0
 11 14  1  0  0  0  0
 11 15  1  0  0  0  0
 11 16  1  0  0  0  0
 52 54  1  0  0  0  0
 52 55  1  0  0  0  0
 52 56  1  0  0  0  0
 21 33  1  0  0  0  0
 21 34  1  0  0  0  0
 42 47  1  0  0  0  0
  8 13  1  0  0  0  0
 18 32  1  0  0  0  0
 25 36  1  0  0  0  0
 51 53  1  0  0  0  0
  7 12  1  0  0  0  0
 41 46  1  0  0  0  0
 17 31  1  0  0  0  0
M  END
$$$$

  -OEChem-05262214473D

 56 57  0     1  0  0  0  0  0999 V2000
   -2.2900    0.3401    4.1553 C   0  0  0  0  0  0  0  0  0  0  0  0
   -1.3426   -0.2746    3.6796 O   0  0  0  0  0  0  0  0  0  0  0  0
   -2.7219    0.0577    5.5560 C   0  0  0  0  0  0  0  0  0  0  0  0
   -3.4815   -0.7386    5.6094 H   0  0  0  0  0  0  0  0  0  0  0  0
   -1.8906   -0.2899    6.1903 H   0  0  0  0  0  0  0  0  0  0  0  0
   -3.1599    0.9126    6.0956 H   0  0  0  0  0  0  0  0  0  0  0  0
   -3.0397    1.3125    3.5142 N   0  0  0  0  0  0  0  0  0  0  0  0
   -2.7928    1.7385    2.1618 C   0  0  2  0  0  0  0  0  0  0  0  0
   -1.4579    1.1532    1.7206 C   0  0  0  0  0  0  0  0  0  0  0  0
   -0.5858    0.8004    2.5118 O   0  0  0  0  0  0  0  0  0  0  0  0
   -2.7841    3.2553    2.0523 C   0  0  0  0  0  0  0  0  0  0  0  0
   -3.8047    1.7484    4.0260 H   0  0  0  0  0  0  0  0  0  0  0  0
   -3.5969    1.3201    1.5466 H   0  0  0  0  0  0  0  0  0  0  0  0
   -1.9850    3.6926    2.6620 H   0  0  0  0  0  0  0  0  0  0  0  0
   -2.6246    3.5776    1.0180 H   0  0  0  0  0  0  0  0  0  0  0  0
   -3.7342    3.6765    2.3981 H   0  0  0  0  0  0  0  0  0  0  0  0
   -1.3352    1.1101    0.3372 N   0  0  0  0  0  0  0  0  0  0  0  0
   -0.1579    0.6093   -0.3265 C   0  0  2  0  0  0  0  0  0  0  0  0
    0.0195   -0.8423    0.1042 C   0  0  0  0  0  0  0  0  0  0  0  0
   -0.3803   -1.2737    1.1835 O   0  0  0  0  0  0  0  0  0  0  0  0
    1.0932    1.4247    0.0201 C   0  0  0  0  0  0  0  0  0  0  0  0
    1.0405    2.8326   -0.5208 C   0  0  0  0  0  0  0  0  0  0  0  0
    0.6522    3.9495    0.1825 C   0  0  0  0  0  0  0  0  0  0  0  0
    1.3813    3.2476   -1.8387 C   0  0  0  0  0  0  0  0  0  0  0  0
    0.7429    5.0281   -0.6559 N   0  0  0  0  0  0  0  0  0  0  0  0
    1.1857    4.6291   -1.8968 C   0  0  0  0  0  0  0  0  0  0  0  0
    1.8388    2.5782   -2.9911 C   0  0  0  0  0  0  0  0  0  0  0  0
    1.4257    5.3778   -3.0545 C   0  0  0  0  0  0  0  0  0  0  0  0
    2.0831    3.3142   -4.1563 C   0  0  0  0  0  0  0  0  0  0  0  0
    1.8791    4.6924   -4.1852 C   0  0  0  0  0  0  0  0  0  0  0  0
   -2.1183    1.4068   -0.2401 H   0  0  0  0  0  0  0  0  0  0  0  0
   -0.3681    0.6414   -1.4020 H   0  0  0  0  0  0  0  0  0  0  0  0
    1.9931    0.9184   -0.3546 H   0  0  0  0  0  0  0  0  0  0  0  0
    1.2259    1.4794    1.1087 H   0  0  0  0  0  0  0  0  0  0  0  0
    0.3181    4.0743    1.2033 H   0  0  0  0  0  0  0  0  0  0  0  0
    0.5176    5.9799   -0.4014 H   0  0  0  0  0  0  0  0  0  0  0  0
    2.0018    1.5043   -2.9850 H   0  0  0  0  0  0  0  0  0  0  0  0
    1.2682    6.4508   -3.0776 H   0  0  0  0  0  0  0  0  0  0  0  0
    2.4355    2.8035   -5.0484 H   0  0  0  0  0  0  0  0  0  0  0  0
    2.0752    5.2443   -5.1008 H   0  0  0  0  0  0  0  0  0  0  0  0
    0.6314   -1.6054   -0.8806 N   0  0  0  0  0  0  0  0  0  0  0  0
    0.8978   -3.0188   -0.7384 C   0  0  2  0  0  0  0  0  0  0  0  0
    1.6000   -3.2331    0.5960 C   0  0  0  0  0  0  0  0  0  0  0  0
    2.2159   -2.3441    1.1802 O   0  0  0  0  0  0  0  0  0  0  0  0
    1.7450   -3.5406   -1.8884 C   0  0  0  0  0  0  0  0  0  0  0  0
    0.9059   -1.1474   -1.7447 H   0  0  0  0  0  0  0  0  0  0  0  0
   -0.0741   -3.5240   -0.7256 H   0  0  0  0  0  0  0  0  0  0  0  0
    2.7227   -3.0460   -1.9174 H   0  0  0  0  0  0  0  0  0  0  0  0
    1.9219   -4.6171   -1.7943 H   0  0  0  0  0  0  0  0  0  0  0  0
    1.2519   -3.3588   -2.8495 H   0  0  0  0  0  0  0  0  0  0  0  0
    1.4944   -4.5450    1.0365 N   0  0  0  0  0  0  0  0  0  0  0  0
    2.0878   -5.0030    2.2710 C   0  0  0  0  0  0  0  0  0  0  0  0
    0.9485   -5.2107    0.4974 H   0  0  0  0  0  0  0  0  0  0  0  0
    3.0927   -5.4023    2.0694 H   0  0  0  0  0  0  0  0  0  0  0  0
    2.1622   -4.1620    2.9761 H   0  0  0  0  0  0  0  0  0  0  0  0
    1.4601   -5.7935    2.7082 H   0  0  0  0  0  0  0  0  0  0  0  0
 29 30  2  0  0  0  0
 27 29  1  0  0  0  0
 28 30  1  0  0  0  0
 24 27  2  0  0  0  0
 26 28  2  0  0  0  0
 22 23  2  0  0  0  0
 23 25  1  0  0  0  0
 22 24  1  0  0  0  0
 24 26  1  0  0  0  0
 21 22  1  0  0  0  0
 25 26  1  0  0  0  0
  1  3  1  0  0  0  0
  1  7  1  0  0  0  0
  1  2  2  0  0  0  0
 42 43  1  0  0  0  0
 43 51  1  0  0  0  0
 43 44  2  0  0  0  0
  8  9  1  0  0  0  0
  9 17  1  0  0  0  0
  9 10  2  0  0  0  0
 18 19  1  0  0  0  0
 19 41  1  0  0  0  0
 19 20  2  0  0  0  0
 42 45  1  0  0  0  0
  8 11  1  0  0  0  0
 51 52  1  0  0  0  0
 18 21  1  0  0  0  0
 41 42  1  0  0  0  0
  7  8  1  0  0  0  0
 17 18  1  0  0  0  0
 29 39  1  0  0  0  0
 30 40  1  0  0  0  0
 27 37  1  0  0  0  0
 28 38  1  0  0  0  0
 23 35  1  0  0  0  0
  3  4  1  0  0  0  0
  3  5  1  0  0  0  0
  3  6  1  0  0  0  0
 45 48  1  0  0  0  0
 45 49  1  0  0  0  0
 45 50  1  0  0  0  0
 11 14  1  0  0  0  0
 11 15  1  0  0  0  0
 11 16  1  0  0  0  0
 52 54  1  0  0  0  0
 52 55  1  0  0  0  0
 52 56  1  0  0  0  0
 21 33  1  0  0  0  0
 21 34  1  0  0  0  0
 42 47  1  0  0  0  0
  8 13  1  0  0  0  0
 18 32  1  0  0  0  0
 25 36  1  0  0  0  0
 51 53  1  0  0  0  0
  7 12  1  0  0  0  0
 41 46  1  0  0  0  0
 17 31  1  0  0  0  0
M  END
$$$$

  -OEChem-05262214473D

 56 57  0     1  0  0  0  0  0999 V2000
   -2.2900    0.3401    4.1553 C   0  0  0  0  0  0  0  0  0  0  0  0
   -1.3426   -0.2746    3.6796 O   0  0  0  0  0  0  0  0  0  0  0  0
   -2.7219    0.0577    5.5560 C   0  0  0  0  0  0  0  0  0  0  0  0
   -3.4815   -0.7386    5.6094 H   0  0  0  0  0  0  0  0  0  0  0  0
   -1.8906   -0.2899    6.1903 H   0  0  0  0  0  0  0  0  0  0  0  0
   -3.1599    0.9126    6.0956 H   0  0  0  0  0  0  0  0  0  0  0  0
   -3.0397    1.3125    3.5142 N   0  0  0  0  0  0  0  0  0  0  0  0
   -2.7928    1.7385    2.1618 C   0  0  2  0  0  0  0  0  0  0  0  0
   -1.4579    1.1532    1.7206 C   0  0  0  0  0  0  0  0  0  0  0  0
   -0.5858    0.8004    2.5118 O   0  0  0  0  0  0  0  0  0  0  0  0
   -2.7841    3.2553    2.0523 C   0  0  0  0  0  0  0  0  0  0  0  0
   -3.8047    1.7484    4.0260 H   0  0  0  0  0  0  0  0  0  0  0  0
   -3.5969    1.3201    1.5466 H   0  0  0  0  0  0  0  0  0  0  0  0
   -1.9850    3.6926    2.6620 H   0  0  0  0  0  0  0  0  0  0  0  0
   -2.6246    3.5776    1.0180 H   0  0  0  0  0  0  0  0  0  0  0  0
   -3.7342    3.6765    2.3981 H   0  0  0  0  0  0  0  0  0  0  0  0
   -1.3352    1.1101    0.3372 N   0  0  0  0  0  0  0  0  0  0  0  0
   -0.1579    0.6093   -0.3265 C   0  0  2  0  0  0  0  0  0  0  0  0
    0.0195   -0.8423    0.1042 C   0  0  0  0  0  0  0  0  0  0  0  0
   -0.5985   -1.3424    1.0417 O   0  0  0  0  0  0  0  0  0  0  0  0
    1.0932    1.4247    0.0201 C   0  0  0  0  0  0  0  0  0  0  0  0
    1.0405    2.8326   -0.5208 C   0  0  0  0  0  0  0  0  0  0  0  0
    0.6522    3.9495    0.1825 C   0  0  0  0  0  0  0  0  0  0  0  0
    1.3813    3.2476   -1.8387 C   0  0  0  0  0  0  0  0  0  0  0  0
    0.7429    5.0281   -0.6559 N   0  0  0  0  0  0  0  0  0  0  0  0
    1.1857    4.6291   -1.8968 C   0  0  0  0  0  0  0  0  0  0  0  0
    1.8388    2.5782   -2.9911 C   0  0  0  0  0  0  0  0  0  0  0  0
    1.4257    5.3778   -3.0545 C   0  0  0  0  0  0  0  0  0  0  0  0
    2.0831    3.3142   -4.1563 C   0  0  0  0  0  0  0  0  0  0  0  0
    1.8791    4.6924   -4.1852 C   0  0  0  0  0  0  0  0  0  0  0  0
   -2.1183    1.4068   -0.2401 H   0  0  0  0  0  0  0  0  0  0  0  0
   -0.3681    0.6414   -1.4020 H   0  0  0  0  0  0  0  0  0  0  0  0
    1.9931    0.9184   -0.3546 H   0  0  0  0  0  0  0  0  0  0  0  0
    1.2259    1.4794    1.1087 H   0  0  0  0  0  0  0  0  0  0  0  0
    0.3181    4.0743    1.2033 H   0  0  0  0  0  0  0  0  0  0  0  0
    0.5176    5.9799   -0.4014 H   0  0  0  0  0  0  0  0  0  0  0  0
    2.0018    1.5043   -2.9850 H   0  0  0  0  0  0  0  0  0  0  0  0
    1.2682    6.4508   -3.0776 H   0  0  0  0  0  0  0  0  0  0  0  0
    2.4355    2.8035   -5.0484 H   0  0  0  0  0  0  0  0  0  0  0  0
    2.0752    5.2443   -5.1008 H   0  0  0  0  0  0  0  0  0  0  0  0
    0.9111   -1.5218   -0.7142 N   0  0  0  0  0  0  0  0  0  0  0  0
    1.2423   -2.9178   -0.5401 C   0  0  2  0  0  0  0  0  0  0  0  0
    1.6100   -3.1352    0.9217 C   0  0  0  0  0  0  0  0  0  0  0  0
    1.9936   -2.2293    1.6588 O   0  0  0  0  0  0  0  0  0  0  0  0
    2.3833   -3.3341   -1.4553 C   0  0  0  0  0  0  0  0  0  0  0  0
    1.3531   -1.0123   -1.4737 H   0  0  0  0  0  0  0  0  0  0  0  0
    0.3388   -3.4894   -0.7789 H   0  0  0  0  0  0  0  0  0  0  0  0
    3.2972   -2.7721   -1.2310 H   0  0  0  0  0  0  0  0  0  0  0  0
    2.6140   -4.3986   -1.3429 H   0  0  0  0  0  0  0  0  0  0  0  0
    2.1286   -3.1493   -2.5045 H   0  0  0  0  0  0  0  0  0  0  0  0
    1.5008   -4.4675    1.2948 N   0  0  0  0  0  0  0  0  0  0  0  0
    1.8066   -4.9315    2.6279 C   0  0  0  0  0  0  0  0  0  0  0  0
    1.1567   -5.1478    0.6235 H   0  0  0  0  0  0  0  0  0  0  0  0
    2.8579   -5.2519    2.6730 H   0  0  0  0  0  0  0  0  0  0  0  0
    1.6409   -4.1156    3.3469 H   0  0  0  0  0  0  0  0  0  0  0  0
    1.1536   -5.7802    2.8795 H   0  0  0  0  0  0  0  0  0  0  0  0
 29 30  2  0  0  0  0
 27 29  1  0  0  0  0
 28 30  1  0  0  0  0
 24 27  2  0  0  0  0
 26 28  2  0  0  0  0
 22 23  2  0  0  0  0
 23 25  1  0  0  0  0
 22 24  1  0  0  0  0
 24 26  1  0  0  0  0
 21 22  1  0  0  0  0
 25 26  1  0  0  0  0
  1  3  1  0  0  0  0
  1  7  1  0  0  0  0
  1  2  2  0  0  0  0
 42 43  1  0  0  0  0
 43 51  1  0  0  0  0
 43 44  2  0  0  0  0
  8  9  1  0  0  0  0
  9 17  1  0  0  0  0
  9 10  2  0  0  0  0
 18 19  1  0  0  0  0
 19 41  1  0  0  0  0
 19 20  2  0  0  0  0
 42 45  1  0  0  0  0
  8 11  1  0  0  0  0
 51 52  1  0  0  0  0
 18 21  1  0  0  0  0
 41 42  1  0  0  0  0
  7  8  1  0  0  0  0
 17 18  1  0  0  0  0
 29 39  1  0  0  0  0
 30 40  1  0  0  0  0
 27 37  1  0  0  0  0
 28 38  1  0  0  0  0
 23 35  1  0  0  0  0
  3  4  1  0  0  0  0
  3  5  1  0  0  0  0
  3  6  1  0  0  0  0
 45 48  1  0  0  0  0
 45 49  1  0  0  0  0
 45 50  1  0  0  0  0
 11 14  1  0  0  0  0
 11 15  1  0  0  0  0
 11 16  1  0  0  0  0
 52 54  1  0  0  0  0
 52 55  1  0  0  0  0
 52 56  1  0  0  0  0
 21 33  1  0  0  0  0
 21 34  1  0  0  0  0
 42 47  1  0  0  0  0
  8 13  1  0  0  0  0
 18 32  1  0  0  0  0
 25 36  1  0  0  0  0
 51 53  1  0  0  0  0
  7 12  1  0  0  0  0
 41 46  1  0  0  0  0
 17 31  1  0  0  0  0
M  END
$$$$

  -OEChem-05262214473D

 56 57  0     1  0  0  0  0  0999 V2000
   -2.2900    0.3401    4.1553 C   0  0  0  0  0  0  0  0  0  0  0  0
   -1.3426   -0.2746    3.6796 O   0  0  0  0  0  0  0  0  0  0  0  0
   -2.7219    0.0577    5.5560 C   0  0  0  0  0  0  0  0  0  0  0  0
   -3.4815   -0.7386    5.6094 H   0  0  0  0  0  0  0  0  0  0  0  0
   -1.8906   -0.2899    6.1903 H   0  0  0  0  0  0  0  0  0  0  0  0
   -3.1599    0.9126    6.0956 H   0  0  0  0  0  0  0  0  0  0  0  0
   -3.0397    1.3125    3.5142 N   0  0  0  0  0  0  0  0  0  0  0  0
   -2.7928    1.7385    2.1618 C   0  0  2  0  0  0  0  0  0  0  0  0
   -1.4579    1.1532    1.7206 C   0  0  0  0  0  0  0  0  0  0  0  0
   -0.5858    0.8004    2.5118 O   0  0  0  0  0  0  0  0  0  0  0  0
   -2.7841    3.2553    2.0523 C   0  0  0  0  0  0  0  0  0  0  0  0
   -3.8047    1.7484    4.0260 H   0  0  0  0  0  0  0  0  0  0  0  0
   -3.5969    1.3201    1.5466 H   0  0  0  0  0  0  0  0  0  0  0  0
   -1.9850    3.6926    2.6620 H   0  0  0  0  0  0  0  0  0  0  0  0
   -2.6246    3.5776    1.0180 H   0  0  0  0  0  0  0  0  0  0  0  0
   -3.7342    3.6765    2.3981 H   0  0  0  0  0  0  0  0  0  0  0  0
   -1.3352    1.1101    0.3372 N   0  0  0  0  0  0  0  0  0  0  0  0
   -0.1579    0.6093   -0.3265 C   0  0  2  0  0  0  0  0  0  0  0  0
   -0.1857   -0.9104   -0.2085 C   0  0  0  0  0  0  0  0  0  0  0  0
   -1.1053   -1.5230    0.3299 O   0  0  0  0  0  0  0  0  0  0  0  0
    1.1327    1.1677    0.2841 C   0  0  0  0  0  0  0  0  0  0  0  0
    1.2904    2.6516    0.0590 C   0  0  0  0  0  0  0  0  0  0  0  0
    0.9565    3.6402    0.9557 C   0  0  0  0  0  0  0  0  0  0  0  0
    1.8081    3.2816   -1.1072 C   0  0  0  0  0  0  0  0  0  0  0  0
    1.2504    4.8475    0.3807 N   0  0  0  0  0  0  0  0  0  0  0  0
    1.7720    4.6590   -0.8793 C   0  0  0  0  0  0  0  0  0  0  0  0
    2.3055    2.8108   -2.3386 C   0  0  0  0  0  0  0  0  0  0  0  0
    2.2102    5.5927   -1.8250 C   0  0  0  0  0  0  0  0  0  0  0  0
    2.7474    3.7332   -3.2940 C   0  0  0  0  0  0  0  0  0  0  0  0
    2.6996    5.1024   -3.0390 C   0  0  0  0  0  0  0  0  0  0  0  0
   -2.1183    1.4068   -0.2401 H   0  0  0  0  0  0  0  0  0  0  0  0
   -0.2517    0.8890   -1.3824 H   0  0  0  0  0  0  0  0  0  0  0  0
    2.0054    0.6378   -0.1209 H   0  0  0  0  0  0  0  0  0  0  0  0
    1.1580    0.9794    1.3656 H   0  0  0  0  0  0  0  0  0  0  0  0
    0.5350    3.5941    1.9504 H   0  0  0  0  0  0  0  0  0  0  0  0
    1.1058    5.7474    0.8175 H   0  0  0  0  0  0  0  0  0  0  0  0
    2.3485    1.7467   -2.5530 H   0  0  0  0  0  0  0  0  0  0  0  0
    2.1744    6.6586   -1.6269 H   0  0  0  0  0  0  0  0  0  0  0  0
    3.1316    3.3761   -4.2457 H   0  0  0  0  0  0  0  0  0  0  0  0
    3.0480    5.8011   -3.7953 H   0  0  0  0  0  0  0  0  0  0  0  0
    0.9127   -1.4992   -0.8195 N   0  0  0  0  0  0  0  0  0  0  0  0
    1.1196   -2.9286   -0.8728 C   0  0  2  0  0  0  0  0  0  0  0  0
    0.9513   -3.4809    0.5365 C   0  0  0  0  0  0  0  0  0  0  0  0
    1.0837   -2.7932    1.5468 O   0  0  0  0  0  0  0  0  0  0  0  0
    2.4935   -3.2684   -1.4293 C   0  0  0  0  0  0  0  0  0  0  0  0
    1.6059   -0.8951   -1.2510 H   0  0  0  0  0  0  0  0  0  0  0  0
    0.3375   -3.3374   -1.5217 H   0  0  0  0  0  0  0  0  0  0  0  0
    3.2901   -2.8669   -0.7923 H   0  0  0  0  0  0  0  0  0  0  0  0
    2.6378   -4.3518   -1.4957 H   0  0  0  0  0  0  0  0  0  0  0  0
    2.6238   -2.8450   -2.4311 H   0  0  0  0  0  0  0  0  0  0  0  0
    0.6784   -4.8417    0.5345 N   0  0  0  0  0  0  0  0  0  0  0  0
    0.4890   -5.6006    1.7487 C   0  0  0  0  0  0  0  0  0  0  0  0
    0.5672   -5.3277   -0.3504 H   0  0  0  0  0  0  0  0  0  0  0  0
    1.4492   -6.0354    2.0635 H   0  0  0  0  0  0  0  0  0  0  0  0
    0.1099   -4.9374    2.5401 H   0  0  0  0  0  0  0  0  0  0  0  0
   -0.2367   -6.4072    1.5674 H   0  0  0  0  0  0  0  0  0  0  0  0
 29 30  2  0  0  0  0
 27 29  1  0  0  0  0
 28 30  1  0  0  0  0
 24 27  2  0  0  0  0
 26 28  2  0  0  0  0
 22 23  2  0  0  0  0
 23 25  1  0  0  0  0
 22 24  1  0  0  0  0
 24 26  1  0  0  0  0
 21 22  1  0  0  0  0
 25 26  1  0  0  0  0
  1  3  1  0  0  0  0
  1  7  1  0  0  0  0
  1  2  2  0  0  0  0
 42 43  1  0  0  0  0
 43 51  1  0  0  0  0
 43 44  2  0  0  0  0
  8  9  1  0  0  0  0
  9 17  1  0  0  0  0
  9 10  2  0  0  0  0
 18 19  1  0  0  0  0
 19 41  1  0  0  0  0
 19 20  2  0  0  0  0
 42 45  1  0  0  0  0
  8 11  1  0  0  0  0
 51 52  1  0  0  0  0
 18 21  1  0  0  0  0
 41 42  1  0  0  0  0
  7  8  1  0  0  0  0
 17 18  1  0  0  0  0
 29 39  1  0  0  0  0
 30 40  1  0  0  0  0
 27 37  1  0  0  0  0
 28 38  1  0  0  0  0
 23 35  1  0  0  0  0
  3  4  1  0  0  0  0
  3  5  1  0  0  0  0
  3  6  1  0  0  0  0
 45 48  1  0  0  0  0
 45 49  1  0  0  0  0
 45 50  1  0  0  0  0
 11 14  1  0  0  0  0
 11 15  1  0  0  0  0
 11 16  1  0  0  0  0
 52 54  1  0  0  0  0
 52 55  1  0  0  0  0
 52 56  1  0  0  0  0
 21 33  1  0  0  0  0
 21 34  1  0  0  0  0
 42 47  1  0  0  0  0
  8 13  1  0  0  0  0
 18 32  1  0  0  0  0
 25 36  1  0  0  0  0
 51 53  1  0  0  0  0
  7 12  1  0  0  0  0
 41 46  1  0  0  0  0
 17 31  1  0  0  0  0
M  END
$$$$

  -OEChem-05262214473D

 56 57  0     1  0  0  0  0  0999 V2000
   -2.2900    0.3401    4.1553 C   0  0  0  0  0  0  0  0  0  0  0  0
   -1.3426   -0.2746    3.6796 O   0  0  0  0  0  0  0  0  0  0  0  0
   -2.7219    0.0577    5.5560 C   0  0  0  0  0  0  0  0  0  0  0  0
   -3.4815   -0.7386    5.6094 H   0  0  0  0  0  0  0  0  0  0  0  0
   -1.8906   -0.2899    6.1903 H   0  0  0  0  0  0  0  0  0  0  0  0
   -3.1599    0.9126    6.0956 H   0  0  0  0  0  0  0  0  0  0  0  0
   -3.0397    1.3125    3.5142 N   0  0  0  0  0  0  0  0  0  0  0  0
   -2.7928    1.7385    2.1618 C   0  0  2  0  0  0  0  0  0  0  0  0
   -1.4579    1.1532    1.7206 C   0  0  0  0  0  0  0  0  0  0  0  0
   -0.5858    0.8004    2.5118 O   0  0  0  0  0  0  0  0  0  0  0  0
   -2.7841    3.2553    2.0523 C   0  0  0  0  0  0  0  0  0  0  0  0
   -3.8047    1.7484    4.0260 H   0  0  0  0  0  0  0  0  0  0  0  0
   -3.5969    1.3201    1.5466 H   0  0  0  0  0  0  0  0  0  0  0  0
   -1.9850    3.6926    2.6620 H   0  0  0  0  0  0  0  0  0  0  0  0
   -2.6246    3.5776    1.0180 H   0  0  0  0  0  0  0  0  0  0  0  0
   -3.7342    3.6765    2.3981 H   0  0  0  0  0  0  0  0  0  0  0  0
   -1.3352    1.1101    0.3372 N   0  0  0  0  0  0  0  0  0  0  0  0
   -0.1579    0.6093   -0.3265 C   0  0  2  0  0  0  0  0  0  0  0  0
   -0.1857   -0.9104   -0.2085 C   0  0  0  0  0  0  0  0  0  0  0  0
   -1.2011   -1.5407    0.0790 O   0  0  0  0  0  0  0  0  0  0  0  0
    1.1327    1.1677    0.2841 C   0  0  0  0  0  0  0  0  0  0  0  0
    1.2904    2.6516    0.0590 C   0  0  0  0  0  0  0  0  0  0  0  0
    0.9565    3.6402    0.9557 C   0  0  0  0  0  0  0  0  0  0  0  0
    1.8081    3.2816   -1.1072 C   0  0  0  0  0  0  0  0  0  0  0  0
    1.2504    4.8475    0.3807 N   0  0  0  0  0  0  0  0  0  0  0  0
    1.7720    4.6590   -0.8793 C   0  0  0  0  0  0  0  0  0  0  0  0
    2.3055    2.8108   -2.3386 C   0  0  0  0  0  0  0  0  0  0  0  0
    2.2102    5.5927   -1.8250 C   0  0  0  0  0  0  0  0  0  0  0  0
    2.7474    3.7332   -3.2940 C   0  0  0  0  0  0  0  0  0  0  0  0
    2.6996    5.1024   -3.0390 C   0  0  0  0  0  0  0  0  0  0  0  0
   -2.1183    1.4068   -0.2401 H   0  0  0  0  0  0  0  0  0  0  0  0
   -0.2517    0.8890   -1.3824 H   0  0  0  0  0  0  0  0  0  0  0  0
    2.0054    0.6378   -0.1209 H   0  0  0  0  0  0  0  0  0  0  0  0
    1.1580    0.9794    1.3656 H   0  0  0  0  0  0  0  0  0  0  0  0
    0.5350    3.5941    1.9504 H   0  0  0  0  0  0  0  0  0  0  0  0
    1.1058    5.7474    0.8175 H   0  0  0  0  0  0  0  0  0  0  0  0
    2.3485    1.7467   -2.5530 H   0  0  0  0  0  0  0  0  0  0  0  0
    2.1744    6.6586   -1.6269 H   0  0  0  0  0  0  0  0  0  0  0  0
    3.1316    3.3761   -4.2457 H   0  0  0  0  0  0  0  0  0  0  0  0
    3.0480    5.8011   -3.7953 H   0  0  0  0  0  0  0  0  0  0  0  0
    1.0444   -1.4777   -0.5112 N   0  0  0  0  0  0  0  0  0  0  0  0
    1.2858   -2.9026   -0.4987 C   0  0  2  0  0  0  0  0  0  0  0  0
    0.7703   -3.4553    0.8235 C   0  0  0  0  0  0  0  0  0  0  0  0
    0.6241   -2.7629    1.8286 O   0  0  0  0  0  0  0  0  0  0  0  0
    2.7630   -3.2151   -0.6795 C   0  0  0  0  0  0  0  0  0  0  0  0
    1.8136   -0.8602   -0.7537 H   0  0  0  0  0  0  0  0  0  0  0  0
    0.7057   -3.3288   -1.3244 H   0  0  0  0  0  0  0  0  0  0  0  0
    3.3604   -2.7959    0.1384 H   0  0  0  0  0  0  0  0  0  0  0  0
    2.9406   -4.2954   -0.6985 H   0  0  0  0  0  0  0  0  0  0  0  0
    3.1392   -2.7912   -1.6168 H   0  0  0  0  0  0  0  0  0  0  0  0
    0.5335   -4.8214    0.7612 N   0  0  0  0  0  0  0  0  0  0  0  0
    0.0520   -5.5816    1.8909 C   0  0  0  0  0  0  0  0  0  0  0  0
    0.6639   -5.3115   -0.1189 H   0  0  0  0  0  0  0  0  0  0  0  0
    0.9067   -5.9957    2.4460 H   0  0  0  0  0  0  0  0  0  0  0  0
   -0.5313   -4.9246    2.5529 H   0  0  0  0  0  0  0  0  0  0  0  0
   -0.5865   -6.4033    1.5345 H   0  0  0  0  0  0  0  0  0  0  0  0
 29 30  2  0  0  0  0
 27 29  1  0  0  0  0
 28 30  1  0  0  0  0
 24 27  2  0  0  0  0
 26 28  2  0  0  0  0
 22 23  2  0  0  0  0
 23 25  1  0  0  0  0
 22 24  1  0  0  0  0
 24 26  1  0  0  0  0
 21 22  1  0  0  0  0
 25 26  1  0  0  0  0
  1  3  1  0  0  0  0
  1  7  1  0  0  0  0
  1  2  2  0  0  0  0
 42 43  1  0  0  0  0
 43 51  1  0  0  0  0
 43 44  2  0  0  0  0
  8  9  1  0  0  0  0
  9 17  1  0  0  0  0
  9 10  2  0  0  0  0
 18 19  1  0  0  0  0
 19 41  1  0  0  0  0
 19 20  2  0  0  0  0
 42 45  1  0  0  0  0
  8 11  1  0  0  0  0
 51 52  1  0  0  0  0
 18 21  1  0  0  0  0
 41 42  1  0  0  0  0
  7  8  1  0  0  0  0
 17 18  1  0  0  0  0
 29 39  1  0  0  0  0
 30 40  1  0  0  0  0
 27 37  1  0  0  0  0
 28 38  1  0  0  0  0
 23 35  1  0  0  0  0
  3  4  1  0  0  0  0
  3  5  1  0  0  0  0
  3  6  1  0  0  0  0
 45 48  1  0  0  0  0
 45 49  1  0  0  0  0
 45 50  1  0  0  0  0
 11 14  1  0  0  0  0
 11 15  1  0  0  0  0
 11 16  1  0  0  0  0
 52 54  1  0  0  0  0
 52 55  1  0  0  0  0
 52 56  1  0  0  0  0
 21 33  1  0  0  0  0
 21 34  1  0  0  0  0
 42 47  1  0  0  0  0
  8 13  1  0  0  0  0
 18 32  1  0  0  0  0
 25 36  1  0  0  0  0
 51 53  1  0  0  0  0
  7 12  1  0  0  0  0
 41 46  1  0  0  0  0
 17 31  1  0  0  0  0
M  END
$$$$

  -OEChem-05262214473D

 56 57  0     1  0  0  0  0  0999 V2000
   -2.2900    0.3401    4.1553 C   0  0  0  0  0  0  0  0  0  0  0  0
   -1.3426   -0.2746    3.6796 O   0  0  0  0  0  0  0  0  0  0  0  0
   -2.7219    0.0577    5.5560 C   0  0  0  0  0  0  0  0  0  0  0  0
   -3.4815   -0.7386    5.6094 H   0  0  0  0  0  0  0  0  0  0  0  0
   -1.8906   -0.2899    6.1903 H   0  0  0  0  0  0  0  0  0  0  0  0
   -3.1599    0.9126    6.0956 H   0  0  0  0  0  0  0  0  0  0  0  0
   -3.0397    1.3125    3.5142 N   0  0  0  0  0  0  0  0  0  0  0  0
   -2.7928    1.7385    2.1618 C   0  0  2  0  0  0  0  0  0  0  0  0
   -1.4579    1.1532    1.7206 C   0  0  0  0  0  0  0  0  0  0  0  0
   -0.5858    0.8004    2.5118 O   0  0  0  0  0  0  0  0  0  0  0  0
   -2.7841    3.2553    2.0523 C   0  0  0  0  0  0  0  0  0  0  0  0
   -3.8047    1.7484    4.0260 H   0  0  0  0  0  0  0  0  0  0  0  0
   -3.5969    1.3201    1.5466 H   0  0  0  0  0  0  0  0  0  0  0  0
   -1.9850    3.6926    2.6620 H   0  0  0  0  0  0  0  0  0  0  0  0
   -2.6246    3.5776    1.0180 H   0  0  0  0  0  0  0  0  0  0  0  0
   -3.7342    3.6765    2.3981 H   0  0  0  0  0  0  0  0  0  0  0  0
   -1.3352    1.1101    0.3372 N   0  0  0  0  0  0  0  0  0  0  0  0
   -0.1579    0.6093   -0.3265 C   0  0  2  0  0  0  0  0  0  0  0  0
   -0.1857   -0.9104   -0.2085 C   0  0  0  0  0  0  0  0  0  0  0  0
   -1.2284   -1.5610   -0.1880 O   0  0  0  0  0  0  0  0  0  0  0  0
    1.1327    1.1677    0.2841 C   0  0  0  0  0  0  0  0  0  0  0  0
    1.2904    2.6516    0.0590 C   0  0  0  0  0  0  0  0  0  0  0  0
    0.9565    3.6402    0.9557 C   0  0  0  0  0  0  0  0  0  0  0  0
    1.8081    3.2816   -1.1072 C   0  0  0  0  0  0  0  0  0  0  0  0
    1.2504    4.8475    0.3807 N   0  0  0  0  0  0  0  0  0  0  0  0
    1.7720    4.6590   -0.8793 C   0  0  0  0  0  0  0  0  0  0  0  0
    2.3055    2.8108   -2.3386 C   0  0  0  0  0  0  0  0  0  0  0  0
    2.2102    5.5927   -1.8250 C   0  0  0  0  0  0  0  0  0  0  0  0
    2.7474    3.7332   -3.2940 C   0  0  0  0  0  0  0  0  0  0  0  0
    2.6996    5.1024   -3.0390 C   0  0  0  0  0  0  0  0  0  0  0  0
   -2.1183    1.4068   -0.2401 H   0  0  0  0  0  0  0  0  0  0  0  0
   -0.2517    0.8890   -1.3824 H   0  0  0  0  0  0  0  0  0  0  0  0
    2.0054    0.6378   -0.1209 H   0  0  0  0  0  0  0  0  0  0  0  0
    1.1580    0.9794    1.3656 H   0  0  0  0  0  0  0  0  0  0  0  0
    0.5350    3.5941    1.9504 H   0  0  0  0  0  0  0  0  0  0  0  0
    1.1058    5.7474    0.8175 H   0  0  0  0  0  0  0  0  0  0  0  0
    2.3485    1.7467   -2.5530 H   0  0  0  0  0  0  0  0  0  0  0  0
    2.1744    6.6586   -1.6269 H   0  0  0  0  0  0  0  0  0  0  0  0
    3.1316    3.3761   -4.2457 H   0  0  0  0  0  0  0  0  0  0  0  0
    3.0480    5.8011   -3.7953 H   0  0  0  0  0  0  0  0  0  0  0  0
    1.0916   -1.4528   -0.1795 N   0  0  0  0  0  0  0  0  0  0  0  0
    1.3492   -2.8723   -0.0947 C   0  0  2  0  0  0  0  0  0  0  0  0
    0.5208   -3.4329    1.0538 C   0  0  0  0  0  0  0  0  0  0  0  0
    0.1068   -2.7416    1.9821 O   0  0  0  0  0  0  0  0  0  0  0  0
    2.8289   -3.1547    0.1140 C   0  0  0  0  0  0  0  0  0  0  0  0
    1.8852   -0.8201   -0.2199 H   0  0  0  0  0  0  0  0  0  0  0  0
    1.0102   -3.3122   -1.0389 H   0  0  0  0  0  0  0  0  0  0  0  0
    3.1866   -2.7216    1.0552 H   0  0  0  0  0  0  0  0  0  0  0  0
    3.0263   -4.2312    0.1495 H   0  0  0  0  0  0  0  0  0  0  0  0
    3.4259   -2.7251   -0.6976 H   0  0  0  0  0  0  0  0  0  0  0  0
    0.3347   -4.8037    0.9426 N   0  0  0  0  0  0  0  0  0  0  0  0
   -0.4072   -5.5713    1.9155 C   0  0  0  0  0  0  0  0  0  0  0  0
    0.6973   -5.2929    0.1296 H   0  0  0  0  0  0  0  0  0  0  0  0
    0.2832   -5.9665    2.6752 H   0  0  0  0  0  0  0  0  0  0  0  0
   -1.1542   -4.9251    2.3997 H   0  0  0  0  0  0  0  0  0  0  0  0
   -0.9160   -6.4068    1.4124 H   0  0  0  0  0  0  0  0  0  0  0  0
 29 30  2  0  0  0  0
 27 29  1  0  0  0  0
 28 30  1  0  0  0  0
 24 27  2  0  0  0  0
 26 28  2  0  0  0  0
 22 23  2  0  0  0  0
 23 25  1  0  0  0  0
 22 24  1  0  0  0  0
 24 26  1  0  0  0  0
 21 22  1  0  0  0  0
 25 26  1  0  0  0  0
  1  3  1  0  0  0  0
  1  7  1  0  0  0  0
  1  2  2  0  0  0  0
 42 43  1  0  0  0  0
 43 51  1  0  0  0  0
 43 44  2  0  0  0  0
  8  9  1  0  0  0  0
  9 17  1  0  0  0  0
  9 10  2  0  0  0  0
 18 19  1  0  0  0  0
 19 41  1  0  0  0  0
 19 20  2  0  0  0  0
 42 45  1  0  0  0  0
  8 11  1  0  0  0  0
 51 52  1  0  0  0  0
 18 21  1  0  0  0  0
 41 42  1  0  0  0  0
  7  8  1  0  0  0  0
 17 18  1  0  0  0  0
 29 39  1  0  0  0  0
 30 40  1  0  0  0  0
 27 37  1  0  0  0  0
 28 38  1  0  0  0  0
 23 35  1  0  0  0  0
  3  4  1  0  0  0  0
  3  5  1  0  0  0  0
  3  6  1  0  0  0  0
 45 48  1  0  0  0  0
 45 49  1  0  0  0  0
 45 50  1  0  0  0  0
 11 14  1  0  0  0  0
 11 15  1  0  0  0  0
 11 16  1  0  0  0  0
 52 54  1  0  0  0  0
 52 55  1  0  0  0  0
 52 56  1  0  0  0  0
 21 33  1  0  0  0  0
 21 34  1  0  0  0  0
 42 47  1  0  0  0  0
  8 13  1  0  0  0  0
 18 32  1  0  0  0  0
 25 36  1  0  0  0  0
 51 53  1  0  0  0  0
  7 12  1  0  0  0  0
 41 46  1  0  0  0  0
 17 31  1  0  0  0  0
M  END
$$$$

  -OEChem-05262214473D

 56 57  0     1  0  0  0  0  0999 V2000
   -2.2900    0.3401    4.1553 C   0  0  0  0  0  0  0  0  0  0  0  0
   -1.3426   -0.2746    3.6796 O   0  0  0  0  0  0  0  0  0  0  0  0
   -2.7219    0.0577    5.5560 C   0  0  0  0  0  0  0  0  0  0  0  0
   -3.4815   -0.7386    5.6094 H   0  0  0  0  0  0  0  0  0  0  0  0
   -1.8906   -0.2899    6.1903 H   0  0  0  0  0  0  0  0  0  0  0  0
   -3.1599    0.9126    6.0956 H   0  0  0  0  0  0  0  0  0  0  0  0
   -3.0397    1.3125    3.5142 N   0  0  0  0  0  0  0  0  0  0  0  0
   -2.7928    1.7385    2.1618 C   0  0  2  0  0  0  0  0  0  0  0  0
   -1.4579    1.1532    1.7206 C   0  0  0  0  0  0  0  0  0  0  0  0
   -0.5858    0.8004    2.5118 O   0  0  0  0  0  0  0  0  0  0  0  0
   -2.7841    3.2553    2.0523 C   0  0  0  0  0  0  0  0  0  0  0  0
   -3.8047    1.7484    4.0260 H   0  0  0  0  0  0  0  0  0  0  0  0
   -3.5969    1.3201    1.5466 H   0  0  0  0  0  0  0  0  0  0  0  0
   -1.9850    3.6926    2.6620 H   0  0  0  0  0  0  0  0  0  0  0  0
   -2.6246    3.5776    1.0180 H   0  0  0  0  0  0  0  0  0  0  0  0
   -3.7342    3.6765    2.3981 H   0  0  0  0  0  0  0  0  0  0  0  0
   -1.3352    1.1101    0.3372 N   0  0  0  0  0  0  0  0  0  0  0  0
   -0.1579    0.6093   -0.3265 C   0  0  2  0  0  0  0  0  0  0  0  0
   -0.1857   -0.9104   -0.2085 C   0  0  0  0  0  0  0  0  0  0  0  0
   -1.1855   -1.5823   -0.4529 O   0  0  0  0  0  0  0  0  0  0  0  0
    1.1327    1.1677    0.2841 C   0  0  0  0  0  0  0  0  0  0  0  0
    1.2904    2.6516    0.0590 C   0  0  0  0  0  0  0  0  0  0  0  0
    0.9565    3.6402    0.9557 C   0  0  0  0  0  0  0  0  0  0  0  0
    1.8081    3.2816   -1.1072 C   0  0  0  0  0  0  0  0  0  0  0  0
    1.2504    4.8475    0.3807 N   0  0  0  0  0  0  0  0  0  0  0  0
    1.7720    4.6590   -0.8793 C   0  0  0  0  0  0  0  0  0  0  0  0
    2.3055    2.8108   -2.3386 C   0  0  0  0  0  0  0  0  0  0  0  0
    2.2102    5.5927   -1.8250 C   0  0  0  0  0  0  0  0  0  0  0  0
    2.7474    3.7332   -3.2940 C   0  0  0  0  0  0  0  0  0  0  0  0
    2.6996    5.1024   -3.0390 C   0  0  0  0  0  0  0  0  0  0  0  0
   -2.1183    1.4068   -0.2401 H   0  0  0  0  0  0  0  0  0  0  0  0
   -0.2517    0.8890   -1.3824 H   0  0  0  0  0  0  0  0  0  0  0  0
    2.0054    0.6378   -0.1209 H   0  0  0  0  0  0  0  0  0  0  0  0
    1.1580    0.9794    1.3656 H   0  0  0  0  0  0  0  0  0  0  0  0
    0.5350    3.5941    1.9504 H   0  0  0  0  0  0  0  0  0  0  0  0
    1.1058    5.7474    0.8175 H   0  0  0  0  0  0  0  0  0  0  0  0
    2.3485    1.7467   -2.5530 H   0  0  0  0  0  0  0  0  0  0  0  0
    2.1744    6.6586   -1.6269 H   0  0  0  0  0  0  0  0  0  0  0  0
    3.1316    3.3761   -4.2457 H   0  0  0  0  0  0  0  0  0  0  0  0
    3.0480    5.8011   -3.7953 H   0  0  0  0  0  0  0  0  0  0  0  0
    1.0511   -1.4262    0.1530 N   0  0  0  0  0  0  0  0  0  0  0  0
    1.3056   -2.8400    0.3118 C   0  0  2  0  0  0  0  0  0  0  0  0
    0.2200   -3.4151    1.2118 C   0  0  0  0  0  0  0  0  0  0  0  0
   -0.4329   -2.7305    1.9968 O   0  0  0  0  0  0  0  0  0  0  0  0
    2.6865   -3.0913    0.8972 C   0  0  0  0  0  0  0  0  0  0  0  0
    1.8159   -0.7774    0.3141 H   0  0  0  0  0  0  0  0  0  0  0  0
    1.2304   -3.2888   -0.6847 H   0  0  0  0  0  0  0  0  0  0  0  0
    2.7808   -2.6489    1.8956 H   0  0  0  0  0  0  0  0  0  0  0  0
    2.8889   -4.1634    0.9903 H   0  0  0  0  0  0  0  0  0  0  0  0
    3.4643   -2.6511    0.2639 H   0  0  0  0  0  0  0  0  0  0  0  0
    0.0955   -4.7897    1.0665 N   0  0  0  0  0  0  0  0  0  0  0  0
   -0.8572   -5.5704    1.8207 C   0  0  0  0  0  0  0  0  0  0  0  0
    0.6651   -5.2730    0.3781 H   0  0  0  0  0  0  0  0  0  0  0  0
   -0.3788   -5.9497    2.7357 H   0  0  0  0  0  0  0  0  0  0  0  0
   -1.7163   -4.9388    2.0911 H   0  0  0  0  0  0  0  0  0  0  0  0
   -1.2027   -6.4173    1.2096 H   0  0  0  0  0  0  0  0  0  0  0  0
 29 30  2  0  0  0  0
 27 29  1  0  0  0  0
 28 30  1  0  0  0  0
 24 27  2  0  0  0  0
 26 28  2  0  0  0  0
 22 23  2  0  0  0  0
 23 25  1  0  0  0  0
 22 24  1  0  0  0  0
 24 26  1  0  0  0  0
 21 22  1  0  0  0  0
 25 26  1  0  0  0  0
  1  3  1  0  0  0  0
  1  7  1  0  0  0  0
  1  2  2  0  0  0  0
 42 43  1  0  0  0  0
 43 51  1  0  0  0  0
 43 44  2  0  0  0  0
  8  9  1  0  0  0  0
  9 17  1  0  0  0  0
  9 10  2  0  0  0  0
 18 19  1  0  0  0  0
 19 41  1  0  0  0  0
 19 20  2  0  0  0  0
 42 45  1  0  0  0  0
  8 11  1  0  0  0  0
 51 52  1  0  0  0  0
 18 21  1  0  0  0  0
 41 42  1  0  0  0  0
  7  8  1  0  0  0  0
 17 18  1  0  0  0  0
 29 39  1  0  0  0  0
 30 40  1  0  0  0  0
 27 37  1  0  0  0  0
 28 38  1  0  0  0  0
 23 35  1  0  0  0  0
  3  4  1  0  0  0  0
  3  5  1  0  0  0  0
  3  6  1  0  0  0  0
 45 48  1  0  0  0  0
 45 49  1  0  0  0  0
 45 50  1  0  0  0  0
 11 14  1  0  0  0  0
 11 15  1  0  0  0  0
 11 16  1  0  0  0  0
 52 54  1  0  0  0  0
 52 55  1  0  0  0  0
 52 56  1  0  0  0  0
 21 33  1  0  0  0  0
 21 34  1  0  0  0  0
 42 47  1  0  0  0  0
  8 13  1  0  0  0  0
 18 32  1  0  0  0  0
 25 36  1  0  0  0  0
 51 53  1  0  0  0  0
  7 12  1  0  0  0  0
 41 46  1  0  0  0  0
 17 31  1  0  0  0  0
M  END
$$$$

  -OEChem-05262214473D

 56 57  0     1  0  0  0  0  0999 V2000
   -2.2900    0.3401    4.1553 C   0  0  0  0  0  0  0  0  0  0  0  0
   -1.3426   -0.2746    3.6796 O   0  0  0  0  0  0  0  0  0  0  0  0
   -2.7219    0.0577    5.5560 C   0  0  0  0  0  0  0  0  0  0  0  0
   -3.4815   -0.7386    5.6094 H   0  0  0  0  0  0  0  0  0  0  0  0
   -1.8906   -0.2899    6.1903 H   0  0  0  0  0  0  0  0  0  0  0  0
   -3.1599    0.9126    6.0956 H   0  0  0  0  0  0  0  0  0  0  0  0
   -3.0397    1.3125    3.5142 N   0  0  0  0  0  0  0  0  0  0  0  0
   -2.7928    1.7385    2.1618 C   0  0  2  0  0  0  0  0  0  0  0  0
   -1.4579    1.1532    1.7206 C   0  0  0  0  0  0  0  0  0  0  0  0
   -0.5858    0.8004    2.5118 O   0  0  0  0  0  0  0  0  0  0  0  0
   -2.7841    3.2553    2.0523 C   0  0  0  0  0  0  0  0  0  0  0  0
   -3.8047    1.7484    4.0260 H   0  0  0  0  0  0  0  0  0  0  0  0
   -3.5969    1.3201    1.5466 H   0  0  0  0  0  0  0  0  0  0  0  0
   -1.9850    3.6926    2.6620 H   0  0  0  0  0  0  0  0  0  0  0  0
   -2.6246    3.5776    1.0180 H   0  0  0  0  0  0  0  0  0  0  0  0
   -3.7342    3.6765    2.3981 H   0  0  0  0  0  0  0  0  0  0  0  0
   -1.3352    1.1101    0.3372 N   0  0  0  0  0  0  0  0  0  0  0  0
   -0.1579    0.6093   -0.3265 C   0  0  2  0  0  0  0  0  0  0  0  0
   -0.1857   -0.9104   -0.2085 C   0  0  0  0  0  0  0  0  0  0  0  0
   -1.0754   -1.6033   -0.6976 O   0  0  0  0  0  0  0  0  0  0  0  0
    1.1327    1.1677    0.2841 C   0  0  0  0  0  0  0  0  0  0  0  0
    1.2904    2.6516    0.0590 C   0  0  0  0  0  0  0  0  0  0  0  0
    0.9565    3.6402    0.9557 C   0  0  0  0  0  0  0  0  0  0  0  0
    1.8081    3.2816   -1.1072 C   0  0  0  0  0  0  0  0  0  0  0  0
    1.2504    4.8475    0.3807 N   0  0  0  0  0  0  0  0  0  0  0  0
    1.7720    4.6590   -0.8793 C   0  0  0  0  0  0  0  0  0  0  0  0
    2.3055    2.8108   -2.3386 C   0  0  0  0  0  0  0  0  0  0  0  0
    2.2102    5.5927   -1.8250 C   0  0  0  0  0  0  0  0  0  0  0  0
    2.7474    3.7332   -3.2940 C   0  0  0  0  0  0  0  0  0  0  0  0
    2.6996    5.1024   -3.0390 C   0  0  0  0  0  0  0  0  0  0  0  0
   -2.1183    1.4068   -0.2401 H   0  0  0  0  0  0  0  0  0  0  0  0
   -0.2517    0.8890   -1.3824 H   0  0  0  0  0  0  0  0  0  0  0  0
    2.0054    0.6378   -0.1209 H   0  0  0  0  0  0  0  0  0  0  0  0
    1.1580    0.9794    1.3656 H   0  0  0  0  0  0  0  0  0  0  0  0
    0.5350    3.5941    1.9504 H   0  0  0  0  0  0  0  0  0  0  0  0
    1.1058    5.7474    0.8175 H   0  0  0  0  0  0  0  0  0  0  0  0
    2.3485    1.7467   -2.5530 H   0  0  0  0  0  0  0  0  0  0  0  0
    2.1744    6.6586   -1.6269 H   0  0  0  0  0  0  0  0  0  0  0  0
    3.1316    3.3761   -4.2457 H   0  0  0  0  0  0  0  0  0  0  0  0
    3.0480    5.8011   -3.7953 H   0  0  0  0  0  0  0  0  0  0  0  0
    0.9257   -1.3998    0.4636 N   0  0  0  0  0  0  0  0  0  0  0  0
    1.1580   -2.8077    0.6931 C   0  0  2  0  0  0  0  0  0  0  0  0
   -0.1117   -3.4032    1.2868 C   0  0  0  0  0  0  0  0  0  0  0  0
   -0.9582   -2.7306    1.8718 O   0  0  0  0  0  0  0  0  0  0  0  0
    2.3457   -3.0292    1.6167 C   0  0  0  0  0  0  0  0  0  0  0  0
    1.6103   -0.7350    0.8117 H   0  0  0  0  0  0  0  0  0  0  0  0
    1.3512   -3.2600   -0.2858 H   0  0  0  0  0  0  0  0  0  0  0  0
    2.1706   -2.5828    2.6024 H   0  0  0  0  0  0  0  0  0  0  0  0
    2.5380   -4.0967    1.7667 H   0  0  0  0  0  0  0  0  0  0  0  0
    3.2519   -2.5744    1.2022 H   0  0  0  0  0  0  0  0  0  0  0  0
   -0.1677   -4.7804    1.1244 N   0  0  0  0  0  0  0  0  0  0  0  0
   -1.2675   -5.5790    1.6130 C   0  0  0  0  0  0  0  0  0  0  0  0
    0.5694   -5.2532    0.6098 H   0  0  0  0  0  0  0  0  0  0  0  0
   -1.0341   -5.9465    2.6232 H   0  0  0  0  0  0  0  0  0  0  0  0
   -2.1793   -4.9647    1.6480 H   0  0  0  0  0  0  0  0  0  0  0  0
   -1.4271   -6.4341    0.9397 H   0  0  0  0  0  0  0  0  0  0  0  0
 29 30  2  0  0  0  0
 27 29  1  0  0  0  0
 28 30  1  0  0  0  0
 24 27  2  0  0  0  0
 26 28  2  0  0  0  0
 22 23  2  0  0  0  0
 23 25  1  0  0  0  0
 22 24  1  0  0  0  0
 24 26  1  0  0  0  0
 21 22  1  0  0  0  0
 25 26  1  0  0  0  0
  1  3  1  0  0  0  0
  1  7  1  0  0  0  0
  1  2  2  0  0  0  0
 42 43  1  0  0  0  0
 43 51  1  0  0  0  0
 43 44  2  0  0  0  0
  8  9  1  0  0  0  0
  9 17  1  0  0  0  0
  9 10  2  0  0  0  0
 18 19  1  0  0  0  0
 19 41  1  0  0  0  0
 19 20  2  0  0  0  0
 42 45  1  0  0  0  0
  8 11  1  0  0  0  0
 51 52  1  0  0  0  0
 18 21  1  0  0  0  0
 41 42  1  0  0  0  0
  7  8  1  0  0  0  0
 17 18  1  0  0  0  0
 29 39  1  0  0  0  0
 30 40  1  0  0  0  0
 27 37  1  0  0  0  0
 28 38  1  0  0  0  0
 23 35  1  0  0  0  0
  3  4  1  0  0  0  0
  3  5  1  0  0  0  0
  3  6  1  0  0  0  0
 45 48  1  0  0  0  0
 45 49  1  0  0  0  0
 45 50  1  0  0  0  0
 11 14  1  0  0  0  0
 11 15  1  0  0  0  0
 11 16  1  0  0  0  0
 52 54  1  0  0  0  0
 52 55  1  0  0  0  0
 52 56  1  0  0  0  0
 21 33  1  0  0  0  0
 21 34  1  0  0  0  0
 42 47  1  0  0  0  0
  8 13  1  0  0  0  0
 18 32  1  0  0  0  0
 25 36  1  0  0  0  0
 51 53  1  0  0  0  0
  7 12  1  0  0  0  0
 41 46  1  0  0  0  0
 17 31  1  0  0  0  0
M  END
$$$$

  -OEChem-05262214473D

 56 57  0     1  0  0  0  0  0999 V2000
   -2.2900    0.3401    4.1553 C   0  0  0  0  0  0  0  0  0  0  0  0
   -1.3426   -0.2746    3.6796 O   0  0  0  0  0  0  0  0  0  0  0  0
   -2.7219    0.0577    5.5560 C   0  0  0  0  0  0  0  0  0  0  0  0
   -3.4815   -0.7386    5.6094 H   0  0  0  0  0  0  0  0  0  0  0  0
   -1.8906   -0.2899    6.1903 H   0  0  0  0  0  0  0  0  0  0  0  0
   -3.1599    0.9126    6.0956 H   0  0  0  0  0  0  0  0  0  0  0  0
   -3.0397    1.3125    3.5142 N   0  0  0  0  0  0  0  0  0  0  0  0
   -2.7928    1.7385    2.1618 C   0  0  2  0  0  0  0  0  0  0  0  0
   -1.4579    1.1532    1.7206 C   0  0  0  0  0  0  0  0  0  0  0  0
   -0.5858    0.8004    2.5118 O   0  0  0  0  0  0  0  0  0  0  0  0
   -2.7841    3.2553    2.0523 C   0  0  0  0  0  0  0  0  0  0  0  0
   -3.8047    1.7484    4.0260 H   0  0  0  0  0  0  0  0  0  0  0  0
   -3.5969    1.3201    1.5466 H   0  0  0  0  0  0  0  0  0  0  0  0
   -1.9850    3.6926    2.6620 H   0  0  0  0  0  0  0  0  0  0  0  0
   -2.6246    3.5776    1.0180 H   0  0  0  0  0  0  0  0  0  0  0  0
   -3.7342    3.6765    2.3981 H   0  0  0  0  0  0  0  0  0  0  0  0
   -1.3352    1.1101    0.3372 N   0  0  0  0  0  0  0  0  0  0  0  0
   -0.1579    0.6093   -0.3265 C   0  0  2  0  0  0  0  0  0  0  0  0
   -0.1857   -0.9104   -0.2085 C   0  0  0  0  0  0  0  0  0  0  0  0
   -0.9054   -1.6226   -0.9054 O   0  0  0  0  0  0  0  0  0  0  0  0
    1.1327    1.1677    0.2841 C   0  0  0  0  0  0  0  0  0  0  0  0
    1.2904    2.6516    0.0590 C   0  0  0  0  0  0  0  0  0  0  0  0
    0.9565    3.6402    0.9557 C   0  0  0  0  0  0  0  0  0  0  0  0
    1.8081    3.2816   -1.1072 C   0  0  0  0  0  0  0  0  0  0  0  0
    1.2504    4.8475    0.3807 N   0  0  0  0  0  0  0  0  0  0  0  0
    1.7720    4.6590   -0.8793 C   0  0  0  0  0  0  0  0  0  0  0  0
    2.3055    2.8108   -2.3386 C   0  0  0  0  0  0  0  0  0  0  0  0
    2.2102    5.5927   -1.8250 C   0  0  0  0  0  0  0  0  0  0  0  0
    2.7474    3.7332   -3.2940 C   0  0  0  0  0  0  0  0  0  0  0  0
    2.6996    5.1024   -3.0390 C   0  0  0  0  0  0  0  0  0  0  0  0
   -2.1183    1.4068   -0.2401 H   0  0  0  0  0  0  0  0  0  0  0  0
   -0.2517    0.8890   -1.3824 H   0  0  0  0  0  0  0  0  0  0  0  0
    2.0054    0.6378   -0.1209 H   0  0  0  0  0  0  0  0  0  0  0  0
    1.1580    0.9794    1.3656 H   0  0  0  0  0  0  0  0  0  0  0  0
    0.5350    3.5941    1.9504 H   0  0  0  0  0  0  0  0  0  0  0  0
    1.1058    5.7474    0.8175 H   0  0  0  0  0  0  0  0  0  0  0  0
    2.3485    1.7467   -2.5530 H   0  0  0  0  0  0  0  0  0  0  0  0
    2.1744    6.6586   -1.6269 H   0  0  0  0  0  0  0  0  0  0  0  0
    3.1316    3.3761   -4.2457 H   0  0  0  0  0  0  0  0  0  0  0  0
    3.0480    5.8011   -3.7953 H   0  0  0  0  0  0  0  0  0  0  0  0
    0.7239   -1.3753    0.7311 N   0  0  0  0  0  0  0  0  0  0  0  0
    0.9164   -2.7776    1.0231 C   0  0  2  0  0  0  0  0  0  0  0  0
   -0.4517   -3.3980    1.2736 C   0  0  0  0  0  0  0  0  0  0  0  0
   -1.4334   -2.7418    1.6154 O   0  0  0  0  0  0  0  0  0  0  0  0
    1.8296   -2.9726    2.2234 C   0  0  0  0  0  0  0  0  0  0  0  0
    1.2824   -0.6958    1.2391 H   0  0  0  0  0  0  0  0  0  0  0  0
    1.3644   -3.2279    0.1306 H   0  0  0  0  0  0  0  0  0  0  0  0
    1.3974   -2.5279    3.1273 H   0  0  0  0  0  0  0  0  0  0  0  0
    1.9974   -4.0356    2.4258 H   0  0  0  0  0  0  0  0  0  0  0  0
    2.8031   -2.5001    2.0534 H   0  0  0  0  0  0  0  0  0  0  0  0
   -0.4372   -4.7764    1.1123 N   0  0  0  0  0  0  0  0  0  0  0  0
   -1.6101   -5.5965    1.3066 C   0  0  0  0  0  0  0  0  0  0  0  0
    0.4168   -5.2350    0.8088 H   0  0  0  0  0  0  0  0  0  0  0  0
   -1.6381   -5.9570    2.3455 H   0  0  0  0  0  0  0  0  0  0  0  0
   -2.5118   -5.0011    1.1007 H   0  0  0  0  0  0  0  0  0  0  0  0
   -1.5739   -6.4561    0.6212 H   0  0  0  0  0  0  0  0  0  0  0  0
 29 30  2  0  0  0  0
 27 29  1  0  0  0  0
 28 30  1  0  0  0  0
 24 27  2  0  0  0  0
 26 28  2  0  0  0  0
 22 23  2  0  0  0  0
 23 25  1  0  0  0  0
 22 24  1  0  0  0  0
 24 26  1  0  0  0  0
 21 22  1  0  0  0  0
 25 26  1  0  0  0  0
  1  3  1  0  0  0  0
  1  7  1  0  0  0  0
  1  2  2  0  0  0  0
 42 43  1  0  0  0  0
 43 51  1  0  0  0  0
 43 44  2  0  0  0  0
  8  9  1  0  0  0  0
  9 17  1  0  0  0  0
  9 10  2  0  0  0  0
 18 19  1  0  0  0  0
 19 41  1  0  0  0  0
 19 20  2  0  0  0  0
 42 45  1  0  0  0  0
  8 11  1  0  0  0  0
 51 52  1  0  0  0  0
 18 21  1  0  0  0  0
 41 42  1  0  0  0  0
  7  8  1  0  0  0  0
 17 18  1  0  0  0  0
 29 39  1  0  0  0  0
 30 40  1  0  0  0  0
 27 37  1  0  0  0  0
 28 38  1  0  0  0  0
 23 35  1  0  0  0  0
  3  4  1  0  0  0  0
  3  5  1  0  0  0  0
  3  6  1  0  0  0  0
 45 48  1  0  0  0  0
 45 49  1  0  0  0  0
 45 50  1  0  0  0  0
 11 14  1  0  0  0  0
 11 15  1  0  0  0  0
 11 16  1  0  0  0  0
 52 54  1  0  0  0  0
 52 55  1  0  0  0  0
 52 56  1  0  0  0  0
 21 33  1  0  0  0  0
 21 34  1  0  0  0  0
 42 47  1  0  0  0  0
  8 13  1  0  0  0  0
 18 32  1  0  0  0  0
 25 36  1  0  0  0  0
 51 53  1  0  0  0  0
  7 12  1  0  0  0  0
 41 46  1  0  0  0  0
 17 31  1  0  0  0  0
M  END
$$$$

  -OEChem-05262214473D

 56 57  0     1  0  0  0  0  0999 V2000
   -2.2900    0.3401    4.1553 C   0  0  0  0  0  0  0  0  0  0  0  0
   -1.3426   -0.2746    3.6796 O   0  0  0  0  0  0  0  0  0  0  0  0
   -2.7219    0.0577    5.5560 C   0  0  0  0  0  0  0  0  0  0  0  0
   -3.4815   -0.7386    5.6094 H   0  0  0  0  0  0  0  0  0  0  0  0
   -1.8906   -0.2899    6.1903 H   0  0  0  0  0  0  0  0  0  0  0  0
   -3.1599    0.9126    6.0956 H   0  0  0  0  0  0  0  0  0  0  0  0
   -3.0397    1.3125    3.5142 N   0  0  0  0  0  0  0  0  0  0  0  0
   -2.7928    1.7385    2.1618 C   0  0  2  0  0  0  0  0  0  0  0  0
   -1.4579    1.1532    1.7206 C   0  0  0  0  0  0  0  0  0  0  0  0
   -0.5858    0.8004    2.5118 O   0  0  0  0  0  0  0  0  0  0  0  0
   -2.7841    3.2553    2.0523 C   0  0  0  0  0  0  0  0  0  0  0  0
   -3.8047    1.7484    4.0260 H   0  0  0  0  0  0  0  0  0  0  0  0
   -3.5969    1.3201    1.5466 H   0  0  0  0  0  0  0  0  0  0  0  0
   -1.9850    3.6926    2.6620 H   0  0  0  0  0  0  0  0  0  0  0  0
   -2.6246    3.5776    1.0180 H   0  0  0  0  0  0  0  0  0  0  0  0
   -3.7342    3.6765    2.3981 H   0  0  0  0  0  0  0  0  0  0  0  0
   -1.3352    1.1101    0.3372 N   0  0  0  0  0  0  0  0  0  0  0  0
   -0.1579    0.6093   -0.3265 C   0  0  2  0  0  0  0  0  0  0  0  0
   -0.1857   -0.9104   -0.2085 C   0  0  0  0  0  0  0  0  0  0  0  0
   -0.6872   -1.6388   -1.0622 O   0  0  0  0  0  0  0  0  0  0  0  0
    1.1327    1.1677    0.2841 C   0  0  0  0  0  0  0  0  0  0  0  0
    1.2904    2.6516    0.0590 C   0  0  0  0  0  0  0  0  0  0  0  0
    0.9565    3.6402    0.9557 C   0  0  0  0  0  0  0  0  0  0  0  0
    1.8081    3.2816   -1.1072 C   0  0  0  0  0  0  0  0  0  0  0  0
    1.2504    4.8475    0.3807 N   0  0  0  0  0  0  0  0  0  0  0  0
    1.7720    4.6590   -0.8793 C   0  0  0  0  0  0  0  0  0  0  0  0
    2.3055    2.8108   -2.3386 C   0  0  0  0  0  0  0  0  0  0  0  0
    2.2102    5.5927   -1.8250 C   0  0  0  0  0  0  0  0  0  0  0  0
    2.7474    3.7332   -3.2940 C   0  0  0  0  0  0  0  0  0  0  0  0
    2.6996    5.1024   -3.0390 C   0  0  0  0  0  0  0  0  0  0  0  0
   -2.1183    1.4068   -0.2401 H   0  0  0  0  0  0  0  0  0  0  0  0
   -0.2517    0.8890   -1.3824 H   0  0  0  0  0  0  0  0  0  0  0  0
    2.0054    0.6378   -0.1209 H   0  0  0  0  0  0  0  0  0  0  0  0
    1.1580    0.9794    1.3656 H   0  0  0  0  0  0  0  0  0  0  0  0
    0.5350    3.5941    1.9504 H   0  0  0  0  0  0  0  0  0  0  0  0
    1.1058    5.7474    0.8175 H   0  0  0  0  0  0  0  0  0  0  0  0
    2.3485    1.7467   -2.5530 H   0  0  0  0  0  0  0  0  0  0  0  0
    2.1744    6.6586   -1.6269 H   0  0  0  0  0  0  0  0  0  0  0  0
    3.1316    3.3761   -4.2457 H   0  0  0  0  0  0  0  0  0  0  0  0
    3.0480    5.8011   -3.7953 H   0  0  0  0  0  0  0  0  0  0  0  0
    0.4595   -1.3545    0.9374 N   0  0  0  0  0  0  0  0  0  0  0  0
    0.5973   -2.7519    1.2794 C   0  0  2  0  0  0  0  0  0  0  0  0
   -0.7768   -3.3999    1.1730 C   0  0  0  0  0  0  0  0  0  0  0  0
   -1.8260   -2.7634    1.2453 O   0  0  0  0  0  0  0  0  0  0  0  0
    1.1735   -2.9255    2.6761 C   0  0  0  0  0  0  0  0  0  0  0  0
    0.8547   -0.6625    1.5672 H   0  0  0  0  0  0  0  0  0  0  0  0
    1.2691   -3.1947    0.5360 H   0  0  0  0  0  0  0  0  0  0  0  0
    0.5141   -2.4879    3.4346 H   0  0  0  0  0  0  0  0  0  0  0  0
    1.3039   -3.9843    2.9227 H   0  0  0  0  0  0  0  0  0  0  0  0
    2.1484   -2.4333    2.7594 H   0  0  0  0  0  0  0  0  0  0  0  0
   -0.6944   -4.7780    1.0311 N   0  0  0  0  0  0  0  0  0  0  0  0
   -1.8615   -5.6217    0.9223 C   0  0  0  0  0  0  0  0  0  0  0  0
    0.2177   -5.2195    0.9615 H   0  0  0  0  0  0  0  0  0  0  0  0
   -2.1497   -5.9805    1.9214 H   0  0  0  0  0  0  0  0  0  0  0  0
   -2.6910   -5.0456    0.4864 H   0  0  0  0  0  0  0  0  0  0  0  0
   -1.6330   -6.4819    0.2758 H   0  0  0  0  0  0  0  0  0  0  0  0
 29 30  2  0  0  0  0
 27 29  1  0  0  0  0
 28 30  1  0  0  0  0
 24 27  2  0  0  0  0
 26 28  2  0  0  0  0
 22 23  2  0  0  0  0
 23 25  1  0  0  0  0
 22 24  1  0  0  0  0
 24 26  1  0  0  0  0
 21 22  1  0  0  0  0
 25 26  1  0  0  0  0
  1  3  1  0  0  0  0
  1  7  1  0  0  0  0
  1  2  2  0  0  0  0
 42 43  1  0  0  0  0
 43 51  1  0  0  0  0
 43 44  2  0  0  0  0
  8  9  1  0  0  0  0
  9 17  1  0  0  0  0
  9 10  2  0  0  0  0
 18 19  1  0  0  0  0
 19 41  1  0  0  0  0
 19 20  2  0  0  0  0
 42 45  1  0  0  0  0
  8 11  1  0  0  0  0
 51 52  1  0  0  0  0
 18 21  1  0  0  0  0
 41 42  1  0  0  0  0
  7  8  1  0  0  0  0
 17 18  1  0  0  0  0
 29 39  1  0  0  0  0
 30 40  1  0  0  0  0
 27 37  1  0  0  0  0
 28 38  1  0  0  0  0
 23 35  1  0  0  0  0
  3  4  1  0  0  0  0
  3  5  1  0  0  0  0
  3  6  1  0  0  0  0
 45 48  1  0  0  0  0
 45 49  1  0  0  0  0
 45 50  1  0  0  0  0
 11 14  1  0  0  0  0
 11 15  1  0  0  0  0
 11 16  1  0  0  0  0
 52 54  1  0  0  0  0
 52 55  1  0  0  0  0
 52 56  1  0  0  0  0
 21 33  1  0  0  0  0
 21 34  1  0  0  0  0
 42 47  1  0  0  0  0
  8 13  1  0  0  0  0
 18 32  1  0  0  0  0
 25 36  1  0  0  0  0
 51 53  1  0  0  0  0
  7 12  1  0  0  0  0
 41 46  1  0  0  0  0
 17 31  1  0  0  0  0
M  END
$$$$

  -OEChem-05262214473D

 56 57  0     1  0  0  0  0  0999 V2000
   -2.2900    0.3401    4.1553 C   0  0  0  0  0  0  0  0  0  0  0  0
   -1.3426   -0.2746    3.6796 O   0  0  0  0  0  0  0  0  0  0  0  0
   -2.7219    0.0577    5.5560 C   0  0  0  0  0  0  0  0  0  0  0  0
   -3.4815   -0.7386    5.6094 H   0  0  0  0  0  0  0  0  0  0  0  0
   -1.8906   -0.2899    6.1903 H   0  0  0  0  0  0  0  0  0  0  0  0
   -3.1599    0.9126    6.0956 H   0  0  0  0  0  0  0  0  0  0  0  0
   -3.0397    1.3125    3.5142 N   0  0  0  0  0  0  0  0  0  0  0  0
   -2.7928    1.7385    2.1618 C   0  0  2  0  0  0  0  0  0  0  0  0
   -1.4579    1.1532    1.7206 C   0  0  0  0  0  0  0  0  0  0  0  0
   -0.5858    0.8004    2.5118 O   0  0  0  0  0  0  0  0  0  0  0  0
   -2.7841    3.2553    2.0523 C   0  0  0  0  0  0  0  0  0  0  0  0
   -3.8047    1.7484    4.0260 H   0  0  0  0  0  0  0  0  0  0  0  0
   -3.5969    1.3201    1.5466 H   0  0  0  0  0  0  0  0  0  0  0  0
   -1.9850    3.6926    2.6620 H   0  0  0  0  0  0  0  0  0  0  0  0
   -2.6246    3.5776    1.0180 H   0  0  0  0  0  0  0  0  0  0  0  0
   -3.7342    3.6765    2.3981 H   0  0  0  0  0  0  0  0  0  0  0  0
   -1.3352    1.1101    0.3372 N   0  0  0  0  0  0  0  0  0  0  0  0
   -0.1579    0.6093   -0.3265 C   0  0  2  0  0  0  0  0  0  0  0  0
   -0.1857   -0.9104   -0.2085 C   0  0  0  0  0  0  0  0  0  0  0  0
   -0.4357   -1.6507   -1.1573 O   0  0  0  0  0  0  0  0  0  0  0  0
    1.1327    1.1677    0.2841 C   0  0  0  0  0  0  0  0  0  0  0  0
    1.2904    2.6516    0.0590 C   0  0  0  0  0  0  0  0  0  0  0  0
    0.9565    3.6402    0.9557 C   0  0  0  0  0  0  0  0  0  0  0  0
    1.8081    3.2816   -1.1072 C   0  0  0  0  0  0  0  0  0  0  0  0
    1.2504    4.8475    0.3807 N   0  0  0  0  0  0  0  0  0  0  0  0
    1.7720    4.6590   -0.8793 C   0  0  0  0  0  0  0  0  0  0  0  0
    2.3055    2.8108   -2.3386 C   0  0  0  0  0  0  0  0  0  0  0  0
    2.2102    5.5927   -1.8250 C   0  0  0  0  0  0  0  0  0  0  0  0
    2.7474    3.7332   -3.2940 C   0  0  0  0  0  0  0  0  0  0  0  0
    2.6996    5.1024   -3.0390 C   0  0  0  0  0  0  0  0  0  0  0  0
   -2.1183    1.4068   -0.2401 H   0  0  0  0  0  0  0  0  0  0  0  0
   -0.2517    0.8890   -1.3824 H   0  0  0  0  0  0  0  0  0  0  0  0
    2.0054    0.6378   -0.1209 H   0  0  0  0  0  0  0  0  0  0  0  0
    1.1580    0.9794    1.3656 H   0  0  0  0  0  0  0  0  0  0  0  0
    0.5350    3.5941    1.9504 H   0  0  0  0  0  0  0  0  0  0  0  0
    1.1058    5.7474    0.8175 H   0  0  0  0  0  0  0  0  0  0  0  0
    2.3485    1.7467   -2.5530 H   0  0  0  0  0  0  0  0  0  0  0  0
    2.1744    6.6586   -1.6269 H   0  0  0  0  0  0  0  0  0  0  0  0
    3.1316    3.3761   -4.2457 H   0  0  0  0  0  0  0  0  0  0  0  0
    3.0480    5.8011   -3.7953 H   0  0  0  0  0  0  0  0  0  0  0  0
    0.1505   -1.3387    1.0682 N   0  0  0  0  0  0  0  0  0  0  0  0
    0.2225   -2.7322    1.4445 C   0  0  2  0  0  0  0  0  0  0  0  0
   -1.0649   -3.4087    0.9921 C   0  0  0  0  0  0  0  0  0  0  0  0
   -2.1093   -2.7938    0.7865 O   0  0  0  0  0  0  0  0  0  0  0  0
    0.4219   -2.8909    2.9438 C   0  0  0  0  0  0  0  0  0  0  0  0
    0.3562   -0.6373    1.7736 H   0  0  0  0  0  0  0  0  0  0  0  0
    1.0718   -3.1626    0.9028 H   0  0  0  0  0  0  0  0  0  0  0  0
   -0.4192   -2.4655    3.5033 H   0  0  0  0  0  0  0  0  0  0  0  0
    0.5049   -3.9463    3.2235 H   0  0  0  0  0  0  0  0  0  0  0  0
    1.3326   -2.3785    3.2722 H   0  0  0  0  0  0  0  0  0  0  0  0
   -0.9219   -4.7851    0.8864 N   0  0  0  0  0  0  0  0  0  0  0  0
   -2.0048   -5.6530    0.4863 C   0  0  0  0  0  0  0  0  0  0  0  0
   -0.0143   -5.2078    1.0577 H   0  0  0  0  0  0  0  0  0  0  0  0
   -2.5340   -6.0155    1.3799 H   0  0  0  0  0  0  0  0  0  0  0  0
   -2.7047   -5.0949   -0.1530 H   0  0  0  0  0  0  0  0  0  0  0  0
   -1.6005   -6.5096   -0.0730 H   0  0  0  0  0  0  0  0  0  0  0  0
 29 30  2  0  0  0  0
 27 29  1  0  0  0  0
 28 30  1  0  0  0  0
 24 27  2  0  0  0  0
 26 28  2  0  0  0  0
 22 23  2  0  0  0  0
 23 25  1  0  0  0  0
 22 24  1  0  0  0  0
 24 26  1  0  0  0  0
 21 22  1  0  0  0  0
 25 26  1  0  0  0  0
  1  3  1  0  0  0  0
  1  7  1  0  0  0  0
  1  2  2  0  0  0  0
 42 43  1  0  0  0  0
 43 51  1  0  0  0  0
 43 44  2  0  0  0  0
  8  9  1  0  0  0  0
  9 17  1  0  0  0  0
  9 10  2  0  0  0  0
 18 19  1  0  0  0  0
 19 41  1  0  0  0  0
 19 20  2  0  0  0  0
 42 45  1  0  0  0  0
  8 11  1  0  0  0  0
 51 52  1  0  0  0  0
 18 21  1  0  0  0  0
 41 42  1  0  0  0  0
  7  8  1  0  0  0  0
 17 18  1  0  0  0  0
 29 39  1  0  0  0  0
 30 40  1  0  0  0  0
 27 37  1  0  0  0  0
 28 38  1  0  0  0  0
 23 35  1  0  0  0  0
  3  4  1  0  0  0  0
  3  5  1  0  0  0  0
  3  6  1  0  0  0  0
 45 48  1  0  0  0  0
 45 49  1  0  0  0  0
 45 50  1  0  0  0  0
 11 14  1  0  0  0  0
 11 15  1  0  0  0  0
 11 16  1  0  0  0  0
 52 54  1  0  0  0  0
 52 55  1  0  0  0  0
 52 56  1  0  0  0  0
 21 33  1  0  0  0  0
 21 34  1  0  0  0  0
 42 47  1  0  0  0  0
  8 13  1  0  0  0  0
 18 32  1  0  0  0  0
 25 36  1  0  0  0  0
 51 53  1  0  0  0  0
  7 12  1  0  0  0  0
 41 46  1  0  0  0  0
 17 31  1  0  0  0  0
M  END
$$$$

  -OEChem-05262214473D

 56 57  0     1  0  0  0  0  0999 V2000
   -2.2900    0.3401    4.1553 C   0  0  0  0  0  0  0  0  0  0  0  0
   -1.3426   -0.2746    3.6796 O   0  0  0  0  0  0  0  0  0  0  0  0
   -2.7219    0.0577    5.5560 C   0  0  0  0  0  0  0  0  0  0  0  0
   -3.4815   -0.7386    5.6094 H   0  0  0  0  0  0  0  0  0  0  0  0
   -1.8906   -0.2899    6.1903 H   0  0  0  0  0  0  0  0  0  0  0  0
   -3.1599    0.9126    6.0956 H   0  0  0  0  0  0  0  0  0  0  0  0
   -3.0397    1.3125    3.5142 N   0  0  0  0  0  0  0  0  0  0  0  0
   -2.7928    1.7385    2.1618 C   0  0  2  0  0  0  0  0  0  0  0  0
   -1.4579    1.1532    1.7206 C   0  0  0  0  0  0  0  0  0  0  0  0
   -0.5858    0.8004    2.5118 O   0  0  0  0  0  0  0  0  0  0  0  0
   -2.7841    3.2553    2.0523 C   0  0  0  0  0  0  0  0  0  0  0  0
   -3.8047    1.7484    4.0260 H   0  0  0  0  0  0  0  0  0  0  0  0
   -3.5969    1.3201    1.5466 H   0  0  0  0  0  0  0  0  0  0  0  0
   -1.9850    3.6926    2.6620 H   0  0  0  0  0  0  0  0  0  0  0  0
   -2.6246    3.5776    1.0180 H   0  0  0  0  0  0  0  0  0  0  0  0
   -3.7342    3.6765    2.3981 H   0  0  0  0  0  0  0  0  0  0  0  0
   -1.3352    1.1101    0.3372 N   0  0  0  0  0  0  0  0  0  0  0  0
   -0.1579    0.6093   -0.3265 C   0  0  2  0  0  0  0  0  0  0  0  0
   -0.1857   -0.9104   -0.2085 C   0  0  0  0  0  0  0  0  0  0  0  0
   -0.1680   -1.6577   -1.1842 O   0  0  0  0  0  0  0  0  0  0  0  0
    1.1327    1.1677    0.2841 C   0  0  0  0  0  0  0  0  0  0  0  0
    1.2904    2.6516    0.0590 C   0  0  0  0  0  0  0  0  0  0  0  0
    0.9565    3.6402    0.9557 C   0  0  0  0  0  0  0  0  0  0  0  0
    1.8081    3.2816   -1.1072 C   0  0  0  0  0  0  0  0  0  0  0  0
    1.2504    4.8475    0.3807 N   0  0  0  0  0  0  0  0  0  0  0  0
    1.7720    4.6590   -0.8793 C   0  0  0  0  0  0  0  0  0  0  0  0
    2.3055    2.8108   -2.3386 C   0  0  0  0  0  0  0  0  0  0  0  0
    2.2102    5.5927   -1.8250 C   0  0  0  0  0  0  0  0  0  0  0  0
    2.7474    3.7332   -3.2940 C   0  0  0  0  0  0  0  0  0  0  0  0
    2.6996    5.1024   -3.0390 C   0  0  0  0  0  0  0  0  0  0  0  0
   -2.1183    1.4068   -0.2401 H   0  0  0  0  0  0  0  0  0  0  0  0
   -0.2517    0.8890   -1.3824 H   0  0  0  0  0  0  0  0  0  0  0  0
    2.0054    0.6378   -0.1209 H   0  0  0  0  0  0  0  0  0  0  0  0
    1.1580    0.9794    1.3656 H   0  0  0  0  0  0  0  0  0  0  0  0
    0.5350    3.5941    1.9504 H   0  0  0  0  0  0  0  0  0  0  0  0
    1.1058    5.7474    0.8175 H   0  0  0  0  0  0  0  0  0  0  0  0
    2.3485    1.7467   -2.5530 H   0  0  0  0  0  0  0  0  0  0  0  0
    2.1744    6.6586   -1.6269 H   0  0  0  0  0  0  0  0  0  0  0  0
    3.1316    3.3761   -4.2457 H   0  0  0  0  0  0  0  0  0  0  0  0
    3.0480    5.8011   -3.7953 H   0  0  0  0  0  0  0  0  0  0  0  0
   -0.1821   -1.3290    1.1149 N   0  0  0  0  0  0  0  0  0  0  0  0
   -0.1826   -2.7199    1.5072 C   0  0  2  0  0  0  0  0  0  0  0  0
   -1.2962   -3.4238    0.7430 C   0  0  0  0  0  0  0  0  0  0  0  0
   -2.2640   -2.8311    0.2705 O   0  0  0  0  0  0  0  0  0  0  0  0
   -0.3738   -2.8713    3.0083 C   0  0  0  0  0  0  0  0  0  0  0  0
   -0.1790   -0.6221    1.8443 H   0  0  0  0  0  0  0  0  0  0  0  0
    0.7859   -3.1338    1.2061 H   0  0  0  0  0  0  0  0  0  0  0  0
   -1.3389   -2.4622    3.3288 H   0  0  0  0  0  0  0  0  0  0  0  0
   -0.3453   -3.9242    3.3077 H   0  0  0  0  0  0  0  0  0  0  0  0
    0.4112   -2.3396    3.5567 H   0  0  0  0  0  0  0  0  0  0  0  0
   -1.1041   -4.7972    0.6879 N   0  0  0  0  0  0  0  0  0  0  0  0
   -2.0301   -5.6881    0.0284 C   0  0  0  0  0  0  0  0  0  0  0  0
   -0.2634   -5.2007    1.0906 H   0  0  0  0  0  0  0  0  0  0  0  0
   -2.7648   -6.0596    0.7579 H   0  0  0  0  0  0  0  0  0  0  0  0
   -2.5520   -5.1460   -0.7739 H   0  0  0  0  0  0  0  0  0  0  0  0
   -1.4786   -6.5373   -0.4014 H   0  0  0  0  0  0  0  0  0  0  0  0
 29 30  2  0  0  0  0
 27 29  1  0  0  0  0
 28 30  1  0  0  0  0
 24 27  2  0  0  0  0
 26 28  2  0  0  0  0
 22 23  2  0  0  0  0
 23 25  1  0  0  0  0
 22 24  1  0  0  0  0
 24 26  1  0  0  0  0
 21 22  1  0  0  0  0
 25 26  1  0  0  0  0
  1  3  1  0  0  0  0
  1  7  1  0  0  0  0
  1  2  2  0  0  0  0
 42 43  1  0  0  0  0
 43 51  1  0  0  0  0
 43 44  2  0  0  0  0
  8  9  1  0  0  0  0
  9 17  1  0  0  0  0
  9 10  2  0  0  0  0
 18 19  1  0  0  0  0
 19 41  1  0  0  0  0
 19 20  2  0  0  0  0
 42 45  1  0  0  0  0
  8 11  1  0  0  0  0
 51 52  1  0  0  0  0
 18 21  1  0  0  0  0
 41 42  1  0  0  0  0
  7  8  1  0  0  0  0
 17 18  1  0  0  0  0
 29 39  1  0  0  0  0
 30 40  1  0  0  0  0
 27 37  1  0  0  0  0
 28 38  1  0  0  0  0
 23 35  1  0  0  0  0
  3  4  1  0  0  0  0
  3  5  1  0  0  0  0
  3  6  1  0  0  0  0
 45 48  1  0  0  0  0
 45 49  1  0  0  0  0
 45 50  1  0  0  0  0
 11 14  1  0  0  0  0
 11 15  1  0  0  0  0
 11 16  1  0  0  0  0
 52 54  1  0  0  0  0
 52 55  1  0  0  0  0
 52 56  1  0  0  0  0
 21 33  1  0  0  0  0
 21 34  1  0  0  0  0
 42 47  1  0  0  0  0
  8 13  1  0  0  0  0
 18 32  1  0  0  0  0
 25 36  1  0  0  0  0
 51 53  1  0  0  0  0
  7 12  1  0  0  0  0
 41 46  1  0  0  0  0
 17 31  1  0  0  0  0
M  END
$$$$

  -OEChem-05262214473D

 56 57  0     1  0  0  0  0  0999 V2000
   -2.2900    0.3401    4.1553 C   0  0  0  0  0  0  0  0  0  0  0  0
   -1.3426   -0.2746    3.6796 O   0  0  0  0  0  0  0  0  0  0  0  0
   -2.7219    0.0577    5.5560 C   0  0  0  0  0  0  0  0  0  0  0  0
   -3.4815   -0.7386    5.6094 H   0  0  0  0  0  0  0  0  0  0  0  0
   -1.8906   -0.2899    6.1903 H   0  0  0  0  0  0  0  0  0  0  0  0
   -3.1599    0.9126    6.0956 H   0  0  0  0  0  0  0  0  0  0  0  0
   -3.0397    1.3125    3.5142 N   0  0  0  0  0  0  0  0  0  0  0  0
   -2.7928    1.7385    2.1618 C   0  0  2  0  0  0  0  0  0  0  0  0
   -1.4579    1.1532    1.7206 C   0  0  0  0  0  0  0  0  0  0  0  0
   -0.5858    0.8004    2.5118 O   0  0  0  0  0  0  0  0  0  0  0  0
   -2.7841    3.2553    2.0523 C   0  0  0  0  0  0  0  0  0  0  0  0
   -3.8047    1.7484    4.0260 H   0  0  0  0  0  0  0  0  0  0  0  0
   -3.5969    1.3201    1.5466 H   0  0  0  0  0  0  0  0  0  0  0  0
   -1.9850    3.6926    2.6620 H   0  0  0  0  0  0  0  0  0  0  0  0
   -2.6246    3.5776    1.0180 H   0  0  0  0  0  0  0  0  0  0  0  0
   -3.7342    3.6765    2.3981 H   0  0  0  0  0  0  0  0  0  0  0  0
   -1.3352    1.1101    0.3372 N   0  0  0  0  0  0  0  0  0  0  0  0
   -0.1579    0.6093   -0.3265 C   0  0  2  0  0  0  0  0  0  0  0  0
   -0.1857   -0.9104   -0.2085 C   0  0  0  0  0  0  0  0  0  0  0  0
    0.0977   -1.6592   -1.1411 O   0  0  0  0  0  0  0  0  0  0  0  0
    1.1327    1.1677    0.2841 C   0  0  0  0  0  0  0  0  0  0  0  0
    1.2904    2.6516    0.0590 C   0  0  0  0  0  0  0  0  0  0  0  0
    0.9565    3.6402    0.9557 C   0  0  0  0  0  0  0  0  0  0  0  0
    1.8081    3.2816   -1.1072 C   0  0  0  0  0  0  0  0  0  0  0  0
    1.2504    4.8475    0.3807 N   0  0  0  0  0  0  0  0  0  0  0  0
    1.7720    4.6590   -0.8793 C   0  0  0  0  0  0  0  0  0  0  0  0
    2.3055    2.8108   -2.3386 C   0  0  0  0  0  0  0  0  0  0  0  0
    2.2102    5.5927   -1.8250 C   0  0  0  0  0  0  0  0  0  0  0  0
    2.7474    3.7332   -3.2940 C   0  0  0  0  0  0  0  0  0  0  0  0
    2.6996    5.1024   -3.0390 C   0  0  0  0  0  0  0  0  0  0  0  0
   -2.1183    1.4068   -0.2401 H   0  0  0  0  0  0  0  0  0  0  0  0
   -0.2517    0.8890   -1.3824 H   0  0  0  0  0  0  0  0  0  0  0  0
    2.0054    0.6378   -0.1209 H   0  0  0  0  0  0  0  0  0  0  0  0
    1.1580    0.9794    1.3656 H   0  0  0  0  0  0  0  0  0  0  0  0
    0.5350    3.5941    1.9504 H   0  0  0  0  0  0  0  0  0  0  0  0
    1.1058    5.7474    0.8175 H   0  0  0  0  0  0  0  0  0  0  0  0
    2.3485    1.7467   -2.5530 H   0  0  0  0  0  0  0  0  0  0  0  0
    2.1744    6.6586   -1.6269 H   0  0  0  0  0  0  0  0  0  0  0  0
    3.1316    3.3761   -4.2457 H   0  0  0  0  0  0  0  0  0  0  0  0
    3.0480    5.8011   -3.7953 H   0  0  0  0  0  0  0  0  0  0  0  0
   -0.5156   -1.3260    1.0740 N   0  0  0  0  0  0  0  0  0  0  0  0
   -0.5904   -2.7159    1.4632 C   0  0  2  0  0  0  0  0  0  0  0  0
   -1.4551   -3.4442    0.4428 C   0  0  0  0  0  0  0  0  0  0  0  0
   -2.2795   -2.8726   -0.2677 O   0  0  0  0  0  0  0  0  0  0  0  0
   -1.1594   -2.8681    2.8653 C   0  0  0  0  0  0  0  0  0  0  0  0
   -0.7145   -0.6177    1.7744 H   0  0  0  0  0  0  0  0  0  0  0  0
    0.4309   -3.1103    1.4252 H   0  0  0  0  0  0  0  0  0  0  0  0
   -2.1822   -2.4783    2.9229 H   0  0  0  0  0  0  0  0  0  0  0  0
   -1.1888   -3.9195    3.1696 H   0  0  0  0  0  0  0  0  0  0  0  0
   -0.5530   -2.3190    3.5937 H   0  0  0  0  0  0  0  0  0  0  0  0
   -1.2287   -4.8134    0.4492 N   0  0  0  0  0  0  0  0  0  0  0  0
   -1.9356   -5.7246   -0.4202 C   0  0  0  0  0  0  0  0  0  0  0  0
   -0.5127   -5.1986    1.0581 H   0  0  0  0  0  0  0  0  0  0  0  0
   -2.8264   -6.1097    0.0977 H   0  0  0  0  0  0  0  0  0  0  0  0
   -2.2433   -5.1951   -1.3340 H   0  0  0  0  0  0  0  0  0  0  0  0
   -1.2756   -6.5632   -0.6870 H   0  0  0  0  0  0  0  0  0  0  0  0
 29 30  2  0  0  0  0
 27 29  1  0  0  0  0
 28 30  1  0  0  0  0
 24 27  2  0  0  0  0
 26 28  2  0  0  0  0
 22 23  2  0  0  0  0
 23 25  1  0  0  0  0
 22 24  1  0  0  0  0
 24 26  1  0  0  0  0
 21 22  1  0  0  0  0
 25 26  1  0  0  0  0
  1  3  1  0  0  0  0
  1  7  1  0  0  0  0
  1  2  2  0  0  0  0
 42 43  1  0  0  0  0
 43 51  1  0  0  0  0
 43 44  2  0  0  0  0
  8  9  1  0  0  0  0
  9 17  1  0  0  0  0
  9 10  2  0  0  0  0
 18 19  1  0  0  0  0
 19 41  1  0  0  0  0
 19 20  2  0  0  0  0
 42 45  1  0  0  0  0
  8 11  1  0  0  0  0
 51 52  1  0  0  0  0
 18 21  1  0  0  0  0
 41 42  1  0  0  0  0
  7  8  1  0  0  0  0
 17 18  1  0  0  0  0
 29 39  1  0  0  0  0
 30 40  1  0  0  0  0
 27 37  1  0  0  0  0
 28 38  1  0  0  0  0
 23 35  1  0  0  0  0
  3  4  1  0  0  0  0
  3  5  1  0  0  0  0
  3  6  1  0  0  0  0
 45 48  1  0  0  0  0
 45 49  1  0  0  0  0
 45 50  1  0  0  0  0
 11 14  1  0  0  0  0
 11 15  1  0  0  0  0
 11 16  1  0  0  0  0
 52 54  1  0  0  0  0
 52 55  1  0  0  0  0
 52 56  1  0  0  0  0
 21 33  1  0  0  0  0
 21 34  1  0  0  0  0
 42 47  1  0  0  0  0
  8 13  1  0  0  0  0
 18 32  1  0  0  0  0
 25 36  1  0  0  0  0
 51 53  1  0  0  0  0
  7 12  1  0  0  0  0
 41 46  1  0  0  0  0
 17 31  1  0  0  0  0
M  END
$$$$

  -OEChem-05262214473D

 56 57  0     1  0  0  0  0  0999 V2000
   -2.2900    0.3401    4.1553 C   0  0  0  0  0  0  0  0  0  0  0  0
   -1.3426   -0.2746    3.6796 O   0  0  0  0  0  0  0  0  0  0  0  0
   -2.7219    0.0577    5.5560 C   0  0  0  0  0  0  0  0  0  0  0  0
   -3.4815   -0.7386    5.6094 H   0  0  0  0  0  0  0  0  0  0  0  0
   -1.8906   -0.2899    6.1903 H   0  0  0  0  0  0  0  0  0  0  0  0
   -3.1599    0.9126    6.0956 H   0  0  0  0  0  0  0  0  0  0  0  0
   -3.0397    1.3125    3.5142 N   0  0  0  0  0  0  0  0  0  0  0  0
   -2.7928    1.7385    2.1618 C   0  0  2  0  0  0  0  0  0  0  0  0
   -1.4579    1.1532    1.7206 C   0  0  0  0  0  0  0  0  0  0  0  0
   -0.5858    0.8004    2.5118 O   0  0  0  0  0  0  0  0  0  0  0  0
   -2.7841    3.2553    2.0523 C   0  0  0  0  0  0  0  0  0  0  0  0
   -3.8047    1.7484    4.0260 H   0  0  0  0  0  0  0  0  0  0  0  0
   -3.5969    1.3201    1.5466 H   0  0  0  0  0  0  0  0  0  0  0  0
   -1.9850    3.6926    2.6620 H   0  0  0  0  0  0  0  0  0  0  0  0
   -2.6246    3.5776    1.0180 H   0  0  0  0  0  0  0  0  0  0  0  0
   -3.7342    3.6765    2.3981 H   0  0  0  0  0  0  0  0  0  0  0  0
   -1.3352    1.1101    0.3372 N   0  0  0  0  0  0  0  0  0  0  0  0
   -0.1579    0.6093   -0.3265 C   0  0  2  0  0  0  0  0  0  0  0  0
   -0.1857   -0.9104   -0.2085 C   0  0  0  0  0  0  0  0  0  0  0  0
    0.3433   -1.6552   -1.0309 O   0  0  0  0  0  0  0  0  0  0  0  0
    1.1327    1.1677    0.2841 C   0  0  0  0  0  0  0  0  0  0  0  0
    1.2904    2.6516    0.0590 C   0  0  0  0  0  0  0  0  0  0  0  0
    0.9565    3.6402    0.9557 C   0  0  0  0  0  0  0  0  0  0  0  0
    1.8081    3.2816   -1.1072 C   0  0  0  0  0  0  0  0  0  0  0  0
    1.2504    4.8475    0.3807 N   0  0  0  0  0  0  0  0  0  0  0  0
    1.7720    4.6590   -0.8793 C   0  0  0  0  0  0  0  0  0  0  0  0
    2.3055    2.8108   -2.3386 C   0  0  0  0  0  0  0  0  0  0  0  0
    2.2102    5.5927   -1.8250 C   0  0  0  0  0  0  0  0  0  0  0  0
    2.7474    3.7332   -3.2940 C   0  0  0  0  0  0  0  0  0  0  0  0
    2.6996    5.1024   -3.0390 C   0  0  0  0  0  0  0  0  0  0  0  0
   -2.1183    1.4068   -0.2401 H   0  0  0  0  0  0  0  0  0  0  0  0
   -0.2517    0.8890   -1.3824 H   0  0  0  0  0  0  0  0  0  0  0  0
    2.0054    0.6378   -0.1209 H   0  0  0  0  0  0  0  0  0  0  0  0
    1.1580    0.9794    1.3656 H   0  0  0  0  0  0  0  0  0  0  0  0
    0.5350    3.5941    1.9504 H   0  0  0  0  0  0  0  0  0  0  0  0
    1.1058    5.7474    0.8175 H   0  0  0  0  0  0  0  0  0  0  0  0
    2.3485    1.7467   -2.5530 H   0  0  0  0  0  0  0  0  0  0  0  0
    2.1744    6.6586   -1.6269 H   0  0  0  0  0  0  0  0  0  0  0  0
    3.1316    3.3761   -4.2457 H   0  0  0  0  0  0  0  0  0  0  0  0
    3.0480    5.8011   -3.7953 H   0  0  0  0  0  0  0  0  0  0  0  0
   -0.8273   -1.3301    0.9485 N   0  0  0  0  0  0  0  0  0  0  0  0
   -0.9729   -2.7204    1.3155 C   0  0  2  0  0  0  0  0  0  0  0  0
   -1.5308   -3.4685    0.1119 C   0  0  0  0  0  0  0  0  0  0  0  0
   -2.1548   -2.9155   -0.7914 O   0  0  0  0  0  0  0  0  0  0  0  0
   -1.8814   -2.8813    2.5244 C   0  0  0  0  0  0  0  0  0  0  0  0
   -1.2139   -0.6245    1.5686 H   0  0  0  0  0  0  0  0  0  0  0  0
    0.0310   -3.0937    1.5451 H   0  0  0  0  0  0  0  0  0  0  0  0
   -2.8918   -2.5126    2.3134 H   0  0  0  0  0  0  0  0  0  0  0  0
   -1.9679   -3.9325    2.8186 H   0  0  0  0  0  0  0  0  0  0  0  0
   -1.4943   -2.3184    3.3805 H   0  0  0  0  0  0  0  0  0  0  0  0
   -1.2871   -4.8327    0.1866 N   0  0  0  0  0  0  0  0  0  0  0  0
   -1.7279   -5.7602   -0.8291 C   0  0  0  0  0  0  0  0  0  0  0  0
   -0.7452   -5.2018    0.9624 H   0  0  0  0  0  0  0  0  0  0  0  0
   -2.7145   -6.1625   -0.5556 H   0  0  0  0  0  0  0  0  0  0  0  0
   -1.7996   -5.2390   -1.7951 H   0  0  0  0  0  0  0  0  0  0  0  0
   -1.0052   -6.5855   -0.9104 H   0  0  0  0  0  0  0  0  0  0  0  0
 29 30  2  0  0  0  0
 27 29  1  0  0  0  0
 28 30  1  0  0  0  0
 24 27  2  0  0  0  0
 26 28  2  0  0  0  0
 22 23  2  0  0  0  0
 23 25  1  0  0  0  0
 22 24  1  0  0  0  0
 24 26  1  0  0  0  0
 21 22  1  0  0  0  0
 25 26  1  0  0  0  0
  1  3  1  0  0  0  0
  1  7  1  0  0  0  0
  1  2  2  0  0  0  0
 42 43  1  0  0  0  0
 43 51  1  0  0  0  0
 43 44  2  0  0  0  0
  8  9  1  0  0  0  0
  9 17  1  0  0  0  0
  9 10  2  0  0  0  0
 18 19  1  0  0  0  0
 19 41  1  0  0  0  0
 19 20  2  0  0  0  0
 42 45  1  0  0  0  0
  8 11  1  0  0  0  0
 51 52  1  0  0  0  0
 18 21  1  0  0  0  0
 41 42  1  0  0  0  0
  7  8  1  0  0  0  0
 17 18  1  0  0  0  0
 29 39  1  0  0  0  0
 30 40  1  0  0  0  0
 27 37  1  0  0  0  0
 28 38  1  0  0  0  0
 23 35  1  0  0  0  0
  3  4  1  0  0  0  0
  3  5  1  0  0  0  0
  3  6  1  0  0  0  0
 45 48  1  0  0  0  0
 45 49  1  0  0  0  0
 45 50  1  0  0  0  0
 11 14  1  0  0  0  0
 11 15  1  0  0  0  0
 11 16  1  0  0  0  0
 52 54  1  0  0  0  0
 52 55  1  0  0  0  0
 52 56  1  0  0  0  0
 21 33  1  0  0  0  0
 21 34  1  0  0  0  0
 42 47  1  0  0  0  0
  8 13  1  0  0  0  0
 18 32  1  0  0  0  0
 25 36  1  0  0  0  0
 51 53  1  0  0  0  0
  7 12  1  0  0  0  0
 41 46  1  0  0  0  0
 17 31  1  0  0  0  0
M  END
$$$$

  -OEChem-05262214473D

 56 57  0     1  0  0  0  0  0999 V2000
   -2.2900    0.3401    4.1553 C   0  0  0  0  0  0  0  0  0  0  0  0
   -1.3426   -0.2746    3.6796 O   0  0  0  0  0  0  0  0  0  0  0  0
   -2.7219    0.0577    5.5560 C   0  0  0  0  0  0  0  0  0  0  0  0
   -3.4815   -0.7386    5.6094 H   0  0  0  0  0  0  0  0  0  0  0  0
   -1.8906   -0.2899    6.1903 H   0  0  0  0  0  0  0  0  0  0  0  0
   -3.1599    0.9126    6.0956 H   0  0  0  0  0  0  0  0  0  0  0  0
   -3.0397    1.3125    3.5142 N   0  0  0  0  0  0  0  0  0  0  0  0
   -2.7928    1.7385    2.1618 C   0  0  2  0  0  0  0  0  0  0  0  0
   -1.4579    1.1532    1.7206 C   0  0  0  0  0  0  0  0  0  0  0  0
   -0.5858    0.8004    2.5118 O   0  0  0  0  0  0  0  0  0  0  0  0
   -2.7841    3.2553    2.0523 C   0  0  0  0  0  0  0  0  0  0  0  0
   -3.8047    1.7484    4.0260 H   0  0  0  0  0  0  0  0  0  0  0  0
   -3.5969    1.3201    1.5466 H   0  0  0  0  0  0  0  0  0  0  0  0
   -1.9850    3.6926    2.6620 H   0  0  0  0  0  0  0  0  0  0  0  0
   -2.6246    3.5776    1.0180 H   0  0  0  0  0  0  0  0  0  0  0  0
   -3.7342    3.6765    2.3981 H   0  0  0  0  0  0  0  0  0  0  0  0
   -1.3352    1.1101    0.3372 N   0  0  0  0  0  0  0  0  0  0  0  0
   -0.1579    0.6093   -0.3265 C   0  0  2  0  0  0  0  0  0  0  0  0
   -0.1857   -0.9104   -0.2085 C   0  0  0  0  0  0  0  0  0  0  0  0
    0.5519   -1.6458   -0.8611 O   0  0  0  0  0  0  0  0  0  0  0  0
    1.1327    1.1677    0.2841 C   0  0  0  0  0  0  0  0  0  0  0  0
    1.2904    2.6516    0.0590 C   0  0  0  0  0  0  0  0  0  0  0  0
    0.9565    3.6402    0.9557 C   0  0  0  0  0  0  0  0  0  0  0  0
    1.8081    3.2816   -1.1072 C   0  0  0  0  0  0  0  0  0  0  0  0
    1.2504    4.8475    0.3807 N   0  0  0  0  0  0  0  0  0  0  0  0
    1.7720    4.6590   -0.8793 C   0  0  0  0  0  0  0  0  0  0  0  0
    2.3055    2.8108   -2.3386 C   0  0  0  0  0  0  0  0  0  0  0  0
    2.2102    5.5927   -1.8250 C   0  0  0  0  0  0  0  0  0  0  0  0
    2.7474    3.7332   -3.2940 C   0  0  0  0  0  0  0  0  0  0  0  0
    2.6996    5.1024   -3.0390 C   0  0  0  0  0  0  0  0  0  0  0  0
   -2.1183    1.4068   -0.2401 H   0  0  0  0  0  0  0  0  0  0  0  0
   -0.2517    0.8890   -1.3824 H   0  0  0  0  0  0  0  0  0  0  0  0
    2.0054    0.6378   -0.1209 H   0  0  0  0  0  0  0  0  0  0  0  0
    1.1580    0.9794    1.3656 H   0  0  0  0  0  0  0  0  0  0  0  0
    0.5350    3.5941    1.9504 H   0  0  0  0  0  0  0  0  0  0  0  0
    1.1058    5.7474    0.8175 H   0  0  0  0  0  0  0  0  0  0  0  0
    2.3485    1.7467   -2.5530 H   0  0  0  0  0  0  0  0  0  0  0  0
    2.1744    6.6586   -1.6269 H   0  0  0  0  0  0  0  0  0  0  0  0
    3.1316    3.3761   -4.2457 H   0  0  0  0  0  0  0  0  0  0  0  0
    3.0480    5.8011   -3.7953 H   0  0  0  0  0  0  0  0  0  0  0  0
   -1.0958   -1.3408    0.7470 N   0  0  0  0  0  0  0  0  0  0  0  0
   -1.3042   -2.7330    1.0741 C   0  0  2  0  0  0  0  0  0  0  0  0
   -1.5180   -3.4950   -0.2271 C   0  0  0  0  0  0  0  0  0  0  0  0
   -1.8984   -2.9570   -1.2648 O   0  0  0  0  0  0  0  0  0  0  0  0
   -2.4906   -2.9102    2.0089 C   0  0  0  0  0  0  0  0  0  0  0  0
   -1.6430   -0.6421    1.2411 H   0  0  0  0  0  0  0  0  0  0  0  0
   -0.3865   -3.0851    1.5577 H   0  0  0  0  0  0  0  0  0  0  0  0
   -3.4193   -2.5629    1.5417 H   0  0  0  0  0  0  0  0  0  0  0  0
   -2.6296   -3.9623    2.2785 H   0  0  0  0  0  0  0  0  0  0  0  0
   -2.3485   -2.3376    2.9318 H   0  0  0  0  0  0  0  0  0  0  0  0
   -1.2754   -4.8538   -0.0821 N   0  0  0  0  0  0  0  0  0  0  0  0
   -1.4211   -5.7923   -1.1702 C   0  0  0  0  0  0  0  0  0  0  0  0
   -0.9449   -5.2100    0.8099 H   0  0  0  0  0  0  0  0  0  0  0  0
   -2.4369   -6.2143   -1.1576 H   0  0  0  0  0  0  0  0  0  0  0  0
   -1.2511   -5.2747   -2.1259 H   0  0  0  0  0  0  0  0  0  0  0  0
   -0.6860   -6.6026   -1.0563 H   0  0  0  0  0  0  0  0  0  0  0  0
 29 30  2  0  0  0  0
 27 29  1  0  0  0  0
 28 30  1  0  0  0  0
 24 27  2  0  0  0  0
 26 28  2  0  0  0  0
 22 23  2  0  0  0  0
 23 25  1  0  0  0  0
 22 24  1  0  0  0  0
 24 26  1  0  0  0  0
 21 22  1  0  0  0  0
 25 26  1  0  0  0  0
  1  3  1  0  0  0  0
  1  7  1  0  0  0  0
  1  2  2  0  0  0  0
 42 43  1  0  0  0  0
 43 51  1  0  0  0  0
 43 44  2  0  0  0  0
  8  9  1  0  0  0  0
  9 17  1  0  0  0  0
  9 10  2  0  0  0  0
 18 19  1  0  0  0  0
 19 41  1  0  0  0  0
 19 20  2  0  0  0  0
 42 45  1  0  0  0  0
  8 11  1  0  0  0  0
 51 52  1  0  0  0  0
 18 21  1  0  0  0  0
 41 42  1  0  0  0  0
  7  8  1  0  0  0  0
 17 18  1  0  0  0  0
 29 39  1  0  0  0  0
 30 40  1  0  0  0  0
 27 37  1  0  0  0  0
 28 38  1  0  0  0  0
 23 35  1  0  0  0  0
  3  4  1  0  0  0  0
  3  5  1  0  0  0  0
  3  6  1  0  0  0  0
 45 48  1  0  0  0  0
 45 49  1  0  0  0  0
 45 50  1  0  0  0  0
 11 14  1  0  0  0  0
 11 15  1  0  0  0  0
 11 16  1  0  0  0  0
 52 54  1  0  0  0  0
 52 55  1  0  0  0  0
 52 56  1  0  0  0  0
 21 33  1  0  0  0  0
 21 34  1  0  0  0  0
 42 47  1  0  0  0  0
  8 13  1  0  0  0  0
 18 32  1  0  0  0  0
 25 36  1  0  0  0  0
 51 53  1  0  0  0  0
  7 12  1  0  0  0  0
 41 46  1  0  0  0  0
 17 31  1  0  0  0  0
M  END
$$$$

  -OEChem-05262214473D

 56 57  0     1  0  0  0  0  0999 V2000
   -2.2900    0.3401    4.1553 C   0  0  0  0  0  0  0  0  0  0  0  0
   -1.3426   -0.2746    3.6796 O   0  0  0  0  0  0  0  0  0  0  0  0
   -2.7219    0.0577    5.5560 C   0  0  0  0  0  0  0  0  0  0  0  0
   -3.4815   -0.7386    5.6094 H   0  0  0  0  0  0  0  0  0  0  0  0
   -1.8906   -0.2899    6.1903 H   0  0  0  0  0  0  0  0  0  0  0  0
   -3.1599    0.9126    6.0956 H   0  0  0  0  0  0  0  0  0  0  0  0
   -3.0397    1.3125    3.5142 N   0  0  0  0  0  0  0  0  0  0  0  0
   -2.7928    1.7385    2.1618 C   0  0  2  0  0  0  0  0  0  0  0  0
   -1.4579    1.1532    1.7206 C   0  0  0  0  0  0  0  0  0  0  0  0
   -0.5858    0.8004    2.5118 O   0  0  0  0  0  0  0  0  0  0  0  0
   -2.7841    3.2553    2.0523 C   0  0  0  0  0  0  0  0  0  0  0  0
   -3.8047    1.7484    4.0260 H   0  0  0  0  0  0  0  0  0  0  0  0
   -3.5969    1.3201    1.5466 H   0  0  0  0  0  0  0  0  0  0  0  0
   -1.9850    3.6926    2.6620 H   0  0  0  0  0  0  0  0  0  0  0  0
   -2.6246    3.5776    1.0180 H   0  0  0  0  0  0  0  0  0  0  0  0
   -3.7342    3.6765    2.3981 H   0  0  0  0  0  0  0  0  0  0  0  0
   -1.3352    1.1101    0.3372 N   0  0  0  0  0  0  0  0  0  0  0  0
   -0.1579    0.6093   -0.3265 C   0  0  2  0  0  0  0  0  0  0  0  0
   -0.1857   -0.9104   -0.2085 C   0  0  0  0  0  0  0  0  0  0  0  0
    0.7095   -1.6318   -0.6433 O   0  0  0  0  0  0  0  0  0  0  0  0
    1.1327    1.1677    0.2841 C   0  0  0  0  0  0  0  0  0  0  0  0
    1.2904    2.6516    0.0590 C   0  0  0  0  0  0  0  0  0  0  0  0
    0.9565    3.6402    0.9557 C   0  0  0  0  0  0  0  0  0  0  0  0
    1.8081    3.2816   -1.1072 C   0  0  0  0  0  0  0  0  0  0  0  0
    1.2504    4.8475    0.3807 N   0  0  0  0  0  0  0  0  0  0  0  0
    1.7720    4.6590   -0.8793 C   0  0  0  0  0  0  0  0  0  0  0  0
    2.3055    2.8108   -2.3386 C   0  0  0  0  0  0  0  0  0  0  0  0
    2.2102    5.5927   -1.8250 C   0  0  0  0  0  0  0  0  0  0  0  0
    2.7474    3.7332   -3.2940 C   0  0  0  0  0  0  0  0  0  0  0  0
    2.6996    5.1024   -3.0390 C   0  0  0  0  0  0  0  0  0  0  0  0
   -2.1183    1.4068   -0.2401 H   0  0  0  0  0  0  0  0  0  0  0  0
   -0.2517    0.8890   -1.3824 H   0  0  0  0  0  0  0  0  0  0  0  0
    2.0054    0.6378   -0.1209 H   0  0  0  0  0  0  0  0  0  0  0  0
    1.1580    0.9794    1.3656 H   0  0  0  0  0  0  0  0  0  0  0  0
    0.5350    3.5941    1.9504 H   0  0  0  0  0  0  0  0  0  0  0  0
    1.1058    5.7474    0.8175 H   0  0  0  0  0  0  0  0  0  0  0  0
    2.3485    1.7467   -2.5530 H   0  0  0  0  0  0  0  0  0  0  0  0
    2.1744    6.6586   -1.6269 H   0  0  0  0  0  0  0  0  0  0  0  0
    3.1316    3.3761   -4.2457 H   0  0  0  0  0  0  0  0  0  0  0  0
    3.0480    5.8011   -3.7953 H   0  0  0  0  0  0  0  0  0  0  0  0
   -1.3030   -1.3575    0.4830 N   0  0  0  0  0  0  0  0  0  0  0  0
   -1.5617   -2.7531    0.7555 C   0  0  2  0  0  0  0  0  0  0  0  0
   -1.4176   -3.5220   -0.5511 C   0  0  0  0  0  0  0  0  0  0  0  0
   -1.5278   -2.9941   -1.6558 O   0  0  0  0  0  0  0  0  0  0  0  0
   -2.9455   -2.9527    1.3540 C   0  0  0  0  0  0  0  0  0  0  0  0
   -1.9726   -0.6692    0.8141 H   0  0  0  0  0  0  0  0  0  0  0  0
   -0.7932   -3.0851    1.4620 H   0  0  0  0  0  0  0  0  0  0  0  0
   -3.7287   -2.6257    0.6604 H   0  0  0  0  0  0  0  0  0  0  0  0
   -3.1289   -4.0069    1.5863 H   0  0  0  0  0  0  0  0  0  0  0  0
   -3.0575   -2.3753    2.2780 H   0  0  0  0  0  0  0  0  0  0  0  0
   -1.1943   -4.8752   -0.3385 N   0  0  0  0  0  0  0  0  0  0  0  0
   -1.0361   -5.8187   -1.4204 C   0  0  0  0  0  0  0  0  0  0  0  0
   -1.0984   -5.2226    0.6112 H   0  0  0  0  0  0  0  0  0  0  0  0
   -2.0123   -6.2617   -1.6671 H   0  0  0  0  0  0  0  0  0  0  0  0
   -0.6354   -5.2998   -2.3037 H   0  0  0  0  0  0  0  0  0  0  0  0
   -0.3397   -6.6135   -1.1148 H   0  0  0  0  0  0  0  0  0  0  0  0
 29 30  2  0  0  0  0
 27 29  1  0  0  0  0
 28 30  1  0  0  0  0
 24 27  2  0  0  0  0
 26 28  2  0  0  0  0
 22 23  2  0  0  0  0
 23 25  1  0  0  0  0
 22 24  1  0  0  0  0
 24 26  1  0  0  0  0
 21 22  1  0  0  0  0
 25 26  1  0  0  0  0
  1  3  1  0  0  0  0
  1  7  1  0  0  0  0
  1  2  2  0  0  0  0
 42 43  1  0  0  0  0
 43 51  1  0  0  0  0
 43 44  2  0  0  0  0
  8  9  1  0  0  0  0
  9 17  1  0  0  0  0
  9 10  2  0  0  0  0
 18 19  1  0  0  0  0
 19 41  1  0  0  0  0
 19 20  2  0  0  0  0
 42 45  1  0  0  0  0
  8 11  1  0  0  0  0
 51 52  1  0  0  0  0
 18 21  1  0  0  0  0
 41 42  1  0  0  0  0
  7  8  1  0  0  0  0
 17 18  1  0  0  0  0
 29 39  1  0  0  0  0
 30 40  1  0  0  0  0
 27 37  1  0  0  0  0
 28 38  1  0  0  0  0
 23 35  1  0  0  0  0
  3  4  1  0  0  0  0
  3  5  1  0  0  0  0
  3  6  1  0  0  0  0
 45 48  1  0  0  0  0
 45 49  1  0  0  0  0
 45 50  1  0  0  0  0
 11 14  1  0  0  0  0
 11 15  1  0  0  0  0
 11 16  1  0  0  0  0
 52 54  1  0  0  0  0
 52 55  1  0  0  0  0
 52 56  1  0  0  0  0
 21 33  1  0  0  0  0
 21 34  1  0  0  0  0
 42 47  1  0  0  0  0
  8 13  1  0  0  0  0
 18 32  1  0  0  0  0
 25 36  1  0  0  0  0
 51 53  1  0  0  0  0
  7 12  1  0  0  0  0
 41 46  1  0  0  0  0
 17 31  1  0  0  0  0
M  END
$$$$

  -OEChem-05262214473D

 56 57  0     1  0  0  0  0  0999 V2000
   -2.2900    0.3401    4.1553 C   0  0  0  0  0  0  0  0  0  0  0  0
   -1.3426   -0.2746    3.6796 O   0  0  0  0  0  0  0  0  0  0  0  0
   -2.7219    0.0577    5.5560 C   0  0  0  0  0  0  0  0  0  0  0  0
   -3.4815   -0.7386    5.6094 H   0  0  0  0  0  0  0  0  0  0  0  0
   -1.8906   -0.2899    6.1903 H   0  0  0  0  0  0  0  0  0  0  0  0
   -3.1599    0.9126    6.0956 H   0  0  0  0  0  0  0  0  0  0  0  0
   -3.0397    1.3125    3.5142 N   0  0  0  0  0  0  0  0  0  0  0  0
   -2.7928    1.7385    2.1618 C   0  0  2  0  0  0  0  0  0  0  0  0
   -1.4579    1.1532    1.7206 C   0  0  0  0  0  0  0  0  0  0  0  0
   -0.5858    0.8004    2.5118 O   0  0  0  0  0  0  0  0  0  0  0  0
   -2.7841    3.2553    2.0523 C   0  0  0  0  0  0  0  0  0  0  0  0
   -3.8047    1.7484    4.0260 H   0  0  0  0  0  0  0  0  0  0  0  0
   -3.5969    1.3201    1.5466 H   0  0  0  0  0  0  0  0  0  0  0  0
   -1.9850    3.6926    2.6620 H   0  0  0  0  0  0  0  0  0  0  0  0
   -2.6246    3.5776    1.0180 H   0  0  0  0  0  0  0  0  0  0  0  0
   -3.7342    3.6765    2.3981 H   0  0  0  0  0  0  0  0  0  0  0  0
   -1.3352    1.1101    0.3372 N   0  0  0  0  0  0  0  0  0  0  0  0
   -0.1579    0.6093   -0.3265 C   0  0  2  0  0  0  0  0  0  0  0  0
   -0.1857   -0.9104   -0.2085 C   0  0  0  0  0  0  0  0  0  0  0  0
    0.8052   -1.6141   -0.3924 O   0  0  0  0  0  0  0  0  0  0  0  0
    1.1327    1.1677    0.2841 C   0  0  0  0  0  0  0  0  0  0  0  0
    1.2904    2.6516    0.0590 C   0  0  0  0  0  0  0  0  0  0  0  0
    0.9565    3.6402    0.9557 C   0  0  0  0  0  0  0  0  0  0  0  0
    1.8081    3.2816   -1.1072 C   0  0  0  0  0  0  0  0  0  0  0  0
    1.2504    4.8475    0.3807 N   0  0  0  0  0  0  0  0  0  0  0  0
    1.7720    4.6590   -0.8793 C   0  0  0  0  0  0  0  0  0  0  0  0
    2.3055    2.8108   -2.3386 C   0  0  0  0  0  0  0  0  0  0  0  0
    2.2102    5.5927   -1.8250 C   0  0  0  0  0  0  0  0  0  0  0  0
    2.7474    3.7332   -3.2940 C   0  0  0  0  0  0  0  0  0  0  0  0
    2.6996    5.1024   -3.0390 C   0  0  0  0  0  0  0  0  0  0  0  0
   -2.1183    1.4068   -0.2401 H   0  0  0  0  0  0  0  0  0  0  0  0
   -0.2517    0.8890   -1.3824 H   0  0  0  0  0  0  0  0  0  0  0  0
    2.0054    0.6378   -0.1209 H   0  0  0  0  0  0  0  0  0  0  0  0
    1.1580    0.9794    1.3656 H   0  0  0  0  0  0  0  0  0  0  0  0
    0.5350    3.5941    1.9504 H   0  0  0  0  0  0  0  0  0  0  0  0
    1.1058    5.7474    0.8175 H   0  0  0  0  0  0  0  0  0  0  0  0
    2.3485    1.7467   -2.5530 H   0  0  0  0  0  0  0  0  0  0  0  0
    2.1744    6.6586   -1.6269 H   0  0  0  0  0  0  0  0  0  0  0  0
    3.1316    3.3761   -4.2457 H   0  0  0  0  0  0  0  0  0  0  0  0
    3.0480    5.8011   -3.7953 H   0  0  0  0  0  0  0  0  0  0  0  0
   -1.4347   -1.3790    0.1746 N   0  0  0  0  0  0  0  0  0  0  0  0
   -1.7278   -2.7791    0.3815 C   0  0  2  0  0  0  0  0  0  0  0  0
   -1.2365   -3.5476   -0.8381 C   0  0  0  0  0  0  0  0  0  0  0  0
   -1.0681   -3.0244   -1.9376 O   0  0  0  0  0  0  0  0  0  0  0  0
   -3.2150   -3.0060    0.6042 C   0  0  0  0  0  0  0  0  0  0  0  0
   -2.1803   -0.7040    0.3168 H   0  0  0  0  0  0  0  0  0  0  0  0
   -1.1613   -3.0936    1.2647 H   0  0  0  0  0  0  0  0  0  0  0  0
   -3.7990   -2.6966   -0.2703 H   0  0  0  0  0  0  0  0  0  0  0  0
   -3.4317   -4.0633    0.7891 H   0  0  0  0  0  0  0  0  0  0  0  0
   -3.5729   -2.4291    1.4638 H   0  0  0  0  0  0  0  0  0  0  0  0
   -1.0495   -4.8954   -0.5651 N   0  0  0  0  0  0  0  0  0  0  0  0
   -0.5991   -5.8378   -1.5627 C   0  0  0  0  0  0  0  0  0  0  0  0
   -1.1951   -5.2388    0.3797 H   0  0  0  0  0  0  0  0  0  0  0  0
   -1.4698   -6.3013   -2.0495 H   0  0  0  0  0  0  0  0  0  0  0  0
    0.0058   -5.3125   -2.3164 H   0  0  0  0  0  0  0  0  0  0  0  0
    0.0101   -6.6174   -1.0819 H   0  0  0  0  0  0  0  0  0  0  0  0
 29 30  2  0  0  0  0
 27 29  1  0  0  0  0
 28 30  1  0  0  0  0
 24 27  2  0  0  0  0
 26 28  2  0  0  0  0
 22 23  2  0  0  0  0
 23 25  1  0  0  0  0
 22 24  1  0  0  0  0
 24 26  1  0  0  0  0
 21 22  1  0  0  0  0
 25 26  1  0  0  0  0
  1  3  1  0  0  0  0
  1  7  1  0  0  0  0
  1  2  2  0  0  0  0
 42 43  1  0  0  0  0
 43 51  1  0  0  0  0
 43 44  2  0  0  0  0
  8  9  1  0  0  0  0
  9 17  1  0  0  0  0
  9 10  2  0  0  0  0
 18 19  1  0  0  0  0
 19 41  1  0  0  0  0
 19 20  2  0  0  0  0
 42 45  1  0  0  0  0
  8 11  1  0  0  0  0
 51 52  1  0  0  0  0
 18 21  1  0  0  0  0
 41 42  1  0  0  0  0
  7  8  1  0  0  0  0
 17 18  1  0  0  0  0
 29 39  1  0  0  0  0
 30 40  1  0  0  0  0
 27 37  1  0  0  0  0
 28 38  1  0  0  0  0
 23 35  1  0  0  0  0
  3  4  1  0  0  0  0
  3  5  1  0  0  0  0
  3  6  1  0  0  0  0
 45 48  1  0  0  0  0
 45 49  1  0  0  0  0
 45 50  1  0  0  0  0
 11 14  1  0  0  0  0
 11 15  1  0  0  0  0
 11 16  1  0  0  0  0
 52 54  1  0  0  0  0
 52 55  1  0  0  0  0
 52 56  1  0  0  0  0
 21 33  1  0  0  0  0
 21 34  1  0  0  0  0
 42 47  1  0  0  0  0
  8 13  1  0  0  0  0
 18 32  1  0  0  0  0
 25 36  1  0  0  0  0
 51 53  1  0  0  0  0
  7 12  1  0  0  0  0
 41 46  1  0  0  0  0
 17 31  1  0  0  0  0
M  END
$$$$

  -OEChem-05262214473D

 56 57  0     1  0  0  0  0  0999 V2000
   -2.2900    0.3401    4.1553 C   0  0  0  0  0  0  0  0  0  0  0  0
   -1.3426   -0.2746    3.6796 O   0  0  0  0  0  0  0  0  0  0  0  0
   -2.7219    0.0577    5.5560 C   0  0  0  0  0  0  0  0  0  0  0  0
   -3.4815   -0.7386    5.6094 H   0  0  0  0  0  0  0  0  0  0  0  0
   -1.8906   -0.2899    6.1903 H   0  0  0  0  0  0  0  0  0  0  0  0
   -3.1599    0.9126    6.0956 H   0  0  0  0  0  0  0  0  0  0  0  0
   -3.0397    1.3125    3.5142 N   0  0  0  0  0  0  0  0  0  0  0  0
   -2.7928    1.7385    2.1618 C   0  0  2  0  0  0  0  0  0  0  0  0
   -1.4579    1.1532    1.7206 C   0  0  0  0  0  0  0  0  0  0  0  0
   -0.5858    0.8004    2.5118 O   0  0  0  0  0  0  0  0  0  0  0  0
   -2.7841    3.2553    2.0523 C   0  0  0  0  0  0  0  0  0  0  0  0
   -3.8047    1.7484    4.0260 H   0  0  0  0  0  0  0  0  0  0  0  0
   -3.5969    1.3201    1.5466 H   0  0  0  0  0  0  0  0  0  0  0  0
   -1.9850    3.6926    2.6620 H   0  0  0  0  0  0  0  0  0  0  0  0
   -2.6246    3.5776    1.0180 H   0  0  0  0  0  0  0  0  0  0  0  0
   -3.7342    3.6765    2.3981 H   0  0  0  0  0  0  0  0  0  0  0  0
   -1.3352    1.1101    0.3372 N   0  0  0  0  0  0  0  0  0  0  0  0
   -0.1579    0.6093   -0.3265 C   0  0  2  0  0  0  0  0  0  0  0  0
   -0.1857   -0.9104   -0.2085 C   0  0  0  0  0  0  0  0  0  0  0  0
    0.8326   -1.5938   -0.1254 O   0  0  0  0  0  0  0  0  0  0  0  0
    1.1327    1.1677    0.2841 C   0  0  0  0  0  0  0  0  0  0  0  0
    1.2904    2.6516    0.0590 C   0  0  0  0  0  0  0  0  0  0  0  0
    0.9565    3.6402    0.9557 C   0  0  0  0  0  0  0  0  0  0  0  0
    1.8081    3.2816   -1.1072 C   0  0  0  0  0  0  0  0  0  0  0  0
    1.2504    4.8475    0.3807 N   0  0  0  0  0  0  0  0  0  0  0  0
    1.7720    4.6590   -0.8793 C   0  0  0  0  0  0  0  0  0  0  0  0
    2.3055    2.8108   -2.3386 C   0  0  0  0  0  0  0  0  0  0  0  0
    2.2102    5.5927   -1.8250 C   0  0  0  0  0  0  0  0  0  0  0  0
    2.7474    3.7332   -3.2940 C   0  0  0  0  0  0  0  0  0  0  0  0
    2.6996    5.1024   -3.0390 C   0  0  0  0  0  0  0  0  0  0  0  0
   -2.1183    1.4068   -0.2401 H   0  0  0  0  0  0  0  0  0  0  0  0
   -0.2517    0.8890   -1.3824 H   0  0  0  0  0  0  0  0  0  0  0  0
    2.0054    0.6378   -0.1209 H   0  0  0  0  0  0  0  0  0  0  0  0
    1.1580    0.9794    1.3656 H   0  0  0  0  0  0  0  0  0  0  0  0
    0.5350    3.5941    1.9504 H   0  0  0  0  0  0  0  0  0  0  0  0
    1.1058    5.7474    0.8175 H   0  0  0  0  0  0  0  0  0  0  0  0
    2.3485    1.7467   -2.5530 H   0  0  0  0  0  0  0  0  0  0  0  0
    2.1744    6.6586   -1.6269 H   0  0  0  0  0  0  0  0  0  0  0  0
    3.1316    3.3761   -4.2457 H   0  0  0  0  0  0  0  0  0  0  0  0
    3.0480    5.8011   -3.7953 H   0  0  0  0  0  0  0  0  0  0  0  0
   -1.4820   -1.4039   -0.1571 N   0  0  0  0  0  0  0  0  0  0  0  0
   -1.7913   -2.8093   -0.0225 C   0  0  2  0  0  0  0  0  0  0  0  0
   -0.9871   -3.5701   -1.0684 C   0  0  0  0  0  0  0  0  0  0  0  0
   -0.5508   -3.0458   -2.0911 O   0  0  0  0  0  0  0  0  0  0  0  0
   -3.2808   -3.0664   -0.1894 C   0  0  0  0  0  0  0  0  0  0  0  0
   -2.2520   -0.7442   -0.2170 H   0  0  0  0  0  0  0  0  0  0  0  0
   -1.4659   -3.1102    0.9792 H   0  0  0  0  0  0  0  0  0  0  0  0
   -3.6253   -2.7710   -1.1871 H   0  0  0  0  0  0  0  0  0  0  0  0
   -3.5173   -4.1276   -0.0588 H   0  0  0  0  0  0  0  0  0  0  0  0
   -3.8595   -2.4953    0.5446 H   0  0  0  0  0  0  0  0  0  0  0  0
   -0.8507   -4.9132   -0.7465 N   0  0  0  0  0  0  0  0  0  0  0  0
   -0.1399   -5.8481   -1.5872 C   0  0  0  0  0  0  0  0  0  0  0  0
   -1.2285   -5.2575    0.1312 H   0  0  0  0  0  0  0  0  0  0  0  0
   -0.8464   -6.3305   -2.2788 H   0  0  0  0  0  0  0  0  0  0  0  0
    0.6287   -5.3120   -2.1633 H   0  0  0  0  0  0  0  0  0  0  0  0
    0.3396   -6.6139   -0.9599 H   0  0  0  0  0  0  0  0  0  0  0  0
 29 30  2  0  0  0  0
 27 29  1  0  0  0  0
 28 30  1  0  0  0  0
 24 27  2  0  0  0  0
 26 28  2  0  0  0  0
 22 23  2  0  0  0  0
 23 25  1  0  0  0  0
 22 24  1  0  0  0  0
 24 26  1  0  0  0  0
 21 22  1  0  0  0  0
 25 26  1  0  0  0  0
  1  3  1  0  0  0  0
  1  7  1  0  0  0  0
  1  2  2  0  0  0  0
 42 43  1  0  0  0  0
 43 51  1  0  0  0  0
 43 44  2  0  0  0  0
  8  9  1  0  0  0  0
  9 17  1  0  0  0  0
  9 10  2  0  0  0  0
 18 19  1  0  0  0  0
 19 41  1  0  0  0  0
 19 20  2  0  0  0  0
 42 45  1  0  0  0  0
  8 11  1  0  0  0  0
 51 52  1  0  0  0  0
 18 21  1  0  0  0  0
 41 42  1  0  0  0  0
  7  8  1  0  0  0  0
 17 18  1  0  0  0  0
 29 39  1  0  0  0  0
 30 40  1  0  0  0  0
 27 37  1  0  0  0  0
 28 38  1  0  0  0  0
 23 35  1  0  0  0  0
  3  4  1  0  0  0  0
  3  5  1  0  0  0  0
  3  6  1  0  0  0  0
 45 48  1  0  0  0  0
 45 49  1  0  0  0  0
 45 50  1  0  0  0  0
 11 14  1  0  0  0  0
 11 15  1  0  0  0  0
 11 16  1  0  0  0  0
 52 54  1  0  0  0  0
 52 55  1  0  0  0  0
 52 56  1  0  0  0  0
 21 33  1  0  0  0  0
 21 34  1  0  0  0  0
 42 47  1  0  0  0  0
  8 13  1  0  0  0  0
 18 32  1  0  0  0  0
 25 36  1  0  0  0  0
 51 53  1  0  0  0  0
  7 12  1  0  0  0  0
 41 46  1  0  0  0  0
 17 31  1  0  0  0  0
M  END
$$$$

  -OEChem-05262214473D

 56 57  0     1  0  0  0  0  0999 V2000
   -2.2900    0.3401    4.1553 C   0  0  0  0  0  0  0  0  0  0  0  0
   -1.3426   -0.2746    3.6796 O   0  0  0  0  0  0  0  0  0  0  0  0
   -2.7219    0.0577    5.5560 C   0  0  0  0  0  0  0  0  0  0  0  0
   -3.4815   -0.7386    5.6094 H   0  0  0  0  0  0  0  0  0  0  0  0
   -1.8906   -0.2899    6.1903 H   0  0  0  0  0  0  0  0  0  0  0  0
   -3.1599    0.9126    6.0956 H   0  0  0  0  0  0  0  0  0  0  0  0
   -3.0397    1.3125    3.5142 N   0  0  0  0  0  0  0  0  0  0  0  0
   -2.7928    1.7385    2.1618 C   0  0  2  0  0  0  0  0  0  0  0  0
   -1.4579    1.1532    1.7206 C   0  0  0  0  0  0  0  0  0  0  0  0
   -0.5858    0.8004    2.5118 O   0  0  0  0  0  0  0  0  0  0  0  0
   -2.7841    3.2553    2.0523 C   0  0  0  0  0  0  0  0  0  0  0  0
   -3.8047    1.7484    4.0260 H   0  0  0  0  0  0  0  0  0  0  0  0
   -3.5969    1.3201    1.5466 H   0  0  0  0  0  0  0  0  0  0  0  0
   -1.9850    3.6926    2.6620 H   0  0  0  0  0  0  0  0  0  0  0  0
   -2.6246    3.5776    1.0180 H   0  0  0  0  0  0  0  0  0  0  0  0
   -3.7342    3.6765    2.3981 H   0  0  0  0  0  0  0  0  0  0  0  0
   -1.3352    1.1101    0.3372 N   0  0  0  0  0  0  0  0  0  0  0  0
   -0.1579    0.6093   -0.3265 C   0  0  2  0  0  0  0  0  0  0  0  0
   -0.1857   -0.9104   -0.2085 C   0  0  0  0  0  0  0  0  0  0  0  0
    0.7897   -1.5725    0.1395 O   0  0  0  0  0  0  0  0  0  0  0  0
    1.1327    1.1677    0.2841 C   0  0  0  0  0  0  0  0  0  0  0  0
    1.2904    2.6516    0.0590 C   0  0  0  0  0  0  0  0  0  0  0  0
    0.9565    3.6402    0.9557 C   0  0  0  0  0  0  0  0  0  0  0  0
    1.8081    3.2816   -1.1072 C   0  0  0  0  0  0  0  0  0  0  0  0
    1.2504    4.8475    0.3807 N   0  0  0  0  0  0  0  0  0  0  0  0
    1.7720    4.6590   -0.8793 C   0  0  0  0  0  0  0  0  0  0  0  0
    2.3055    2.8108   -2.3386 C   0  0  0  0  0  0  0  0  0  0  0  0
    2.2102    5.5927   -1.8250 C   0  0  0  0  0  0  0  0  0  0  0  0
    2.7474    3.7332   -3.2940 C   0  0  0  0  0  0  0  0  0  0  0  0
    2.6996    5.1024   -3.0390 C   0  0  0  0  0  0  0  0  0  0  0  0
   -2.1183    1.4068   -0.2401 H   0  0  0  0  0  0  0  0  0  0  0  0
   -0.2517    0.8890   -1.3824 H   0  0  0  0  0  0  0  0  0  0  0  0
    2.0054    0.6378   -0.1209 H   0  0  0  0  0  0  0  0  0  0  0  0
    1.1580    0.9794    1.3656 H   0  0  0  0  0  0  0  0  0  0  0  0
    0.5350    3.5941    1.9504 H   0  0  0  0  0  0  0  0  0  0  0  0
    1.1058    5.7474    0.8175 H   0  0  0  0  0  0  0  0  0  0  0  0
    2.3485    1.7467   -2.5530 H   0  0  0  0  0  0  0  0  0  0  0  0
    2.1744    6.6586   -1.6269 H   0  0  0  0  0  0  0  0  0  0  0  0
    3.1316    3.3761   -4.2457 H   0  0  0  0  0  0  0  0  0  0  0  0
    3.0480    5.8011   -3.7953 H   0  0  0  0  0  0  0  0  0  0  0  0
   -1.4415   -1.4305   -0.4896 N   0  0  0  0  0  0  0  0  0  0  0  0
   -1.7477   -2.8416   -0.4290 C   0  0  2  0  0  0  0  0  0  0  0  0
   -0.6862   -3.5878   -1.2265 C   0  0  0  0  0  0  0  0  0  0  0  0
   -0.0111   -3.0568   -2.1059 O   0  0  0  0  0  0  0  0  0  0  0  0
   -3.1385   -3.1298   -0.9725 C   0  0  0  0  0  0  0  0  0  0  0  0
   -2.1826   -0.7869   -0.7510 H   0  0  0  0  0  0  0  0  0  0  0  0
   -1.6861   -3.1337    0.6250 H   0  0  0  0  0  0  0  0  0  0  0  0
   -3.2194   -2.8437   -2.0276 H   0  0  0  0  0  0  0  0  0  0  0  0
   -3.3800   -4.1954   -0.8997 H   0  0  0  0  0  0  0  0  0  0  0  0
   -3.8980   -2.5692   -0.4169 H   0  0  0  0  0  0  0  0  0  0  0  0
   -0.6115   -4.9272   -0.8704 N   0  0  0  0  0  0  0  0  0  0  0  0
    0.3101   -5.8490   -1.4924 C   0  0  0  0  0  0  0  0  0  0  0  0
   -1.1963   -5.2774   -0.1173 H   0  0  0  0  0  0  0  0  0  0  0  0
   -0.1844   -6.3473   -2.3392 H   0  0  0  0  0  0  0  0  0  0  0  0
    1.1908   -5.2984   -1.8546 H   0  0  0  0  0  0  0  0  0  0  0  0
    0.6263   -6.6034   -0.7570 H   0  0  0  0  0  0  0  0  0  0  0  0
 29 30  2  0  0  0  0
 27 29  1  0  0  0  0
 28 30  1  0  0  0  0
 24 27  2  0  0  0  0
 26 28  2  0  0  0  0
 22 23  2  0  0  0  0
 23 25  1  0  0  0  0
 22 24  1  0  0  0  0
 24 26  1  0  0  0  0
 21 22  1  0  0  0  0
 25 26  1  0  0  0  0
  1  3  1  0  0  0  0
  1  7  1  0  0  0  0
  1  2  2  0  0  0  0
 42 43  1  0  0  0  0
 43 51  1  0  0  0  0
 43 44  2  0  0  0  0
  8  9  1  0  0  0  0
  9 17  1  0  0  0  0
  9 10  2  0  0  0  0
 18 19  1  0  0  0  0
 19 41  1  0  0  0  0
 19 20  2  0  0  0  0
 42 45  1  0  0  0  0
  8 11  1  0  0  0  0
 51 52  1  0  0  0  0
 18 21  1  0  0  0  0
 41 42  1  0  0  0  0
  7  8  1  0  0  0  0
 17 18  1  0  0  0  0
 29 39  1  0  0  0  0
 30 40  1  0  0  0  0
 27 37  1  0  0  0  0
 28 38  1  0  0  0  0
 23 35  1  0  0  0  0
  3  4  1  0  0  0  0
  3  5  1  0  0  0  0
  3  6  1  0  0  0  0
 45 48  1  0  0  0  0
 45 49  1  0  0  0  0
 45 50  1  0  0  0  0
 11 14  1  0  0  0  0
 11 15  1  0  0  0  0
 11 16  1  0  0  0  0
 52 54  1  0  0  0  0
 52 55  1  0  0  0  0
 52 56  1  0  0  0  0
 21 33  1  0  0  0  0
 21 34  1  0  0  0  0
 42 47  1  0  0  0  0
  8 13  1  0  0  0  0
 18 32  1  0  0  0  0
 25 36  1  0  0  0  0
 51 53  1  0  0  0  0
  7 12  1  0  0  0  0
 41 46  1  0  0  0  0
 17 31  1  0  0  0  0
M  END
$$$$

  -OEChem-05262214473D

 56 57  0     1  0  0  0  0  0999 V2000
   -2.2900    0.3401    4.1553 C   0  0  0  0  0  0  0  0  0  0  0  0
   -1.3426   -0.2746    3.6796 O   0  0  0  0  0  0  0  0  0  0  0  0
   -2.7219    0.0577    5.5560 C   0  0  0  0  0  0  0  0  0  0  0  0
   -3.4815   -0.7386    5.6094 H   0  0  0  0  0  0  0  0  0  0  0  0
   -1.8906   -0.2899    6.1903 H   0  0  0  0  0  0  0  0  0  0  0  0
   -3.1599    0.9126    6.0956 H   0  0  0  0  0  0  0  0  0  0  0  0
   -3.0397    1.3125    3.5142 N   0  0  0  0  0  0  0  0  0  0  0  0
   -2.7928    1.7385    2.1618 C   0  0  2  0  0  0  0  0  0  0  0  0
   -1.4579    1.1532    1.7206 C   0  0  0  0  0  0  0  0  0  0  0  0
   -0.5858    0.8004    2.5118 O   0  0  0  0  0  0  0  0  0  0  0  0
   -2.7841    3.2553    2.0523 C   0  0  0  0  0  0  0  0  0  0  0  0
   -3.8047    1.7484    4.0260 H   0  0  0  0  0  0  0  0  0  0  0  0
   -3.5969    1.3201    1.5466 H   0  0  0  0  0  0  0  0  0  0  0  0
   -1.9850    3.6926    2.6620 H   0  0  0  0  0  0  0  0  0  0  0  0
   -2.6246    3.5776    1.0180 H   0  0  0  0  0  0  0  0  0  0  0  0
   -3.7342    3.6765    2.3981 H   0  0  0  0  0  0  0  0  0  0  0  0
   -1.3352    1.1101    0.3372 N   0  0  0  0  0  0  0  0  0  0  0  0
   -0.1579    0.6093   -0.3265 C   0  0  2  0  0  0  0  0  0  0  0  0
   -0.1857   -0.9104   -0.2085 C   0  0  0  0  0  0  0  0  0  0  0  0
    0.6795   -1.5515    0.3842 O   0  0  0  0  0  0  0  0  0  0  0  0
    1.1327    1.1677    0.2841 C   0  0  0  0  0  0  0  0  0  0  0  0
    1.2904    2.6516    0.0590 C   0  0  0  0  0  0  0  0  0  0  0  0
    0.9565    3.6402    0.9557 C   0  0  0  0  0  0  0  0  0  0  0  0
    1.8081    3.2816   -1.1072 C   0  0  0  0  0  0  0  0  0  0  0  0
    1.2504    4.8475    0.3807 N   0  0  0  0  0  0  0  0  0  0  0  0
    1.7720    4.6590   -0.8793 C   0  0  0  0  0  0  0  0  0  0  0  0
    2.3055    2.8108   -2.3386 C   0  0  0  0  0  0  0  0  0  0  0  0
    2.2102    5.5927   -1.8250 C   0  0  0  0  0  0  0  0  0  0  0  0
    2.7474    3.7332   -3.2940 C   0  0  0  0  0  0  0  0  0  0  0  0
    2.6996    5.1024   -3.0390 C   0  0  0  0  0  0  0  0  0  0  0  0
   -2.1183    1.4068   -0.2401 H   0  0  0  0  0  0  0  0  0  0  0  0
   -0.2517    0.8890   -1.3824 H   0  0  0  0  0  0  0  0  0  0  0  0
    2.0054    0.6378   -0.1209 H   0  0  0  0  0  0  0  0  0  0  0  0
    1.1580    0.9794    1.3656 H   0  0  0  0  0  0  0  0  0  0  0  0
    0.5350    3.5941    1.9504 H   0  0  0  0  0  0  0  0  0  0  0  0
    1.1058    5.7474    0.8175 H   0  0  0  0  0  0  0  0  0  0  0  0
    2.3485    1.7467   -2.5530 H   0  0  0  0  0  0  0  0  0  0  0  0
    2.1744    6.6586   -1.6269 H   0  0  0  0  0  0  0  0  0  0  0  0
    3.1316    3.3761   -4.2457 H   0  0  0  0  0  0  0  0  0  0  0  0
    3.0480    5.8011   -3.7953 H   0  0  0  0  0  0  0  0  0  0  0  0
   -1.3161   -1.4569   -0.8002 N   0  0  0  0  0  0  0  0  0  0  0  0
   -1.6001   -2.8739   -0.8103 C   0  0  2  0  0  0  0  0  0  0  0  0
   -0.3545   -3.5997   -1.3014 C   0  0  0  0  0  0  0  0  0  0  0  0
    0.5142   -3.0567   -1.9808 O   0  0  0  0  0  0  0  0  0  0  0  0
   -2.7977   -3.1919   -1.6920 C   0  0  0  0  0  0  0  0  0  0  0  0
   -1.9770   -0.8293   -1.2486 H   0  0  0  0  0  0  0  0  0  0  0  0
   -1.8069   -3.1625    0.2260 H   0  0  0  0  0  0  0  0  0  0  0  0
   -2.6092   -2.9097   -2.7343 H   0  0  0  0  0  0  0  0  0  0  0  0
   -3.0291   -4.2621   -1.6761 H   0  0  0  0  0  0  0  0  0  0  0  0
   -3.6855   -2.6459   -1.3552 H   0  0  0  0  0  0  0  0  0  0  0  0
   -0.3482   -4.9365   -0.9283 N   0  0  0  0  0  0  0  0  0  0  0  0
    0.7204   -5.8404   -1.2847 C   0  0  0  0  0  0  0  0  0  0  0  0
   -1.1006   -5.2971   -0.3490 H   0  0  0  0  0  0  0  0  0  0  0  0
    0.4709   -6.3506   -2.2268 H   0  0  0  0  0  0  0  0  0  0  0  0
    1.6539   -5.2724   -1.4115 H   0  0  0  0  0  0  0  0  0  0  0  0
    0.8507   -6.5866   -0.4871 H   0  0  0  0  0  0  0  0  0  0  0  0
 29 30  2  0  0  0  0
 27 29  1  0  0  0  0
 28 30  1  0  0  0  0
 24 27  2  0  0  0  0
 26 28  2  0  0  0  0
 22 23  2  0  0  0  0
 23 25  1  0  0  0  0
 22 24  1  0  0  0  0
 24 26  1  0  0  0  0
 21 22  1  0  0  0  0
 25 26  1  0  0  0  0
  1  3  1  0  0  0  0
  1  7  1  0  0  0  0
  1  2  2  0  0  0  0
 42 43  1  0  0  0  0
 43 51  1  0  0  0  0
 43 44  2  0  0  0  0
  8  9  1  0  0  0  0
  9 17  1  0  0  0  0
  9 10  2  0  0  0  0
 18 19  1  0  0  0  0
 19 41  1  0  0  0  0
 19 20  2  0  0  0  0
 42 45  1  0  0  0  0
  8 11  1  0  0  0  0
 51 52  1  0  0  0  0
 18 21  1  0  0  0  0
 41 42  1  0  0  0  0
  7  8  1  0  0  0  0
 17 18  1  0  0  0  0
 29 39  1  0  0  0  0
 30 40  1  0  0  0  0
 27 37  1  0  0  0  0
 28 38  1  0  0  0  0
 23 35  1  0  0  0  0
  3  4  1  0  0  0  0
  3  5  1  0  0  0  0
  3  6  1  0  0  0  0
 45 48  1  0  0  0  0
 45 49  1  0  0  0  0
 45 50  1  0  0  0  0
 11 14  1  0  0  0  0
 11 15  1  0  0  0  0
 11 16  1  0  0  0  0
 52 54  1  0  0  0  0
 52 55  1  0  0  0  0
 52 56  1  0  0  0  0
 21 33  1  0  0  0  0
 21 34  1  0  0  0  0
 42 47  1  0  0  0  0
  8 13  1  0  0  0  0
 18 32  1  0  0  0  0
 25 36  1  0  0  0  0
 51 53  1  0  0  0  0
  7 12  1  0  0  0  0
 41 46  1  0  0  0  0
 17 31  1  0  0  0  0
M  END
$$$$

  -OEChem-05262214473D

 56 57  0     1  0  0  0  0  0999 V2000
   -2.2900    0.3401    4.1553 C   0  0  0  0  0  0  0  0  0  0  0  0
   -1.3426   -0.2746    3.6796 O   0  0  0  0  0  0  0  0  0  0  0  0
   -2.7219    0.0577    5.5560 C   0  0  0  0  0  0  0  0  0  0  0  0
   -3.4815   -0.7386    5.6094 H   0  0  0  0  0  0  0  0  0  0  0  0
   -1.8906   -0.2899    6.1903 H   0  0  0  0  0  0  0  0  0  0  0  0
   -3.1599    0.9126    6.0956 H   0  0  0  0  0  0  0  0  0  0  0  0
   -3.0397    1.3125    3.5142 N   0  0  0  0  0  0  0  0  0  0  0  0
   -2.7928    1.7385    2.1618 C   0  0  2  0  0  0  0  0  0  0  0  0
   -1.4579    1.1532    1.7206 C   0  0  0  0  0  0  0  0  0  0  0  0
   -0.5858    0.8004    2.5118 O   0  0  0  0  0  0  0  0  0  0  0  0
   -2.7841    3.2553    2.0523 C   0  0  0  0  0  0  0  0  0  0  0  0
   -3.8047    1.7484    4.0260 H   0  0  0  0  0  0  0  0  0  0  0  0
   -3.5969    1.3201    1.5466 H   0  0  0  0  0  0  0  0  0  0  0  0
   -1.9850    3.6926    2.6620 H   0  0  0  0  0  0  0  0  0  0  0  0
   -2.6246    3.5776    1.0180 H   0  0  0  0  0  0  0  0  0  0  0  0
   -3.7342    3.6765    2.3981 H   0  0  0  0  0  0  0  0  0  0  0  0
   -1.3352    1.1101    0.3372 N   0  0  0  0  0  0  0  0  0  0  0  0
   -0.1579    0.6093   -0.3265 C   0  0  2  0  0  0  0  0  0  0  0  0
   -0.1857   -0.9104   -0.2085 C   0  0  0  0  0  0  0  0  0  0  0  0
    0.5096   -1.5322    0.5920 O   0  0  0  0  0  0  0  0  0  0  0  0
    1.1327    1.1677    0.2841 C   0  0  0  0  0  0  0  0  0  0  0  0
    1.2904    2.6516    0.0590 C   0  0  0  0  0  0  0  0  0  0  0  0
    0.9565    3.6402    0.9557 C   0  0  0  0  0  0  0  0  0  0  0  0
    1.8081    3.2816   -1.1072 C   0  0  0  0  0  0  0  0  0  0  0  0
    1.2504    4.8475    0.3807 N   0  0  0  0  0  0  0  0  0  0  0  0
    1.7720    4.6590   -0.8793 C   0  0  0  0  0  0  0  0  0  0  0  0
    2.3055    2.8108   -2.3386 C   0  0  0  0  0  0  0  0  0  0  0  0
    2.2102    5.5927   -1.8250 C   0  0  0  0  0  0  0  0  0  0  0  0
    2.7474    3.7332   -3.2940 C   0  0  0  0  0  0  0  0  0  0  0  0
    2.6996    5.1024   -3.0390 C   0  0  0  0  0  0  0  0  0  0  0  0
   -2.1183    1.4068   -0.2401 H   0  0  0  0  0  0  0  0  0  0  0  0
   -0.2517    0.8890   -1.3824 H   0  0  0  0  0  0  0  0  0  0  0  0
    2.0054    0.6378   -0.1209 H   0  0  0  0  0  0  0  0  0  0  0  0
    1.1580    0.9794    1.3656 H   0  0  0  0  0  0  0  0  0  0  0  0
    0.5350    3.5941    1.9504 H   0  0  0  0  0  0  0  0  0  0  0  0
    1.1058    5.7474    0.8175 H   0  0  0  0  0  0  0  0  0  0  0  0
    2.3485    1.7467   -2.5530 H   0  0  0  0  0  0  0  0  0  0  0  0
    2.1744    6.6586   -1.6269 H   0  0  0  0  0  0  0  0  0  0  0  0
    3.1316    3.3761   -4.2457 H   0  0  0  0  0  0  0  0  0  0  0  0
    3.0480    5.8011   -3.7953 H   0  0  0  0  0  0  0  0  0  0  0  0
   -1.1143   -1.4813   -1.0677 N   0  0  0  0  0  0  0  0  0  0  0  0
   -1.3585   -2.9040   -1.1403 C   0  0  2  0  0  0  0  0  0  0  0  0
   -0.0145   -3.6049   -1.2882 C   0  0  0  0  0  0  0  0  0  0  0  0
    0.9894   -3.0455   -1.7244 O   0  0  0  0  0  0  0  0  0  0  0  0
   -2.2816   -3.2485   -2.2988 C   0  0  0  0  0  0  0  0  0  0  0  0
   -1.6492   -0.8685   -1.6760 H   0  0  0  0  0  0  0  0  0  0  0  0
   -1.8201   -3.1946   -0.1903 H   0  0  0  0  0  0  0  0  0  0  0  0
   -1.8360   -2.9646   -3.2592 H   0  0  0  0  0  0  0  0  0  0  0  0
   -2.4885   -4.3231   -2.3352 H   0  0  0  0  0  0  0  0  0  0  0  0
   -3.2367   -2.7203   -2.2064 H   0  0  0  0  0  0  0  0  0  0  0  0
   -0.0788   -4.9405   -0.9162 N   0  0  0  0  0  0  0  0  0  0  0  0
    1.0630   -5.8228   -0.9783 C   0  0  0  0  0  0  0  0  0  0  0  0
   -0.9480   -5.3154   -0.5480 H   0  0  0  0  0  0  0  0  0  0  0  0
    1.0750   -6.3401   -1.9490 H   0  0  0  0  0  0  0  0  0  0  0  0
    1.9863   -5.2360   -0.8642 H   0  0  0  0  0  0  0  0  0  0  0  0
    0.9974   -6.5645   -0.1686 H   0  0  0  0  0  0  0  0  0  0  0  0
 29 30  2  0  0  0  0
 27 29  1  0  0  0  0
 28 30  1  0  0  0  0
 24 27  2  0  0  0  0
 26 28  2  0  0  0  0
 22 23  2  0  0  0  0
 23 25  1  0  0  0  0
 22 24  1  0  0  0  0
 24 26  1  0  0  0  0
 21 22  1  0  0  0  0
 25 26  1  0  0  0  0
  1  3  1  0  0  0  0
  1  7  1  0  0  0  0
  1  2  2  0  0  0  0
 42 43  1  0  0  0  0
 43 51  1  0  0  0  0
 43 44  2  0  0  0  0
  8  9  1  0  0  0  0
  9 17  1  0  0  0  0
  9 10  2  0  0  0  0
 18 19  1  0  0  0  0
 19 41  1  0  0  0  0
 19 20  2  0  0  0  0
 42 45  1  0  0  0  0
  8 11  1  0  0  0  0
 51 52  1  0  0  0  0
 18 21  1  0  0  0  0
 41 42  1  0  0  0  0
  7  8  1  0  0  0  0
 17 18  1  0  0  0  0
 29 39  1  0  0  0  0
 30 40  1  0  0  0  0
 27 37  1  0  0  0  0
 28 38  1  0  0  0  0
 23 35  1  0  0  0  0
  3  4  1  0  0  0  0
  3  5  1  0  0  0  0
  3  6  1  0  0  0  0
 45 48  1  0  0  0  0
 45 49  1  0  0  0  0
 45 50  1  0  0  0  0
 11 14  1  0  0  0  0
 11 15  1  0  0  0  0
 11 16  1  0  0  0  0
 52 54  1  0  0  0  0
 52 55  1  0  0  0  0
 52 56  1  0  0  0  0
 21 33  1  0  0  0  0
 21 34  1  0  0  0  0
 42 47  1  0  0  0  0
  8 13  1  0  0  0  0
 18 32  1  0  0  0  0
 25 36  1  0  0  0  0
 51 53  1  0  0  0  0
  7 12  1  0  0  0  0
 41 46  1  0  0  0  0
 17 31  1  0  0  0  0
M  END
$$$$

  -OEChem-05262214473D

 56 57  0     1  0  0  0  0  0999 V2000
   -2.2900    0.3401    4.1553 C   0  0  0  0  0  0  0  0  0  0  0  0
   -1.3426   -0.2746    3.6796 O   0  0  0  0  0  0  0  0  0  0  0  0
   -2.7219    0.0577    5.5560 C   0  0  0  0  0  0  0  0  0  0  0  0
   -3.4815   -0.7386    5.6094 H   0  0  0  0  0  0  0  0  0  0  0  0
   -1.8906   -0.2899    6.1903 H   0  0  0  0  0  0  0  0  0  0  0  0
   -3.1599    0.9126    6.0956 H   0  0  0  0  0  0  0  0  0  0  0  0
   -3.0397    1.3125    3.5142 N   0  0  0  0  0  0  0  0  0  0  0  0
   -2.7928    1.7385    2.1618 C   0  0  2  0  0  0  0  0  0  0  0  0
   -1.4579    1.1532    1.7206 C   0  0  0  0  0  0  0  0  0  0  0  0
   -0.5858    0.8004    2.5118 O   0  0  0  0  0  0  0  0  0  0  0  0
   -2.7841    3.2553    2.0523 C   0  0  0  0  0  0  0  0  0  0  0  0
   -3.8047    1.7484    4.0260 H   0  0  0  0  0  0  0  0  0  0  0  0
   -3.5969    1.3201    1.5466 H   0  0  0  0  0  0  0  0  0  0  0  0
   -1.9850    3.6926    2.6620 H   0  0  0  0  0  0  0  0  0  0  0  0
   -2.6246    3.5776    1.0180 H   0  0  0  0  0  0  0  0  0  0  0  0
   -3.7342    3.6765    2.3981 H   0  0  0  0  0  0  0  0  0  0  0  0
   -1.3352    1.1101    0.3372 N   0  0  0  0  0  0  0  0  0  0  0  0
   -0.1579    0.6093   -0.3265 C   0  0  2  0  0  0  0  0  0  0  0  0
   -0.1857   -0.9104   -0.2085 C   0  0  0  0  0  0  0  0  0  0  0  0
    0.2914   -1.5161    0.7488 O   0  0  0  0  0  0  0  0  0  0  0  0
    1.1327    1.1677    0.2841 C   0  0  0  0  0  0  0  0  0  0  0  0
    1.2904    2.6516    0.0590 C   0  0  0  0  0  0  0  0  0  0  0  0
    0.9565    3.6402    0.9557 C   0  0  0  0  0  0  0  0  0  0  0  0
    1.8081    3.2816   -1.1072 C   0  0  0  0  0  0  0  0  0  0  0  0
    1.2504    4.8475    0.3807 N   0  0  0  0  0  0  0  0  0  0  0  0
    1.7720    4.6590   -0.8793 C   0  0  0  0  0  0  0  0  0  0  0  0
    2.3055    2.8108   -2.3386 C   0  0  0  0  0  0  0  0  0  0  0  0
    2.2102    5.5927   -1.8250 C   0  0  0  0  0  0  0  0  0  0  0  0
    2.7474    3.7332   -3.2940 C   0  0  0  0  0  0  0  0  0  0  0  0
    2.6996    5.1024   -3.0390 C   0  0  0  0  0  0  0  0  0  0  0  0
   -2.1183    1.4068   -0.2401 H   0  0  0  0  0  0  0  0  0  0  0  0
   -0.2517    0.8890   -1.3824 H   0  0  0  0  0  0  0  0  0  0  0  0
    2.0054    0.6378   -0.1209 H   0  0  0  0  0  0  0  0  0  0  0  0
    1.1580    0.9794    1.3656 H   0  0  0  0  0  0  0  0  0  0  0  0
    0.5350    3.5941    1.9504 H   0  0  0  0  0  0  0  0  0  0  0  0
    1.1058    5.7474    0.8175 H   0  0  0  0  0  0  0  0  0  0  0  0
    2.3485    1.7467   -2.5530 H   0  0  0  0  0  0  0  0  0  0  0  0
    2.1744    6.6586   -1.6269 H   0  0  0  0  0  0  0  0  0  0  0  0
    3.1316    3.3761   -4.2457 H   0  0  0  0  0  0  0  0  0  0  0  0
    3.0480    5.8011   -3.7953 H   0  0  0  0  0  0  0  0  0  0  0  0
   -0.8499   -1.5022   -1.2739 N   0  0  0  0  0  0  0  0  0  0  0  0
   -1.0394   -2.9297   -1.3966 C   0  0  2  0  0  0  0  0  0  0  0  0
    0.3106   -3.6031   -1.1877 C   0  0  0  0  0  0  0  0  0  0  0  0
    1.3820   -3.0239   -1.3543 O   0  0  0  0  0  0  0  0  0  0  0  0
   -1.6254   -3.2956   -2.7514 C   0  0  0  0  0  0  0  0  0  0  0  0
   -1.2214   -0.9018   -2.0041 H   0  0  0  0  0  0  0  0  0  0  0  0
   -1.7247   -3.2278   -0.5957 H   0  0  0  0  0  0  0  0  0  0  0  0
   -0.9527   -3.0046   -3.5665 H   0  0  0  0  0  0  0  0  0  0  0  0
   -1.7950   -4.3744   -2.8321 H   0  0  0  0  0  0  0  0  0  0  0  0
   -2.5821   -2.7871   -2.9125 H   0  0  0  0  0  0  0  0  0  0  0  0
    0.1784   -4.9389   -0.8351 N   0  0  0  0  0  0  0  0  0  0  0  0
    1.3144   -5.7976   -0.5940 C   0  0  0  0  0  0  0  0  0  0  0  0
   -0.7489   -5.3309   -0.7007 H   0  0  0  0  0  0  0  0  0  0  0  0
    1.5866   -6.3165   -1.5250 H   0  0  0  0  0  0  0  0  0  0  0  0
    2.1655   -5.1916   -0.2499 H   0  0  0  0  0  0  0  0  0  0  0  0
    1.0566   -6.5388    0.1768 H   0  0  0  0  0  0  0  0  0  0  0  0
 29 30  2  0  0  0  0
 27 29  1  0  0  0  0
 28 30  1  0  0  0  0
 24 27  2  0  0  0  0
 26 28  2  0  0  0  0
 22 23  2  0  0  0  0
 23 25  1  0  0  0  0
 22 24  1  0  0  0  0
 24 26  1  0  0  0  0
 21 22  1  0  0  0  0
 25 26  1  0  0  0  0
  1  3  1  0  0  0  0
  1  7  1  0  0  0  0
  1  2  2  0  0  0  0
 42 43  1  0  0  0  0
 43 51  1  0  0  0  0
 43 44  2  0  0  0  0
  8  9  1  0  0  0  0
  9 17  1  0  0  0  0
  9 10  2  0  0  0  0
 18 19  1  0  0  0  0
 19 41  1  0  0  0  0
 19 20  2  0  0  0  0
 42 45  1  0  0  0  0
  8 11  1  0  0  0  0
 51 52  1  0  0  0  0
 18 21  1  0  0  0  0
 41 42  1  0  0  0  0
  7  8  1  0  0  0  0
 17 18  1  0  0  0  0
 29 39  1  0  0  0  0
 30 40  1  0  0  0  0
 27 37  1  0  0  0  0
 28 38  1  0  0  0  0
 23 35  1  0  0  0  0
  3  4  1  0  0  0  0
  3  5  1  0  0  0  0
  3  6  1  0  0  0  0
 45 48  1  0  0  0  0
 45 49  1  0  0  0  0
 45 50  1  0  0  0  0
 11 14  1  0  0  0  0
 11 15  1  0  0  0  0
 11 16  1  0  0  0  0
 52 54  1  0  0  0  0
 52 55  1  0  0  0  0
 52 56  1  0  0  0  0
 21 33  1  0  0  0  0
 21 34  1  0  0  0  0
 42 47  1  0  0  0  0
  8 13  1  0  0  0  0
 18 32  1  0  0  0  0
 25 36  1  0  0  0  0
 51 53  1  0  0  0  0
  7 12  1  0  0  0  0
 41 46  1  0  0  0  0
 17 31  1  0  0  0  0
M  END
$$$$

  -OEChem-05262214473D

 56 57  0     1  0  0  0  0  0999 V2000
   -2.2900    0.3401    4.1553 C   0  0  0  0  0  0  0  0  0  0  0  0
   -1.3426   -0.2746    3.6796 O   0  0  0  0  0  0  0  0  0  0  0  0
   -2.7219    0.0577    5.5560 C   0  0  0  0  0  0  0  0  0  0  0  0
   -3.4815   -0.7386    5.6094 H   0  0  0  0  0  0  0  0  0  0  0  0
   -1.8906   -0.2899    6.1903 H   0  0  0  0  0  0  0  0  0  0  0  0
   -3.1599    0.9126    6.0956 H   0  0  0  0  0  0  0  0  0  0  0  0
   -3.0397    1.3125    3.5142 N   0  0  0  0  0  0  0  0  0  0  0  0
   -2.7928    1.7385    2.1618 C   0  0  2  0  0  0  0  0  0  0  0  0
   -1.4579    1.1532    1.7206 C   0  0  0  0  0  0  0  0  0  0  0  0
   -0.5858    0.8004    2.5118 O   0  0  0  0  0  0  0  0  0  0  0  0
   -2.7841    3.2553    2.0523 C   0  0  0  0  0  0  0  0  0  0  0  0
   -3.8047    1.7484    4.0260 H   0  0  0  0  0  0  0  0  0  0  0  0
   -3.5969    1.3201    1.5466 H   0  0  0  0  0  0  0  0  0  0  0  0
   -1.9850    3.6926    2.6620 H   0  0  0  0  0  0  0  0  0  0  0  0
   -2.6246    3.5776    1.0180 H   0  0  0  0  0  0  0  0  0  0  0  0
   -3.7342    3.6765    2.3981 H   0  0  0  0  0  0  0  0  0  0  0  0
   -1.3352    1.1101    0.3372 N   0  0  0  0  0  0  0  0  0  0  0  0
   -0.1579    0.6093   -0.3265 C   0  0  2  0  0  0  0  0  0  0  0  0
   -0.1857   -0.9104   -0.2085 C   0  0  0  0  0  0  0  0  0  0  0  0
    0.0399   -1.5041    0.8439 O   0  0  0  0  0  0  0  0  0  0  0  0
    1.1327    1.1677    0.2841 C   0  0  0  0  0  0  0  0  0  0  0  0
    1.2904    2.6516    0.0590 C   0  0  0  0  0  0  0  0  0  0  0  0
    0.9565    3.6402    0.9557 C   0  0  0  0  0  0  0  0  0  0  0  0
    1.8081    3.2816   -1.1072 C   0  0  0  0  0  0  0  0  0  0  0  0
    1.2504    4.8475    0.3807 N   0  0  0  0  0  0  0  0  0  0  0  0
    1.7720    4.6590   -0.8793 C   0  0  0  0  0  0  0  0  0  0  0  0
    2.3055    2.8108   -2.3386 C   0  0  0  0  0  0  0  0  0  0  0  0
    2.2102    5.5927   -1.8250 C   0  0  0  0  0  0  0  0  0  0  0  0
    2.7474    3.7332   -3.2940 C   0  0  0  0  0  0  0  0  0  0  0  0
    2.6996    5.1024   -3.0390 C   0  0  0  0  0  0  0  0  0  0  0  0
   -2.1183    1.4068   -0.2401 H   0  0  0  0  0  0  0  0  0  0  0  0
   -0.2517    0.8890   -1.3824 H   0  0  0  0  0  0  0  0  0  0  0  0
    2.0054    0.6378   -0.1209 H   0  0  0  0  0  0  0  0  0  0  0  0
    1.1580    0.9794    1.3656 H   0  0  0  0  0  0  0  0  0  0  0  0
    0.5350    3.5941    1.9504 H   0  0  0  0  0  0  0  0  0  0  0  0
    1.1058    5.7474    0.8175 H   0  0  0  0  0  0  0  0  0  0  0  0
    2.3485    1.7467   -2.5530 H   0  0  0  0  0  0  0  0  0  0  0  0
    2.1744    6.6586   -1.6269 H   0  0  0  0  0  0  0  0  0  0  0  0
    3.1316    3.3761   -4.2457 H   0  0  0  0  0  0  0  0  0  0  0  0
    3.0480    5.8011   -3.7953 H   0  0  0  0  0  0  0  0  0  0  0  0
   -0.5408   -1.5180   -1.4048 N   0  0  0  0  0  0  0  0  0  0  0  0
   -0.6645   -2.9494   -1.5618 C   0  0  2  0  0  0  0  0  0  0  0  0
    0.5986   -3.5943   -1.0067 C   0  0  0  0  0  0  0  0  0  0  0  0
    1.6653   -2.9935   -0.8956 O   0  0  0  0  0  0  0  0  0  0  0  0
   -0.8739   -3.3302   -3.0191 C   0  0  0  0  0  0  0  0  0  0  0  0
   -0.7230   -0.9269   -2.2105 H   0  0  0  0  0  0  0  0  0  0  0  0
   -1.5274   -3.2599   -0.9626 H   0  0  0  0  0  0  0  0  0  0  0  0
   -0.0194   -3.0271   -3.6352 H   0  0  0  0  0  0  0  0  0  0  0  0
   -0.9959   -4.4124   -3.1329 H   0  0  0  0  0  0  0  0  0  0  0  0
   -1.7663   -2.8418   -3.4252 H   0  0  0  0  0  0  0  0  0  0  0  0
    0.4059   -4.9318   -0.6903 N   0  0  0  0  0  0  0  0  0  0  0  0
    1.4577   -5.7664   -0.1581 C   0  0  0  0  0  0  0  0  0  0  0  0
   -0.5169   -5.3426   -0.7969 H   0  0  0  0  0  0  0  0  0  0  0  0
    1.9709   -6.2815   -0.9835 H   0  0  0  0  0  0  0  0  0  0  0  0
    2.1792   -5.1422    0.3895 H   0  0  0  0  0  0  0  0  0  0  0  0
    1.0241   -6.5111    0.5256 H   0  0  0  0  0  0  0  0  0  0  0  0
 29 30  2  0  0  0  0
 27 29  1  0  0  0  0
 28 30  1  0  0  0  0
 24 27  2  0  0  0  0
 26 28  2  0  0  0  0
 22 23  2  0  0  0  0
 23 25  1  0  0  0  0
 22 24  1  0  0  0  0
 24 26  1  0  0  0  0
 21 22  1  0  0  0  0
 25 26  1  0  0  0  0
  1  3  1  0  0  0  0
  1  7  1  0  0  0  0
  1  2  2  0  0  0  0
 42 43  1  0  0  0  0
 43 51  1  0  0  0  0
 43 44  2  0  0  0  0
  8  9  1  0  0  0  0
  9 17  1  0  0  0  0
  9 10  2  0  0  0  0
 18 19  1  0  0  0  0
 19 41  1  0  0  0  0
 19 20  2  0  0  0  0
 42 45  1  0  0  0  0
  8 11  1  0  0  0  0
 51 52  1  0  0  0  0
 18 21  1  0  0  0  0
 41 42  1  0  0  0  0
  7  8  1  0  0  0  0
 17 18  1  0  0  0  0
 29 39  1  0  0  0  0
 30 40  1  0  0  0  0
 27 37  1  0  0  0  0
 28 38  1  0  0  0  0
 23 35  1  0  0  0  0
  3  4  1  0  0  0  0
  3  5  1  0  0  0  0
  3  6  1  0  0  0  0
 45 48  1  0  0  0  0
 45 49  1  0  0  0  0
 45 50  1  0  0  0  0
 11 14  1  0  0  0  0
 11 15  1  0  0  0  0
 11 16  1  0  0  0  0
 52 54  1  0  0  0  0
 52 55  1  0  0  0  0
 52 56  1  0  0  0  0
 21 33  1  0  0  0  0
 21 34  1  0  0  0  0
 42 47  1  0  0  0  0
  8 13  1  0  0  0  0
 18 32  1  0  0  0  0
 25 36  1  0  0  0  0
 51 53  1  0  0  0  0
  7 12  1  0  0  0  0
 41 46  1  0  0  0  0
 17 31  1  0  0  0  0
M  END
$$$$

  -OEChem-05262214473D

 56 57  0     1  0  0  0  0  0999 V2000
   -2.2900    0.3401    4.1553 C   0  0  0  0  0  0  0  0  0  0  0  0
   -1.3426   -0.2746    3.6796 O   0  0  0  0  0  0  0  0  0  0  0  0
   -2.7219    0.0577    5.5560 C   0  0  0  0  0  0  0  0  0  0  0  0
   -3.4815   -0.7386    5.6094 H   0  0  0  0  0  0  0  0  0  0  0  0
   -1.8906   -0.2899    6.1903 H   0  0  0  0  0  0  0  0  0  0  0  0
   -3.1599    0.9126    6.0956 H   0  0  0  0  0  0  0  0  0  0  0  0
   -3.0397    1.3125    3.5142 N   0  0  0  0  0  0  0  0  0  0  0  0
   -2.7928    1.7385    2.1618 C   0  0  2  0  0  0  0  0  0  0  0  0
   -1.4579    1.1532    1.7206 C   0  0  0  0  0  0  0  0  0  0  0  0
   -0.5858    0.8004    2.5118 O   0  0  0  0  0  0  0  0  0  0  0  0
   -2.7841    3.2553    2.0523 C   0  0  0  0  0  0  0  0  0  0  0  0
   -3.8047    1.7484    4.0260 H   0  0  0  0  0  0  0  0  0  0  0  0
   -3.5969    1.3201    1.5466 H   0  0  0  0  0  0  0  0  0  0  0  0
   -1.9850    3.6926    2.6620 H   0  0  0  0  0  0  0  0  0  0  0  0
   -2.6246    3.5776    1.0180 H   0  0  0  0  0  0  0  0  0  0  0  0
   -3.7342    3.6765    2.3981 H   0  0  0  0  0  0  0  0  0  0  0  0
   -1.3352    1.1101    0.3372 N   0  0  0  0  0  0  0  0  0  0  0  0
   -0.1579    0.6093   -0.3265 C   0  0  2  0  0  0  0  0  0  0  0  0
   -0.1857   -0.9104   -0.2085 C   0  0  0  0  0  0  0  0  0  0  0  0
   -0.2279   -1.4971    0.8708 O   0  0  0  0  0  0  0  0  0  0  0  0
    1.1327    1.1677    0.2841 C   0  0  0  0  0  0  0  0  0  0  0  0
    1.2904    2.6516    0.0590 C   0  0  0  0  0  0  0  0  0  0  0  0
    0.9565    3.6402    0.9557 C   0  0  0  0  0  0  0  0  0  0  0  0
    1.8081    3.2816   -1.1072 C   0  0  0  0  0  0  0  0  0  0  0  0
    1.2504    4.8475    0.3807 N   0  0  0  0  0  0  0  0  0  0  0  0
    1.7720    4.6590   -0.8793 C   0  0  0  0  0  0  0  0  0  0  0  0
    2.3055    2.8108   -2.3386 C   0  0  0  0  0  0  0  0  0  0  0  0
    2.2102    5.5927   -1.8250 C   0  0  0  0  0  0  0  0  0  0  0  0
    2.7474    3.7332   -3.2940 C   0  0  0  0  0  0  0  0  0  0  0  0
    2.6996    5.1024   -3.0390 C   0  0  0  0  0  0  0  0  0  0  0  0
   -2.1183    1.4068   -0.2401 H   0  0  0  0  0  0  0  0  0  0  0  0
   -0.2517    0.8890   -1.3824 H   0  0  0  0  0  0  0  0  0  0  0  0
    2.0054    0.6378   -0.1209 H   0  0  0  0  0  0  0  0  0  0  0  0
    1.1580    0.9794    1.3656 H   0  0  0  0  0  0  0  0  0  0  0  0
    0.5350    3.5941    1.9504 H   0  0  0  0  0  0  0  0  0  0  0  0
    1.1058    5.7474    0.8175 H   0  0  0  0  0  0  0  0  0  0  0  0
    2.3485    1.7467   -2.5530 H   0  0  0  0  0  0  0  0  0  0  0  0
    2.1744    6.6586   -1.6269 H   0  0  0  0  0  0  0  0  0  0  0  0
    3.1316    3.3761   -4.2457 H   0  0  0  0  0  0  0  0  0  0  0  0
    3.0480    5.8011   -3.7953 H   0  0  0  0  0  0  0  0  0  0  0  0
   -0.2082   -1.5277   -1.4514 N   0  0  0  0  0  0  0  0  0  0  0  0
   -0.2594   -2.9617   -1.6245 C   0  0  2  0  0  0  0  0  0  0  0  0
    0.8299   -3.5792   -0.7576 C   0  0  0  0  0  0  0  0  0  0  0  0
    1.8200   -2.9563   -0.3795 O   0  0  0  0  0  0  0  0  0  0  0  0
   -0.0782   -3.3498   -3.0837 C   0  0  0  0  0  0  0  0  0  0  0  0
   -0.1877   -0.9422   -2.2812 H   0  0  0  0  0  0  0  0  0  0  0  0
   -1.2415   -3.2887   -1.2658 H   0  0  0  0  0  0  0  0  0  0  0  0
    0.9002   -3.0303   -3.4607 H   0  0  0  0  0  0  0  0  0  0  0  0
   -0.1457   -4.4345   -3.2171 H   0  0  0  0  0  0  0  0  0  0  0  0
   -0.8449   -2.8808   -3.7098 H   0  0  0  0  0  0  0  0  0  0  0  0
    0.5882   -4.9197   -0.4918 N   0  0  0  0  0  0  0  0  0  0  0  0
    1.4830   -5.7313    0.2998 C   0  0  0  0  0  0  0  0  0  0  0  0
   -0.2678   -5.3497   -0.8298 H   0  0  0  0  0  0  0  0  0  0  0  0
    2.2017   -6.2374   -0.3615 H   0  0  0  0  0  0  0  0  0  0  0  0
    2.0265   -5.0912    1.0104 H   0  0  0  0  0  0  0  0  0  0  0  0
    0.9022   -6.4834    0.8540 H   0  0  0  0  0  0  0  0  0  0  0  0
 29 30  2  0  0  0  0
 27 29  1  0  0  0  0
 28 30  1  0  0  0  0
 24 27  2  0  0  0  0
 26 28  2  0  0  0  0
 22 23  2  0  0  0  0
 23 25  1  0  0  0  0
 22 24  1  0  0  0  0
 24 26  1  0  0  0  0
 21 22  1  0  0  0  0
 25 26  1  0  0  0  0
  1  3  1  0  0  0  0
  1  7  1  0  0  0  0
  1  2  2  0  0  0  0
 42 43  1  0  0  0  0
 43 51  1  0  0  0  0
 43 44  2  0  0  0  0
  8  9  1  0  0  0  0
  9 17  1  0  0  0  0
  9 10  2  0  0  0  0
 18 19  1  0  0  0  0
 19 41  1  0  0  0  0
 19 20  2  0  0  0  0
 42 45  1  0  0  0  0
  8 11  1  0  0  0  0
 51 52  1  0  0  0  0
 18 21  1  0  0  0  0
 41 42  1  0  0  0  0
  7  8  1  0  0  0  0
 17 18  1  0  0  0  0
 29 39  1  0  0  0  0
 30 40  1  0  0  0  0
 27 37  1  0  0  0  0
 28 38  1  0  0  0  0
 23 35  1  0  0  0  0
  3  4  1  0  0  0  0
  3  5  1  0  0  0  0
  3  6  1  0  0  0  0
 45 48  1  0  0  0  0
 45 49  1  0  0  0  0
 45 50  1  0  0  0  0
 11 14  1  0  0  0  0
 11 15  1  0  0  0  0
 11 16  1  0  0  0  0
 52 54  1  0  0  0  0
 52 55  1  0  0  0  0
 52 56  1  0  0  0  0
 21 33  1  0  0  0  0
 21 34  1  0  0  0  0
 42 47  1  0  0  0  0
  8 13  1  0  0  0  0
 18 32  1  0  0  0  0
 25 36  1  0  0  0  0
 51 53  1  0  0  0  0
  7 12  1  0  0  0  0
 41 46  1  0  0  0  0
 17 31  1  0  0  0  0
M  END
$$$$

  -OEChem-05262214473D

 56 57  0     1  0  0  0  0  0999 V2000
   -2.2900    0.3401    4.1553 C   0  0  0  0  0  0  0  0  0  0  0  0
   -1.3426   -0.2746    3.6796 O   0  0  0  0  0  0  0  0  0  0  0  0
   -2.7219    0.0577    5.5560 C   0  0  0  0  0  0  0  0  0  0  0  0
   -3.4815   -0.7386    5.6094 H   0  0  0  0  0  0  0  0  0  0  0  0
   -1.8906   -0.2899    6.1903 H   0  0  0  0  0  0  0  0  0  0  0  0
   -3.1599    0.9126    6.0956 H   0  0  0  0  0  0  0  0  0  0  0  0
   -3.0397    1.3125    3.5142 N   0  0  0  0  0  0  0  0  0  0  0  0
   -2.7928    1.7385    2.1618 C   0  0  2  0  0  0  0  0  0  0  0  0
   -1.4579    1.1532    1.7206 C   0  0  0  0  0  0  0  0  0  0  0  0
   -0.5858    0.8004    2.5118 O   0  0  0  0  0  0  0  0  0  0  0  0
   -2.7841    3.2553    2.0523 C   0  0  0  0  0  0  0  0  0  0  0  0
   -3.8047    1.7484    4.0260 H   0  0  0  0  0  0  0  0  0  0  0  0
   -3.5969    1.3201    1.5466 H   0  0  0  0  0  0  0  0  0  0  0  0
   -1.9850    3.6926    2.6620 H   0  0  0  0  0  0  0  0  0  0  0  0
   -2.6246    3.5776    1.0180 H   0  0  0  0  0  0  0  0  0  0  0  0
   -3.7342    3.6765    2.3981 H   0  0  0  0  0  0  0  0  0  0  0  0
   -1.3352    1.1101    0.3372 N   0  0  0  0  0  0  0  0  0  0  0  0
   -0.1579    0.6093   -0.3265 C   0  0  2  0  0  0  0  0  0  0  0  0
   -0.1857   -0.9104   -0.2085 C   0  0  0  0  0  0  0  0  0  0  0  0
   -0.4936   -1.4956    0.8277 O   0  0  0  0  0  0  0  0  0  0  0  0
    1.1327    1.1677    0.2841 C   0  0  0  0  0  0  0  0  0  0  0  0
    1.2904    2.6516    0.0590 C   0  0  0  0  0  0  0  0  0  0  0  0
    0.9565    3.6402    0.9557 C   0  0  0  0  0  0  0  0  0  0  0  0
    1.8081    3.2816   -1.1072 C   0  0  0  0  0  0  0  0  0  0  0  0
    1.2504    4.8475    0.3807 N   0  0  0  0  0  0  0  0  0  0  0  0
    1.7720    4.6590   -0.8793 C   0  0  0  0  0  0  0  0  0  0  0  0
    2.3055    2.8108   -2.3386 C   0  0  0  0  0  0  0  0  0  0  0  0
    2.2102    5.5927   -1.8250 C   0  0  0  0  0  0  0  0  0  0  0  0
    2.7474    3.7332   -3.2940 C   0  0  0  0  0  0  0  0  0  0  0  0
    2.6996    5.1024   -3.0390 C   0  0  0  0  0  0  0  0  0  0  0  0
   -2.1183    1.4068   -0.2401 H   0  0  0  0  0  0  0  0  0  0  0  0
   -0.2517    0.8890   -1.3824 H   0  0  0  0  0  0  0  0  0  0  0  0
    2.0054    0.6378   -0.1209 H   0  0  0  0  0  0  0  0  0  0  0  0
    1.1580    0.9794    1.3656 H   0  0  0  0  0  0  0  0  0  0  0  0
    0.5350    3.5941    1.9504 H   0  0  0  0  0  0  0  0  0  0  0  0
    1.1058    5.7474    0.8175 H   0  0  0  0  0  0  0  0  0  0  0  0
    2.3485    1.7467   -2.5530 H   0  0  0  0  0  0  0  0  0  0  0  0
    2.1744    6.6586   -1.6269 H   0  0  0  0  0  0  0  0  0  0  0  0
    3.1316    3.3761   -4.2457 H   0  0  0  0  0  0  0  0  0  0  0  0
    3.0480    5.8011   -3.7953 H   0  0  0  0  0  0  0  0  0  0  0  0
    0.1252   -1.5307   -1.4106 N   0  0  0  0  0  0  0  0  0  0  0  0
    0.1483   -2.9657   -1.5804 C   0  0  2  0  0  0  0  0  0  0  0  0
    0.9889   -3.5588   -0.4574 C   0  0  0  0  0  0  0  0  0  0  0  0
    1.8355   -2.9148    0.1587 O   0  0  0  0  0  0  0  0  0  0  0  0
    0.7074   -3.3530   -2.9406 C   0  0  0  0  0  0  0  0  0  0  0  0
    0.3478   -0.9466   -2.2113 H   0  0  0  0  0  0  0  0  0  0  0  0
   -0.8866   -3.3122   -1.4849 H   0  0  0  0  0  0  0  0  0  0  0  0
    1.7436   -3.0143   -3.0548 H   0  0  0  0  0  0  0  0  0  0  0  0
    0.6977   -4.4392   -3.0790 H   0  0  0  0  0  0  0  0  0  0  0  0
    0.1193   -2.9013   -3.7468 H   0  0  0  0  0  0  0  0  0  0  0  0
    0.7127   -4.9035   -0.2531 N   0  0  0  0  0  0  0  0  0  0  0  0
    1.3885   -5.6947    0.7485 C   0  0  0  0  0  0  0  0  0  0  0  0
   -0.0185   -5.3517   -0.7973 H   0  0  0  0  0  0  0  0  0  0  0  0
    2.2632   -6.1873    0.2987 H   0  0  0  0  0  0  0  0  0  0  0  0
    1.7178   -5.0421    1.5705 H   0  0  0  0  0  0  0  0  0  0  0  0
    0.6992   -6.4575    1.1396 H   0  0  0  0  0  0  0  0  0  0  0  0
 29 30  2  0  0  0  0
 27 29  1  0  0  0  0
 28 30  1  0  0  0  0
 24 27  2  0  0  0  0
 26 28  2  0  0  0  0
 22 23  2  0  0  0  0
 23 25  1  0  0  0  0
 22 24  1  0  0  0  0
 24 26  1  0  0  0  0
 21 22  1  0  0  0  0
 25 26  1  0  0  0  0
  1  3  1  0  0  0  0
  1  7  1  0  0  0  0
  1  2  2  0  0  0  0
 42 43  1  0  0  0  0
 43 51  1  0  0  0  0
 43 44  2  0  0  0  0
  8  9  1  0  0  0  0
  9 17  1  0  0  0  0
  9 10  2  0  0  0  0
 18 19  1  0  0  0  0
 19 41  1  0  0  0  0
 19 20  2  0  0  0  0
 42 45  1  0  0  0  0
  8 11  1  0  0  0  0
 51 52  1  0  0  0  0
 18 21  1  0  0  0  0
 41 42  1  0  0  0  0
  7  8  1  0  0  0  0
 17 18  1  0  0  0  0
 29 39  1  0  0  0  0
 30 40  1  0  0  0  0
 27 37  1  0  0  0  0
 28 38  1  0  0  0  0
 23 35  1  0  0  0  0
  3  4  1  0  0  0  0
  3  5  1  0  0  0  0
  3  6  1  0  0  0  0
 45 48  1  0  0  0  0
 45 49  1  0  0  0  0
 45 50  1  0  0  0  0
 11 14  1  0  0  0  0
 11 15  1  0  0  0  0
 11 16  1  0  0  0  0
 52 54  1  0  0  0  0
 52 55  1  0  0  0  0
 52 56  1  0  0  0  0
 21 33  1  0  0  0  0
 21 34  1  0  0  0  0
 42 47  1  0  0  0  0
  8 13  1  0  0  0  0
 18 32  1  0  0  0  0
 25 36  1  0  0  0  0
 51 53  1  0  0  0  0
  7 12  1  0  0  0  0
 41 46  1  0  0  0  0
 17 31  1  0  0  0  0
M  END
$$$$

  -OEChem-05262214473D

 56 57  0     1  0  0  0  0  0999 V2000
   -2.2900    0.3401    4.1553 C   0  0  0  0  0  0  0  0  0  0  0  0
   -1.3426   -0.2746    3.6796 O   0  0  0  0  0  0  0  0  0  0  0  0
   -2.7219    0.0577    5.5560 C   0  0  0  0  0  0  0  0  0  0  0  0
   -3.4815   -0.7386    5.6094 H   0  0  0  0  0  0  0  0  0  0  0  0
   -1.8906   -0.2899    6.1903 H   0  0  0  0  0  0  0  0  0  0  0  0
   -3.1599    0.9126    6.0956 H   0  0  0  0  0  0  0  0  0  0  0  0
   -3.0397    1.3125    3.5142 N   0  0  0  0  0  0  0  0  0  0  0  0
   -2.7928    1.7385    2.1618 C   0  0  2  0  0  0  0  0  0  0  0  0
   -1.4579    1.1532    1.7206 C   0  0  0  0  0  0  0  0  0  0  0  0
   -0.5858    0.8004    2.5118 O   0  0  0  0  0  0  0  0  0  0  0  0
   -2.7841    3.2553    2.0523 C   0  0  0  0  0  0  0  0  0  0  0  0
   -3.8047    1.7484    4.0260 H   0  0  0  0  0  0  0  0  0  0  0  0
   -3.5969    1.3201    1.5466 H   0  0  0  0  0  0  0  0  0  0  0  0
   -1.9850    3.6926    2.6620 H   0  0  0  0  0  0  0  0  0  0  0  0
   -2.6246    3.5776    1.0180 H   0  0  0  0  0  0  0  0  0  0  0  0
   -3.7342    3.6765    2.3981 H   0  0  0  0  0  0  0  0  0  0  0  0
   -1.3352    1.1101    0.3372 N   0  0  0  0  0  0  0  0  0  0  0  0
   -0.1579    0.6093   -0.3265 C   0  0  2  0  0  0  0  0  0  0  0  0
   -0.1857   -0.9104   -0.2085 C   0  0  0  0  0  0  0  0  0  0  0  0
   -0.7391   -1.4996    0.7175 O   0  0  0  0  0  0  0  0  0  0  0  0
    1.1327    1.1677    0.2841 C   0  0  0  0  0  0  0  0  0  0  0  0
    1.2904    2.6516    0.0590 C   0  0  0  0  0  0  0  0  0  0  0  0
    0.9565    3.6402    0.9557 C   0  0  0  0  0  0  0  0  0  0  0  0
    1.8081    3.2816   -1.1072 C   0  0  0  0  0  0  0  0  0  0  0  0
    1.2504    4.8475    0.3807 N   0  0  0  0  0  0  0  0  0  0  0  0
    1.7720    4.6590   -0.8793 C   0  0  0  0  0  0  0  0  0  0  0  0
    2.3055    2.8108   -2.3386 C   0  0  0  0  0  0  0  0  0  0  0  0
    2.2102    5.5927   -1.8250 C   0  0  0  0  0  0  0  0  0  0  0  0
    2.7474    3.7332   -3.2940 C   0  0  0  0  0  0  0  0  0  0  0  0
    2.6996    5.1024   -3.0390 C   0  0  0  0  0  0  0  0  0  0  0  0
   -2.1183    1.4068   -0.2401 H   0  0  0  0  0  0  0  0  0  0  0  0
   -0.2517    0.8890   -1.3824 H   0  0  0  0  0  0  0  0  0  0  0  0
    2.0054    0.6378   -0.1209 H   0  0  0  0  0  0  0  0  0  0  0  0
    1.1580    0.9794    1.3656 H   0  0  0  0  0  0  0  0  0  0  0  0
    0.5350    3.5941    1.9504 H   0  0  0  0  0  0  0  0  0  0  0  0
    1.1058    5.7474    0.8175 H   0  0  0  0  0  0  0  0  0  0  0  0
    2.3485    1.7467   -2.5530 H   0  0  0  0  0  0  0  0  0  0  0  0
    2.1744    6.6586   -1.6269 H   0  0  0  0  0  0  0  0  0  0  0  0
    3.1316    3.3761   -4.2457 H   0  0  0  0  0  0  0  0  0  0  0  0
    3.0480    5.8011   -3.7953 H   0  0  0  0  0  0  0  0  0  0  0  0
    0.4369   -1.5266   -1.2851 N   0  0  0  0  0  0  0  0  0  0  0  0
    0.5308   -2.9613   -1.4327 C   0  0  2  0  0  0  0  0  0  0  0  0
    1.0645   -3.5345   -0.1265 C   0  0  0  0  0  0  0  0  0  0  0  0
    1.7108   -2.8718    0.6823 O   0  0  0  0  0  0  0  0  0  0  0  0
    1.4294   -3.3398   -2.5997 C   0  0  0  0  0  0  0  0  0  0  0  0
    0.8472   -0.9398   -2.0055 H   0  0  0  0  0  0  0  0  0  0  0  0
   -0.4867   -3.3288   -1.6048 H   0  0  0  0  0  0  0  0  0  0  0  0
    2.4532   -2.9799   -2.4453 H   0  0  0  0  0  0  0  0  0  0  0  0
    1.4768   -4.4262   -2.7279 H   0  0  0  0  0  0  0  0  0  0  0  0
    1.0606   -2.9020   -3.5336 H   0  0  0  0  0  0  0  0  0  0  0  0
    0.7712   -4.8841    0.0095 N   0  0  0  0  0  0  0  0  0  0  0  0
    1.1808   -5.6592    1.1573 C   0  0  0  0  0  0  0  0  0  0  0  0
    0.2140   -5.3485   -0.7016 H   0  0  0  0  0  0  0  0  0  0  0  0
    2.1514   -6.1345    0.9520 H   0  0  0  0  0  0  0  0  0  0  0  0
    1.2741   -4.9982    2.0316 H   0  0  0  0  0  0  0  0  0  0  0  0
    0.4288   -6.4352    1.3630 H   0  0  0  0  0  0  0  0  0  0  0  0
 29 30  2  0  0  0  0
 27 29  1  0  0  0  0
 28 30  1  0  0  0  0
 24 27  2  0  0  0  0
 26 28  2  0  0  0  0
 22 23  2  0  0  0  0
 23 25  1  0  0  0  0
 22 24  1  0  0  0  0
 24 26  1  0  0  0  0
 21 22  1  0  0  0  0
 25 26  1  0  0  0  0
  1  3  1  0  0  0  0
  1  7  1  0  0  0  0
  1  2  2  0  0  0  0
 42 43  1  0  0  0  0
 43 51  1  0  0  0  0
 43 44  2  0  0  0  0
  8  9  1  0  0  0  0
  9 17  1  0  0  0  0
  9 10  2  0  0  0  0
 18 19  1  0  0  0  0
 19 41  1  0  0  0  0
 19 20  2  0  0  0  0
 42 45  1  0  0  0  0
  8 11  1  0  0  0  0
 51 52  1  0  0  0  0
 18 21  1  0  0  0  0
 41 42  1  0  0  0  0
  7  8  1  0  0  0  0
 17 18  1  0  0  0  0
 29 39  1  0  0  0  0
 30 40  1  0  0  0  0
 27 37  1  0  0  0  0
 28 38  1  0  0  0  0
 23 35  1  0  0  0  0
  3  4  1  0  0  0  0
  3  5  1  0  0  0  0
  3  6  1  0  0  0  0
 45 48  1  0  0  0  0
 45 49  1  0  0  0  0
 45 50  1  0  0  0  0
 11 14  1  0  0  0  0
 11 15  1  0  0  0  0
 11 16  1  0  0  0  0
 52 54  1  0  0  0  0
 52 55  1  0  0  0  0
 52 56  1  0  0  0  0
 21 33  1  0  0  0  0
 21 34  1  0  0  0  0
 42 47  1  0  0  0  0
  8 13  1  0  0  0  0
 18 32  1  0  0  0  0
 25 36  1  0  0  0  0
 51 53  1  0  0  0  0
  7 12  1  0  0  0  0
 41 46  1  0  0  0  0
 17 31  1  0  0  0  0
M  END
$$$$

  -OEChem-05262214473D

 56 57  0     1  0  0  0  0  0999 V2000
   -2.2900    0.3401    4.1553 C   0  0  0  0  0  0  0  0  0  0  0  0
   -1.3426   -0.2746    3.6796 O   0  0  0  0  0  0  0  0  0  0  0  0
   -2.7219    0.0577    5.5560 C   0  0  0  0  0  0  0  0  0  0  0  0
   -3.4815   -0.7386    5.6094 H   0  0  0  0  0  0  0  0  0  0  0  0
   -1.8906   -0.2899    6.1903 H   0  0  0  0  0  0  0  0  0  0  0  0
   -3.1599    0.9126    6.0956 H   0  0  0  0  0  0  0  0  0  0  0  0
   -3.0397    1.3125    3.5142 N   0  0  0  0  0  0  0  0  0  0  0  0
   -2.7928    1.7385    2.1618 C   0  0  2  0  0  0  0  0  0  0  0  0
   -1.4579    1.1532    1.7206 C   0  0  0  0  0  0  0  0  0  0  0  0
   -0.5858    0.8004    2.5118 O   0  0  0  0  0  0  0  0  0  0  0  0
   -2.7841    3.2553    2.0523 C   0  0  0  0  0  0  0  0  0  0  0  0
   -3.8047    1.7484    4.0260 H   0  0  0  0  0  0  0  0  0  0  0  0
   -3.5969    1.3201    1.5466 H   0  0  0  0  0  0  0  0  0  0  0  0
   -1.9850    3.6926    2.6620 H   0  0  0  0  0  0  0  0  0  0  0  0
   -2.6246    3.5776    1.0180 H   0  0  0  0  0  0  0  0  0  0  0  0
   -3.7342    3.6765    2.3981 H   0  0  0  0  0  0  0  0  0  0  0  0
   -1.3352    1.1101    0.3372 N   0  0  0  0  0  0  0  0  0  0  0  0
   -0.1579    0.6093   -0.3265 C   0  0  2  0  0  0  0  0  0  0  0  0
   -0.1857   -0.9104   -0.2085 C   0  0  0  0  0  0  0  0  0  0  0  0
   -0.9478   -1.5090    0.5477 O   0  0  0  0  0  0  0  0  0  0  0  0
    1.1327    1.1677    0.2841 C   0  0  0  0  0  0  0  0  0  0  0  0
    1.2904    2.6516    0.0590 C   0  0  0  0  0  0  0  0  0  0  0  0
    0.9565    3.6402    0.9557 C   0  0  0  0  0  0  0  0  0  0  0  0
    1.8081    3.2816   -1.1072 C   0  0  0  0  0  0  0  0  0  0  0  0
    1.2504    4.8475    0.3807 N   0  0  0  0  0  0  0  0  0  0  0  0
    1.7720    4.6590   -0.8793 C   0  0  0  0  0  0  0  0  0  0  0  0
    2.3055    2.8108   -2.3386 C   0  0  0  0  0  0  0  0  0  0  0  0
    2.2102    5.5927   -1.8250 C   0  0  0  0  0  0  0  0  0  0  0  0
    2.7474    3.7332   -3.2940 C   0  0  0  0  0  0  0  0  0  0  0  0
    2.6996    5.1024   -3.0390 C   0  0  0  0  0  0  0  0  0  0  0  0
   -2.1183    1.4068   -0.2401 H   0  0  0  0  0  0  0  0  0  0  0  0
   -0.2517    0.8890   -1.3824 H   0  0  0  0  0  0  0  0  0  0  0  0
    2.0054    0.6378   -0.1209 H   0  0  0  0  0  0  0  0  0  0  0  0
    1.1580    0.9794    1.3656 H   0  0  0  0  0  0  0  0  0  0  0  0
    0.5350    3.5941    1.9504 H   0  0  0  0  0  0  0  0  0  0  0  0
    1.1058    5.7474    0.8175 H   0  0  0  0  0  0  0  0  0  0  0  0
    2.3485    1.7467   -2.5530 H   0  0  0  0  0  0  0  0  0  0  0  0
    2.1744    6.6586   -1.6269 H   0  0  0  0  0  0  0  0  0  0  0  0
    3.1316    3.3761   -4.2457 H   0  0  0  0  0  0  0  0  0  0  0  0
    3.0480    5.8011   -3.7953 H   0  0  0  0  0  0  0  0  0  0  0  0
    0.7055   -1.5159   -1.0835 N   0  0  0  0  0  0  0  0  0  0  0  0
    0.8621   -2.9486   -1.1913 C   0  0  2  0  0  0  0  0  0  0  0  0
    1.0517   -3.5079    0.2125 C   0  0  0  0  0  0  0  0  0  0  0  0
    1.4544   -2.8304    1.1558 O   0  0  0  0  0  0  0  0  0  0  0  0
    2.0386   -3.3109   -2.0843 C   0  0  0  0  0  0  0  0  0  0  0  0
    1.2763   -0.9222   -1.6780 H   0  0  0  0  0  0  0  0  0  0  0  0
   -0.0692   -3.3374   -1.6174 H   0  0  0  0  0  0  0  0  0  0  0  0
    2.9807   -2.9297   -1.6736 H   0  0  0  0  0  0  0  0  0  0  0  0
    2.1385   -4.3964   -2.1879 H   0  0  0  0  0  0  0  0  0  0  0  0
    1.9149   -2.8827   -3.0848 H   0  0  0  0  0  0  0  0  0  0  0  0
    0.7594   -4.8631    0.2782 N   0  0  0  0  0  0  0  0  0  0  0  0
    0.8740   -5.6271    1.4985 C   0  0  0  0  0  0  0  0  0  0  0  0
    0.4137   -5.3404   -0.5491 H   0  0  0  0  0  0  0  0  0  0  0  0
    1.8737   -6.0827    1.5540 H   0  0  0  0  0  0  0  0  0  0  0  0
    0.7257   -4.9624    2.3623 H   0  0  0  0  0  0  0  0  0  0  0  0
    0.1096   -6.4180    1.5089 H   0  0  0  0  0  0  0  0  0  0  0  0
 29 30  2  0  0  0  0
 27 29  1  0  0  0  0
 28 30  1  0  0  0  0
 24 27  2  0  0  0  0
 26 28  2  0  0  0  0
 22 23  2  0  0  0  0
 23 25  1  0  0  0  0
 22 24  1  0  0  0  0
 24 26  1  0  0  0  0
 21 22  1  0  0  0  0
 25 26  1  0  0  0  0
  1  3  1  0  0  0  0
  1  7  1  0  0  0  0
  1  2  2  0  0  0  0
 42 43  1  0  0  0  0
 43 51  1  0  0  0  0
 43 44  2  0  0  0  0
  8  9  1  0  0  0  0
  9 17  1  0  0  0  0
  9 10  2  0  0  0  0
 18 19  1  0  0  0  0
 19 41  1  0  0  0  0
 19 20  2  0  0  0  0
 42 45  1  0  0  0  0
  8 11  1  0  0  0  0
 51 52  1  0  0  0  0
 18 21  1  0  0  0  0
 41 42  1  0  0  0  0
  7  8  1  0  0  0  0
 17 18  1  0  0  0  0
 29 39  1  0  0  0  0
 30 40  1  0  0  0  0
 27 37  1  0  0  0  0
 28 38  1  0  0  0  0
 23 35  1  0  0  0  0
  3  4  1  0  0  0  0
  3  5  1  0  0  0  0
  3  6  1  0  0  0  0
 45 48  1  0  0  0  0
 45 49  1  0  0  0  0
 45 50  1  0  0  0  0
 11 14  1  0  0  0  0
 11 15  1  0  0  0  0
 11 16  1  0  0  0  0
 52 54  1  0  0  0  0
 52 55  1  0  0  0  0
 52 56  1  0  0  0  0
 21 33  1  0  0  0  0
 21 34  1  0  0  0  0
 42 47  1  0  0  0  0
  8 13  1  0  0  0  0
 18 32  1  0  0  0  0
 25 36  1  0  0  0  0
 51 53  1  0  0  0  0
  7 12  1  0  0  0  0
 41 46  1  0  0  0  0
 17 31  1  0  0  0  0
M  END
$$$$

  -OEChem-05262214473D

 56 57  0     1  0  0  0  0  0999 V2000
   -2.2900    0.3401    4.1553 C   0  0  0  0  0  0  0  0  0  0  0  0
   -1.3426   -0.2746    3.6796 O   0  0  0  0  0  0  0  0  0  0  0  0
   -2.7219    0.0577    5.5560 C   0  0  0  0  0  0  0  0  0  0  0  0
   -3.4815   -0.7386    5.6094 H   0  0  0  0  0  0  0  0  0  0  0  0
   -1.8906   -0.2899    6.1903 H   0  0  0  0  0  0  0  0  0  0  0  0
   -3.1599    0.9126    6.0956 H   0  0  0  0  0  0  0  0  0  0  0  0
   -3.0397    1.3125    3.5142 N   0  0  0  0  0  0  0  0  0  0  0  0
   -2.7928    1.7385    2.1618 C   0  0  2  0  0  0  0  0  0  0  0  0
   -1.4579    1.1532    1.7206 C   0  0  0  0  0  0  0  0  0  0  0  0
   -0.5858    0.8004    2.5118 O   0  0  0  0  0  0  0  0  0  0  0  0
   -2.7841    3.2553    2.0523 C   0  0  0  0  0  0  0  0  0  0  0  0
   -3.8047    1.7484    4.0260 H   0  0  0  0  0  0  0  0  0  0  0  0
   -3.5969    1.3201    1.5466 H   0  0  0  0  0  0  0  0  0  0  0  0
   -1.9850    3.6926    2.6620 H   0  0  0  0  0  0  0  0  0  0  0  0
   -2.6246    3.5776    1.0180 H   0  0  0  0  0  0  0  0  0  0  0  0
   -3.7342    3.6765    2.3981 H   0  0  0  0  0  0  0  0  0  0  0  0
   -1.3352    1.1101    0.3372 N   0  0  0  0  0  0  0  0  0  0  0  0
   -0.1579    0.6093   -0.3265 C   0  0  2  0  0  0  0  0  0  0  0  0
   -0.3639   -0.8856   -0.5434 C   0  0  0  0  0  0  0  0  0  0  0  0
   -1.3955   -1.4722   -0.2232 O   0  0  0  0  0  0  0  0  0  0  0  0
    1.1164    0.8589    0.4883 C   0  0  0  0  0  0  0  0  0  0  0  0
    1.4580    2.3245    0.6032 C   0  0  0  0  0  0  0  0  0  0  0  0
    1.1440    3.1417    1.6645 C   0  0  0  0  0  0  0  0  0  0  0  0
    2.1587    3.1091   -0.3551 C   0  0  0  0  0  0  0  0  0  0  0  0
    1.6259    4.3934    1.3895 N   0  0  0  0  0  0  0  0  0  0  0  0
    2.2504    4.4028    0.1626 C   0  0  0  0  0  0  0  0  0  0  0  0
    2.7254    2.8419   -1.6172 C   0  0  0  0  0  0  0  0  0  0  0  0
    2.8831    5.4469   -0.5214 C   0  0  0  0  0  0  0  0  0  0  0  0
    3.3614    3.8765   -2.3128 C   0  0  0  0  0  0  0  0  0  0  0  0
    3.4379    5.1582   -1.7715 C   0  0  0  0  0  0  0  0  0  0  0  0
   -2.1183    1.4068   -0.2401 H   0  0  0  0  0  0  0  0  0  0  0  0
   -0.1115    1.1102   -1.3006 H   0  0  0  0  0  0  0  0  0  0  0  0
    1.9629    0.3158    0.0466 H   0  0  0  0  0  0  0  0  0  0  0  0
    1.0098    0.4503    1.5019 H   0  0  0  0  0  0  0  0  0  0  0  0
    0.6200    2.9464    2.5900 H   0  0  0  0  0  0  0  0  0  0  0  0
    1.5366    5.1950    1.9985 H   0  0  0  0  0  0  0  0  0  0  0  0
    2.6734    1.8483   -2.0532 H   0  0  0  0  0  0  0  0  0  0  0  0
    2.9440    6.4447   -0.1003 H   0  0  0  0  0  0  0  0  0  0  0  0
    3.7999    3.6766   -3.2868 H   0  0  0  0  0  0  0  0  0  0  0  0
    3.9366    5.9469   -2.3290 H   0  0  0  0  0  0  0  0  0  0  0  0
    0.7203   -1.4724   -1.1810 N   0  0  0  0  0  0  0  0  0  0  0  0
    0.7739   -2.8747   -1.5268 C   0  0  2  0  0  0  0  0  0  0  0  0
    0.4022   -3.6790   -0.2882 C   0  0  0  0  0  0  0  0  0  0  0  0
    0.5046   -3.2371    0.8543 O   0  0  0  0  0  0  0  0  0  0  0  0
    2.1521   -3.2667   -2.0362 C   0  0  0  0  0  0  0  0  0  0  0  0
    1.5162   -0.8868   -1.4165 H   0  0  0  0  0  0  0  0  0  0  0  0
    0.0225   -3.0368   -2.3074 H   0  0  0  0  0  0  0  0  0  0  0  0
    2.9182   -3.1111   -1.2678 H   0  0  0  0  0  0  0  0  0  0  0  0
    2.1830   -4.3226   -2.3246 H   0  0  0  0  0  0  0  0  0  0  0  0
    2.4303   -2.6664   -2.9092 H   0  0  0  0  0  0  0  0  0  0  0  0
   -0.0165   -4.9635   -0.6062 N   0  0  0  0  0  0  0  0  0  0  0  0
   -0.4116   -5.9253    0.3961 C   0  0  0  0  0  0  0  0  0  0  0  0
   -0.0887   -5.2384   -1.5814 H   0  0  0  0  0  0  0  0  0  0  0  0
    0.4577   -6.5356    0.6823 H   0  0  0  0  0  0  0  0  0  0  0  0
   -0.7951   -5.3961    1.2809 H   0  0  0  0  0  0  0  0  0  0  0  0
   -1.1987   -6.5769   -0.0112 H   0  0  0  0  0  0  0  0  0  0  0  0
 29 30  2  0  0  0  0
 27 29  1  0  0  0  0
 28 30  1  0  0  0  0
 24 27  2  0  0  0  0
 26 28  2  0  0  0  0
 22 23  2  0  0  0  0
 23 25  1  0  0  0  0
 22 24  1  0  0  0  0
 24 26  1  0  0  0  0
 21 22  1  0  0  0  0
 25 26  1  0  0  0  0
  1  3  1  0  0  0  0
  1  7  1  0  0  0  0
  1  2  2  0  0  0  0
 42 43  1  0  0  0  0
 43 51  1  0  0  0  0
 43 44  2  0  0  0  0
  8  9  1  0  0  0  0
  9 17  1  0  0  0  0
  9 10  2  0  0  0  0
 18 19  1  0  0  0  0
 19 41  1  0  0  0  0
 19 20  2  0  0  0  0
 42 45  1  0  0  0  0
  8 11  1  0  0  0  0
 51 52  1  0  0  0  0
 18 21  1  0  0  0  0
 41 42  1  0  0  0  0
  7  8  1  0  0  0  0
 17 18  1  0  0  0  0
 29 39  1  0  0  0  0
 30 40  1  0  0  0  0
 27 37  1  0  0  0  0
 28 38  1  0  0  0  0
 23 35  1  0  0  0  0
  3  4  1  0  0  0  0
  3  5  1  0  0  0  0
  3  6  1  0  0  0  0
 45 48  1  0  0  0  0
 45 49  1  0  0  0  0
 45 50  1  0  0  0  0
 11 14  1  0  0  0  0
 11 15  1  0  0  0  0
 11 16  1  0  0  0  0
 52 54  1  0  0  0  0
 52 55  1  0  0  0  0
 52 56  1  0  0  0  0
 21 33  1  0  0  0  0
 21 34  1  0  0  0  0
 42 47  1  0  0  0  0
  8 13  1  0  0  0  0
 18 32  1  0  0  0  0
 25 36  1  0  0  0  0
 51 53  1  0  0  0  0
  7 12  1  0  0  0  0
 41 46  1  0  0  0  0
 17 31  1  0  0  0  0
M  END
$$$$

  -OEChem-05262214473D

 56 57  0     1  0  0  0  0  0999 V2000
   -2.2900    0.3401    4.1553 C   0  0  0  0  0  0  0  0  0  0  0  0
   -1.3426   -0.2746    3.6796 O   0  0  0  0  0  0  0  0  0  0  0  0
   -2.7219    0.0577    5.5560 C   0  0  0  0  0  0  0  0  0  0  0  0
   -3.4815   -0.7386    5.6094 H   0  0  0  0  0  0  0  0  0  0  0  0
   -1.8906   -0.2899    6.1903 H   0  0  0  0  0  0  0  0  0  0  0  0
   -3.1599    0.9126    6.0956 H   0  0  0  0  0  0  0  0  0  0  0  0
   -3.0397    1.3125    3.5142 N   0  0  0  0  0  0  0  0  0  0  0  0
   -2.7928    1.7385    2.1618 C   0  0  2  0  0  0  0  0  0  0  0  0
   -1.4579    1.1532    1.7206 C   0  0  0  0  0  0  0  0  0  0  0  0
   -0.5858    0.8004    2.5118 O   0  0  0  0  0  0  0  0  0  0  0  0
   -2.7841    3.2553    2.0523 C   0  0  0  0  0  0  0  0  0  0  0  0
   -3.8047    1.7484    4.0260 H   0  0  0  0  0  0  0  0  0  0  0  0
   -3.5969    1.3201    1.5466 H   0  0  0  0  0  0  0  0  0  0  0  0
   -1.9850    3.6926    2.6620 H   0  0  0  0  0  0  0  0  0  0  0  0
   -2.6246    3.5776    1.0180 H   0  0  0  0  0  0  0  0  0  0  0  0
   -3.7342    3.6765    2.3981 H   0  0  0  0  0  0  0  0  0  0  0  0
   -1.3352    1.1101    0.3372 N   0  0  0  0  0  0  0  0  0  0  0  0
   -0.1579    0.6093   -0.3265 C   0  0  2  0  0  0  0  0  0  0  0  0
   -0.3639   -0.8856   -0.5434 C   0  0  0  0  0  0  0  0  0  0  0  0
   -1.4663   -1.4254   -0.4786 O   0  0  0  0  0  0  0  0  0  0  0  0
    1.1164    0.8589    0.4883 C   0  0  0  0  0  0  0  0  0  0  0  0
    1.4580    2.3245    0.6032 C   0  0  0  0  0  0  0  0  0  0  0  0
    1.1440    3.1417    1.6645 C   0  0  0  0  0  0  0  0  0  0  0  0
    2.1587    3.1091   -0.3551 C   0  0  0  0  0  0  0  0  0  0  0  0
    1.6259    4.3934    1.3895 N   0  0  0  0  0  0  0  0  0  0  0  0
    2.2504    4.4028    0.1626 C   0  0  0  0  0  0  0  0  0  0  0  0
    2.7254    2.8419   -1.6172 C   0  0  0  0  0  0  0  0  0  0  0  0
    2.8831    5.4469   -0.5214 C   0  0  0  0  0  0  0  0  0  0  0  0
    3.3614    3.8765   -2.3128 C   0  0  0  0  0  0  0  0  0  0  0  0
    3.4379    5.1582   -1.7715 C   0  0  0  0  0  0  0  0  0  0  0  0
   -2.1183    1.4068   -0.2401 H   0  0  0  0  0  0  0  0  0  0  0  0
   -0.1115    1.1102   -1.3006 H   0  0  0  0  0  0  0  0  0  0  0  0
    1.9629    0.3158    0.0466 H   0  0  0  0  0  0  0  0  0  0  0  0
    1.0098    0.4503    1.5019 H   0  0  0  0  0  0  0  0  0  0  0  0
    0.6200    2.9464    2.5900 H   0  0  0  0  0  0  0  0  0  0  0  0
    1.5366    5.1950    1.9985 H   0  0  0  0  0  0  0  0  0  0  0  0
    2.6734    1.8483   -2.0532 H   0  0  0  0  0  0  0  0  0  0  0  0
    2.9440    6.4447   -0.1003 H   0  0  0  0  0  0  0  0  0  0  0  0
    3.7999    3.6766   -3.2868 H   0  0  0  0  0  0  0  0  0  0  0  0
    3.9366    5.9469   -2.3290 H   0  0  0  0  0  0  0  0  0  0  0  0
    0.8212   -1.5320   -0.8661 N   0  0  0  0  0  0  0  0  0  0  0  0
    0.9025   -2.9479   -1.1444 C   0  0  2  0  0  0  0  0  0  0  0  0
    0.1965   -3.6900   -0.0173 C   0  0  0  0  0  0  0  0  0  0  0  0
    0.0245   -3.2065    1.0997 O   0  0  0  0  0  0  0  0  0  0  0  0
    2.3474   -3.4042   -1.2742 C   0  0  0  0  0  0  0  0  0  0  0  0
    1.6742   -0.9823   -0.9089 H   0  0  0  0  0  0  0  0  0  0  0  0
    0.3672   -3.1166   -2.0851 H   0  0  0  0  0  0  0  0  0  0  0  0
    2.8998   -3.2430   -0.3412 H   0  0  0  0  0  0  0  0  0  0  0  0
    2.4066   -4.4711   -1.5132 H   0  0  0  0  0  0  0  0  0  0  0  0
    2.8620   -2.8484   -2.0654 H   0  0  0  0  0  0  0  0  0  0  0  0
   -0.1808   -4.9718   -0.3925 N   0  0  0  0  0  0  0  0  0  0  0  0
   -0.8561   -5.8798    0.5050 C   0  0  0  0  0  0  0  0  0  0  0  0
   -0.0151   -5.2828   -1.3451 H   0  0  0  0  0  0  0  0  0  0  0  0
   -0.1136   -6.5060    1.0212 H   0  0  0  0  0  0  0  0  0  0  0  0
   -1.4289   -5.3038    1.2467 H   0  0  0  0  0  0  0  0  0  0  0  0
   -1.5408   -6.5213   -0.0693 H   0  0  0  0  0  0  0  0  0  0  0  0
 29 30  2  0  0  0  0
 27 29  1  0  0  0  0
 28 30  1  0  0  0  0
 24 27  2  0  0  0  0
 26 28  2  0  0  0  0
 22 23  2  0  0  0  0
 23 25  1  0  0  0  0
 22 24  1  0  0  0  0
 24 26  1  0  0  0  0
 21 22  1  0  0  0  0
 25 26  1  0  0  0  0
  1  3  1  0  0  0  0
  1  7  1  0  0  0  0
  1  2  2  0  0  0  0
 42 43  1  0  0  0  0
 43 51  1  0  0  0  0
 43 44  2  0  0  0  0
  8  9  1  0  0  0  0
  9 17  1  0  0  0  0
  9 10  2  0  0  0  0
 18 19  1  0  0  0  0
 19 41  1  0  0  0  0
 19 20  2  0  0  0  0
 42 45  1  0  0  0  0
  8 11  1  0  0  0  0
 51 52  1  0  0  0  0
 18 21  1  0  0  0  0
 41 42  1  0  0  0  0
  7  8  1  0  0  0  0
 17 18  1  0  0  0  0
 29 39  1  0  0  0  0
 30 40  1  0  0  0  0
 27 37  1  0  0  0  0
 28 38  1  0  0  0  0
 23 35  1  0  0  0  0
  3  4  1  0  0  0  0
  3  5  1  0  0  0  0
  3  6  1  0  0  0  0
 45 48  1  0  0  0  0
 45 49  1  0  0  0  0
 45 50  1  0  0  0  0
 11 14  1  0  0  0  0
 11 15  1  0  0  0  0
 11 16  1  0  0  0  0
 52 54  1  0  0  0  0
 52 55  1  0  0  0  0
 52 56  1  0  0  0  0
 21 33  1  0  0  0  0
 21 34  1  0  0  0  0
 42 47  1  0  0  0  0
  8 13  1  0  0  0  0
 18 32  1  0  0  0  0
 25 36  1  0  0  0  0
 51 53  1  0  0  0  0
  7 12  1  0  0  0  0
 41 46  1  0  0  0  0
 17 31  1  0  0  0  0
M  END
$$$$

  -OEChem-05262214473D

 56 57  0     1  0  0  0  0  0999 V2000
   -2.2900    0.3401    4.1553 C   0  0  0  0  0  0  0  0  0  0  0  0
   -1.3426   -0.2746    3.6796 O   0  0  0  0  0  0  0  0  0  0  0  0
   -2.7219    0.0577    5.5560 C   0  0  0  0  0  0  0  0  0  0  0  0
   -3.4815   -0.7386    5.6094 H   0  0  0  0  0  0  0  0  0  0  0  0
   -1.8906   -0.2899    6.1903 H   0  0  0  0  0  0  0  0  0  0  0  0
   -3.1599    0.9126    6.0956 H   0  0  0  0  0  0  0  0  0  0  0  0
   -3.0397    1.3125    3.5142 N   0  0  0  0  0  0  0  0  0  0  0  0
   -2.7928    1.7385    2.1618 C   0  0  2  0  0  0  0  0  0  0  0  0
   -1.4579    1.1532    1.7206 C   0  0  0  0  0  0  0  0  0  0  0  0
   -0.5858    0.8004    2.5118 O   0  0  0  0  0  0  0  0  0  0  0  0
   -2.7841    3.2553    2.0523 C   0  0  0  0  0  0  0  0  0  0  0  0
   -3.8047    1.7484    4.0260 H   0  0  0  0  0  0  0  0  0  0  0  0
   -3.5969    1.3201    1.5466 H   0  0  0  0  0  0  0  0  0  0  0  0
   -1.9850    3.6926    2.6620 H   0  0  0  0  0  0  0  0  0  0  0  0
   -2.6246    3.5776    1.0180 H   0  0  0  0  0  0  0  0  0  0  0  0
   -3.7342    3.6765    2.3981 H   0  0  0  0  0  0  0  0  0  0  0  0
   -1.3352    1.1101    0.3372 N   0  0  0  0  0  0  0  0  0  0  0  0
   -0.1579    0.6093   -0.3265 C   0  0  2  0  0  0  0  0  0  0  0  0
   -0.3639   -0.8856   -0.5434 C   0  0  0  0  0  0  0  0  0  0  0  0
   -1.4682   -1.3865   -0.7450 O   0  0  0  0  0  0  0  0  0  0  0  0
    1.1164    0.8589    0.4883 C   0  0  0  0  0  0  0  0  0  0  0  0
    1.4580    2.3245    0.6032 C   0  0  0  0  0  0  0  0  0  0  0  0
    1.1440    3.1417    1.6645 C   0  0  0  0  0  0  0  0  0  0  0  0
    2.1587    3.1091   -0.3551 C   0  0  0  0  0  0  0  0  0  0  0  0
    1.6259    4.3934    1.3895 N   0  0  0  0  0  0  0  0  0  0  0  0
    2.2504    4.4028    0.1626 C   0  0  0  0  0  0  0  0  0  0  0  0
    2.7254    2.8419   -1.6172 C   0  0  0  0  0  0  0  0  0  0  0  0
    2.8831    5.4469   -0.5214 C   0  0  0  0  0  0  0  0  0  0  0  0
    3.3614    3.8765   -2.3128 C   0  0  0  0  0  0  0  0  0  0  0  0
    3.4379    5.1582   -1.7715 C   0  0  0  0  0  0  0  0  0  0  0  0
   -2.1183    1.4068   -0.2401 H   0  0  0  0  0  0  0  0  0  0  0  0
   -0.1115    1.1102   -1.3006 H   0  0  0  0  0  0  0  0  0  0  0  0
    1.9629    0.3158    0.0466 H   0  0  0  0  0  0  0  0  0  0  0  0
    1.0098    0.4503    1.5019 H   0  0  0  0  0  0  0  0  0  0  0  0
    0.6200    2.9464    2.5900 H   0  0  0  0  0  0  0  0  0  0  0  0
    1.5366    5.1950    1.9985 H   0  0  0  0  0  0  0  0  0  0  0  0
    2.6734    1.8483   -2.0532 H   0  0  0  0  0  0  0  0  0  0  0  0
    2.9440    6.4447   -0.1003 H   0  0  0  0  0  0  0  0  0  0  0  0
    3.7999    3.6766   -3.2868 H   0  0  0  0  0  0  0  0  0  0  0  0
    3.9366    5.9469   -2.3290 H   0  0  0  0  0  0  0  0  0  0  0  0
    0.8365   -1.5823   -0.5343 N   0  0  0  0  0  0  0  0  0  0  0  0
    0.9270   -3.0100   -0.7397 C   0  0  2  0  0  0  0  0  0  0  0  0
   -0.0714   -3.6835    0.1925 C   0  0  0  0  0  0  0  0  0  0  0  0
   -0.5003   -3.1508    1.2139 O   0  0  0  0  0  0  0  0  0  0  0  0
    2.3376   -3.5175   -0.4838 C   0  0  0  0  0  0  0  0  0  0  0  0
    1.6946   -1.0625   -0.3752 H   0  0  0  0  0  0  0  0  0  0  0  0
    0.6408   -3.1985   -1.7802 H   0  0  0  0  0  0  0  0  0  0  0  0
    2.6420   -3.3373    0.5537 H   0  0  0  0  0  0  0  0  0  0  0  0
    2.4112   -4.5945   -0.6675 H   0  0  0  0  0  0  0  0  0  0  0  0
    3.0583   -3.0105   -1.1344 H   0  0  0  0  0  0  0  0  0  0  0  0
   -0.3940   -4.9664   -0.2274 N   0  0  0  0  0  0  0  0  0  0  0  0
   -1.3115   -5.8157    0.4957 C   0  0  0  0  0  0  0  0  0  0  0  0
   -0.0056   -5.3202   -1.0967 H   0  0  0  0  0  0  0  0  0  0  0  0
   -0.7503   -6.4446    1.2026 H   0  0  0  0  0  0  0  0  0  0  0  0
   -2.0290   -5.1924    1.0495 H   0  0  0  0  0  0  0  0  0  0  0  0
   -1.8544   -6.4570   -0.2142 H   0  0  0  0  0  0  0  0  0  0  0  0
 29 30  2  0  0  0  0
 27 29  1  0  0  0  0
 28 30  1  0  0  0  0
 24 27  2  0  0  0  0
 26 28  2  0  0  0  0
 22 23  2  0  0  0  0
 23 25  1  0  0  0  0
 22 24  1  0  0  0  0
 24 26  1  0  0  0  0
 21 22  1  0  0  0  0
 25 26  1  0  0  0  0
  1  3  1  0  0  0  0
  1  7  1  0  0  0  0
  1  2  2  0  0  0  0
 42 43  1  0  0  0  0
 43 51  1  0  0  0  0
 43 44  2  0  0  0  0
  8  9  1  0  0  0  0
  9 17  1  0  0  0  0
  9 10  2  0  0  0  0
 18 19  1  0  0  0  0
 19 41  1  0  0  0  0
 19 20  2  0  0  0  0
 42 45  1  0  0  0  0
  8 11  1  0  0  0  0
 51 52  1  0  0  0  0
 18 21  1  0  0  0  0
 41 42  1  0  0  0  0
  7  8  1  0  0  0  0
 17 18  1  0  0  0  0
 29 39  1  0  0  0  0
 30 40  1  0  0  0  0
 27 37  1  0  0  0  0
 28 38  1  0  0  0  0
 23 35  1  0  0  0  0
  3  4  1  0  0  0  0
  3  5  1  0  0  0  0
  3  6  1  0  0  0  0
 45 48  1  0  0  0  0
 45 49  1  0  0  0  0
 45 50  1  0  0  0  0
 11 14  1  0  0  0  0
 11 15  1  0  0  0  0
 11 16  1  0  0  0  0
 52 54  1  0  0  0  0
 52 55  1  0  0  0  0
 52 56  1  0  0  0  0
 21 33  1  0  0  0  0
 21 34  1  0  0  0  0
 42 47  1  0  0  0  0
  8 13  1  0  0  0  0
 18 32  1  0  0  0  0
 25 36  1  0  0  0  0
 51 53  1  0  0  0  0
  7 12  1  0  0  0  0
 41 46  1  0  0  0  0
 17 31  1  0  0  0  0
M  END
$$$$

  -OEChem-05262214473D

 56 57  0     1  0  0  0  0  0999 V2000
   -2.2900    0.3401    4.1553 C   0  0  0  0  0  0  0  0  0  0  0  0
   -1.3426   -0.2746    3.6796 O   0  0  0  0  0  0  0  0  0  0  0  0
   -2.7219    0.0577    5.5560 C   0  0  0  0  0  0  0  0  0  0  0  0
   -3.4815   -0.7386    5.6094 H   0  0  0  0  0  0  0  0  0  0  0  0
   -1.8906   -0.2899    6.1903 H   0  0  0  0  0  0  0  0  0  0  0  0
   -3.1599    0.9126    6.0956 H   0  0  0  0  0  0  0  0  0  0  0  0
   -3.0397    1.3125    3.5142 N   0  0  0  0  0  0  0  0  0  0  0  0
   -2.7928    1.7385    2.1618 C   0  0  2  0  0  0  0  0  0  0  0  0
   -1.4579    1.1532    1.7206 C   0  0  0  0  0  0  0  0  0  0  0  0
   -0.5858    0.8004    2.5118 O   0  0  0  0  0  0  0  0  0  0  0  0
   -2.7841    3.2553    2.0523 C   0  0  0  0  0  0  0  0  0  0  0  0
   -3.8047    1.7484    4.0260 H   0  0  0  0  0  0  0  0  0  0  0  0
   -3.5969    1.3201    1.5466 H   0  0  0  0  0  0  0  0  0  0  0  0
   -1.9850    3.6926    2.6620 H   0  0  0  0  0  0  0  0  0  0  0  0
   -2.6246    3.5776    1.0180 H   0  0  0  0  0  0  0  0  0  0  0  0
   -3.7342    3.6765    2.3981 H   0  0  0  0  0  0  0  0  0  0  0  0
   -1.3352    1.1101    0.3372 N   0  0  0  0  0  0  0  0  0  0  0  0
   -0.1579    0.6093   -0.3265 C   0  0  2  0  0  0  0  0  0  0  0  0
   -0.3639   -0.8856   -0.5434 C   0  0  0  0  0  0  0  0  0  0  0  0
   -1.4009   -1.3582   -1.0041 O   0  0  0  0  0  0  0  0  0  0  0  0
    1.1164    0.8589    0.4883 C   0  0  0  0  0  0  0  0  0  0  0  0
    1.4580    2.3245    0.6032 C   0  0  0  0  0  0  0  0  0  0  0  0
    1.1440    3.1417    1.6645 C   0  0  0  0  0  0  0  0  0  0  0  0
    2.1587    3.1091   -0.3551 C   0  0  0  0  0  0  0  0  0  0  0  0
    1.6259    4.3934    1.3895 N   0  0  0  0  0  0  0  0  0  0  0  0
    2.2504    4.4028    0.1626 C   0  0  0  0  0  0  0  0  0  0  0  0
    2.7254    2.8419   -1.6172 C   0  0  0  0  0  0  0  0  0  0  0  0
    2.8831    5.4469   -0.5214 C   0  0  0  0  0  0  0  0  0  0  0  0
    3.3614    3.8765   -2.3128 C   0  0  0  0  0  0  0  0  0  0  0  0
    3.4379    5.1582   -1.7715 C   0  0  0  0  0  0  0  0  0  0  0  0
   -2.1183    1.4068   -0.2401 H   0  0  0  0  0  0  0  0  0  0  0  0
   -0.1115    1.1102   -1.3006 H   0  0  0  0  0  0  0  0  0  0  0  0
    1.9629    0.3158    0.0466 H   0  0  0  0  0  0  0  0  0  0  0  0
    1.0098    0.4503    1.5019 H   0  0  0  0  0  0  0  0  0  0  0  0
    0.6200    2.9464    2.5900 H   0  0  0  0  0  0  0  0  0  0  0  0
    1.5366    5.1950    1.9985 H   0  0  0  0  0  0  0  0  0  0  0  0
    2.6734    1.8483   -2.0532 H   0  0  0  0  0  0  0  0  0  0  0  0
    2.9440    6.4447   -0.1003 H   0  0  0  0  0  0  0  0  0  0  0  0
    3.7999    3.6766   -3.2868 H   0  0  0  0  0  0  0  0  0  0  0  0
    3.9366    5.9469   -2.3290 H   0  0  0  0  0  0  0  0  0  0  0  0
    0.7652   -1.6198   -0.2081 N   0  0  0  0  0  0  0  0  0  0  0  0
    0.8457   -3.0567   -0.3405 C   0  0  2  0  0  0  0  0  0  0  0  0
   -0.3831   -3.6601    0.3269 C   0  0  0  0  0  0  0  0  0  0  0  0
   -1.0342   -3.0736    1.1890 O   0  0  0  0  0  0  0  0  0  0  0  0
    2.1233   -3.5989    0.2812 C   0  0  0  0  0  0  0  0  0  0  0  0
    1.5758   -1.1221    0.1483 H   0  0  0  0  0  0  0  0  0  0  0  0
    0.8246   -3.2771   -1.4133 H   0  0  0  0  0  0  0  0  0  0  0  0
    2.1624   -3.3876    1.3560 H   0  0  0  0  0  0  0  0  0  0  0  0
    2.1965   -4.6842    0.1548 H   0  0  0  0  0  0  0  0  0  0  0  0
    3.0056   -3.1417   -0.1797 H   0  0  0  0  0  0  0  0  0  0  0  0
   -0.6417   -4.9475   -0.1222 N   0  0  0  0  0  0  0  0  0  0  0  0
   -1.7466   -5.7374    0.3689 C   0  0  0  0  0  0  0  0  0  0  0  0
   -0.0608   -5.3479   -0.8530 H   0  0  0  0  0  0  0  0  0  0  0  0
   -1.4091   -6.3554    1.2140 H   0  0  0  0  0  0  0  0  0  0  0  0
   -2.5546   -5.0697    0.7028 H   0  0  0  0  0  0  0  0  0  0  0  0
   -2.1181   -6.3885   -0.4361 H   0  0  0  0  0  0  0  0  0  0  0  0
 29 30  2  0  0  0  0
 27 29  1  0  0  0  0
 28 30  1  0  0  0  0
 24 27  2  0  0  0  0
 26 28  2  0  0  0  0
 22 23  2  0  0  0  0
 23 25  1  0  0  0  0
 22 24  1  0  0  0  0
 24 26  1  0  0  0  0
 21 22  1  0  0  0  0
 25 26  1  0  0  0  0
  1  3  1  0  0  0  0
  1  7  1  0  0  0  0
  1  2  2  0  0  0  0
 42 43  1  0  0  0  0
 43 51  1  0  0  0  0
 43 44  2  0  0  0  0
  8  9  1  0  0  0  0
  9 17  1  0  0  0  0
  9 10  2  0  0  0  0
 18 19  1  0  0  0  0
 19 41  1  0  0  0  0
 19 20  2  0  0  0  0
 42 45  1  0  0  0  0
  8 11  1  0  0  0  0
 51 52  1  0  0  0  0
 18 21  1  0  0  0  0
 41 42  1  0  0  0  0
  7  8  1  0  0  0  0
 17 18  1  0  0  0  0
 29 39  1  0  0  0  0
 30 40  1  0  0  0  0
 27 37  1  0  0  0  0
 28 38  1  0  0  0  0
 23 35  1  0  0  0  0
  3  4  1  0  0  0  0
  3  5  1  0  0  0  0
  3  6  1  0  0  0  0
 45 48  1  0  0  0  0
 45 49  1  0  0  0  0
 45 50  1  0  0  0  0
 11 14  1  0  0  0  0
 11 15  1  0  0  0  0
 11 16  1  0  0  0  0
 52 54  1  0  0  0  0
 52 55  1  0  0  0  0
 52 56  1  0  0  0  0
 21 33  1  0  0  0  0
 21 34  1  0  0  0  0
 42 47  1  0  0  0  0
  8 13  1  0  0  0  0
 18 32  1  0  0  0  0
 25 36  1  0  0  0  0
 51 53  1  0  0  0  0
  7 12  1  0  0  0  0
 41 46  1  0  0  0  0
 17 31  1  0  0  0  0
M  END
$$$$

  -OEChem-05262214473D

 56 57  0     1  0  0  0  0  0999 V2000
   -2.2900    0.3401    4.1553 C   0  0  0  0  0  0  0  0  0  0  0  0
   -1.3426   -0.2746    3.6796 O   0  0  0  0  0  0  0  0  0  0  0  0
   -2.7219    0.0577    5.5560 C   0  0  0  0  0  0  0  0  0  0  0  0
   -3.4815   -0.7386    5.6094 H   0  0  0  0  0  0  0  0  0  0  0  0
   -1.8906   -0.2899    6.1903 H   0  0  0  0  0  0  0  0  0  0  0  0
   -3.1599    0.9126    6.0956 H   0  0  0  0  0  0  0  0  0  0  0  0
   -3.0397    1.3125    3.5142 N   0  0  0  0  0  0  0  0  0  0  0  0
   -2.7928    1.7385    2.1618 C   0  0  2  0  0  0  0  0  0  0  0  0
   -1.4579    1.1532    1.7206 C   0  0  0  0  0  0  0  0  0  0  0  0
   -0.5858    0.8004    2.5118 O   0  0  0  0  0  0  0  0  0  0  0  0
   -2.7841    3.2553    2.0523 C   0  0  0  0  0  0  0  0  0  0  0  0
   -3.8047    1.7484    4.0260 H   0  0  0  0  0  0  0  0  0  0  0  0
   -3.5969    1.3201    1.5466 H   0  0  0  0  0  0  0  0  0  0  0  0
   -1.9850    3.6926    2.6620 H   0  0  0  0  0  0  0  0  0  0  0  0
   -2.6246    3.5776    1.0180 H   0  0  0  0  0  0  0  0  0  0  0  0
   -3.7342    3.6765    2.3981 H   0  0  0  0  0  0  0  0  0  0  0  0
   -1.3352    1.1101    0.3372 N   0  0  0  0  0  0  0  0  0  0  0  0
   -0.1579    0.6093   -0.3265 C   0  0  2  0  0  0  0  0  0  0  0  0
   -0.3639   -0.8856   -0.5434 C   0  0  0  0  0  0  0  0  0  0  0  0
   -1.2691   -1.3424   -1.2382 O   0  0  0  0  0  0  0  0  0  0  0  0
    1.1164    0.8589    0.4883 C   0  0  0  0  0  0  0  0  0  0  0  0
    1.4580    2.3245    0.6032 C   0  0  0  0  0  0  0  0  0  0  0  0
    1.1440    3.1417    1.6645 C   0  0  0  0  0  0  0  0  0  0  0  0
    2.1587    3.1091   -0.3551 C   0  0  0  0  0  0  0  0  0  0  0  0
    1.6259    4.3934    1.3895 N   0  0  0  0  0  0  0  0  0  0  0  0
    2.2504    4.4028    0.1626 C   0  0  0  0  0  0  0  0  0  0  0  0
    2.7254    2.8419   -1.6172 C   0  0  0  0  0  0  0  0  0  0  0  0
    2.8831    5.4469   -0.5214 C   0  0  0  0  0  0  0  0  0  0  0  0
    3.3614    3.8765   -2.3128 C   0  0  0  0  0  0  0  0  0  0  0  0
    3.4379    5.1582   -1.7715 C   0  0  0  0  0  0  0  0  0  0  0  0
   -2.1183    1.4068   -0.2401 H   0  0  0  0  0  0  0  0  0  0  0  0
   -0.1115    1.1102   -1.3006 H   0  0  0  0  0  0  0  0  0  0  0  0
    1.9629    0.3158    0.0466 H   0  0  0  0  0  0  0  0  0  0  0  0
    1.0098    0.4503    1.5019 H   0  0  0  0  0  0  0  0  0  0  0  0
    0.6200    2.9464    2.5900 H   0  0  0  0  0  0  0  0  0  0  0  0
    1.5366    5.1950    1.9985 H   0  0  0  0  0  0  0  0  0  0  0  0
    2.6734    1.8483   -2.0532 H   0  0  0  0  0  0  0  0  0  0  0  0
    2.9440    6.4447   -0.1003 H   0  0  0  0  0  0  0  0  0  0  0  0
    3.7999    3.6766   -3.2868 H   0  0  0  0  0  0  0  0  0  0  0  0
    3.9366    5.9469   -2.3290 H   0  0  0  0  0  0  0  0  0  0  0  0
    0.6122   -1.6420    0.0902 N   0  0  0  0  0  0  0  0  0  0  0  0
    0.6642   -3.0849    0.0261 C   0  0  2  0  0  0  0  0  0  0  0  0
   -0.7174   -3.6212    0.3769 C   0  0  0  0  0  0  0  0  0  0  0  0
   -1.5408   -2.9802    1.0267 O   0  0  0  0  0  0  0  0  0  0  0  0
    1.7192   -3.6430    0.9685 C   0  0  0  0  0  0  0  0  0  0  0  0
    1.3261   -1.1570    0.6259 H   0  0  0  0  0  0  0  0  0  0  0  0
    0.9062   -3.3469   -1.0096 H   0  0  0  0  0  0  0  0  0  0  0  0
    1.4937   -3.3905    2.0110 H   0  0  0  0  0  0  0  0  0  0  0  0
    1.7770   -4.7342    0.8978 H   0  0  0  0  0  0  0  0  0  0  0  0
    2.7075   -3.2332    0.7337 H   0  0  0  0  0  0  0  0  0  0  0  0
   -0.9069   -4.9165   -0.0842 N   0  0  0  0  0  0  0  0  0  0  0  0
   -2.1319   -5.6501    0.1333 C   0  0  0  0  0  0  0  0  0  0  0  0
   -0.1770   -5.3641   -0.6307 H   0  0  0  0  0  0  0  0  0  0  0  0
   -2.0451   -6.2447    1.0547 H   0  0  0  0  0  0  0  0  0  0  0  0
   -2.9697   -4.9439    0.2303 H   0  0  0  0  0  0  0  0  0  0  0  0
   -2.3141   -6.3203   -0.7196 H   0  0  0  0  0  0  0  0  0  0  0  0
 29 30  2  0  0  0  0
 27 29  1  0  0  0  0
 28 30  1  0  0  0  0
 24 27  2  0  0  0  0
 26 28  2  0  0  0  0
 22 23  2  0  0  0  0
 23 25  1  0  0  0  0
 22 24  1  0  0  0  0
 24 26  1  0  0  0  0
 21 22  1  0  0  0  0
 25 26  1  0  0  0  0
  1  3  1  0  0  0  0
  1  7  1  0  0  0  0
  1  2  2  0  0  0  0
 42 43  1  0  0  0  0
 43 51  1  0  0  0  0
 43 44  2  0  0  0  0
  8  9  1  0  0  0  0
  9 17  1  0  0  0  0
  9 10  2  0  0  0  0
 18 19  1  0  0  0  0
 19 41  1  0  0  0  0
 19 20  2  0  0  0  0
 42 45  1  0  0  0  0
  8 11  1  0  0  0  0
 51 52  1  0  0  0  0
 18 21  1  0  0  0  0
 41 42  1  0  0  0  0
  7  8  1  0  0  0  0
 17 18  1  0  0  0  0
 29 39  1  0  0  0  0
 30 40  1  0  0  0  0
 27 37  1  0  0  0  0
 28 38  1  0  0  0  0
 23 35  1  0  0  0  0
  3  4  1  0  0  0  0
  3  5  1  0  0  0  0
  3  6  1  0  0  0  0
 45 48  1  0  0  0  0
 45 49  1  0  0  0  0
 45 50  1  0  0  0  0
 11 14  1  0  0  0  0
 11 15  1  0  0  0  0
 11 16  1  0  0  0  0
 52 54  1  0  0  0  0
 52 55  1  0  0  0  0
 52 56  1  0  0  0  0
 21 33  1  0  0  0  0
 21 34  1  0  0  0  0
 42 47  1  0  0  0  0
  8 13  1  0  0  0  0
 18 32  1  0  0  0  0
 25 36  1  0  0  0  0
 51 53  1  0  0  0  0
  7 12  1  0  0  0  0
 41 46  1  0  0  0  0
 17 31  1  0  0  0  0
M  END
$$$$

  -OEChem-05262214473D

 56 57  0     1  0  0  0  0  0999 V2000
   -2.2900    0.3401    4.1553 C   0  0  0  0  0  0  0  0  0  0  0  0
   -1.3426   -0.2746    3.6796 O   0  0  0  0  0  0  0  0  0  0  0  0
   -2.7219    0.0577    5.5560 C   0  0  0  0  0  0  0  0  0  0  0  0
   -3.4815   -0.7386    5.6094 H   0  0  0  0  0  0  0  0  0  0  0  0
   -1.8906   -0.2899    6.1903 H   0  0  0  0  0  0  0  0  0  0  0  0
   -3.1599    0.9126    6.0956 H   0  0  0  0  0  0  0  0  0  0  0  0
   -3.0397    1.3125    3.5142 N   0  0  0  0  0  0  0  0  0  0  0  0
   -2.7928    1.7385    2.1618 C   0  0  2  0  0  0  0  0  0  0  0  0
   -1.4579    1.1532    1.7206 C   0  0  0  0  0  0  0  0  0  0  0  0
   -0.5858    0.8004    2.5118 O   0  0  0  0  0  0  0  0  0  0  0  0
   -2.7841    3.2553    2.0523 C   0  0  0  0  0  0  0  0  0  0  0  0
   -3.8047    1.7484    4.0260 H   0  0  0  0  0  0  0  0  0  0  0  0
   -3.5969    1.3201    1.5466 H   0  0  0  0  0  0  0  0  0  0  0  0
   -1.9850    3.6926    2.6620 H   0  0  0  0  0  0  0  0  0  0  0  0
   -2.6246    3.5776    1.0180 H   0  0  0  0  0  0  0  0  0  0  0  0
   -3.7342    3.6765    2.3981 H   0  0  0  0  0  0  0  0  0  0  0  0
   -1.3352    1.1101    0.3372 N   0  0  0  0  0  0  0  0  0  0  0  0
   -0.1579    0.6093   -0.3265 C   0  0  2  0  0  0  0  0  0  0  0  0
   -0.3639   -0.8856   -0.5434 C   0  0  0  0  0  0  0  0  0  0  0  0
   -1.0818   -1.3402   -1.4316 O   0  0  0  0  0  0  0  0  0  0  0  0
    1.1164    0.8589    0.4883 C   0  0  0  0  0  0  0  0  0  0  0  0
    1.4580    2.3245    0.6032 C   0  0  0  0  0  0  0  0  0  0  0  0
    1.1440    3.1417    1.6645 C   0  0  0  0  0  0  0  0  0  0  0  0
    2.1587    3.1091   -0.3551 C   0  0  0  0  0  0  0  0  0  0  0  0
    1.6259    4.3934    1.3895 N   0  0  0  0  0  0  0  0  0  0  0  0
    2.2504    4.4028    0.1626 C   0  0  0  0  0  0  0  0  0  0  0  0
    2.7254    2.8419   -1.6172 C   0  0  0  0  0  0  0  0  0  0  0  0
    2.8831    5.4469   -0.5214 C   0  0  0  0  0  0  0  0  0  0  0  0
    3.3614    3.8765   -2.3128 C   0  0  0  0  0  0  0  0  0  0  0  0
    3.4379    5.1582   -1.7715 C   0  0  0  0  0  0  0  0  0  0  0  0
   -2.1183    1.4068   -0.2401 H   0  0  0  0  0  0  0  0  0  0  0  0
   -0.1115    1.1102   -1.3006 H   0  0  0  0  0  0  0  0  0  0  0  0
    1.9629    0.3158    0.0466 H   0  0  0  0  0  0  0  0  0  0  0  0
    1.0098    0.4503    1.5019 H   0  0  0  0  0  0  0  0  0  0  0  0
    0.6200    2.9464    2.5900 H   0  0  0  0  0  0  0  0  0  0  0  0
    1.5366    5.1950    1.9985 H   0  0  0  0  0  0  0  0  0  0  0  0
    2.6734    1.8483   -2.0532 H   0  0  0  0  0  0  0  0  0  0  0  0
    2.9440    6.4447   -0.1003 H   0  0  0  0  0  0  0  0  0  0  0  0
    3.7999    3.6766   -3.2868 H   0  0  0  0  0  0  0  0  0  0  0  0
    3.9366    5.9469   -2.3290 H   0  0  0  0  0  0  0  0  0  0  0  0
    0.3879   -1.6473    0.3403 N   0  0  0  0  0  0  0  0  0  0  0  0
    0.3947   -3.0926    0.3352 C   0  0  2  0  0  0  0  0  0  0  0  0
   -1.0516   -3.5696    0.3389 C   0  0  0  0  0  0  0  0  0  0  0  0
   -1.9854   -2.8771    0.7382 O   0  0  0  0  0  0  0  0  0  0  0  0
    1.1529   -3.6466    1.5314 C   0  0  0  0  0  0  0  0  0  0  0  0
    0.9623   -1.1647    1.0251 H   0  0  0  0  0  0  0  0  0  0  0  0
    0.8800   -3.4033   -0.5965 H   0  0  0  0  0  0  0  0  0  0  0  0
    0.6814   -3.3457    2.4741 H   0  0  0  0  0  0  0  0  0  0  0  0
    1.1815   -4.7410    1.5108 H   0  0  0  0  0  0  0  0  0  0  0  0
    2.1845   -3.2786    1.5435 H   0  0  0  0  0  0  0  0  0  0  0  0
   -1.1716   -4.8754   -0.1158 N   0  0  0  0  0  0  0  0  0  0  0  0
   -2.4410   -5.5598   -0.1951 C   0  0  0  0  0  0  0  0  0  0  0  0
   -0.3463   -5.3678   -0.4448 H   0  0  0  0  0  0  0  0  0  0  0  0
   -2.6149   -6.1198    0.7356 H   0  0  0  0  0  0  0  0  0  0  0  0
   -3.2461   -4.8237   -0.3359 H   0  0  0  0  0  0  0  0  0  0  0  0
   -2.4289   -6.2572   -1.0457 H   0  0  0  0  0  0  0  0  0  0  0  0
 29 30  2  0  0  0  0
 27 29  1  0  0  0  0
 28 30  1  0  0  0  0
 24 27  2  0  0  0  0
 26 28  2  0  0  0  0
 22 23  2  0  0  0  0
 23 25  1  0  0  0  0
 22 24  1  0  0  0  0
 24 26  1  0  0  0  0
 21 22  1  0  0  0  0
 25 26  1  0  0  0  0
  1  3  1  0  0  0  0
  1  7  1  0  0  0  0
  1  2  2  0  0  0  0
 42 43  1  0  0  0  0
 43 51  1  0  0  0  0
 43 44  2  0  0  0  0
  8  9  1  0  0  0  0
  9 17  1  0  0  0  0
  9 10  2  0  0  0  0
 18 19  1  0  0  0  0
 19 41  1  0  0  0  0
 19 20  2  0  0  0  0
 42 45  1  0  0  0  0
  8 11  1  0  0  0  0
 51 52  1  0  0  0  0
 18 21  1  0  0  0  0
 41 42  1  0  0  0  0
  7  8  1  0  0  0  0
 17 18  1  0  0  0  0
 29 39  1  0  0  0  0
 30 40  1  0  0  0  0
 27 37  1  0  0  0  0
 28 38  1  0  0  0  0
 23 35  1  0  0  0  0
  3  4  1  0  0  0  0
  3  5  1  0  0  0  0
  3  6  1  0  0  0  0
 45 48  1  0  0  0  0
 45 49  1  0  0  0  0
 45 50  1  0  0  0  0
 11 14  1  0  0  0  0
 11 15  1  0  0  0  0
 11 16  1  0  0  0  0
 52 54  1  0  0  0  0
 52 55  1  0  0  0  0
 52 56  1  0  0  0  0
 21 33  1  0  0  0  0
 21 34  1  0  0  0  0
 42 47  1  0  0  0  0
  8 13  1  0  0  0  0
 18 32  1  0  0  0  0
 25 36  1  0  0  0  0
 51 53  1  0  0  0  0
  7 12  1  0  0  0  0
 41 46  1  0  0  0  0
 17 31  1  0  0  0  0
M  END
$$$$

  -OEChem-05262214473D

 56 57  0     1  0  0  0  0  0999 V2000
   -2.2900    0.3401    4.1553 C   0  0  0  0  0  0  0  0  0  0  0  0
   -1.3426   -0.2746    3.6796 O   0  0  0  0  0  0  0  0  0  0  0  0
   -2.7219    0.0577    5.5560 C   0  0  0  0  0  0  0  0  0  0  0  0
   -3.4815   -0.7386    5.6094 H   0  0  0  0  0  0  0  0  0  0  0  0
   -1.8906   -0.2899    6.1903 H   0  0  0  0  0  0  0  0  0  0  0  0
   -3.1599    0.9126    6.0956 H   0  0  0  0  0  0  0  0  0  0  0  0
   -3.0397    1.3125    3.5142 N   0  0  0  0  0  0  0  0  0  0  0  0
   -2.7928    1.7385    2.1618 C   0  0  2  0  0  0  0  0  0  0  0  0
   -1.4579    1.1532    1.7206 C   0  0  0  0  0  0  0  0  0  0  0  0
   -0.5858    0.8004    2.5118 O   0  0  0  0  0  0  0  0  0  0  0  0
   -2.7841    3.2553    2.0523 C   0  0  0  0  0  0  0  0  0  0  0  0
   -3.8047    1.7484    4.0260 H   0  0  0  0  0  0  0  0  0  0  0  0
   -3.5969    1.3201    1.5466 H   0  0  0  0  0  0  0  0  0  0  0  0
   -1.9850    3.6926    2.6620 H   0  0  0  0  0  0  0  0  0  0  0  0
   -2.6246    3.5776    1.0180 H   0  0  0  0  0  0  0  0  0  0  0  0
   -3.7342    3.6765    2.3981 H   0  0  0  0  0  0  0  0  0  0  0  0
   -1.3352    1.1101    0.3372 N   0  0  0  0  0  0  0  0  0  0  0  0
   -0.1579    0.6093   -0.3265 C   0  0  2  0  0  0  0  0  0  0  0  0
   -0.3639   -0.8856   -0.5434 C   0  0  0  0  0  0  0  0  0  0  0  0
   -0.8518   -1.3517   -1.5708 O   0  0  0  0  0  0  0  0  0  0  0  0
    1.1164    0.8589    0.4883 C   0  0  0  0  0  0  0  0  0  0  0  0
    1.4580    2.3245    0.6032 C   0  0  0  0  0  0  0  0  0  0  0  0
    1.1440    3.1417    1.6645 C   0  0  0  0  0  0  0  0  0  0  0  0
    2.1587    3.1091   -0.3551 C   0  0  0  0  0  0  0  0  0  0  0  0
    1.6259    4.3934    1.3895 N   0  0  0  0  0  0  0  0  0  0  0  0
    2.2504    4.4028    0.1626 C   0  0  0  0  0  0  0  0  0  0  0  0
    2.7254    2.8419   -1.6172 C   0  0  0  0  0  0  0  0  0  0  0  0
    2.8831    5.4469   -0.5214 C   0  0  0  0  0  0  0  0  0  0  0  0
    3.3614    3.8765   -2.3128 C   0  0  0  0  0  0  0  0  0  0  0  0
    3.4379    5.1582   -1.7715 C   0  0  0  0  0  0  0  0  0  0  0  0
   -2.1183    1.4068   -0.2401 H   0  0  0  0  0  0  0  0  0  0  0  0
   -0.1115    1.1102   -1.3006 H   0  0  0  0  0  0  0  0  0  0  0  0
    1.9629    0.3158    0.0466 H   0  0  0  0  0  0  0  0  0  0  0  0
    1.0098    0.4503    1.5019 H   0  0  0  0  0  0  0  0  0  0  0  0
    0.6200    2.9464    2.5900 H   0  0  0  0  0  0  0  0  0  0  0  0
    1.5366    5.1950    1.9985 H   0  0  0  0  0  0  0  0  0  0  0  0
    2.6734    1.8483   -2.0532 H   0  0  0  0  0  0  0  0  0  0  0  0
    2.9440    6.4447   -0.1003 H   0  0  0  0  0  0  0  0  0  0  0  0
    3.7999    3.6766   -3.2868 H   0  0  0  0  0  0  0  0  0  0  0  0
    3.9366    5.9469   -2.3290 H   0  0  0  0  0  0  0  0  0  0  0  0
    0.1076   -1.6355    0.5252 N   0  0  0  0  0  0  0  0  0  0  0  0
    0.0557   -3.0793    0.5656 C   0  0  2  0  0  0  0  0  0  0  0  0
   -1.3629   -3.5089    0.2156 C   0  0  0  0  0  0  0  0  0  0  0  0
   -2.3379   -2.7711    0.3430 O   0  0  0  0  0  0  0  0  0  0  0  0
    0.4628   -3.6095    1.9316 C   0  0  0  0  0  0  0  0  0  0  0  0
    0.5094   -1.1449    1.3186 H   0  0  0  0  0  0  0  0  0  0  0  0
    0.7477   -3.4422   -0.2021 H   0  0  0  0  0  0  0  0  0  0  0  0
   -0.2191   -3.2563    2.7137 H   0  0  0  0  0  0  0  0  0  0  0  0
    0.4505   -4.7043    1.9520 H   0  0  0  0  0  0  0  0  0  0  0  0
    1.4720   -3.2749    2.1946 H   0  0  0  0  0  0  0  0  0  0  0  0
   -1.4177   -4.8271   -0.2150 N   0  0  0  0  0  0  0  0  0  0  0  0
   -2.6529   -5.4727   -0.5939 C   0  0  0  0  0  0  0  0  0  0  0  0
   -0.5571   -5.3585   -0.3081 H   0  0  0  0  0  0  0  0  0  0  0  0
   -3.0798   -5.9894    0.2783 H   0  0  0  0  0  0  0  0  0  0  0  0
   -3.3650   -4.7172   -0.9571 H   0  0  0  0  0  0  0  0  0  0  0  0
   -2.4547   -6.2034   -1.3920 H   0  0  0  0  0  0  0  0  0  0  0  0
 29 30  2  0  0  0  0
 27 29  1  0  0  0  0
 28 30  1  0  0  0  0
 24 27  2  0  0  0  0
 26 28  2  0  0  0  0
 22 23  2  0  0  0  0
 23 25  1  0  0  0  0
 22 24  1  0  0  0  0
 24 26  1  0  0  0  0
 21 22  1  0  0  0  0
 25 26  1  0  0  0  0
  1  3  1  0  0  0  0
  1  7  1  0  0  0  0
  1  2  2  0  0  0  0
 42 43  1  0  0  0  0
 43 51  1  0  0  0  0
 43 44  2  0  0  0  0
  8  9  1  0  0  0  0
  9 17  1  0  0  0  0
  9 10  2  0  0  0  0
 18 19  1  0  0  0  0
 19 41  1  0  0  0  0
 19 20  2  0  0  0  0
 42 45  1  0  0  0  0
  8 11  1  0  0  0  0
 51 52  1  0  0  0  0
 18 21  1  0  0  0  0
 41 42  1  0  0  0  0
  7  8  1  0  0  0  0
 17 18  1  0  0  0  0
 29 39  1  0  0  0  0
 30 40  1  0  0  0  0
 27 37  1  0  0  0  0
 28 38  1  0  0  0  0
 23 35  1  0  0  0  0
  3  4  1  0  0  0  0
  3  5  1  0  0  0  0
  3  6  1  0  0  0  0
 45 48  1  0  0  0  0
 45 49  1  0  0  0  0
 45 50  1  0  0  0  0
 11 14  1  0  0  0  0
 11 15  1  0  0  0  0
 11 16  1  0  0  0  0
 52 54  1  0  0  0  0
 52 55  1  0  0  0  0
 52 56  1  0  0  0  0
 21 33  1  0  0  0  0
 21 34  1  0  0  0  0
 42 47  1  0  0  0  0
  8 13  1  0  0  0  0
 18 32  1  0  0  0  0
 25 36  1  0  0  0  0
 51 53  1  0  0  0  0
  7 12  1  0  0  0  0
 41 46  1  0  0  0  0
 17 31  1  0  0  0  0
M  END
$$$$

  -OEChem-05262214473D

 56 57  0     1  0  0  0  0  0999 V2000
   -2.2900    0.3401    4.1553 C   0  0  0  0  0  0  0  0  0  0  0  0
   -1.3426   -0.2746    3.6796 O   0  0  0  0  0  0  0  0  0  0  0  0
   -2.7219    0.0577    5.5560 C   0  0  0  0  0  0  0  0  0  0  0  0
   -3.4815   -0.7386    5.6094 H   0  0  0  0  0  0  0  0  0  0  0  0
   -1.8906   -0.2899    6.1903 H   0  0  0  0  0  0  0  0  0  0  0  0
   -3.1599    0.9126    6.0956 H   0  0  0  0  0  0  0  0  0  0  0  0
   -3.0397    1.3125    3.5142 N   0  0  0  0  0  0  0  0  0  0  0  0
   -2.7928    1.7385    2.1618 C   0  0  2  0  0  0  0  0  0  0  0  0
   -1.4579    1.1532    1.7206 C   0  0  0  0  0  0  0  0  0  0  0  0
   -0.5858    0.8004    2.5118 O   0  0  0  0  0  0  0  0  0  0  0  0
   -2.7841    3.2553    2.0523 C   0  0  0  0  0  0  0  0  0  0  0  0
   -3.8047    1.7484    4.0260 H   0  0  0  0  0  0  0  0  0  0  0  0
   -3.5969    1.3201    1.5466 H   0  0  0  0  0  0  0  0  0  0  0  0
   -1.9850    3.6926    2.6620 H   0  0  0  0  0  0  0  0  0  0  0  0
   -2.6246    3.5776    1.0180 H   0  0  0  0  0  0  0  0  0  0  0  0
   -3.7342    3.6765    2.3981 H   0  0  0  0  0  0  0  0  0  0  0  0
   -1.3352    1.1101    0.3372 N   0  0  0  0  0  0  0  0  0  0  0  0
   -0.1579    0.6093   -0.3265 C   0  0  2  0  0  0  0  0  0  0  0  0
   -0.3639   -0.8856   -0.5434 C   0  0  0  0  0  0  0  0  0  0  0  0
   -0.5947   -1.3761   -1.6466 O   0  0  0  0  0  0  0  0  0  0  0  0
    1.1164    0.8589    0.4883 C   0  0  0  0  0  0  0  0  0  0  0  0
    1.4580    2.3245    0.6032 C   0  0  0  0  0  0  0  0  0  0  0  0
    1.1440    3.1417    1.6645 C   0  0  0  0  0  0  0  0  0  0  0  0
    2.1587    3.1091   -0.3551 C   0  0  0  0  0  0  0  0  0  0  0  0
    1.6259    4.3934    1.3895 N   0  0  0  0  0  0  0  0  0  0  0  0
    2.2504    4.4028    0.1626 C   0  0  0  0  0  0  0  0  0  0  0  0
    2.7254    2.8419   -1.6172 C   0  0  0  0  0  0  0  0  0  0  0  0
    2.8831    5.4469   -0.5214 C   0  0  0  0  0  0  0  0  0  0  0  0
    3.3614    3.8765   -2.3128 C   0  0  0  0  0  0  0  0  0  0  0  0
    3.4379    5.1582   -1.7715 C   0  0  0  0  0  0  0  0  0  0  0  0
   -2.1183    1.4068   -0.2401 H   0  0  0  0  0  0  0  0  0  0  0  0
   -0.1115    1.1102   -1.3006 H   0  0  0  0  0  0  0  0  0  0  0  0
    1.9629    0.3158    0.0466 H   0  0  0  0  0  0  0  0  0  0  0  0
    1.0098    0.4503    1.5019 H   0  0  0  0  0  0  0  0  0  0  0  0
    0.6200    2.9464    2.5900 H   0  0  0  0  0  0  0  0  0  0  0  0
    1.5366    5.1950    1.9985 H   0  0  0  0  0  0  0  0  0  0  0  0
    2.6734    1.8483   -2.0532 H   0  0  0  0  0  0  0  0  0  0  0  0
    2.9440    6.4447   -0.1003 H   0  0  0  0  0  0  0  0  0  0  0  0
    3.7999    3.6766   -3.2868 H   0  0  0  0  0  0  0  0  0  0  0  0
    3.9366    5.9469   -2.3290 H   0  0  0  0  0  0  0  0  0  0  0  0
   -0.2097   -1.6073    0.6321 N   0  0  0  0  0  0  0  0  0  0  0  0
   -0.3297   -3.0459    0.7017 C   0  0  2  0  0  0  0  0  0  0  0  0
   -1.6300   -3.4430    0.0154 C   0  0  0  0  0  0  0  0  0  0  0  0
   -2.5742   -2.6697   -0.1318 O   0  0  0  0  0  0  0  0  0  0  0  0
   -0.3040   -3.5343    2.1416 C   0  0  0  0  0  0  0  0  0  0  0  0
   -0.0019   -1.0988    1.4865 H   0  0  0  0  0  0  0  0  0  0  0  0
    0.5185   -3.4612    0.1467 H   0  0  0  0  0  0  0  0  0  0  0  0
   -1.1464   -3.1285    2.7135 H   0  0  0  0  0  0  0  0  0  0  0  0
   -0.3663   -4.6264    2.1913 H   0  0  0  0  0  0  0  0  0  0  0  0
    0.6188   -3.2222    2.6426 H   0  0  0  0  0  0  0  0  0  0  0  0
   -1.6285   -4.7748   -0.3750 N   0  0  0  0  0  0  0  0  0  0  0  0
   -2.7531   -5.3948   -1.0360 C   0  0  0  0  0  0  0  0  0  0  0  0
   -0.7951   -5.3371   -0.2300 H   0  0  0  0  0  0  0  0  0  0  0  0
   -3.4079   -5.8623   -0.2858 H   0  0  0  0  0  0  0  0  0  0  0  0
   -3.3183   -4.6316   -1.5911 H   0  0  0  0  0  0  0  0  0  0  0  0
   -2.3898   -6.1626   -1.7349 H   0  0  0  0  0  0  0  0  0  0  0  0
 29 30  2  0  0  0  0
 27 29  1  0  0  0  0
 28 30  1  0  0  0  0
 24 27  2  0  0  0  0
 26 28  2  0  0  0  0
 22 23  2  0  0  0  0
 23 25  1  0  0  0  0
 22 24  1  0  0  0  0
 24 26  1  0  0  0  0
 21 22  1  0  0  0  0
 25 26  1  0  0  0  0
  1  3  1  0  0  0  0
  1  7  1  0  0  0  0
  1  2  2  0  0  0  0
 42 43  1  0  0  0  0
 43 51  1  0  0  0  0
 43 44  2  0  0  0  0
  8  9  1  0  0  0  0
  9 17  1  0  0  0  0
  9 10  2  0  0  0  0
 18 19  1  0  0  0  0
 19 41  1  0  0  0  0
 19 20  2  0  0  0  0
 42 45  1  0  0  0  0
  8 11  1  0  0  0  0
 51 52  1  0  0  0  0
 18 21  1  0  0  0  0
 41 42  1  0  0  0  0
  7  8  1  0  0  0  0
 17 18  1  0  0  0  0
 29 39  1  0  0  0  0
 30 40  1  0  0  0  0
 27 37  1  0  0  0  0
 28 38  1  0  0  0  0
 23 35  1  0  0  0  0
  3  4  1  0  0  0  0
  3  5  1  0  0  0  0
  3  6  1  0  0  0  0
 45 48  1  0  0  0  0
 45 49  1  0  0  0  0
 45 50  1  0  0  0  0
 11 14  1  0  0  0  0
 11 15  1  0  0  0  0
 11 16  1  0  0  0  0
 52 54  1  0  0  0  0
 52 55  1  0  0  0  0
 52 56  1  0  0  0  0
 21 33  1  0  0  0  0
 21 34  1  0  0  0  0
 42 47  1  0  0  0  0
  8 13  1  0  0  0  0
 18 32  1  0  0  0  0
 25 36  1  0  0  0  0
 51 53  1  0  0  0  0
  7 12  1  0  0  0  0
 41 46  1  0  0  0  0
 17 31  1  0  0  0  0
M  END
$$$$

  -OEChem-05262214473D

 56 57  0     1  0  0  0  0  0999 V2000
   -2.2900    0.3401    4.1553 C   0  0  0  0  0  0  0  0  0  0  0  0
   -1.3426   -0.2746    3.6796 O   0  0  0  0  0  0  0  0  0  0  0  0
   -2.7219    0.0577    5.5560 C   0  0  0  0  0  0  0  0  0  0  0  0
   -3.4815   -0.7386    5.6094 H   0  0  0  0  0  0  0  0  0  0  0  0
   -1.8906   -0.2899    6.1903 H   0  0  0  0  0  0  0  0  0  0  0  0
   -3.1599    0.9126    6.0956 H   0  0  0  0  0  0  0  0  0  0  0  0
   -3.0397    1.3125    3.5142 N   0  0  0  0  0  0  0  0  0  0  0  0
   -2.7928    1.7385    2.1618 C   0  0  2  0  0  0  0  0  0  0  0  0
   -1.4579    1.1532    1.7206 C   0  0  0  0  0  0  0  0  0  0  0  0
   -0.5858    0.8004    2.5118 O   0  0  0  0  0  0  0  0  0  0  0  0
   -2.7841    3.2553    2.0523 C   0  0  0  0  0  0  0  0  0  0  0  0
   -3.8047    1.7484    4.0260 H   0  0  0  0  0  0  0  0  0  0  0  0
   -3.5969    1.3201    1.5466 H   0  0  0  0  0  0  0  0  0  0  0  0
   -1.9850    3.6926    2.6620 H   0  0  0  0  0  0  0  0  0  0  0  0
   -2.6246    3.5776    1.0180 H   0  0  0  0  0  0  0  0  0  0  0  0
   -3.7342    3.6765    2.3981 H   0  0  0  0  0  0  0  0  0  0  0  0
   -1.3352    1.1101    0.3372 N   0  0  0  0  0  0  0  0  0  0  0  0
   -0.1579    0.6093   -0.3265 C   0  0  2  0  0  0  0  0  0  0  0  0
   -0.3639   -0.8856   -0.5434 C   0  0  0  0  0  0  0  0  0  0  0  0
   -0.3280   -1.4118   -1.6536 O   0  0  0  0  0  0  0  0  0  0  0  0
    1.1164    0.8589    0.4883 C   0  0  0  0  0  0  0  0  0  0  0  0
    1.4580    2.3245    0.6032 C   0  0  0  0  0  0  0  0  0  0  0  0
    1.1440    3.1417    1.6645 C   0  0  0  0  0  0  0  0  0  0  0  0
    2.1587    3.1091   -0.3551 C   0  0  0  0  0  0  0  0  0  0  0  0
    1.6259    4.3934    1.3895 N   0  0  0  0  0  0  0  0  0  0  0  0
    2.2504    4.4028    0.1626 C   0  0  0  0  0  0  0  0  0  0  0  0
    2.7254    2.8419   -1.6172 C   0  0  0  0  0  0  0  0  0  0  0  0
    2.8831    5.4469   -0.5214 C   0  0  0  0  0  0  0  0  0  0  0  0
    3.3614    3.8765   -2.3128 C   0  0  0  0  0  0  0  0  0  0  0  0
    3.4379    5.1582   -1.7715 C   0  0  0  0  0  0  0  0  0  0  0  0
   -2.1183    1.4068   -0.2401 H   0  0  0  0  0  0  0  0  0  0  0  0
   -0.1115    1.1102   -1.3006 H   0  0  0  0  0  0  0  0  0  0  0  0
    1.9629    0.3158    0.0466 H   0  0  0  0  0  0  0  0  0  0  0  0
    1.0098    0.4503    1.5019 H   0  0  0  0  0  0  0  0  0  0  0  0
    0.6200    2.9464    2.5900 H   0  0  0  0  0  0  0  0  0  0  0  0
    1.5366    5.1950    1.9985 H   0  0  0  0  0  0  0  0  0  0  0  0
    2.6734    1.8483   -2.0532 H   0  0  0  0  0  0  0  0  0  0  0  0
    2.9440    6.4447   -0.1003 H   0  0  0  0  0  0  0  0  0  0  0  0
    3.7999    3.6766   -3.2868 H   0  0  0  0  0  0  0  0  0  0  0  0
    3.9366    5.9469   -2.3290 H   0  0  0  0  0  0  0  0  0  0  0  0
   -0.5422   -1.5646    0.6539 N   0  0  0  0  0  0  0  0  0  0  0  0
   -0.7354   -2.9947    0.7341 C   0  0  2  0  0  0  0  0  0  0  0  0
   -1.8348   -3.3765   -0.2482 C   0  0  0  0  0  0  0  0  0  0  0  0
   -2.6782   -2.5796   -0.6540 O   0  0  0  0  0  0  0  0  0  0  0  0
   -1.0951   -3.4261    2.1473 C   0  0  0  0  0  0  0  0  0  0  0  0
   -0.5367   -1.0295    1.5173 H   0  0  0  0  0  0  0  0  0  0  0  0
    0.2078   -3.4590    0.4260 H   0  0  0  0  0  0  0  0  0  0  0  0
   -2.0374   -2.9709    2.4734 H   0  0  0  0  0  0  0  0  0  0  0  0
   -1.2131   -4.5128    2.2125 H   0  0  0  0  0  0  0  0  0  0  0  0
   -0.3171   -3.1243    2.8569 H   0  0  0  0  0  0  0  0  0  0  0  0
   -1.7896   -4.7222   -0.5848 N   0  0  0  0  0  0  0  0  0  0  0  0
   -2.7349   -5.3313   -1.4912 C   0  0  0  0  0  0  0  0  0  0  0  0
   -1.0441   -5.3049   -0.2156 H   0  0  0  0  0  0  0  0  0  0  0  0
   -3.5770   -5.7472   -0.9185 H   0  0  0  0  0  0  0  0  0  0  0  0
   -3.1091   -4.5729   -2.1946 H   0  0  0  0  0  0  0  0  0  0  0  0
   -2.2386   -6.1376   -2.0511 H   0  0  0  0  0  0  0  0  0  0  0  0
 29 30  2  0  0  0  0
 27 29  1  0  0  0  0
 28 30  1  0  0  0  0
 24 27  2  0  0  0  0
 26 28  2  0  0  0  0
 22 23  2  0  0  0  0
 23 25  1  0  0  0  0
 22 24  1  0  0  0  0
 24 26  1  0  0  0  0
 21 22  1  0  0  0  0
 25 26  1  0  0  0  0
  1  3  1  0  0  0  0
  1  7  1  0  0  0  0
  1  2  2  0  0  0  0
 42 43  1  0  0  0  0
 43 51  1  0  0  0  0
 43 44  2  0  0  0  0
  8  9  1  0  0  0  0
  9 17  1  0  0  0  0
  9 10  2  0  0  0  0
 18 19  1  0  0  0  0
 19 41  1  0  0  0  0
 19 20  2  0  0  0  0
 42 45  1  0  0  0  0
  8 11  1  0  0  0  0
 51 52  1  0  0  0  0
 18 21  1  0  0  0  0
 41 42  1  0  0  0  0
  7  8  1  0  0  0  0
 17 18  1  0  0  0  0
 29 39  1  0  0  0  0
 30 40  1  0  0  0  0
 27 37  1  0  0  0  0
 28 38  1  0  0  0  0
 23 35  1  0  0  0  0
  3  4  1  0  0  0  0
  3  5  1  0  0  0  0
  3  6  1  0  0  0  0
 45 48  1  0  0  0  0
 45 49  1  0  0  0  0
 45 50  1  0  0  0  0
 11 14  1  0  0  0  0
 11 15  1  0  0  0  0
 11 16  1  0  0  0  0
 52 54  1  0  0  0  0
 52 55  1  0  0  0  0
 52 56  1  0  0  0  0
 21 33  1  0  0  0  0
 21 34  1  0  0  0  0
 42 47  1  0  0  0  0
  8 13  1  0  0  0  0
 18 32  1  0  0  0  0
 25 36  1  0  0  0  0
 51 53  1  0  0  0  0
  7 12  1  0  0  0  0
 41 46  1  0  0  0  0
 17 31  1  0  0  0  0
M  END
$$$$

  -OEChem-05262214473D

 56 57  0     1  0  0  0  0  0999 V2000
   -2.2900    0.3401    4.1553 C   0  0  0  0  0  0  0  0  0  0  0  0
   -1.3426   -0.2746    3.6796 O   0  0  0  0  0  0  0  0  0  0  0  0
   -2.7219    0.0577    5.5560 C   0  0  0  0  0  0  0  0  0  0  0  0
   -3.4815   -0.7386    5.6094 H   0  0  0  0  0  0  0  0  0  0  0  0
   -1.8906   -0.2899    6.1903 H   0  0  0  0  0  0  0  0  0  0  0  0
   -3.1599    0.9126    6.0956 H   0  0  0  0  0  0  0  0  0  0  0  0
   -3.0397    1.3125    3.5142 N   0  0  0  0  0  0  0  0  0  0  0  0
   -2.7928    1.7385    2.1618 C   0  0  2  0  0  0  0  0  0  0  0  0
   -1.4579    1.1532    1.7206 C   0  0  0  0  0  0  0  0  0  0  0  0
   -0.5858    0.8004    2.5118 O   0  0  0  0  0  0  0  0  0  0  0  0
   -2.7841    3.2553    2.0523 C   0  0  0  0  0  0  0  0  0  0  0  0
   -3.8047    1.7484    4.0260 H   0  0  0  0  0  0  0  0  0  0  0  0
   -3.5969    1.3201    1.5466 H   0  0  0  0  0  0  0  0  0  0  0  0
   -1.9850    3.6926    2.6620 H   0  0  0  0  0  0  0  0  0  0  0  0
   -2.6246    3.5776    1.0180 H   0  0  0  0  0  0  0  0  0  0  0  0
   -3.7342    3.6765    2.3981 H   0  0  0  0  0  0  0  0  0  0  0  0
   -1.3352    1.1101    0.3372 N   0  0  0  0  0  0  0  0  0  0  0  0
   -0.1579    0.6093   -0.3265 C   0  0  2  0  0  0  0  0  0  0  0  0
   -0.3639   -0.8856   -0.5434 C   0  0  0  0  0  0  0  0  0  0  0  0
   -0.0699   -1.4564   -1.5915 O   0  0  0  0  0  0  0  0  0  0  0  0
    1.1164    0.8589    0.4883 C   0  0  0  0  0  0  0  0  0  0  0  0
    1.4580    2.3245    0.6032 C   0  0  0  0  0  0  0  0  0  0  0  0
    1.1440    3.1417    1.6645 C   0  0  0  0  0  0  0  0  0  0  0  0
    2.1587    3.1091   -0.3551 C   0  0  0  0  0  0  0  0  0  0  0  0
    1.6259    4.3934    1.3895 N   0  0  0  0  0  0  0  0  0  0  0  0
    2.2504    4.4028    0.1626 C   0  0  0  0  0  0  0  0  0  0  0  0
    2.7254    2.8419   -1.6172 C   0  0  0  0  0  0  0  0  0  0  0  0
    2.8831    5.4469   -0.5214 C   0  0  0  0  0  0  0  0  0  0  0  0
    3.3614    3.8765   -2.3128 C   0  0  0  0  0  0  0  0  0  0  0  0
    3.4379    5.1582   -1.7715 C   0  0  0  0  0  0  0  0  0  0  0  0
   -2.1183    1.4068   -0.2401 H   0  0  0  0  0  0  0  0  0  0  0  0
   -0.1115    1.1102   -1.3006 H   0  0  0  0  0  0  0  0  0  0  0  0
    1.9629    0.3158    0.0466 H   0  0  0  0  0  0  0  0  0  0  0  0
    1.0098    0.4503    1.5019 H   0  0  0  0  0  0  0  0  0  0  0  0
    0.6200    2.9464    2.5900 H   0  0  0  0  0  0  0  0  0  0  0  0
    1.5366    5.1950    1.9985 H   0  0  0  0  0  0  0  0  0  0  0  0
    2.6734    1.8483   -2.0532 H   0  0  0  0  0  0  0  0  0  0  0  0
    2.9440    6.4447   -0.1003 H   0  0  0  0  0  0  0  0  0  0  0  0
    3.7999    3.6766   -3.2868 H   0  0  0  0  0  0  0  0  0  0  0  0
    3.9366    5.9469   -2.3290 H   0  0  0  0  0  0  0  0  0  0  0  0
   -0.8674   -1.5104    0.5891 N   0  0  0  0  0  0  0  0  0  0  0  0
   -1.1335   -2.9292    0.6607 C   0  0  2  0  0  0  0  0  0  0  0  0
   -1.9633   -3.3140   -0.5570 C   0  0  0  0  0  0  0  0  0  0  0  0
   -2.6428   -2.5070   -1.1880 O   0  0  0  0  0  0  0  0  0  0  0  0
   -1.8568   -3.2922    1.9482 C   0  0  0  0  0  0  0  0  0  0  0  0
   -1.0585   -0.9419    1.4089 H   0  0  0  0  0  0  0  0  0  0  0  0
   -0.1631   -3.4355    0.6169 H   0  0  0  0  0  0  0  0  0  0  0  0
   -2.8313   -2.7942    2.0100 H   0  0  0  0  0  0  0  0  0  0  0  0
   -2.0322   -4.3711    2.0141 H   0  0  0  0  0  0  0  0  0  0  0  0
   -1.2720   -2.9878    2.8229 H   0  0  0  0  0  0  0  0  0  0  0  0
   -1.8901   -4.6727   -0.8302 N   0  0  0  0  0  0  0  0  0  0  0  0
   -2.5995   -5.2865   -1.9284 C   0  0  0  0  0  0  0  0  0  0  0  0
   -1.2870   -5.2641   -0.2660 H   0  0  0  0  0  0  0  0  0  0  0  0
   -3.5755   -5.6520   -1.5766 H   0  0  0  0  0  0  0  0  0  0  0  0
   -2.7517   -4.5450   -2.7265 H   0  0  0  0  0  0  0  0  0  0  0  0
   -2.0113   -6.1300   -2.3190 H   0  0  0  0  0  0  0  0  0  0  0  0
 29 30  2  0  0  0  0
 27 29  1  0  0  0  0
 28 30  1  0  0  0  0
 24 27  2  0  0  0  0
 26 28  2  0  0  0  0
 22 23  2  0  0  0  0
 23 25  1  0  0  0  0
 22 24  1  0  0  0  0
 24 26  1  0  0  0  0
 21 22  1  0  0  0  0
 25 26  1  0  0  0  0
  1  3  1  0  0  0  0
  1  7  1  0  0  0  0
  1  2  2  0  0  0  0
 42 43  1  0  0  0  0
 43 51  1  0  0  0  0
 43 44  2  0  0  0  0
  8  9  1  0  0  0  0
  9 17  1  0  0  0  0
  9 10  2  0  0  0  0
 18 19  1  0  0  0  0
 19 41  1  0  0  0  0
 19 20  2  0  0  0  0
 42 45  1  0  0  0  0
  8 11  1  0  0  0  0
 51 52  1  0  0  0  0
 18 21  1  0  0  0  0
 41 42  1  0  0  0  0
  7  8  1  0  0  0  0
 17 18  1  0  0  0  0
 29 39  1  0  0  0  0
 30 40  1  0  0  0  0
 27 37  1  0  0  0  0
 28 38  1  0  0  0  0
 23 35  1  0  0  0  0
  3  4  1  0  0  0  0
  3  5  1  0  0  0  0
  3  6  1  0  0  0  0
 45 48  1  0  0  0  0
 45 49  1  0  0  0  0
 45 50  1  0  0  0  0
 11 14  1  0  0  0  0
 11 15  1  0  0  0  0
 11 16  1  0  0  0  0
 52 54  1  0  0  0  0
 52 55  1  0  0  0  0
 52 56  1  0  0  0  0
 21 33  1  0  0  0  0
 21 34  1  0  0  0  0
 42 47  1  0  0  0  0
  8 13  1  0  0  0  0
 18 32  1  0  0  0  0
 25 36  1  0  0  0  0
 51 53  1  0  0  0  0
  7 12  1  0  0  0  0
 41 46  1  0  0  0  0
 17 31  1  0  0  0  0
M  END
$$$$

  -OEChem-05262214473D

 56 57  0     1  0  0  0  0  0999 V2000
   -2.2900    0.3401    4.1553 C   0  0  0  0  0  0  0  0  0  0  0  0
   -1.3426   -0.2746    3.6796 O   0  0  0  0  0  0  0  0  0  0  0  0
   -2.7219    0.0577    5.5560 C   0  0  0  0  0  0  0  0  0  0  0  0
   -3.4815   -0.7386    5.6094 H   0  0  0  0  0  0  0  0  0  0  0  0
   -1.8906   -0.2899    6.1903 H   0  0  0  0  0  0  0  0  0  0  0  0
   -3.1599    0.9126    6.0956 H   0  0  0  0  0  0  0  0  0  0  0  0
   -3.0397    1.3125    3.5142 N   0  0  0  0  0  0  0  0  0  0  0  0
   -2.7928    1.7385    2.1618 C   0  0  2  0  0  0  0  0  0  0  0  0
   -1.4579    1.1532    1.7206 C   0  0  0  0  0  0  0  0  0  0  0  0
   -0.5858    0.8004    2.5118 O   0  0  0  0  0  0  0  0  0  0  0  0
   -2.7841    3.2553    2.0523 C   0  0  0  0  0  0  0  0  0  0  0  0
   -3.8047    1.7484    4.0260 H   0  0  0  0  0  0  0  0  0  0  0  0
   -3.5969    1.3201    1.5466 H   0  0  0  0  0  0  0  0  0  0  0  0
   -1.9850    3.6926    2.6620 H   0  0  0  0  0  0  0  0  0  0  0  0
   -2.6246    3.5776    1.0180 H   0  0  0  0  0  0  0  0  0  0  0  0
   -3.7342    3.6765    2.3981 H   0  0  0  0  0  0  0  0  0  0  0  0
   -1.3352    1.1101    0.3372 N   0  0  0  0  0  0  0  0  0  0  0  0
   -0.1579    0.6093   -0.3265 C   0  0  2  0  0  0  0  0  0  0  0  0
   -0.3639   -0.8856   -0.5434 C   0  0  0  0  0  0  0  0  0  0  0  0
    0.1620   -1.5068   -1.4644 O   0  0  0  0  0  0  0  0  0  0  0  0
    1.1164    0.8589    0.4883 C   0  0  0  0  0  0  0  0  0  0  0  0
    1.4580    2.3245    0.6032 C   0  0  0  0  0  0  0  0  0  0  0  0
    1.1440    3.1417    1.6645 C   0  0  0  0  0  0  0  0  0  0  0  0
    2.1587    3.1091   -0.3551 C   0  0  0  0  0  0  0  0  0  0  0  0
    1.6259    4.3934    1.3895 N   0  0  0  0  0  0  0  0  0  0  0  0
    2.2504    4.4028    0.1626 C   0  0  0  0  0  0  0  0  0  0  0  0
    2.7254    2.8419   -1.6172 C   0  0  0  0  0  0  0  0  0  0  0  0
    2.8831    5.4469   -0.5214 C   0  0  0  0  0  0  0  0  0  0  0  0
    3.3614    3.8765   -2.3128 C   0  0  0  0  0  0  0  0  0  0  0  0
    3.4379    5.1582   -1.7715 C   0  0  0  0  0  0  0  0  0  0  0  0
   -2.1183    1.4068   -0.2401 H   0  0  0  0  0  0  0  0  0  0  0  0
   -0.1115    1.1102   -1.3006 H   0  0  0  0  0  0  0  0  0  0  0  0
    1.9629    0.3158    0.0466 H   0  0  0  0  0  0  0  0  0  0  0  0
    1.0098    0.4503    1.5019 H   0  0  0  0  0  0  0  0  0  0  0  0
    0.6200    2.9464    2.5900 H   0  0  0  0  0  0  0  0  0  0  0  0
    1.5366    5.1950    1.9985 H   0  0  0  0  0  0  0  0  0  0  0  0
    2.6734    1.8483   -2.0532 H   0  0  0  0  0  0  0  0  0  0  0  0
    2.9440    6.4447   -0.1003 H   0  0  0  0  0  0  0  0  0  0  0  0
    3.7999    3.6766   -3.2868 H   0  0  0  0  0  0  0  0  0  0  0  0
    3.9366    5.9469   -2.3290 H   0  0  0  0  0  0  0  0  0  0  0  0
   -1.1631   -1.4483    0.4421 N   0  0  0  0  0  0  0  0  0  0  0  0
   -1.4970   -2.8538    0.4865 C   0  0  2  0  0  0  0  0  0  0  0  0
   -2.0068   -3.2597   -0.8901 C   0  0  0  0  0  0  0  0  0  0  0  0
   -2.4704   -2.4569   -1.6973 O   0  0  0  0  0  0  0  0  0  0  0  0
   -2.5370   -3.1418    1.5579 C   0  0  0  0  0  0  0  0  0  0  0  0
   -1.5317   -0.8418    1.1687 H   0  0  0  0  0  0  0  0  0  0  0  0
   -0.5689   -3.3926    0.7063 H   0  0  0  0  0  0  0  0  0  0  0  0
   -3.4740   -2.6105    1.3546 H   0  0  0  0  0  0  0  0  0  0  0  0
   -2.7679   -4.2110    1.6096 H   0  0  0  0  0  0  0  0  0  0  0  0
   -2.1806   -2.8220    2.5431 H   0  0  0  0  0  0  0  0  0  0  0  0
   -1.9230   -4.6299   -1.0945 N   0  0  0  0  0  0  0  0  0  0  0  0
   -2.3560   -5.2635   -2.3180 C   0  0  0  0  0  0  0  0  0  0  0  0
   -1.5073   -5.2175   -0.3778 H   0  0  0  0  0  0  0  0  0  0  0  0
   -3.4036   -5.5830   -2.2152 H   0  0  0  0  0  0  0  0  0  0  0  0
   -2.2705   -4.5498   -3.1506 H   0  0  0  0  0  0  0  0  0  0  0  0
   -1.7235   -6.1405   -2.5203 H   0  0  0  0  0  0  0  0  0  0  0  0
 29 30  2  0  0  0  0
 27 29  1  0  0  0  0
 28 30  1  0  0  0  0
 24 27  2  0  0  0  0
 26 28  2  0  0  0  0
 22 23  2  0  0  0  0
 23 25  1  0  0  0  0
 22 24  1  0  0  0  0
 24 26  1  0  0  0  0
 21 22  1  0  0  0  0
 25 26  1  0  0  0  0
  1  3  1  0  0  0  0
  1  7  1  0  0  0  0
  1  2  2  0  0  0  0
 42 43  1  0  0  0  0
 43 51  1  0  0  0  0
 43 44  2  0  0  0  0
  8  9  1  0  0  0  0
  9 17  1  0  0  0  0
  9 10  2  0  0  0  0
 18 19  1  0  0  0  0
 19 41  1  0  0  0  0
 19 20  2  0  0  0  0
 42 45  1  0  0  0  0
  8 11  1  0  0  0  0
 51 52  1  0  0  0  0
 18 21  1  0  0  0  0
 41 42  1  0  0  0  0
  7  8  1  0  0  0  0
 17 18  1  0  0  0  0
 29 39  1  0  0  0  0
 30 40  1  0  0  0  0
 27 37  1  0  0  0  0
 28 38  1  0  0  0  0
 23 35  1  0  0  0  0
  3  4  1  0  0  0  0
  3  5  1  0  0  0  0
  3  6  1  0  0  0  0
 45 48  1  0  0  0  0
 45 49  1  0  0  0  0
 45 50  1  0  0  0  0
 11 14  1  0  0  0  0
 11 15  1  0  0  0  0
 11 16  1  0  0  0  0
 52 54  1  0  0  0  0
 52 55  1  0  0  0  0
 52 56  1  0  0  0  0
 21 33  1  0  0  0  0
 21 34  1  0  0  0  0
 42 47  1  0  0  0  0
  8 13  1  0  0  0  0
 18 32  1  0  0  0  0
 25 36  1  0  0  0  0
 51 53  1  0  0  0  0
  7 12  1  0  0  0  0
 41 46  1  0  0  0  0
 17 31  1  0  0  0  0
M  END
$$$$

  -OEChem-05262214473D

 56 57  0     1  0  0  0  0  0999 V2000
   -2.2900    0.3401    4.1553 C   0  0  0  0  0  0  0  0  0  0  0  0
   -1.3426   -0.2746    3.6796 O   0  0  0  0  0  0  0  0  0  0  0  0
   -2.7219    0.0577    5.5560 C   0  0  0  0  0  0  0  0  0  0  0  0
   -3.4815   -0.7386    5.6094 H   0  0  0  0  0  0  0  0  0  0  0  0
   -1.8906   -0.2899    6.1903 H   0  0  0  0  0  0  0  0  0  0  0  0
   -3.1599    0.9126    6.0956 H   0  0  0  0  0  0  0  0  0  0  0  0
   -3.0397    1.3125    3.5142 N   0  0  0  0  0  0  0  0  0  0  0  0
   -2.7928    1.7385    2.1618 C   0  0  2  0  0  0  0  0  0  0  0  0
   -1.4579    1.1532    1.7206 C   0  0  0  0  0  0  0  0  0  0  0  0
   -0.5858    0.8004    2.5118 O   0  0  0  0  0  0  0  0  0  0  0  0
   -2.7841    3.2553    2.0523 C   0  0  0  0  0  0  0  0  0  0  0  0
   -3.8047    1.7484    4.0260 H   0  0  0  0  0  0  0  0  0  0  0  0
   -3.5969    1.3201    1.5466 H   0  0  0  0  0  0  0  0  0  0  0  0
   -1.9850    3.6926    2.6620 H   0  0  0  0  0  0  0  0  0  0  0  0
   -2.6246    3.5776    1.0180 H   0  0  0  0  0  0  0  0  0  0  0  0
   -3.7342    3.6765    2.3981 H   0  0  0  0  0  0  0  0  0  0  0  0
   -1.3352    1.1101    0.3372 N   0  0  0  0  0  0  0  0  0  0  0  0
   -0.1579    0.6093   -0.3265 C   0  0  2  0  0  0  0  0  0  0  0  0
   -0.3639   -0.8856   -0.5434 C   0  0  0  0  0  0  0  0  0  0  0  0
    0.3519   -1.5596   -1.2811 O   0  0  0  0  0  0  0  0  0  0  0  0
    1.1164    0.8589    0.4883 C   0  0  0  0  0  0  0  0  0  0  0  0
    1.4580    2.3245    0.6032 C   0  0  0  0  0  0  0  0  0  0  0  0
    1.1440    3.1417    1.6645 C   0  0  0  0  0  0  0  0  0  0  0  0
    2.1587    3.1091   -0.3551 C   0  0  0  0  0  0  0  0  0  0  0  0
    1.6259    4.3934    1.3895 N   0  0  0  0  0  0  0  0  0  0  0  0
    2.2504    4.4028    0.1626 C   0  0  0  0  0  0  0  0  0  0  0  0
    2.7254    2.8419   -1.6172 C   0  0  0  0  0  0  0  0  0  0  0  0
    2.8831    5.4469   -0.5214 C   0  0  0  0  0  0  0  0  0  0  0  0
    3.3614    3.8765   -2.3128 C   0  0  0  0  0  0  0  0  0  0  0  0
    3.4379    5.1582   -1.7715 C   0  0  0  0  0  0  0  0  0  0  0  0
   -2.1183    1.4068   -0.2401 H   0  0  0  0  0  0  0  0  0  0  0  0
   -0.1115    1.1102   -1.3006 H   0  0  0  0  0  0  0  0  0  0  0  0
    1.9629    0.3158    0.0466 H   0  0  0  0  0  0  0  0  0  0  0  0
    1.0098    0.4503    1.5019 H   0  0  0  0  0  0  0  0  0  0  0  0
    0.6200    2.9464    2.5900 H   0  0  0  0  0  0  0  0  0  0  0  0
    1.5366    5.1950    1.9985 H   0  0  0  0  0  0  0  0  0  0  0  0
    2.6734    1.8483   -2.0532 H   0  0  0  0  0  0  0  0  0  0  0  0
    2.9440    6.4447   -0.1003 H   0  0  0  0  0  0  0  0  0  0  0  0
    3.7999    3.6766   -3.2868 H   0  0  0  0  0  0  0  0  0  0  0  0
    3.9366    5.9469   -2.3290 H   0  0  0  0  0  0  0  0  0  0  0  0
   -1.4090   -1.3826    0.2229 N   0  0  0  0  0  0  0  0  0  0  0  0
   -1.8011   -2.7737    0.2233 C   0  0  2  0  0  0  0  0  0  0  0  0
   -1.9622   -3.2173   -1.2247 C   0  0  0  0  0  0  0  0  0  0  0  0
   -2.1728   -2.4326   -2.1472 O   0  0  0  0  0  0  0  0  0  0  0  0
   -3.0895   -2.9852    1.0031 C   0  0  0  0  0  0  0  0  0  0  0  0
   -1.9243   -0.7361    0.8131 H   0  0  0  0  0  0  0  0  0  0  0  0
   -0.9820   -3.3330    0.6883 H   0  0  0  0  0  0  0  0  0  0  0  0
   -3.9217   -2.4324    0.5521 H   0  0  0  0  0  0  0  0  0  0  0  0
   -3.3699   -4.0434    1.0265 H   0  0  0  0  0  0  0  0  0  0  0  0
   -2.9811   -2.6381    2.0363 H   0  0  0  0  0  0  0  0  0  0  0  0
   -1.8861   -4.5965   -1.3596 N   0  0  0  0  0  0  0  0  0  0  0  0
   -2.0211   -5.2639   -2.6333 C   0  0  0  0  0  0  0  0  0  0  0  0
   -1.6900   -5.1683   -0.5433 H   0  0  0  0  0  0  0  0  0  0  0  0
   -3.0729   -5.5451   -2.7908 H   0  0  0  0  0  0  0  0  0  0  0  0
   -1.6982   -4.5870   -3.4379 H   0  0  0  0  0  0  0  0  0  0  0  0
   -1.3948   -6.1682   -2.6414 H   0  0  0  0  0  0  0  0  0  0  0  0
 29 30  2  0  0  0  0
 27 29  1  0  0  0  0
 28 30  1  0  0  0  0
 24 27  2  0  0  0  0
 26 28  2  0  0  0  0
 22 23  2  0  0  0  0
 23 25  1  0  0  0  0
 22 24  1  0  0  0  0
 24 26  1  0  0  0  0
 21 22  1  0  0  0  0
 25 26  1  0  0  0  0
  1  3  1  0  0  0  0
  1  7  1  0  0  0  0
  1  2  2  0  0  0  0
 42 43  1  0  0  0  0
 43 51  1  0  0  0  0
 43 44  2  0  0  0  0
  8  9  1  0  0  0  0
  9 17  1  0  0  0  0
  9 10  2  0  0  0  0
 18 19  1  0  0  0  0
 19 41  1  0  0  0  0
 19 20  2  0  0  0  0
 42 45  1  0  0  0  0
  8 11  1  0  0  0  0
 51 52  1  0  0  0  0
 18 21  1  0  0  0  0
 41 42  1  0  0  0  0
  7  8  1  0  0  0  0
 17 18  1  0  0  0  0
 29 39  1  0  0  0  0
 30 40  1  0  0  0  0
 27 37  1  0  0  0  0
 28 38  1  0  0  0  0
 23 35  1  0  0  0  0
  3  4  1  0  0  0  0
  3  5  1  0  0  0  0
  3  6  1  0  0  0  0
 45 48  1  0  0  0  0
 45 49  1  0  0  0  0
 45 50  1  0  0  0  0
 11 14  1  0  0  0  0
 11 15  1  0  0  0  0
 11 16  1  0  0  0  0
 52 54  1  0  0  0  0
 52 55  1  0  0  0  0
 52 56  1  0  0  0  0
 21 33  1  0  0  0  0
 21 34  1  0  0  0  0
 42 47  1  0  0  0  0
  8 13  1  0  0  0  0
 18 32  1  0  0  0  0
 25 36  1  0  0  0  0
 51 53  1  0  0  0  0
  7 12  1  0  0  0  0
 41 46  1  0  0  0  0
 17 31  1  0  0  0  0
M  END
$$$$

  -OEChem-05262214473D

 56 57  0     1  0  0  0  0  0999 V2000
   -2.2900    0.3401    4.1553 C   0  0  0  0  0  0  0  0  0  0  0  0
   -1.3426   -0.2746    3.6796 O   0  0  0  0  0  0  0  0  0  0  0  0
   -2.7219    0.0577    5.5560 C   0  0  0  0  0  0  0  0  0  0  0  0
   -3.4815   -0.7386    5.6094 H   0  0  0  0  0  0  0  0  0  0  0  0
   -1.8906   -0.2899    6.1903 H   0  0  0  0  0  0  0  0  0  0  0  0
   -3.1599    0.9126    6.0956 H   0  0  0  0  0  0  0  0  0  0  0  0
   -3.0397    1.3125    3.5142 N   0  0  0  0  0  0  0  0  0  0  0  0
   -2.7928    1.7385    2.1618 C   0  0  2  0  0  0  0  0  0  0  0  0
   -1.4579    1.1532    1.7206 C   0  0  0  0  0  0  0  0  0  0  0  0
   -0.5858    0.8004    2.5118 O   0  0  0  0  0  0  0  0  0  0  0  0
   -2.7841    3.2553    2.0523 C   0  0  0  0  0  0  0  0  0  0  0  0
   -3.8047    1.7484    4.0260 H   0  0  0  0  0  0  0  0  0  0  0  0
   -3.5969    1.3201    1.5466 H   0  0  0  0  0  0  0  0  0  0  0  0
   -1.9850    3.6926    2.6620 H   0  0  0  0  0  0  0  0  0  0  0  0
   -2.6246    3.5776    1.0180 H   0  0  0  0  0  0  0  0  0  0  0  0
   -3.7342    3.6765    2.3981 H   0  0  0  0  0  0  0  0  0  0  0  0
   -1.3352    1.1101    0.3372 N   0  0  0  0  0  0  0  0  0  0  0  0
   -0.1579    0.6093   -0.3265 C   0  0  2  0  0  0  0  0  0  0  0  0
   -0.3639   -0.8856   -0.5434 C   0  0  0  0  0  0  0  0  0  0  0  0
    0.4868   -1.6112   -1.0540 O   0  0  0  0  0  0  0  0  0  0  0  0
    1.1164    0.8589    0.4883 C   0  0  0  0  0  0  0  0  0  0  0  0
    1.4580    2.3245    0.6032 C   0  0  0  0  0  0  0  0  0  0  0  0
    1.1440    3.1417    1.6645 C   0  0  0  0  0  0  0  0  0  0  0  0
    2.1587    3.1091   -0.3551 C   0  0  0  0  0  0  0  0  0  0  0  0
    1.6259    4.3934    1.3895 N   0  0  0  0  0  0  0  0  0  0  0  0
    2.2504    4.4028    0.1626 C   0  0  0  0  0  0  0  0  0  0  0  0
    2.7254    2.8419   -1.6172 C   0  0  0  0  0  0  0  0  0  0  0  0
    2.8831    5.4469   -0.5214 C   0  0  0  0  0  0  0  0  0  0  0  0
    3.3614    3.8765   -2.3128 C   0  0  0  0  0  0  0  0  0  0  0  0
    3.4379    5.1582   -1.7715 C   0  0  0  0  0  0  0  0  0  0  0  0
   -2.1183    1.4068   -0.2401 H   0  0  0  0  0  0  0  0  0  0  0  0
   -0.1115    1.1102   -1.3006 H   0  0  0  0  0  0  0  0  0  0  0  0
    1.9629    0.3158    0.0466 H   0  0  0  0  0  0  0  0  0  0  0  0
    1.0098    0.4503    1.5019 H   0  0  0  0  0  0  0  0  0  0  0  0
    0.6200    2.9464    2.5900 H   0  0  0  0  0  0  0  0  0  0  0  0
    1.5366    5.1950    1.9985 H   0  0  0  0  0  0  0  0  0  0  0  0
    2.6734    1.8483   -2.0532 H   0  0  0  0  0  0  0  0  0  0  0  0
    2.9440    6.4447   -0.1003 H   0  0  0  0  0  0  0  0  0  0  0  0
    3.7999    3.6766   -3.2868 H   0  0  0  0  0  0  0  0  0  0  0  0
    3.9366    5.9469   -2.3290 H   0  0  0  0  0  0  0  0  0  0  0  0
   -1.5886   -1.3177   -0.0536 N   0  0  0  0  0  0  0  0  0  0  0  0
   -2.0252   -2.6943   -0.1109 C   0  0  2  0  0  0  0  0  0  0  0  0
   -1.8326   -3.1897   -1.5382 C   0  0  0  0  0  0  0  0  0  0  0  0
   -1.7702   -2.4358   -2.5072 O   0  0  0  0  0  0  0  0  0  0  0  0
   -3.4766   -2.8329    0.3214 C   0  0  0  0  0  0  0  0  0  0  0  0
   -2.2093   -0.6320    0.3663 H   0  0  0  0  0  0  0  0  0  0  0  0
   -1.3743   -3.2609    0.5638 H   0  0  0  0  0  0  0  0  0  0  0  0
   -4.1439   -2.2719   -0.3430 H   0  0  0  0  0  0  0  0  0  0  0  0
   -3.7973   -3.8798    0.3047 H   0  0  0  0  0  0  0  0  0  0  0  0
   -3.6190   -2.4488    1.3372 H   0  0  0  0  0  0  0  0  0  0  0  0
   -1.7820   -4.5749   -1.6075 N   0  0  0  0  0  0  0  0  0  0  0  0
   -1.6177   -5.2877   -2.8528 C   0  0  0  0  0  0  0  0  0  0  0  0
   -1.8227   -5.1198   -0.7513 H   0  0  0  0  0  0  0  0  0  0  0  0
   -2.6060   -5.5407   -3.2642 H   0  0  0  0  0  0  0  0  0  0  0  0
   -1.0739   -4.6540   -3.5689 H   0  0  0  0  0  0  0  0  0  0  0  0
   -1.0476   -6.2113   -2.6740 H   0  0  0  0  0  0  0  0  0  0  0  0
 29 30  2  0  0  0  0
 27 29  1  0  0  0  0
 28 30  1  0  0  0  0
 24 27  2  0  0  0  0
 26 28  2  0  0  0  0
 22 23  2  0  0  0  0
 23 25  1  0  0  0  0
 22 24  1  0  0  0  0
 24 26  1  0  0  0  0
 21 22  1  0  0  0  0
 25 26  1  0  0  0  0
  1  3  1  0  0  0  0
  1  7  1  0  0  0  0
  1  2  2  0  0  0  0
 42 43  1  0  0  0  0
 43 51  1  0  0  0  0
 43 44  2  0  0  0  0
  8  9  1  0  0  0  0
  9 17  1  0  0  0  0
  9 10  2  0  0  0  0
 18 19  1  0  0  0  0
 19 41  1  0  0  0  0
 19 20  2  0  0  0  0
 42 45  1  0  0  0  0
  8 11  1  0  0  0  0
 51 52  1  0  0  0  0
 18 21  1  0  0  0  0
 41 42  1  0  0  0  0
  7  8  1  0  0  0  0
 17 18  1  0  0  0  0
 29 39  1  0  0  0  0
 30 40  1  0  0  0  0
 27 37  1  0  0  0  0
 28 38  1  0  0  0  0
 23 35  1  0  0  0  0
  3  4  1  0  0  0  0
  3  5  1  0  0  0  0
  3  6  1  0  0  0  0
 45 48  1  0  0  0  0
 45 49  1  0  0  0  0
 45 50  1  0  0  0  0
 11 14  1  0  0  0  0
 11 15  1  0  0  0  0
 11 16  1  0  0  0  0
 52 54  1  0  0  0  0
 52 55  1  0  0  0  0
 52 56  1  0  0  0  0
 21 33  1  0  0  0  0
 21 34  1  0  0  0  0
 42 47  1  0  0  0  0
  8 13  1  0  0  0  0
 18 32  1  0  0  0  0
 25 36  1  0  0  0  0
 51 53  1  0  0  0  0
  7 12  1  0  0  0  0
 41 46  1  0  0  0  0
 17 31  1  0  0  0  0
M  END
$$$$

  -OEChem-05262214473D

 56 57  0     1  0  0  0  0  0999 V2000
   -2.2900    0.3401    4.1553 C   0  0  0  0  0  0  0  0  0  0  0  0
   -1.3426   -0.2746    3.6796 O   0  0  0  0  0  0  0  0  0  0  0  0
   -2.7219    0.0577    5.5560 C   0  0  0  0  0  0  0  0  0  0  0  0
   -3.4815   -0.7386    5.6094 H   0  0  0  0  0  0  0  0  0  0  0  0
   -1.8906   -0.2899    6.1903 H   0  0  0  0  0  0  0  0  0  0  0  0
   -3.1599    0.9126    6.0956 H   0  0  0  0  0  0  0  0  0  0  0  0
   -3.0397    1.3125    3.5142 N   0  0  0  0  0  0  0  0  0  0  0  0
   -2.7928    1.7385    2.1618 C   0  0  2  0  0  0  0  0  0  0  0  0
   -1.4579    1.1532    1.7206 C   0  0  0  0  0  0  0  0  0  0  0  0
   -0.5858    0.8004    2.5118 O   0  0  0  0  0  0  0  0  0  0  0  0
   -2.7841    3.2553    2.0523 C   0  0  0  0  0  0  0  0  0  0  0  0
   -3.8047    1.7484    4.0260 H   0  0  0  0  0  0  0  0  0  0  0  0
   -3.5969    1.3201    1.5466 H   0  0  0  0  0  0  0  0  0  0  0  0
   -1.9850    3.6926    2.6620 H   0  0  0  0  0  0  0  0  0  0  0  0
   -2.6246    3.5776    1.0180 H   0  0  0  0  0  0  0  0  0  0  0  0
   -3.7342    3.6765    2.3981 H   0  0  0  0  0  0  0  0  0  0  0  0
   -1.3352    1.1101    0.3372 N   0  0  0  0  0  0  0  0  0  0  0  0
   -0.1579    0.6093   -0.3265 C   0  0  2  0  0  0  0  0  0  0  0  0
   -0.3639   -0.8856   -0.5434 C   0  0  0  0  0  0  0  0  0  0  0  0
    0.5576   -1.6580   -0.7985 O   0  0  0  0  0  0  0  0  0  0  0  0
    1.1164    0.8589    0.4883 C   0  0  0  0  0  0  0  0  0  0  0  0
    1.4580    2.3245    0.6032 C   0  0  0  0  0  0  0  0  0  0  0  0
    1.1440    3.1417    1.6645 C   0  0  0  0  0  0  0  0  0  0  0  0
    2.1587    3.1091   -0.3551 C   0  0  0  0  0  0  0  0  0  0  0  0
    1.6259    4.3934    1.3895 N   0  0  0  0  0  0  0  0  0  0  0  0
    2.2504    4.4028    0.1626 C   0  0  0  0  0  0  0  0  0  0  0  0
    2.7254    2.8419   -1.6172 C   0  0  0  0  0  0  0  0  0  0  0  0
    2.8831    5.4469   -0.5214 C   0  0  0  0  0  0  0  0  0  0  0  0
    3.3614    3.8765   -2.3128 C   0  0  0  0  0  0  0  0  0  0  0  0
    3.4379    5.1582   -1.7715 C   0  0  0  0  0  0  0  0  0  0  0  0
   -2.1183    1.4068   -0.2401 H   0  0  0  0  0  0  0  0  0  0  0  0
   -0.1115    1.1102   -1.3006 H   0  0  0  0  0  0  0  0  0  0  0  0
    1.9629    0.3158    0.0466 H   0  0  0  0  0  0  0  0  0  0  0  0
    1.0098    0.4503    1.5019 H   0  0  0  0  0  0  0  0  0  0  0  0
    0.6200    2.9464    2.5900 H   0  0  0  0  0  0  0  0  0  0  0  0
    1.5366    5.1950    1.9985 H   0  0  0  0  0  0  0  0  0  0  0  0
    2.6734    1.8483   -2.0532 H   0  0  0  0  0  0  0  0  0  0  0  0
    2.9440    6.4447   -0.1003 H   0  0  0  0  0  0  0  0  0  0  0  0
    3.7999    3.6766   -3.2868 H   0  0  0  0  0  0  0  0  0  0  0  0
    3.9366    5.9469   -2.3290 H   0  0  0  0  0  0  0  0  0  0  0  0
   -1.6895   -1.2581   -0.3685 N   0  0  0  0  0  0  0  0  0  0  0  0
   -2.1538   -2.6211   -0.4934 C   0  0  2  0  0  0  0  0  0  0  0  0
   -1.6269   -3.1787   -1.8090 C   0  0  0  0  0  0  0  0  0  0  0  0
   -1.2902   -2.4664   -2.7526 O   0  0  0  0  0  0  0  0  0  0  0  0
   -3.6719   -2.6955   -0.4406 C   0  0  0  0  0  0  0  0  0  0  0  0
   -2.3673   -0.5366   -0.1413 H   0  0  0  0  0  0  0  0  0  0  0  0
   -1.7189   -3.1811    0.3416 H   0  0  0  0  0  0  0  0  0  0  0  0
   -4.1255   -2.1400   -1.2695 H   0  0  0  0  0  0  0  0  0  0  0  0
   -4.0209   -3.7312   -0.5067 H   0  0  0  0  0  0  0  0  0  0  0  0
   -4.0508   -2.2668    0.4935 H   0  0  0  0  0  0  0  0  0  0  0  0
   -1.6177   -4.5665   -1.8212 N   0  0  0  0  0  0  0  0  0  0  0  0
   -1.1731   -5.3332   -2.9617 C   0  0  0  0  0  0  0  0  0  0  0  0
   -1.8963   -5.0754   -0.9875 H   0  0  0  0  0  0  0  0  0  0  0  0
   -2.0347   -5.5703   -3.6031 H   0  0  0  0  0  0  0  0  0  0  0  0
   -0.4401   -4.7464   -3.5346 H   0  0  0  0  0  0  0  0  0  0  0  0
   -0.7056   -6.2669   -2.6159 H   0  0  0  0  0  0  0  0  0  0  0  0
 29 30  2  0  0  0  0
 27 29  1  0  0  0  0
 28 30  1  0  0  0  0
 24 27  2  0  0  0  0
 26 28  2  0  0  0  0
 22 23  2  0  0  0  0
 23 25  1  0  0  0  0
 22 24  1  0  0  0  0
 24 26  1  0  0  0  0
 21 22  1  0  0  0  0
 25 26  1  0  0  0  0
  1  3  1  0  0  0  0
  1  7  1  0  0  0  0
  1  2  2  0  0  0  0
 42 43  1  0  0  0  0
 43 51  1  0  0  0  0
 43 44  2  0  0  0  0
  8  9  1  0  0  0  0
  9 17  1  0  0  0  0
  9 10  2  0  0  0  0
 18 19  1  0  0  0  0
 19 41  1  0  0  0  0
 19 20  2  0  0  0  0
 42 45  1  0  0  0  0
  8 11  1  0  0  0  0
 51 52  1  0  0  0  0
 18 21  1  0  0  0  0
 41 42  1  0  0  0  0
  7  8  1  0  0  0  0
 17 18  1  0  0  0  0
 29 39  1  0  0  0  0
 30 40  1  0  0  0  0
 27 37  1  0  0  0  0
 28 38  1  0  0  0  0
 23 35  1  0  0  0  0
  3  4  1  0  0  0  0
  3  5  1  0  0  0  0
  3  6  1  0  0  0  0
 45 48  1  0  0  0  0
 45 49  1  0  0  0  0
 45 50  1  0  0  0  0
 11 14  1  0  0  0  0
 11 15  1  0  0  0  0
 11 16  1  0  0  0  0
 52 54  1  0  0  0  0
 52 55  1  0  0  0  0
 52 56  1  0  0  0  0
 21 33  1  0  0  0  0
 21 34  1  0  0  0  0
 42 47  1  0  0  0  0
  8 13  1  0  0  0  0
 18 32  1  0  0  0  0
 25 36  1  0  0  0  0
 51 53  1  0  0  0  0
  7 12  1  0  0  0  0
 41 46  1  0  0  0  0
 17 31  1  0  0  0  0
M  END
$$$$

  -OEChem-05262214473D

 56 57  0     1  0  0  0  0  0999 V2000
   -2.2900    0.3401    4.1553 C   0  0  0  0  0  0  0  0  0  0  0  0
   -1.3426   -0.2746    3.6796 O   0  0  0  0  0  0  0  0  0  0  0  0
   -2.7219    0.0577    5.5560 C   0  0  0  0  0  0  0  0  0  0  0  0
   -3.4815   -0.7386    5.6094 H   0  0  0  0  0  0  0  0  0  0  0  0
   -1.8906   -0.2899    6.1903 H   0  0  0  0  0  0  0  0  0  0  0  0
   -3.1599    0.9126    6.0956 H   0  0  0  0  0  0  0  0  0  0  0  0
   -3.0397    1.3125    3.5142 N   0  0  0  0  0  0  0  0  0  0  0  0
   -2.7928    1.7385    2.1618 C   0  0  2  0  0  0  0  0  0  0  0  0
   -1.4579    1.1532    1.7206 C   0  0  0  0  0  0  0  0  0  0  0  0
   -0.5858    0.8004    2.5118 O   0  0  0  0  0  0  0  0  0  0  0  0
   -2.7841    3.2553    2.0523 C   0  0  0  0  0  0  0  0  0  0  0  0
   -3.8047    1.7484    4.0260 H   0  0  0  0  0  0  0  0  0  0  0  0
   -3.5969    1.3201    1.5466 H   0  0  0  0  0  0  0  0  0  0  0  0
   -1.9850    3.6926    2.6620 H   0  0  0  0  0  0  0  0  0  0  0  0
   -2.6246    3.5776    1.0180 H   0  0  0  0  0  0  0  0  0  0  0  0
   -3.7342    3.6765    2.3981 H   0  0  0  0  0  0  0  0  0  0  0  0
   -1.3352    1.1101    0.3372 N   0  0  0  0  0  0  0  0  0  0  0  0
   -0.1579    0.6093   -0.3265 C   0  0  2  0  0  0  0  0  0  0  0  0
   -0.3639   -0.8856   -0.5434 C   0  0  0  0  0  0  0  0  0  0  0  0
    0.5594   -1.6969   -0.5322 O   0  0  0  0  0  0  0  0  0  0  0  0
    1.1164    0.8589    0.4883 C   0  0  0  0  0  0  0  0  0  0  0  0
    1.4580    2.3245    0.6032 C   0  0  0  0  0  0  0  0  0  0  0  0
    1.1440    3.1417    1.6645 C   0  0  0  0  0  0  0  0  0  0  0  0
    2.1587    3.1091   -0.3551 C   0  0  0  0  0  0  0  0  0  0  0  0
    1.6259    4.3934    1.3895 N   0  0  0  0  0  0  0  0  0  0  0  0
    2.2504    4.4028    0.1626 C   0  0  0  0  0  0  0  0  0  0  0  0
    2.7254    2.8419   -1.6172 C   0  0  0  0  0  0  0  0  0  0  0  0
    2.8831    5.4469   -0.5214 C   0  0  0  0  0  0  0  0  0  0  0  0
    3.3614    3.8765   -2.3128 C   0  0  0  0  0  0  0  0  0  0  0  0
    3.4379    5.1582   -1.7715 C   0  0  0  0  0  0  0  0  0  0  0  0
   -2.1183    1.4068   -0.2401 H   0  0  0  0  0  0  0  0  0  0  0  0
   -0.1115    1.1102   -1.3006 H   0  0  0  0  0  0  0  0  0  0  0  0
    1.9629    0.3158    0.0466 H   0  0  0  0  0  0  0  0  0  0  0  0
    1.0098    0.4503    1.5019 H   0  0  0  0  0  0  0  0  0  0  0  0
    0.6200    2.9464    2.5900 H   0  0  0  0  0  0  0  0  0  0  0  0
    1.5366    5.1950    1.9985 H   0  0  0  0  0  0  0  0  0  0  0  0
    2.6734    1.8483   -2.0532 H   0  0  0  0  0  0  0  0  0  0  0  0
    2.9440    6.4447   -0.1003 H   0  0  0  0  0  0  0  0  0  0  0  0
    3.7999    3.6766   -3.2868 H   0  0  0  0  0  0  0  0  0  0  0  0
    3.9366    5.9469   -2.3290 H   0  0  0  0  0  0  0  0  0  0  0  0
   -1.7048   -1.2079   -0.7003 N   0  0  0  0  0  0  0  0  0  0  0  0
   -2.1784   -2.5590   -0.8980 C   0  0  2  0  0  0  0  0  0  0  0  0
   -1.3591   -3.1852   -2.0188 C   0  0  0  0  0  0  0  0  0  0  0  0
   -0.7653   -2.5222   -2.8667 O   0  0  0  0  0  0  0  0  0  0  0  0
   -3.6620   -2.5821   -1.2310 C   0  0  0  0  0  0  0  0  0  0  0  0
   -2.3877   -0.4563   -0.6750 H   0  0  0  0  0  0  0  0  0  0  0  0
   -1.9925   -3.0992    0.0367 H   0  0  0  0  0  0  0  0  0  0  0  0
   -3.8677   -2.0457   -2.1645 H   0  0  0  0  0  0  0  0  0  0  0  0
   -4.0255   -3.6079   -1.3523 H   0  0  0  0  0  0  0  0  0  0  0  0
   -4.2470   -2.1047   -0.4375 H   0  0  0  0  0  0  0  0  0  0  0  0
   -1.4044   -4.5719   -1.9863 N   0  0  0  0  0  0  0  0  0  0  0  0
   -0.7178   -5.3973   -2.9524 C   0  0  0  0  0  0  0  0  0  0  0  0
   -1.9059   -5.0380   -1.2359 H   0  0  0  0  0  0  0  0  0  0  0  0
   -1.3979   -5.6318   -3.7845 H   0  0  0  0  0  0  0  0  0  0  0  0
    0.1601   -4.8577   -3.3374 H   0  0  0  0  0  0  0  0  0  0  0  0
   -0.3920   -6.3312   -2.4710 H   0  0  0  0  0  0  0  0  0  0  0  0
 29 30  2  0  0  0  0
 27 29  1  0  0  0  0
 28 30  1  0  0  0  0
 24 27  2  0  0  0  0
 26 28  2  0  0  0  0
 22 23  2  0  0  0  0
 23 25  1  0  0  0  0
 22 24  1  0  0  0  0
 24 26  1  0  0  0  0
 21 22  1  0  0  0  0
 25 26  1  0  0  0  0
  1  3  1  0  0  0  0
  1  7  1  0  0  0  0
  1  2  2  0  0  0  0
 42 43  1  0  0  0  0
 43 51  1  0  0  0  0
 43 44  2  0  0  0  0
  8  9  1  0  0  0  0
  9 17  1  0  0  0  0
  9 10  2  0  0  0  0
 18 19  1  0  0  0  0
 19 41  1  0  0  0  0
 19 20  2  0  0  0  0
 42 45  1  0  0  0  0
  8 11  1  0  0  0  0
 51 52  1  0  0  0  0
 18 21  1  0  0  0  0
 41 42  1  0  0  0  0
  7  8  1  0  0  0  0
 17 18  1  0  0  0  0
 29 39  1  0  0  0  0
 30 40  1  0  0  0  0
 27 37  1  0  0  0  0
 28 38  1  0  0  0  0
 23 35  1  0  0  0  0
  3  4  1  0  0  0  0
  3  5  1  0  0  0  0
  3  6  1  0  0  0  0
 45 48  1  0  0  0  0
 45 49  1  0  0  0  0
 45 50  1  0  0  0  0
 11 14  1  0  0  0  0
 11 15  1  0  0  0  0
 11 16  1  0  0  0  0
 52 54  1  0  0  0  0
 52 55  1  0  0  0  0
 52 56  1  0  0  0  0
 21 33  1  0  0  0  0
 21 34  1  0  0  0  0
 42 47  1  0  0  0  0
  8 13  1  0  0  0  0
 18 32  1  0  0  0  0
 25 36  1  0  0  0  0
 51 53  1  0  0  0  0
  7 12  1  0  0  0  0
 41 46  1  0  0  0  0
 17 31  1  0  0  0  0
M  END
$$$$

  -OEChem-05262214473D

 56 57  0     1  0  0  0  0  0999 V2000
   -2.2900    0.3401    4.1553 C   0  0  0  0  0  0  0  0  0  0  0  0
   -1.3426   -0.2746    3.6796 O   0  0  0  0  0  0  0  0  0  0  0  0
   -2.7219    0.0577    5.5560 C   0  0  0  0  0  0  0  0  0  0  0  0
   -3.4815   -0.7386    5.6094 H   0  0  0  0  0  0  0  0  0  0  0  0
   -1.8906   -0.2899    6.1903 H   0  0  0  0  0  0  0  0  0  0  0  0
   -3.1599    0.9126    6.0956 H   0  0  0  0  0  0  0  0  0  0  0  0
   -3.0397    1.3125    3.5142 N   0  0  0  0  0  0  0  0  0  0  0  0
   -2.7928    1.7385    2.1618 C   0  0  2  0  0  0  0  0  0  0  0  0
   -1.4579    1.1532    1.7206 C   0  0  0  0  0  0  0  0  0  0  0  0
   -0.5858    0.8004    2.5118 O   0  0  0  0  0  0  0  0  0  0  0  0
   -2.7841    3.2553    2.0523 C   0  0  0  0  0  0  0  0  0  0  0  0
   -3.8047    1.7484    4.0260 H   0  0  0  0  0  0  0  0  0  0  0  0
   -3.5969    1.3201    1.5466 H   0  0  0  0  0  0  0  0  0  0  0  0
   -1.9850    3.6926    2.6620 H   0  0  0  0  0  0  0  0  0  0  0  0
   -2.6246    3.5776    1.0180 H   0  0  0  0  0  0  0  0  0  0  0  0
   -3.7342    3.6765    2.3981 H   0  0  0  0  0  0  0  0  0  0  0  0
   -1.3352    1.1101    0.3372 N   0  0  0  0  0  0  0  0  0  0  0  0
   -0.1579    0.6093   -0.3265 C   0  0  2  0  0  0  0  0  0  0  0  0
   -0.3639   -0.8856   -0.5434 C   0  0  0  0  0  0  0  0  0  0  0  0
    0.4922   -1.7252   -0.2731 O   0  0  0  0  0  0  0  0  0  0  0  0
    1.1164    0.8589    0.4883 C   0  0  0  0  0  0  0  0  0  0  0  0
    1.4580    2.3245    0.6032 C   0  0  0  0  0  0  0  0  0  0  0  0
    1.1440    3.1417    1.6645 C   0  0  0  0  0  0  0  0  0  0  0  0
    2.1587    3.1091   -0.3551 C   0  0  0  0  0  0  0  0  0  0  0  0
    1.6259    4.3934    1.3895 N   0  0  0  0  0  0  0  0  0  0  0  0
    2.2504    4.4028    0.1626 C   0  0  0  0  0  0  0  0  0  0  0  0
    2.7254    2.8419   -1.6172 C   0  0  0  0  0  0  0  0  0  0  0  0
    2.8831    5.4469   -0.5214 C   0  0  0  0  0  0  0  0  0  0  0  0
    3.3614    3.8765   -2.3128 C   0  0  0  0  0  0  0  0  0  0  0  0
    3.4379    5.1582   -1.7715 C   0  0  0  0  0  0  0  0  0  0  0  0
   -2.1183    1.4068   -0.2401 H   0  0  0  0  0  0  0  0  0  0  0  0
   -0.1115    1.1102   -1.3006 H   0  0  0  0  0  0  0  0  0  0  0  0
    1.9629    0.3158    0.0466 H   0  0  0  0  0  0  0  0  0  0  0  0
    1.0098    0.4503    1.5019 H   0  0  0  0  0  0  0  0  0  0  0  0
    0.6200    2.9464    2.5900 H   0  0  0  0  0  0  0  0  0  0  0  0
    1.5366    5.1950    1.9985 H   0  0  0  0  0  0  0  0  0  0  0  0
    2.6734    1.8483   -2.0532 H   0  0  0  0  0  0  0  0  0  0  0  0
    2.9440    6.4447   -0.1003 H   0  0  0  0  0  0  0  0  0  0  0  0
    3.7999    3.6766   -3.2868 H   0  0  0  0  0  0  0  0  0  0  0  0
    3.9366    5.9469   -2.3290 H   0  0  0  0  0  0  0  0  0  0  0  0
   -1.6335   -1.1704   -1.0265 N   0  0  0  0  0  0  0  0  0  0  0  0
   -2.0971   -2.5123   -1.2973 C   0  0  2  0  0  0  0  0  0  0  0  0
   -1.0474   -3.2086   -2.1533 C   0  0  0  0  0  0  0  0  0  0  0  0
   -0.2314   -2.5994   -2.8418 O   0  0  0  0  0  0  0  0  0  0  0  0
   -3.4478   -2.5007   -1.9959 C   0  0  0  0  0  0  0  0  0  0  0  0
   -2.2689   -0.3968   -1.1985 H   0  0  0  0  0  0  0  0  0  0  0  0
   -2.1764   -3.0206   -0.3302 H   0  0  0  0  0  0  0  0  0  0  0  0
   -3.3881   -1.9954   -2.9668 H   0  0  0  0  0  0  0  0  0  0  0  0
   -3.8108   -3.5182   -2.1747 H   0  0  0  0  0  0  0  0  0  0  0  0
   -4.1943   -1.9734   -1.3922 H   0  0  0  0  0  0  0  0  0  0  0  0
   -1.1567   -4.5908   -2.0915 N   0  0  0  0  0  0  0  0  0  0  0  0
   -0.2826   -5.4757   -2.8256 C   0  0  0  0  0  0  0  0  0  0  0  0
   -1.8506   -5.0103   -1.4796 H   0  0  0  0  0  0  0  0  0  0  0  0
   -0.7391   -5.7209   -3.7959 H   0  0  0  0  0  0  0  0  0  0  0  0
    0.6856   -4.9804   -2.9908 H   0  0  0  0  0  0  0  0  0  0  0  0
   -0.1282   -6.3997   -2.2491 H   0  0  0  0  0  0  0  0  0  0  0  0
 29 30  2  0  0  0  0
 27 29  1  0  0  0  0
 28 30  1  0  0  0  0
 24 27  2  0  0  0  0
 26 28  2  0  0  0  0
 22 23  2  0  0  0  0
 23 25  1  0  0  0  0
 22 24  1  0  0  0  0
 24 26  1  0  0  0  0
 21 22  1  0  0  0  0
 25 26  1  0  0  0  0
  1  3  1  0  0  0  0
  1  7  1  0  0  0  0
  1  2  2  0  0  0  0
 42 43  1  0  0  0  0
 43 51  1  0  0  0  0
 43 44  2  0  0  0  0
  8  9  1  0  0  0  0
  9 17  1  0  0  0  0
  9 10  2  0  0  0  0
 18 19  1  0  0  0  0
 19 41  1  0  0  0  0
 19 20  2  0  0  0  0
 42 45  1  0  0  0  0
  8 11  1  0  0  0  0
 51 52  1  0  0  0  0
 18 21  1  0  0  0  0
 41 42  1  0  0  0  0
  7  8  1  0  0  0  0
 17 18  1  0  0  0  0
 29 39  1  0  0  0  0
 30 40  1  0  0  0  0
 27 37  1  0  0  0  0
 28 38  1  0  0  0  0
 23 35  1  0  0  0  0
  3  4  1  0  0  0  0
  3  5  1  0  0  0  0
  3  6  1  0  0  0  0
 45 48  1  0  0  0  0
 45 49  1  0  0  0  0
 45 50  1  0  0  0  0
 11 14  1  0  0  0  0
 11 15  1  0  0  0  0
 11 16  1  0  0  0  0
 52 54  1  0  0  0  0
 52 55  1  0  0  0  0
 52 56  1  0  0  0  0
 21 33  1  0  0  0  0
 21 34  1  0  0  0  0
 42 47  1  0  0  0  0
  8 13  1  0  0  0  0
 18 32  1  0  0  0  0
 25 36  1  0  0  0  0
 51 53  1  0  0  0  0
  7 12  1  0  0  0  0
 41 46  1  0  0  0  0
 17 31  1  0  0  0  0
M  END
$$$$

  -OEChem-05262214473D

 56 57  0     1  0  0  0  0  0999 V2000
   -2.2900    0.3401    4.1553 C   0  0  0  0  0  0  0  0  0  0  0  0
   -1.3426   -0.2746    3.6796 O   0  0  0  0  0  0  0  0  0  0  0  0
   -2.7219    0.0577    5.5560 C   0  0  0  0  0  0  0  0  0  0  0  0
   -3.4815   -0.7386    5.6094 H   0  0  0  0  0  0  0  0  0  0  0  0
   -1.8906   -0.2899    6.1903 H   0  0  0  0  0  0  0  0  0  0  0  0
   -3.1599    0.9126    6.0956 H   0  0  0  0  0  0  0  0  0  0  0  0
   -3.0397    1.3125    3.5142 N   0  0  0  0  0  0  0  0  0  0  0  0
   -2.7928    1.7385    2.1618 C   0  0  2  0  0  0  0  0  0  0  0  0
   -1.4579    1.1532    1.7206 C   0  0  0  0  0  0  0  0  0  0  0  0
   -0.5858    0.8004    2.5118 O   0  0  0  0  0  0  0  0  0  0  0  0
   -2.7841    3.2553    2.0523 C   0  0  0  0  0  0  0  0  0  0  0  0
   -3.8047    1.7484    4.0260 H   0  0  0  0  0  0  0  0  0  0  0  0
   -3.5969    1.3201    1.5466 H   0  0  0  0  0  0  0  0  0  0  0  0
   -1.9850    3.6926    2.6620 H   0  0  0  0  0  0  0  0  0  0  0  0
   -2.6246    3.5776    1.0180 H   0  0  0  0  0  0  0  0  0  0  0  0
   -3.7342    3.6765    2.3981 H   0  0  0  0  0  0  0  0  0  0  0  0
   -1.3352    1.1101    0.3372 N   0  0  0  0  0  0  0  0  0  0  0  0
   -0.1579    0.6093   -0.3265 C   0  0  2  0  0  0  0  0  0  0  0  0
   -0.3639   -0.8856   -0.5434 C   0  0  0  0  0  0  0  0  0  0  0  0
    0.3604   -1.7410   -0.0389 O   0  0  0  0  0  0  0  0  0  0  0  0
    1.1164    0.8589    0.4883 C   0  0  0  0  0  0  0  0  0  0  0  0
    1.4580    2.3245    0.6032 C   0  0  0  0  0  0  0  0  0  0  0  0
    1.1440    3.1417    1.6645 C   0  0  0  0  0  0  0  0  0  0  0  0
    2.1587    3.1091   -0.3551 C   0  0  0  0  0  0  0  0  0  0  0  0
    1.6259    4.3934    1.3895 N   0  0  0  0  0  0  0  0  0  0  0  0
    2.2504    4.4028    0.1626 C   0  0  0  0  0  0  0  0  0  0  0  0
    2.7254    2.8419   -1.6172 C   0  0  0  0  0  0  0  0  0  0  0  0
    2.8831    5.4469   -0.5214 C   0  0  0  0  0  0  0  0  0  0  0  0
    3.3614    3.8765   -2.3128 C   0  0  0  0  0  0  0  0  0  0  0  0
    3.4379    5.1582   -1.7715 C   0  0  0  0  0  0  0  0  0  0  0  0
   -2.1183    1.4068   -0.2401 H   0  0  0  0  0  0  0  0  0  0  0  0
   -0.1115    1.1102   -1.3006 H   0  0  0  0  0  0  0  0  0  0  0  0
    1.9629    0.3158    0.0466 H   0  0  0  0  0  0  0  0  0  0  0  0
    1.0098    0.4503    1.5019 H   0  0  0  0  0  0  0  0  0  0  0  0
    0.6200    2.9464    2.5900 H   0  0  0  0  0  0  0  0  0  0  0  0
    1.5366    5.1950    1.9985 H   0  0  0  0  0  0  0  0  0  0  0  0
    2.6734    1.8483   -2.0532 H   0  0  0  0  0  0  0  0  0  0  0  0
    2.9440    6.4447   -0.1003 H   0  0  0  0  0  0  0  0  0  0  0  0
    3.7999    3.6766   -3.2868 H   0  0  0  0  0  0  0  0  0  0  0  0
    3.9366    5.9469   -2.3290 H   0  0  0  0  0  0  0  0  0  0  0  0
   -1.4805   -1.1482   -1.3248 N   0  0  0  0  0  0  0  0  0  0  0  0
   -1.9155   -2.4841   -1.6639 C   0  0  2  0  0  0  0  0  0  0  0  0
   -0.7130   -3.2475   -2.2032 C   0  0  0  0  0  0  0  0  0  0  0  0
    0.2751   -2.6927   -2.6796 O   0  0  0  0  0  0  0  0  0  0  0  0
   -3.0437   -2.4567   -2.6833 C   0  0  0  0  0  0  0  0  0  0  0  0
   -2.0192   -0.3619   -1.6761 H   0  0  0  0  0  0  0  0  0  0  0  0
   -2.2580   -2.9508   -0.7339 H   0  0  0  0  0  0  0  0  0  0  0  0
   -2.7194   -1.9925   -3.6218 H   0  0  0  0  0  0  0  0  0  0  0  0
   -3.3913   -3.4682   -2.9177 H   0  0  0  0  0  0  0  0  0  0  0  0
   -3.8963   -1.8820   -2.3056 H   0  0  0  0  0  0  0  0  0  0  0  0
   -0.8915   -4.6218   -2.1295 N   0  0  0  0  0  0  0  0  0  0  0  0
    0.1026   -5.5629   -2.5900 C   0  0  0  0  0  0  0  0  0  0  0  0
   -1.7344   -4.9941   -1.7020 H   0  0  0  0  0  0  0  0  0  0  0  0
   -0.1031   -5.8317   -3.6366 H   0  0  0  0  0  0  0  0  0  0  0  0
    1.1007   -5.1062   -2.5182 H   0  0  0  0  0  0  0  0  0  0  0  0
    0.0677   -6.4679   -1.9656 H   0  0  0  0  0  0  0  0  0  0  0  0
 29 30  2  0  0  0  0
 27 29  1  0  0  0  0
 28 30  1  0  0  0  0
 24 27  2  0  0  0  0
 26 28  2  0  0  0  0
 22 23  2  0  0  0  0
 23 25  1  0  0  0  0
 22 24  1  0  0  0  0
 24 26  1  0  0  0  0
 21 22  1  0  0  0  0
 25 26  1  0  0  0  0
  1  3  1  0  0  0  0
  1  7  1  0  0  0  0
  1  2  2  0  0  0  0
 42 43  1  0  0  0  0
 43 51  1  0  0  0  0
 43 44  2  0  0  0  0
  8  9  1  0  0  0  0
  9 17  1  0  0  0  0
  9 10  2  0  0  0  0
 18 19  1  0  0  0  0
 19 41  1  0  0  0  0
 19 20  2  0  0  0  0
 42 45  1  0  0  0  0
  8 11  1  0  0  0  0
 51 52  1  0  0  0  0
 18 21  1  0  0  0  0
 41 42  1  0  0  0  0
  7  8  1  0  0  0  0
 17 18  1  0  0  0  0
 29 39  1  0  0  0  0
 30 40  1  0  0  0  0
 27 37  1  0  0  0  0
 28 38  1  0  0  0  0
 23 35  1  0  0  0  0
  3  4  1  0  0  0  0
  3  5  1  0  0  0  0
  3  6  1  0  0  0  0
 45 48  1  0  0  0  0
 45 49  1  0  0  0  0
 45 50  1  0  0  0  0
 11 14  1  0  0  0  0
 11 15  1  0  0  0  0
 11 16  1  0  0  0  0
 52 54  1  0  0  0  0
 52 55  1  0  0  0  0
 52 56  1  0  0  0  0
 21 33  1  0  0  0  0
 21 34  1  0  0  0  0
 42 47  1  0  0  0  0
  8 13  1  0  0  0  0
 18 32  1  0  0  0  0
 25 36  1  0  0  0  0
 51 53  1  0  0  0  0
  7 12  1  0  0  0  0
 41 46  1  0  0  0  0
 17 31  1  0  0  0  0
M  END
$$$$

  -OEChem-05262214473D

 56 57  0     1  0  0  0  0  0999 V2000
   -2.2900    0.3401    4.1553 C   0  0  0  0  0  0  0  0  0  0  0  0
   -1.3426   -0.2746    3.6796 O   0  0  0  0  0  0  0  0  0  0  0  0
   -2.7219    0.0577    5.5560 C   0  0  0  0  0  0  0  0  0  0  0  0
   -3.4815   -0.7386    5.6094 H   0  0  0  0  0  0  0  0  0  0  0  0
   -1.8906   -0.2899    6.1903 H   0  0  0  0  0  0  0  0  0  0  0  0
   -3.1599    0.9126    6.0956 H   0  0  0  0  0  0  0  0  0  0  0  0
   -3.0397    1.3125    3.5142 N   0  0  0  0  0  0  0  0  0  0  0  0
   -2.7928    1.7385    2.1618 C   0  0  2  0  0  0  0  0  0  0  0  0
   -1.4579    1.1532    1.7206 C   0  0  0  0  0  0  0  0  0  0  0  0
   -0.5858    0.8004    2.5118 O   0  0  0  0  0  0  0  0  0  0  0  0
   -2.7841    3.2553    2.0523 C   0  0  0  0  0  0  0  0  0  0  0  0
   -3.8047    1.7484    4.0260 H   0  0  0  0  0  0  0  0  0  0  0  0
   -3.5969    1.3201    1.5466 H   0  0  0  0  0  0  0  0  0  0  0  0
   -1.9850    3.6926    2.6620 H   0  0  0  0  0  0  0  0  0  0  0  0
   -2.6246    3.5776    1.0180 H   0  0  0  0  0  0  0  0  0  0  0  0
   -3.7342    3.6765    2.3981 H   0  0  0  0  0  0  0  0  0  0  0  0
   -1.3352    1.1101    0.3372 N   0  0  0  0  0  0  0  0  0  0  0  0
   -0.1579    0.6093   -0.3265 C   0  0  2  0  0  0  0  0  0  0  0  0
   -0.3639   -0.8856   -0.5434 C   0  0  0  0  0  0  0  0  0  0  0  0
    0.1731   -1.7432    0.1544 O   0  0  0  0  0  0  0  0  0  0  0  0
    1.1164    0.8589    0.4883 C   0  0  0  0  0  0  0  0  0  0  0  0
    1.4580    2.3245    0.6032 C   0  0  0  0  0  0  0  0  0  0  0  0
    1.1440    3.1417    1.6645 C   0  0  0  0  0  0  0  0  0  0  0  0
    2.1587    3.1091   -0.3551 C   0  0  0  0  0  0  0  0  0  0  0  0
    1.6259    4.3934    1.3895 N   0  0  0  0  0  0  0  0  0  0  0  0
    2.2504    4.4028    0.1626 C   0  0  0  0  0  0  0  0  0  0  0  0
    2.7254    2.8419   -1.6172 C   0  0  0  0  0  0  0  0  0  0  0  0
    2.8831    5.4469   -0.5214 C   0  0  0  0  0  0  0  0  0  0  0  0
    3.3614    3.8765   -2.3128 C   0  0  0  0  0  0  0  0  0  0  0  0
    3.4379    5.1582   -1.7715 C   0  0  0  0  0  0  0  0  0  0  0  0
   -2.1183    1.4068   -0.2401 H   0  0  0  0  0  0  0  0  0  0  0  0
   -0.1115    1.1102   -1.3006 H   0  0  0  0  0  0  0  0  0  0  0  0
    1.9629    0.3158    0.0466 H   0  0  0  0  0  0  0  0  0  0  0  0
    1.0098    0.4503    1.5019 H   0  0  0  0  0  0  0  0  0  0  0  0
    0.6200    2.9464    2.5900 H   0  0  0  0  0  0  0  0  0  0  0  0
    1.5366    5.1950    1.9985 H   0  0  0  0  0  0  0  0  0  0  0  0
    2.6734    1.8483   -2.0532 H   0  0  0  0  0  0  0  0  0  0  0  0
    2.9440    6.4447   -0.1003 H   0  0  0  0  0  0  0  0  0  0  0  0
    3.7999    3.6766   -3.2868 H   0  0  0  0  0  0  0  0  0  0  0  0
    3.9366    5.9469   -2.3290 H   0  0  0  0  0  0  0  0  0  0  0  0
   -1.2562   -1.1428   -1.5749 N   0  0  0  0  0  0  0  0  0  0  0  0
   -1.6460   -2.4764   -1.9730 C   0  0  2  0  0  0  0  0  0  0  0  0
   -0.3788   -3.2991   -2.1652 C   0  0  0  0  0  0  0  0  0  0  0  0
    0.7198   -2.7959   -2.3910 O   0  0  0  0  0  0  0  0  0  0  0  0
   -2.4773   -2.4530   -3.2462 C   0  0  0  0  0  0  0  0  0  0  0  0
   -1.6554   -0.3541   -2.0753 H   0  0  0  0  0  0  0  0  0  0  0  0
   -2.2318   -2.8945   -1.1471 H   0  0  0  0  0  0  0  0  0  0  0  0
   -1.9071   -2.0373   -4.0849 H   0  0  0  0  0  0  0  0  0  0  0  0
   -2.7958   -3.4614   -3.5307 H   0  0  0  0  0  0  0  0  0  0  0  0
   -3.3732   -1.8366   -3.1154 H   0  0  0  0  0  0  0  0  0  0  0  0
   -0.6268   -4.6629   -2.0979 N   0  0  0  0  0  0  0  0  0  0  0  0
    0.4117   -5.6532   -2.2616 C   0  0  0  0  0  0  0  0  0  0  0  0
   -1.5651   -4.9904   -1.8878 H   0  0  0  0  0  0  0  0  0  0  0  0
    0.4667   -5.9565   -3.3175 H   0  0  0  0  0  0  0  0  0  0  0  0
    1.3772   -5.2264   -1.9521 H   0  0  0  0  0  0  0  0  0  0  0  0
    0.1825   -6.5310   -1.6395 H   0  0  0  0  0  0  0  0  0  0  0  0
 29 30  2  0  0  0  0
 27 29  1  0  0  0  0
 28 30  1  0  0  0  0
 24 27  2  0  0  0  0
 26 28  2  0  0  0  0
 22 23  2  0  0  0  0
 23 25  1  0  0  0  0
 22 24  1  0  0  0  0
 24 26  1  0  0  0  0
 21 22  1  0  0  0  0
 25 26  1  0  0  0  0
  1  3  1  0  0  0  0
  1  7  1  0  0  0  0
  1  2  2  0  0  0  0
 42 43  1  0  0  0  0
 43 51  1  0  0  0  0
 43 44  2  0  0  0  0
  8  9  1  0  0  0  0
  9 17  1  0  0  0  0
  9 10  2  0  0  0  0
 18 19  1  0  0  0  0
 19 41  1  0  0  0  0
 19 20  2  0  0  0  0
 42 45  1  0  0  0  0
  8 11  1  0  0  0  0
 51 52  1  0  0  0  0
 18 21  1  0  0  0  0
 41 42  1  0  0  0  0
  7  8  1  0  0  0  0
 17 18  1  0  0  0  0
 29 39  1  0  0  0  0
 30 40  1  0  0  0  0
 27 37  1  0  0  0  0
 28 38  1  0  0  0  0
 23 35  1  0  0  0  0
  3  4  1  0  0  0  0
  3  5  1  0  0  0  0
  3  6  1  0  0  0  0
 45 48  1  0  0  0  0
 45 49  1  0  0  0  0
 45 50  1  0  0  0  0
 11 14  1  0  0  0  0
 11 15  1  0  0  0  0
 11 16  1  0  0  0  0
 52 54  1  0  0  0  0
 52 55  1  0  0  0  0
 52 56  1  0  0  0  0
 21 33  1  0  0  0  0
 21 34  1  0  0  0  0
 42 47  1  0  0  0  0
  8 13  1  0  0  0  0
 18 32  1  0  0  0  0
 25 36  1  0  0  0  0
 51 53  1  0  0  0  0
  7 12  1  0  0  0  0
 41 46  1  0  0  0  0
 17 31  1  0  0  0  0
M  END
$$$$

  -OEChem-05262214473D

 56 57  0     1  0  0  0  0  0999 V2000
   -2.2900    0.3401    4.1553 C   0  0  0  0  0  0  0  0  0  0  0  0
   -1.3426   -0.2746    3.6796 O   0  0  0  0  0  0  0  0  0  0  0  0
   -2.7219    0.0577    5.5560 C   0  0  0  0  0  0  0  0  0  0  0  0
   -3.4815   -0.7386    5.6094 H   0  0  0  0  0  0  0  0  0  0  0  0
   -1.8906   -0.2899    6.1903 H   0  0  0  0  0  0  0  0  0  0  0  0
   -3.1599    0.9126    6.0956 H   0  0  0  0  0  0  0  0  0  0  0  0
   -3.0397    1.3125    3.5142 N   0  0  0  0  0  0  0  0  0  0  0  0
   -2.7928    1.7385    2.1618 C   0  0  2  0  0  0  0  0  0  0  0  0
   -1.4579    1.1532    1.7206 C   0  0  0  0  0  0  0  0  0  0  0  0
   -0.5858    0.8004    2.5118 O   0  0  0  0  0  0  0  0  0  0  0  0
   -2.7841    3.2553    2.0523 C   0  0  0  0  0  0  0  0  0  0  0  0
   -3.8047    1.7484    4.0260 H   0  0  0  0  0  0  0  0  0  0  0  0
   -3.5969    1.3201    1.5466 H   0  0  0  0  0  0  0  0  0  0  0  0
   -1.9850    3.6926    2.6620 H   0  0  0  0  0  0  0  0  0  0  0  0
   -2.6246    3.5776    1.0180 H   0  0  0  0  0  0  0  0  0  0  0  0
   -3.7342    3.6765    2.3981 H   0  0  0  0  0  0  0  0  0  0  0  0
   -1.3352    1.1101    0.3372 N   0  0  0  0  0  0  0  0  0  0  0  0
   -0.1579    0.6093   -0.3265 C   0  0  2  0  0  0  0  0  0  0  0  0
   -0.3639   -0.8856   -0.5434 C   0  0  0  0  0  0  0  0  0  0  0  0
   -0.0569   -1.7317    0.2937 O   0  0  0  0  0  0  0  0  0  0  0  0
    1.1164    0.8589    0.4883 C   0  0  0  0  0  0  0  0  0  0  0  0
    1.4580    2.3245    0.6032 C   0  0  0  0  0  0  0  0  0  0  0  0
    1.1440    3.1417    1.6645 C   0  0  0  0  0  0  0  0  0  0  0  0
    2.1587    3.1091   -0.3551 C   0  0  0  0  0  0  0  0  0  0  0  0
    1.6259    4.3934    1.3895 N   0  0  0  0  0  0  0  0  0  0  0  0
    2.2504    4.4028    0.1626 C   0  0  0  0  0  0  0  0  0  0  0  0
    2.7254    2.8419   -1.6172 C   0  0  0  0  0  0  0  0  0  0  0  0
    2.8831    5.4469   -0.5214 C   0  0  0  0  0  0  0  0  0  0  0  0
    3.3614    3.8765   -2.3128 C   0  0  0  0  0  0  0  0  0  0  0  0
    3.4379    5.1582   -1.7715 C   0  0  0  0  0  0  0  0  0  0  0  0
   -2.1183    1.4068   -0.2401 H   0  0  0  0  0  0  0  0  0  0  0  0
   -0.1115    1.1102   -1.3006 H   0  0  0  0  0  0  0  0  0  0  0  0
    1.9629    0.3158    0.0466 H   0  0  0  0  0  0  0  0  0  0  0  0
    1.0098    0.4503    1.5019 H   0  0  0  0  0  0  0  0  0  0  0  0
    0.6200    2.9464    2.5900 H   0  0  0  0  0  0  0  0  0  0  0  0
    1.5366    5.1950    1.9985 H   0  0  0  0  0  0  0  0  0  0  0  0
    2.6734    1.8483   -2.0532 H   0  0  0  0  0  0  0  0  0  0  0  0
    2.9440    6.4447   -0.1003 H   0  0  0  0  0  0  0  0  0  0  0  0
    3.7999    3.6766   -3.2868 H   0  0  0  0  0  0  0  0  0  0  0  0
    3.9366    5.9469   -2.3290 H   0  0  0  0  0  0  0  0  0  0  0  0
   -0.9759   -1.1546   -1.7598 N   0  0  0  0  0  0  0  0  0  0  0  0
   -1.3070   -2.4897   -2.2034 C   0  0  2  0  0  0  0  0  0  0  0  0
   -0.0676   -3.3598   -2.0419 C   0  0  0  0  0  0  0  0  0  0  0  0
    1.0722   -2.9018   -1.9959 O   0  0  0  0  0  0  0  0  0  0  0  0
   -1.7872   -2.4901   -3.6463 C   0  0  0  0  0  0  0  0  0  0  0  0
   -1.2025   -0.3739   -2.3688 H   0  0  0  0  0  0  0  0  0  0  0  0
   -2.0995   -2.8555   -1.5414 H   0  0  0  0  0  0  0  0  0  0  0  0
   -1.0066   -2.1266   -4.3245 H   0  0  0  0  0  0  0  0  0  0  0  0
   -2.0648   -3.4981   -3.9718 H   0  0  0  0  0  0  0  0  0  0  0  0
   -2.6608   -1.8403   -3.7665 H   0  0  0  0  0  0  0  0  0  0  0  0
   -0.3807   -4.7112   -1.9987 N   0  0  0  0  0  0  0  0  0  0  0  0
    0.6236   -5.7403   -1.8627 C   0  0  0  0  0  0  0  0  0  0  0  0
   -1.3543   -4.9996   -2.0245 H   0  0  0  0  0  0  0  0  0  0  0  0
    0.9315   -6.0869   -2.8603 H   0  0  0  0  0  0  0  0  0  0  0  0
    1.4961   -5.3330   -1.3308 H   0  0  0  0  0  0  0  0  0  0  0  0
    0.2084   -6.5848   -1.2932 H   0  0  0  0  0  0  0  0  0  0  0  0
 29 30  2  0  0  0  0
 27 29  1  0  0  0  0
 28 30  1  0  0  0  0
 24 27  2  0  0  0  0
 26 28  2  0  0  0  0
 22 23  2  0  0  0  0
 23 25  1  0  0  0  0
 22 24  1  0  0  0  0
 24 26  1  0  0  0  0
 21 22  1  0  0  0  0
 25 26  1  0  0  0  0
  1  3  1  0  0  0  0
  1  7  1  0  0  0  0
  1  2  2  0  0  0  0
 42 43  1  0  0  0  0
 43 51  1  0  0  0  0
 43 44  2  0  0  0  0
  8  9  1  0  0  0  0
  9 17  1  0  0  0  0
  9 10  2  0  0  0  0
 18 19  1  0  0  0  0
 19 41  1  0  0  0  0
 19 20  2  0  0  0  0
 42 45  1  0  0  0  0
  8 11  1  0  0  0  0
 51 52  1  0  0  0  0
 18 21  1  0  0  0  0
 41 42  1  0  0  0  0
  7  8  1  0  0  0  0
 17 18  1  0  0  0  0
 29 39  1  0  0  0  0
 30 40  1  0  0  0  0
 27 37  1  0  0  0  0
 28 38  1  0  0  0  0
 23 35  1  0  0  0  0
  3  4  1  0  0  0  0
  3  5  1  0  0  0  0
  3  6  1  0  0  0  0
 45 48  1  0  0  0  0
 45 49  1  0  0  0  0
 45 50  1  0  0  0  0
 11 14  1  0  0  0  0
 11 15  1  0  0  0  0
 11 16  1  0  0  0  0
 52 54  1  0  0  0  0
 52 55  1  0  0  0  0
 52 56  1  0  0  0  0
 21 33  1  0  0  0  0
 21 34  1  0  0  0  0
 42 47  1  0  0  0  0
  8 13  1  0  0  0  0
 18 32  1  0  0  0  0
 25 36  1  0  0  0  0
 51 53  1  0  0  0  0
  7 12  1  0  0  0  0
 41 46  1  0  0  0  0
 17 31  1  0  0  0  0
M  END
$$$$

  -OEChem-05262214473D

 56 57  0     1  0  0  0  0  0999 V2000
   -2.2900    0.3401    4.1553 C   0  0  0  0  0  0  0  0  0  0  0  0
   -1.3426   -0.2746    3.6796 O   0  0  0  0  0  0  0  0  0  0  0  0
   -2.7219    0.0577    5.5560 C   0  0  0  0  0  0  0  0  0  0  0  0
   -3.4815   -0.7386    5.6094 H   0  0  0  0  0  0  0  0  0  0  0  0
   -1.8906   -0.2899    6.1903 H   0  0  0  0  0  0  0  0  0  0  0  0
   -3.1599    0.9126    6.0956 H   0  0  0  0  0  0  0  0  0  0  0  0
   -3.0397    1.3125    3.5142 N   0  0  0  0  0  0  0  0  0  0  0  0
   -2.7928    1.7385    2.1618 C   0  0  2  0  0  0  0  0  0  0  0  0
   -1.4579    1.1532    1.7206 C   0  0  0  0  0  0  0  0  0  0  0  0
   -0.5858    0.8004    2.5118 O   0  0  0  0  0  0  0  0  0  0  0  0
   -2.7841    3.2553    2.0523 C   0  0  0  0  0  0  0  0  0  0  0  0
   -3.8047    1.7484    4.0260 H   0  0  0  0  0  0  0  0  0  0  0  0
   -3.5969    1.3201    1.5466 H   0  0  0  0  0  0  0  0  0  0  0  0
   -1.9850    3.6926    2.6620 H   0  0  0  0  0  0  0  0  0  0  0  0
   -2.6246    3.5776    1.0180 H   0  0  0  0  0  0  0  0  0  0  0  0
   -3.7342    3.6765    2.3981 H   0  0  0  0  0  0  0  0  0  0  0  0
   -1.3352    1.1101    0.3372 N   0  0  0  0  0  0  0  0  0  0  0  0
   -0.1579    0.6093   -0.3265 C   0  0  2  0  0  0  0  0  0  0  0  0
   -0.3639   -0.8856   -0.5434 C   0  0  0  0  0  0  0  0  0  0  0  0
   -0.3141   -1.7073    0.3694 O   0  0  0  0  0  0  0  0  0  0  0  0
    1.1164    0.8589    0.4883 C   0  0  0  0  0  0  0  0  0  0  0  0
    1.4580    2.3245    0.6032 C   0  0  0  0  0  0  0  0  0  0  0  0
    1.1440    3.1417    1.6645 C   0  0  0  0  0  0  0  0  0  0  0  0
    2.1587    3.1091   -0.3551 C   0  0  0  0  0  0  0  0  0  0  0  0
    1.6259    4.3934    1.3895 N   0  0  0  0  0  0  0  0  0  0  0  0
    2.2504    4.4028    0.1626 C   0  0  0  0  0  0  0  0  0  0  0  0
    2.7254    2.8419   -1.6172 C   0  0  0  0  0  0  0  0  0  0  0  0
    2.8831    5.4469   -0.5214 C   0  0  0  0  0  0  0  0  0  0  0  0
    3.3614    3.8765   -2.3128 C   0  0  0  0  0  0  0  0  0  0  0  0
    3.4379    5.1582   -1.7715 C   0  0  0  0  0  0  0  0  0  0  0  0
   -2.1183    1.4068   -0.2401 H   0  0  0  0  0  0  0  0  0  0  0  0
   -0.1115    1.1102   -1.3006 H   0  0  0  0  0  0  0  0  0  0  0  0
    1.9629    0.3158    0.0466 H   0  0  0  0  0  0  0  0  0  0  0  0
    1.0098    0.4503    1.5019 H   0  0  0  0  0  0  0  0  0  0  0  0
    0.6200    2.9464    2.5900 H   0  0  0  0  0  0  0  0  0  0  0  0
    1.5366    5.1950    1.9985 H   0  0  0  0  0  0  0  0  0  0  0  0
    2.6734    1.8483   -2.0532 H   0  0  0  0  0  0  0  0  0  0  0  0
    2.9440    6.4447   -0.1003 H   0  0  0  0  0  0  0  0  0  0  0  0
    3.7999    3.6766   -3.2868 H   0  0  0  0  0  0  0  0  0  0  0  0
    3.9366    5.9469   -2.3290 H   0  0  0  0  0  0  0  0  0  0  0  0
   -0.6587   -1.1829   -1.8667 N   0  0  0  0  0  0  0  0  0  0  0  0
   -0.9216   -2.5231   -2.3394 C   0  0  2  0  0  0  0  0  0  0  0  0
    0.1996   -3.4257   -1.8417 C   0  0  0  0  0  0  0  0  0  0  0  0
    1.3085   -3.0033   -1.5210 O   0  0  0  0  0  0  0  0  0  0  0  0
   -1.0205   -2.5653   -3.8564 C   0  0  0  0  0  0  0  0  0  0  0  0
   -0.6912   -0.4201   -2.5367 H   0  0  0  0  0  0  0  0  0  0  0  0
   -1.8702   -2.8365   -1.8902 H   0  0  0  0  0  0  0  0  0  0  0  0
   -0.0793   -2.2545   -4.3243 H   0  0  0  0  0  0  0  0  0  0  0  0
   -1.2480   -3.5760   -4.2112 H   0  0  0  0  0  0  0  0  0  0  0  0
   -1.8076   -1.8929   -4.2145 H   0  0  0  0  0  0  0  0  0  0  0  0
   -0.1699   -4.7635   -1.8387 N   0  0  0  0  0  0  0  0  0  0  0  0
    0.7239   -5.8182   -1.4207 C   0  0  0  0  0  0  0  0  0  0  0  0
   -1.1163   -5.0211   -2.1027 H   0  0  0  0  0  0  0  0  0  0  0  0
    1.2596   -6.2140   -2.2961 H   0  0  0  0  0  0  0  0  0  0  0  0
    1.4493   -5.4185   -0.6968 H   0  0  0  0  0  0  0  0  0  0  0  0
    0.1434   -6.6256   -0.9503 H   0  0  0  0  0  0  0  0  0  0  0  0
 29 30  2  0  0  0  0
 27 29  1  0  0  0  0
 28 30  1  0  0  0  0
 24 27  2  0  0  0  0
 26 28  2  0  0  0  0
 22 23  2  0  0  0  0
 23 25  1  0  0  0  0
 22 24  1  0  0  0  0
 24 26  1  0  0  0  0
 21 22  1  0  0  0  0
 25 26  1  0  0  0  0
  1  3  1  0  0  0  0
  1  7  1  0  0  0  0
  1  2  2  0  0  0  0
 42 43  1  0  0  0  0
 43 51  1  0  0  0  0
 43 44  2  0  0  0  0
  8  9  1  0  0  0  0
  9 17  1  0  0  0  0
  9 10  2  0  0  0  0
 18 19  1  0  0  0  0
 19 41  1  0  0  0  0
 19 20  2  0  0  0  0
 42 45  1  0  0  0  0
  8 11  1  0  0  0  0
 51 52  1  0  0  0  0
 18 21  1  0  0  0  0
 41 42  1  0  0  0  0
  7  8  1  0  0  0  0
 17 18  1  0  0  0  0
 29 39  1  0  0  0  0
 30 40  1  0  0  0  0
 27 37  1  0  0  0  0
 28 38  1  0  0  0  0
 23 35  1  0  0  0  0
  3  4  1  0  0  0  0
  3  5  1  0  0  0  0
  3  6  1  0  0  0  0
 45 48  1  0  0  0  0
 45 49  1  0  0  0  0
 45 50  1  0  0  0  0
 11 14  1  0  0  0  0
 11 15  1  0  0  0  0
 11 16  1  0  0  0  0
 52 54  1  0  0  0  0
 52 55  1  0  0  0  0
 52 56  1  0  0  0  0
 21 33  1  0  0  0  0
 21 34  1  0  0  0  0
 42 47  1  0  0  0  0
  8 13  1  0  0  0  0
 18 32  1  0  0  0  0
 25 36  1  0  0  0  0
 51 53  1  0  0  0  0
  7 12  1  0  0  0  0
 41 46  1  0  0  0  0
 17 31  1  0  0  0  0
M  END
$$$$

  -OEChem-05262214473D

 56 57  0     1  0  0  0  0  0999 V2000
   -2.2900    0.3401    4.1553 C   0  0  0  0  0  0  0  0  0  0  0  0
   -1.3426   -0.2746    3.6796 O   0  0  0  0  0  0  0  0  0  0  0  0
   -2.7219    0.0577    5.5560 C   0  0  0  0  0  0  0  0  0  0  0  0
   -3.4815   -0.7386    5.6094 H   0  0  0  0  0  0  0  0  0  0  0  0
   -1.8906   -0.2899    6.1903 H   0  0  0  0  0  0  0  0  0  0  0  0
   -3.1599    0.9126    6.0956 H   0  0  0  0  0  0  0  0  0  0  0  0
   -3.0397    1.3125    3.5142 N   0  0  0  0  0  0  0  0  0  0  0  0
   -2.7928    1.7385    2.1618 C   0  0  2  0  0  0  0  0  0  0  0  0
   -1.4579    1.1532    1.7206 C   0  0  0  0  0  0  0  0  0  0  0  0
   -0.5858    0.8004    2.5118 O   0  0  0  0  0  0  0  0  0  0  0  0
   -2.7841    3.2553    2.0523 C   0  0  0  0  0  0  0  0  0  0  0  0
   -3.8047    1.7484    4.0260 H   0  0  0  0  0  0  0  0  0  0  0  0
   -3.5969    1.3201    1.5466 H   0  0  0  0  0  0  0  0  0  0  0  0
   -1.9850    3.6926    2.6620 H   0  0  0  0  0  0  0  0  0  0  0  0
   -2.6246    3.5776    1.0180 H   0  0  0  0  0  0  0  0  0  0  0  0
   -3.7342    3.6765    2.3981 H   0  0  0  0  0  0  0  0  0  0  0  0
   -1.3352    1.1101    0.3372 N   0  0  0  0  0  0  0  0  0  0  0  0
   -0.1579    0.6093   -0.3265 C   0  0  2  0  0  0  0  0  0  0  0  0
   -0.3639   -0.8856   -0.5434 C   0  0  0  0  0  0  0  0  0  0  0  0
   -0.5808   -1.6716    0.3765 O   0  0  0  0  0  0  0  0  0  0  0  0
    1.1164    0.8589    0.4883 C   0  0  0  0  0  0  0  0  0  0  0  0
    1.4580    2.3245    0.6032 C   0  0  0  0  0  0  0  0  0  0  0  0
    1.1440    3.1417    1.6645 C   0  0  0  0  0  0  0  0  0  0  0  0
    2.1587    3.1091   -0.3551 C   0  0  0  0  0  0  0  0  0  0  0  0
    1.6259    4.3934    1.3895 N   0  0  0  0  0  0  0  0  0  0  0  0
    2.2504    4.4028    0.1626 C   0  0  0  0  0  0  0  0  0  0  0  0
    2.7254    2.8419   -1.6172 C   0  0  0  0  0  0  0  0  0  0  0  0
    2.8831    5.4469   -0.5214 C   0  0  0  0  0  0  0  0  0  0  0  0
    3.3614    3.8765   -2.3128 C   0  0  0  0  0  0  0  0  0  0  0  0
    3.4379    5.1582   -1.7715 C   0  0  0  0  0  0  0  0  0  0  0  0
   -2.1183    1.4068   -0.2401 H   0  0  0  0  0  0  0  0  0  0  0  0
   -0.1115    1.1102   -1.3006 H   0  0  0  0  0  0  0  0  0  0  0  0
    1.9629    0.3158    0.0466 H   0  0  0  0  0  0  0  0  0  0  0  0
    1.0098    0.4503    1.5019 H   0  0  0  0  0  0  0  0  0  0  0  0
    0.6200    2.9464    2.5900 H   0  0  0  0  0  0  0  0  0  0  0  0
    1.5366    5.1950    1.9985 H   0  0  0  0  0  0  0  0  0  0  0  0
    2.6734    1.8483   -2.0532 H   0  0  0  0  0  0  0  0  0  0  0  0
    2.9440    6.4447   -0.1003 H   0  0  0  0  0  0  0  0  0  0  0  0
    3.7999    3.6766   -3.2868 H   0  0  0  0  0  0  0  0  0  0  0  0
    3.9366    5.9469   -2.3290 H   0  0  0  0  0  0  0  0  0  0  0  0
   -0.3261   -1.2255   -1.8885 N   0  0  0  0  0  0  0  0  0  0  0  0
   -0.5160   -2.5743   -2.3719 C   0  0  2  0  0  0  0  0  0  0  0  0
    0.4044   -3.4922   -1.5782 C   0  0  0  0  0  0  0  0  0  0  0  0
    1.4125   -3.0934   -0.9988 O   0  0  0  0  0  0  0  0  0  0  0  0
   -0.2293   -2.6735   -3.8621 C   0  0  0  0  0  0  0  0  0  0  0  0
   -0.1564   -0.4893   -2.5675 H   0  0  0  0  0  0  0  0  0  0  0  0
   -1.5596   -2.8388   -2.1695 H   0  0  0  0  0  0  0  0  0  0  0  0
    0.8117   -2.4121   -4.0842 H   0  0  0  0  0  0  0  0  0  0  0  0
   -0.4012   -3.6896   -4.2324 H   0  0  0  0  0  0  0  0  0  0  0  0
   -0.8716   -1.9908   -4.4288 H   0  0  0  0  0  0  0  0  0  0  0  0
   -0.0088   -4.8162   -1.6289 N   0  0  0  0  0  0  0  0  0  0  0  0
    0.7057   -5.8817   -0.9655 C   0  0  0  0  0  0  0  0  0  0  0  0
   -0.8674   -5.0533   -2.1171 H   0  0  0  0  0  0  0  0  0  0  0  0
    1.4287   -6.3291   -1.6634 H   0  0  0  0  0  0  0  0  0  0  0  0
    1.2401   -5.4772   -0.0933 H   0  0  0  0  0  0  0  0  0  0  0  0
   -0.0078   -6.6506   -0.6341 H   0  0  0  0  0  0  0  0  0  0  0  0
 29 30  2  0  0  0  0
 27 29  1  0  0  0  0
 28 30  1  0  0  0  0
 24 27  2  0  0  0  0
 26 28  2  0  0  0  0
 22 23  2  0  0  0  0
 23 25  1  0  0  0  0
 22 24  1  0  0  0  0
 24 26  1  0  0  0  0
 21 22  1  0  0  0  0
 25 26  1  0  0  0  0
  1  3  1  0  0  0  0
  1  7  1  0  0  0  0
  1  2  2  0  0  0  0
 42 43  1  0  0  0  0
 43 51  1  0  0  0  0
 43 44  2  0  0  0  0
  8  9  1  0  0  0  0
  9 17  1  0  0  0  0
  9 10  2  0  0  0  0
 18 19  1  0  0  0  0
 19 41  1  0  0  0  0
 19 20  2  0  0  0  0
 42 45  1  0  0  0  0
  8 11  1  0  0  0  0
 51 52  1  0  0  0  0
 18 21  1  0  0  0  0
 41 42  1  0  0  0  0
  7  8  1  0  0  0  0
 17 18  1  0  0  0  0
 29 39  1  0  0  0  0
 30 40  1  0  0  0  0
 27 37  1  0  0  0  0
 28 38  1  0  0  0  0
 23 35  1  0  0  0  0
  3  4  1  0  0  0  0
  3  5  1  0  0  0  0
  3  6  1  0  0  0  0
 45 48  1  0  0  0  0
 45 49  1  0  0  0  0
 45 50  1  0  0  0  0
 11 14  1  0  0  0  0
 11 15  1  0  0  0  0
 11 16  1  0  0  0  0
 52 54  1  0  0  0  0
 52 55  1  0  0  0  0
 52 56  1  0  0  0  0
 21 33  1  0  0  0  0
 21 34  1  0  0  0  0
 42 47  1  0  0  0  0
  8 13  1  0  0  0  0
 18 32  1  0  0  0  0
 25 36  1  0  0  0  0
 51 53  1  0  0  0  0
  7 12  1  0  0  0  0
 41 46  1  0  0  0  0
 17 31  1  0  0  0  0
M  END
$$$$

  -OEChem-05262214473D

 56 57  0     1  0  0  0  0  0999 V2000
   -2.2900    0.3401    4.1553 C   0  0  0  0  0  0  0  0  0  0  0  0
   -1.3426   -0.2746    3.6796 O   0  0  0  0  0  0  0  0  0  0  0  0
   -2.7219    0.0577    5.5560 C   0  0  0  0  0  0  0  0  0  0  0  0
   -3.4815   -0.7386    5.6094 H   0  0  0  0  0  0  0  0  0  0  0  0
   -1.8906   -0.2899    6.1903 H   0  0  0  0  0  0  0  0  0  0  0  0
   -3.1599    0.9126    6.0956 H   0  0  0  0  0  0  0  0  0  0  0  0
   -3.0397    1.3125    3.5142 N   0  0  0  0  0  0  0  0  0  0  0  0
   -2.7928    1.7385    2.1618 C   0  0  2  0  0  0  0  0  0  0  0  0
   -1.4579    1.1532    1.7206 C   0  0  0  0  0  0  0  0  0  0  0  0
   -0.5858    0.8004    2.5118 O   0  0  0  0  0  0  0  0  0  0  0  0
   -2.7841    3.2553    2.0523 C   0  0  0  0  0  0  0  0  0  0  0  0
   -3.8047    1.7484    4.0260 H   0  0  0  0  0  0  0  0  0  0  0  0
   -3.5969    1.3201    1.5466 H   0  0  0  0  0  0  0  0  0  0  0  0
   -1.9850    3.6926    2.6620 H   0  0  0  0  0  0  0  0  0  0  0  0
   -2.6246    3.5776    1.0180 H   0  0  0  0  0  0  0  0  0  0  0  0
   -3.7342    3.6765    2.3981 H   0  0  0  0  0  0  0  0  0  0  0  0
   -1.3352    1.1101    0.3372 N   0  0  0  0  0  0  0  0  0  0  0  0
   -0.1579    0.6093   -0.3265 C   0  0  2  0  0  0  0  0  0  0  0  0
   -0.3639   -0.8856   -0.5434 C   0  0  0  0  0  0  0  0  0  0  0  0
   -0.8389   -1.6270    0.3144 O   0  0  0  0  0  0  0  0  0  0  0  0
    1.1164    0.8589    0.4883 C   0  0  0  0  0  0  0  0  0  0  0  0
    1.4580    2.3245    0.6032 C   0  0  0  0  0  0  0  0  0  0  0  0
    1.1440    3.1417    1.6645 C   0  0  0  0  0  0  0  0  0  0  0  0
    2.1587    3.1091   -0.3551 C   0  0  0  0  0  0  0  0  0  0  0  0
    1.6259    4.3934    1.3895 N   0  0  0  0  0  0  0  0  0  0  0  0
    2.2504    4.4028    0.1626 C   0  0  0  0  0  0  0  0  0  0  0  0
    2.7254    2.8419   -1.6172 C   0  0  0  0  0  0  0  0  0  0  0  0
    2.8831    5.4469   -0.5214 C   0  0  0  0  0  0  0  0  0  0  0  0
    3.3614    3.8765   -2.3128 C   0  0  0  0  0  0  0  0  0  0  0  0
    3.4379    5.1582   -1.7715 C   0  0  0  0  0  0  0  0  0  0  0  0
   -2.1183    1.4068   -0.2401 H   0  0  0  0  0  0  0  0  0  0  0  0
   -0.1115    1.1102   -1.3006 H   0  0  0  0  0  0  0  0  0  0  0  0
    1.9629    0.3158    0.0466 H   0  0  0  0  0  0  0  0  0  0  0  0
    1.0098    0.4503    1.5019 H   0  0  0  0  0  0  0  0  0  0  0  0
    0.6200    2.9464    2.5900 H   0  0  0  0  0  0  0  0  0  0  0  0
    1.5366    5.1950    1.9985 H   0  0  0  0  0  0  0  0  0  0  0  0
    2.6734    1.8483   -2.0532 H   0  0  0  0  0  0  0  0  0  0  0  0
    2.9440    6.4447   -0.1003 H   0  0  0  0  0  0  0  0  0  0  0  0
    3.7999    3.6766   -3.2868 H   0  0  0  0  0  0  0  0  0  0  0  0
    3.9366    5.9469   -2.3290 H   0  0  0  0  0  0  0  0  0  0  0  0
   -0.0009   -1.2797   -1.8237 N   0  0  0  0  0  0  0  0  0  0  0  0
   -0.1178   -2.6398   -2.2985 C   0  0  2  0  0  0  0  0  0  0  0  0
    0.5329   -3.5547   -1.2694 C   0  0  0  0  0  0  0  0  0  0  0  0
    1.3771   -3.1660   -0.4649 O   0  0  0  0  0  0  0  0  0  0  0  0
    0.5323   -2.8074   -3.6630 C   0  0  0  0  0  0  0  0  0  0  0  0
    0.3654   -0.5769   -2.4591 H   0  0  0  0  0  0  0  0  0  0  0  0
   -1.1887   -2.8622   -2.3604 H   0  0  0  0  0  0  0  0  0  0  0  0
    1.6056   -2.5888   -3.6208 H   0  0  0  0  0  0  0  0  0  0  0  0
    0.4179   -3.8313   -4.0339 H   0  0  0  0  0  0  0  0  0  0  0  0
    0.0832   -2.1274   -4.3949 H   0  0  0  0  0  0  0  0  0  0  0  0
    0.0916   -4.8656   -1.3835 N   0  0  0  0  0  0  0  0  0  0  0  0
    0.5702   -5.9265   -0.5283 C   0  0  0  0  0  0  0  0  0  0  0  0
   -0.6245   -5.0941   -2.0666 H   0  0  0  0  0  0  0  0  0  0  0  0
    1.4273   -6.4244   -1.0053 H   0  0  0  0  0  0  0  0  0  0  0  0
    0.8828   -5.5051    0.4386 H   0  0  0  0  0  0  0  0  0  0  0  0
   -0.2351   -6.6582   -0.3662 H   0  0  0  0  0  0  0  0  0  0  0  0
 29 30  2  0  0  0  0
 27 29  1  0  0  0  0
 28 30  1  0  0  0  0
 24 27  2  0  0  0  0
 26 28  2  0  0  0  0
 22 23  2  0  0  0  0
 23 25  1  0  0  0  0
 22 24  1  0  0  0  0
 24 26  1  0  0  0  0
 21 22  1  0  0  0  0
 25 26  1  0  0  0  0
  1  3  1  0  0  0  0
  1  7  1  0  0  0  0
  1  2  2  0  0  0  0
 42 43  1  0  0  0  0
 43 51  1  0  0  0  0
 43 44  2  0  0  0  0
  8  9  1  0  0  0  0
  9 17  1  0  0  0  0
  9 10  2  0  0  0  0
 18 19  1  0  0  0  0
 19 41  1  0  0  0  0
 19 20  2  0  0  0  0
 42 45  1  0  0  0  0
  8 11  1  0  0  0  0
 51 52  1  0  0  0  0
 18 21  1  0  0  0  0
 41 42  1  0  0  0  0
  7  8  1  0  0  0  0
 17 18  1  0  0  0  0
 29 39  1  0  0  0  0
 30 40  1  0  0  0  0
 27 37  1  0  0  0  0
 28 38  1  0  0  0  0
 23 35  1  0  0  0  0
  3  4  1  0  0  0  0
  3  5  1  0  0  0  0
  3  6  1  0  0  0  0
 45 48  1  0  0  0  0
 45 49  1  0  0  0  0
 45 50  1  0  0  0  0
 11 14  1  0  0  0  0
 11 15  1  0  0  0  0
 11 16  1  0  0  0  0
 52 54  1  0  0  0  0
 52 55  1  0  0  0  0
 52 56  1  0  0  0  0
 21 33  1  0  0  0  0
 21 34  1  0  0  0  0
 42 47  1  0  0  0  0
  8 13  1  0  0  0  0
 18 32  1  0  0  0  0
 25 36  1  0  0  0  0
 51 53  1  0  0  0  0
  7 12  1  0  0  0  0
 41 46  1  0  0  0  0
 17 31  1  0  0  0  0
M  END
$$$$

  -OEChem-05262214473D

 56 57  0     1  0  0  0  0  0999 V2000
   -2.2900    0.3401    4.1553 C   0  0  0  0  0  0  0  0  0  0  0  0
   -1.3426   -0.2746    3.6796 O   0  0  0  0  0  0  0  0  0  0  0  0
   -2.7219    0.0577    5.5560 C   0  0  0  0  0  0  0  0  0  0  0  0
   -3.4815   -0.7386    5.6094 H   0  0  0  0  0  0  0  0  0  0  0  0
   -1.8906   -0.2899    6.1903 H   0  0  0  0  0  0  0  0  0  0  0  0
   -3.1599    0.9126    6.0956 H   0  0  0  0  0  0  0  0  0  0  0  0
   -3.0397    1.3125    3.5142 N   0  0  0  0  0  0  0  0  0  0  0  0
   -2.7928    1.7385    2.1618 C   0  0  2  0  0  0  0  0  0  0  0  0
   -1.4579    1.1532    1.7206 C   0  0  0  0  0  0  0  0  0  0  0  0
   -0.5858    0.8004    2.5118 O   0  0  0  0  0  0  0  0  0  0  0  0
   -2.7841    3.2553    2.0523 C   0  0  0  0  0  0  0  0  0  0  0  0
   -3.8047    1.7484    4.0260 H   0  0  0  0  0  0  0  0  0  0  0  0
   -3.5969    1.3201    1.5466 H   0  0  0  0  0  0  0  0  0  0  0  0
   -1.9850    3.6926    2.6620 H   0  0  0  0  0  0  0  0  0  0  0  0
   -2.6246    3.5776    1.0180 H   0  0  0  0  0  0  0  0  0  0  0  0
   -3.7342    3.6765    2.3981 H   0  0  0  0  0  0  0  0  0  0  0  0
   -1.3352    1.1101    0.3372 N   0  0  0  0  0  0  0  0  0  0  0  0
   -0.1579    0.6093   -0.3265 C   0  0  2  0  0  0  0  0  0  0  0  0
   -0.3639   -0.8856   -0.5434 C   0  0  0  0  0  0  0  0  0  0  0  0
   -1.0707   -1.5766    0.1873 O   0  0  0  0  0  0  0  0  0  0  0  0
    1.1164    0.8589    0.4883 C   0  0  0  0  0  0  0  0  0  0  0  0
    1.4580    2.3245    0.6032 C   0  0  0  0  0  0  0  0  0  0  0  0
    1.1440    3.1417    1.6645 C   0  0  0  0  0  0  0  0  0  0  0  0
    2.1587    3.1091   -0.3551 C   0  0  0  0  0  0  0  0  0  0  0  0
    1.6259    4.3934    1.3895 N   0  0  0  0  0  0  0  0  0  0  0  0
    2.2504    4.4028    0.1626 C   0  0  0  0  0  0  0  0  0  0  0  0
    2.7254    2.8419   -1.6172 C   0  0  0  0  0  0  0  0  0  0  0  0
    2.8831    5.4469   -0.5214 C   0  0  0  0  0  0  0  0  0  0  0  0
    3.3614    3.8765   -2.3128 C   0  0  0  0  0  0  0  0  0  0  0  0
    3.4379    5.1582   -1.7715 C   0  0  0  0  0  0  0  0  0  0  0  0
   -2.1183    1.4068   -0.2401 H   0  0  0  0  0  0  0  0  0  0  0  0
   -0.1115    1.1102   -1.3006 H   0  0  0  0  0  0  0  0  0  0  0  0
    1.9629    0.3158    0.0466 H   0  0  0  0  0  0  0  0  0  0  0  0
    1.0098    0.4503    1.5019 H   0  0  0  0  0  0  0  0  0  0  0  0
    0.6200    2.9464    2.5900 H   0  0  0  0  0  0  0  0  0  0  0  0
    1.5366    5.1950    1.9985 H   0  0  0  0  0  0  0  0  0  0  0  0
    2.6734    1.8483   -2.0532 H   0  0  0  0  0  0  0  0  0  0  0  0
    2.9440    6.4447   -0.1003 H   0  0  0  0  0  0  0  0  0  0  0  0
    3.7999    3.6766   -3.2868 H   0  0  0  0  0  0  0  0  0  0  0  0
    3.9366    5.9469   -2.3290 H   0  0  0  0  0  0  0  0  0  0  0  0
    0.2947   -1.3418   -1.6767 N   0  0  0  0  0  0  0  0  0  0  0  0
    0.2457   -2.7152   -2.1242 C   0  0  2  0  0  0  0  0  0  0  0  0
    0.5763   -3.6090   -0.9363 C   0  0  0  0  0  0  0  0  0  0  0  0
    1.2047   -3.2161    0.0444 O   0  0  0  0  0  0  0  0  0  0  0  0
    1.2126   -2.9578   -3.2727 C   0  0  0  0  0  0  0  0  0  0  0  0
    0.8387   -0.6770   -2.2189 H   0  0  0  0  0  0  0  0  0  0  0  0
   -0.7829   -2.9051   -2.4499 H   0  0  0  0  0  0  0  0  0  0  0  0
    2.2483   -2.7725   -2.9654 H   0  0  0  0  0  0  0  0  0  0  0  0
    1.1536   -3.9914   -3.6294 H   0  0  0  0  0  0  0  0  0  0  0  0
    0.9918   -2.2932   -4.1150 H   0  0  0  0  0  0  0  0  0  0  0  0
    0.1245   -4.9085   -1.1192 N   0  0  0  0  0  0  0  0  0  0  0  0
    0.3268   -5.9495   -0.1387 C   0  0  0  0  0  0  0  0  0  0  0  0
   -0.4041   -5.1407   -1.9549 H   0  0  0  0  0  0  0  0  0  0  0  0
    1.2553   -6.4933   -0.3667 H   0  0  0  0  0  0  0  0  0  0  0  0
    0.4015   -5.5003    0.8626 H   0  0  0  0  0  0  0  0  0  0  0  0
   -0.5228   -6.6477   -0.1649 H   0  0  0  0  0  0  0  0  0  0  0  0
 29 30  2  0  0  0  0
 27 29  1  0  0  0  0
 28 30  1  0  0  0  0
 24 27  2  0  0  0  0
 26 28  2  0  0  0  0
 22 23  2  0  0  0  0
 23 25  1  0  0  0  0
 22 24  1  0  0  0  0
 24 26  1  0  0  0  0
 21 22  1  0  0  0  0
 25 26  1  0  0  0  0
  1  3  1  0  0  0  0
  1  7  1  0  0  0  0
  1  2  2  0  0  0  0
 42 43  1  0  0  0  0
 43 51  1  0  0  0  0
 43 44  2  0  0  0  0
  8  9  1  0  0  0  0
  9 17  1  0  0  0  0
  9 10  2  0  0  0  0
 18 19  1  0  0  0  0
 19 41  1  0  0  0  0
 19 20  2  0  0  0  0
 42 45  1  0  0  0  0
  8 11  1  0  0  0  0
 51 52  1  0  0  0  0
 18 21  1  0  0  0  0
 41 42  1  0  0  0  0
  7  8  1  0  0  0  0
 17 18  1  0  0  0  0
 29 39  1  0  0  0  0
 30 40  1  0  0  0  0
 27 37  1  0  0  0  0
 28 38  1  0  0  0  0
 23 35  1  0  0  0  0
  3  4  1  0  0  0  0
  3  5  1  0  0  0  0
  3  6  1  0  0  0  0
 45 48  1  0  0  0  0
 45 49  1  0  0  0  0
 45 50  1  0  0  0  0
 11 14  1  0  0  0  0
 11 15  1  0  0  0  0
 11 16  1  0  0  0  0
 52 54  1  0  0  0  0
 52 55  1  0  0  0  0
 52 56  1  0  0  0  0
 21 33  1  0  0  0  0
 21 34  1  0  0  0  0
 42 47  1  0  0  0  0
  8 13  1  0  0  0  0
 18 32  1  0  0  0  0
 25 36  1  0  0  0  0
 51 53  1  0  0  0  0
  7 12  1  0  0  0  0
 41 46  1  0  0  0  0
 17 31  1  0  0  0  0
M  END
$$$$

  -OEChem-05262214473D

 56 57  0     1  0  0  0  0  0999 V2000
   -2.2900    0.3401    4.1553 C   0  0  0  0  0  0  0  0  0  0  0  0
   -1.3426   -0.2746    3.6796 O   0  0  0  0  0  0  0  0  0  0  0  0
   -2.7219    0.0577    5.5560 C   0  0  0  0  0  0  0  0  0  0  0  0
   -3.4815   -0.7386    5.6094 H   0  0  0  0  0  0  0  0  0  0  0  0
   -1.8906   -0.2899    6.1903 H   0  0  0  0  0  0  0  0  0  0  0  0
   -3.1599    0.9126    6.0956 H   0  0  0  0  0  0  0  0  0  0  0  0
   -3.0397    1.3125    3.5142 N   0  0  0  0  0  0  0  0  0  0  0  0
   -2.7928    1.7385    2.1618 C   0  0  2  0  0  0  0  0  0  0  0  0
   -1.4579    1.1532    1.7206 C   0  0  0  0  0  0  0  0  0  0  0  0
   -0.5858    0.8004    2.5118 O   0  0  0  0  0  0  0  0  0  0  0  0
   -2.7841    3.2553    2.0523 C   0  0  0  0  0  0  0  0  0  0  0  0
   -3.8047    1.7484    4.0260 H   0  0  0  0  0  0  0  0  0  0  0  0
   -3.5969    1.3201    1.5466 H   0  0  0  0  0  0  0  0  0  0  0  0
   -1.9850    3.6926    2.6620 H   0  0  0  0  0  0  0  0  0  0  0  0
   -2.6246    3.5776    1.0180 H   0  0  0  0  0  0  0  0  0  0  0  0
   -3.7342    3.6765    2.3981 H   0  0  0  0  0  0  0  0  0  0  0  0
   -1.3352    1.1101    0.3372 N   0  0  0  0  0  0  0  0  0  0  0  0
   -0.1579    0.6093   -0.3265 C   0  0  2  0  0  0  0  0  0  0  0  0
   -0.3639   -0.8856   -0.5434 C   0  0  0  0  0  0  0  0  0  0  0  0
   -1.2606   -1.5238    0.0039 O   0  0  0  0  0  0  0  0  0  0  0  0
    1.1164    0.8589    0.4883 C   0  0  0  0  0  0  0  0  0  0  0  0
    1.4580    2.3245    0.6032 C   0  0  0  0  0  0  0  0  0  0  0  0
    1.1440    3.1417    1.6645 C   0  0  0  0  0  0  0  0  0  0  0  0
    2.1587    3.1091   -0.3551 C   0  0  0  0  0  0  0  0  0  0  0  0
    1.6259    4.3934    1.3895 N   0  0  0  0  0  0  0  0  0  0  0  0
    2.2504    4.4028    0.1626 C   0  0  0  0  0  0  0  0  0  0  0  0
    2.7254    2.8419   -1.6172 C   0  0  0  0  0  0  0  0  0  0  0  0
    2.8831    5.4469   -0.5214 C   0  0  0  0  0  0  0  0  0  0  0  0
    3.3614    3.8765   -2.3128 C   0  0  0  0  0  0  0  0  0  0  0  0
    3.4379    5.1582   -1.7715 C   0  0  0  0  0  0  0  0  0  0  0  0
   -2.1183    1.4068   -0.2401 H   0  0  0  0  0  0  0  0  0  0  0  0
   -0.1115    1.1102   -1.3006 H   0  0  0  0  0  0  0  0  0  0  0  0
    1.9629    0.3158    0.0466 H   0  0  0  0  0  0  0  0  0  0  0  0
    1.0098    0.4503    1.5019 H   0  0  0  0  0  0  0  0  0  0  0  0
    0.6200    2.9464    2.5900 H   0  0  0  0  0  0  0  0  0  0  0  0
    1.5366    5.1950    1.9985 H   0  0  0  0  0  0  0  0  0  0  0  0
    2.6734    1.8483   -2.0532 H   0  0  0  0  0  0  0  0  0  0  0  0
    2.9440    6.4447   -0.1003 H   0  0  0  0  0  0  0  0  0  0  0  0
    3.7999    3.6766   -3.2868 H   0  0  0  0  0  0  0  0  0  0  0  0
    3.9366    5.9469   -2.3290 H   0  0  0  0  0  0  0  0  0  0  0  0
    0.5407   -1.4075   -1.4575 N   0  0  0  0  0  0  0  0  0  0  0  0
    0.5498   -2.7953   -1.8610 C   0  0  2  0  0  0  0  0  0  0  0  0
    0.5317   -3.6514   -0.6016 C   0  0  0  0  0  0  0  0  0  0  0  0
    0.9071   -3.2404    0.4944 O   0  0  0  0  0  0  0  0  0  0  0  0
    1.7650   -3.1144   -2.7178 C   0  0  0  0  0  0  0  0  0  0  0  0
    1.2312   -0.7827   -1.8633 H   0  0  0  0  0  0  0  0  0  0  0  0
   -0.3697   -2.9647   -2.4318 H   0  0  0  0  0  0  0  0  0  0  0  0
    2.6960   -2.9506   -2.1629 H   0  0  0  0  0  0  0  0  0  0  0  0
    1.7556   -4.1589   -3.0464 H   0  0  0  0  0  0  0  0  0  0  0  0
    1.7924   -2.4771   -3.6082 H   0  0  0  0  0  0  0  0  0  0  0  0
    0.0877   -4.9419   -0.8541 N   0  0  0  0  0  0  0  0  0  0  0  0
   -0.0081   -5.9491    0.1766 C   0  0  0  0  0  0  0  0  0  0  0  0
   -0.2214   -5.1899   -1.7894 H   0  0  0  0  0  0  0  0  0  0  0  0
    0.9246   -6.5313    0.2089 H   0  0  0  0  0  0  0  0  0  0  0  0
   -0.1708   -5.4632    1.1500 H   0  0  0  0  0  0  0  0  0  0  0  0
   -0.8515   -6.6200   -0.0438 H   0  0  0  0  0  0  0  0  0  0  0  0
 29 30  2  0  0  0  0
 27 29  1  0  0  0  0
 28 30  1  0  0  0  0
 24 27  2  0  0  0  0
 26 28  2  0  0  0  0
 22 23  2  0  0  0  0
 23 25  1  0  0  0  0
 22 24  1  0  0  0  0
 24 26  1  0  0  0  0
 21 22  1  0  0  0  0
 25 26  1  0  0  0  0
  1  3  1  0  0  0  0
  1  7  1  0  0  0  0
  1  2  2  0  0  0  0
 42 43  1  0  0  0  0
 43 51  1  0  0  0  0
 43 44  2  0  0  0  0
  8  9  1  0  0  0  0
  9 17  1  0  0  0  0
  9 10  2  0  0  0  0
 18 19  1  0  0  0  0
 19 41  1  0  0  0  0
 19 20  2  0  0  0  0
 42 45  1  0  0  0  0
  8 11  1  0  0  0  0
 51 52  1  0  0  0  0
 18 21  1  0  0  0  0
 41 42  1  0  0  0  0
  7  8  1  0  0  0  0
 17 18  1  0  0  0  0
 29 39  1  0  0  0  0
 30 40  1  0  0  0  0
 27 37  1  0  0  0  0
 28 38  1  0  0  0  0
 23 35  1  0  0  0  0
  3  4  1  0  0  0  0
  3  5  1  0  0  0  0
  3  6  1  0  0  0  0
 45 48  1  0  0  0  0
 45 49  1  0  0  0  0
 45 50  1  0  0  0  0
 11 14  1  0  0  0  0
 11 15  1  0  0  0  0
 11 16  1  0  0  0  0
 52 54  1  0  0  0  0
 52 55  1  0  0  0  0
 52 56  1  0  0  0  0
 21 33  1  0  0  0  0
 21 34  1  0  0  0  0
 42 47  1  0  0  0  0
  8 13  1  0  0  0  0
 18 32  1  0  0  0  0
 25 36  1  0  0  0  0
 51 53  1  0  0  0  0
  7 12  1  0  0  0  0
 41 46  1  0  0  0  0
 17 31  1  0  0  0  0
M  END
$$$$

  -OEChem-05262214473D

 56 57  0     1  0  0  0  0  0999 V2000
   -2.2900    0.3401    4.1553 C   0  0  0  0  0  0  0  0  0  0  0  0
   -1.3426   -0.2746    3.6796 O   0  0  0  0  0  0  0  0  0  0  0  0
   -2.7219    0.0577    5.5560 C   0  0  0  0  0  0  0  0  0  0  0  0
   -3.4815   -0.7386    5.6094 H   0  0  0  0  0  0  0  0  0  0  0  0
   -1.8906   -0.2899    6.1903 H   0  0  0  0  0  0  0  0  0  0  0  0
   -3.1599    0.9126    6.0956 H   0  0  0  0  0  0  0  0  0  0  0  0
   -3.0397    1.3125    3.5142 N   0  0  0  0  0  0  0  0  0  0  0  0
   -2.7928    1.7385    2.1618 C   0  0  2  0  0  0  0  0  0  0  0  0
   -1.4579    1.1532    1.7206 C   0  0  0  0  0  0  0  0  0  0  0  0
   -0.5858    0.8004    2.5118 O   0  0  0  0  0  0  0  0  0  0  0  0
   -2.7841    3.2553    2.0523 C   0  0  0  0  0  0  0  0  0  0  0  0
   -3.8047    1.7484    4.0260 H   0  0  0  0  0  0  0  0  0  0  0  0
   -3.5969    1.3201    1.5466 H   0  0  0  0  0  0  0  0  0  0  0  0
   -1.9850    3.6926    2.6620 H   0  0  0  0  0  0  0  0  0  0  0  0
   -2.6246    3.5776    1.0180 H   0  0  0  0  0  0  0  0  0  0  0  0
   -3.7342    3.6765    2.3981 H   0  0  0  0  0  0  0  0  0  0  0  0
   -1.3352    1.1101    0.3372 N   0  0  0  0  0  0  0  0  0  0  0  0
   -0.1579    0.6093   -0.3265 C   0  0  2  0  0  0  0  0  0  0  0  0
   -0.5030   -0.7696   -0.8776 C   0  0  0  0  0  0  0  0  0  0  0  0
   -1.6201   -1.2717   -0.7728 O   0  0  0  0  0  0  0  0  0  0  0  0
    1.0456    0.5194    0.6189 C   0  0  0  0  0  0  0  0  0  0  0  0
    1.5320    1.8734    1.0748 C   0  0  0  0  0  0  0  0  0  0  0  0
    1.2020    2.4880    2.2607 C   0  0  0  0  0  0  0  0  0  0  0  0
    2.4091    2.7416    0.3664 C   0  0  0  0  0  0  0  0  0  0  0  0
    1.8437    3.6968    2.3016 N   0  0  0  0  0  0  0  0  0  0  0  0
    2.5883    3.8781    1.1579 C   0  0  0  0  0  0  0  0  0  0  0  0
    3.0698    2.6693   -0.8760 C   0  0  0  0  0  0  0  0  0  0  0  0
    3.3984    4.9503    0.7675 C   0  0  0  0  0  0  0  0  0  0  0  0
    3.8834    3.7343   -1.2796 C   0  0  0  0  0  0  0  0  0  0  0  0
    4.0437    4.8562   -0.4689 C   0  0  0  0  0  0  0  0  0  0  0  0
   -2.1183    1.4068   -0.2401 H   0  0  0  0  0  0  0  0  0  0  0  0
    0.0429    1.2899   -1.1623 H   0  0  0  0  0  0  0  0  0  0  0  0
    1.8684   -0.0255    0.1364 H   0  0  0  0  0  0  0  0  0  0  0  0
    0.7913   -0.0720    1.5084 H   0  0  0  0  0  0  0  0  0  0  0  0
    0.5675    2.1755    3.0785 H   0  0  0  0  0  0  0  0  0  0  0  0
    1.7806    4.3604    3.0612 H   0  0  0  0  0  0  0  0  0  0  0  0
    2.9544    1.8020   -1.5198 H   0  0  0  0  0  0  0  0  0  0  0  0
    3.5246    5.8236    1.3983 H   0  0  0  0  0  0  0  0  0  0  0  0
    4.3951    3.6845   -2.2369 H   0  0  0  0  0  0  0  0  0  0  0  0
    4.6804    5.6718   -0.8019 H   0  0  0  0  0  0  0  0  0  0  0  0
    0.5702   -1.3472   -1.5418 N   0  0  0  0  0  0  0  0  0  0  0  0
    0.5051   -2.6431   -2.1783 C   0  0  2  0  0  0  0  0  0  0  0  0
   -0.0777   -3.6306   -1.1760 C   0  0  0  0  0  0  0  0  0  0  0  0
   -0.0455   -3.4504    0.0395 O   0  0  0  0  0  0  0  0  0  0  0  0
    1.8771   -3.0961   -2.6527 C   0  0  0  0  0  0  0  0  0  0  0  0
    1.4453   -0.8332   -1.5826 H   0  0  0  0  0  0  0  0  0  0  0  0
   -0.1753   -2.5429   -3.0310 H   0  0  0  0  0  0  0  0  0  0  0  0
    2.5726   -3.2021   -1.8122 H   0  0  0  0  0  0  0  0  0  0  0  0
    1.8217   -4.0649   -3.1600 H   0  0  0  0  0  0  0  0  0  0  0  0
    2.3076   -2.3698   -3.3506 H   0  0  0  0  0  0  0  0  0  0  0  0
   -0.5996   -4.7571   -1.7964 N   0  0  0  0  0  0  0  0  0  0  0  0
   -1.1985   -5.8457   -1.0600 C   0  0  0  0  0  0  0  0  0  0  0  0
   -0.6009   -4.8136   -2.8105 H   0  0  0  0  0  0  0  0  0  0  0  0
   -0.4353   -6.6086   -0.8468 H   0  0  0  0  0  0  0  0  0  0  0  0
   -1.6106   -5.4652   -0.1137 H   0  0  0  0  0  0  0  0  0  0  0  0
   -2.0063   -6.2924   -1.6584 H   0  0  0  0  0  0  0  0  0  0  0  0
 29 30  2  0  0  0  0
 27 29  1  0  0  0  0
 28 30  1  0  0  0  0
 24 27  2  0  0  0  0
 26 28  2  0  0  0  0
 22 23  2  0  0  0  0
 23 25  1  0  0  0  0
 22 24  1  0  0  0  0
 24 26  1  0  0  0  0
 21 22  1  0  0  0  0
 25 26  1  0  0  0  0
  1  3  1  0  0  0  0
  1  7  1  0  0  0  0
  1  2  2  0  0  0  0
 42 43  1  0  0  0  0
 43 51  1  0  0  0  0
 43 44  2  0  0  0  0
  8  9  1  0  0  0  0
  9 17  1  0  0  0  0
  9 10  2  0  0  0  0
 18 19  1  0  0  0  0
 19 41  1  0  0  0  0
 19 20  2  0  0  0  0
 42 45  1  0  0  0  0
  8 11  1  0  0  0  0
 51 52  1  0  0  0  0
 18 21  1  0  0  0  0
 41 42  1  0  0  0  0
  7  8  1  0  0  0  0
 17 18  1  0  0  0  0
 29 39  1  0  0  0  0
 30 40  1  0  0  0  0
 27 37  1  0  0  0  0
 28 38  1  0  0  0  0
 23 35  1  0  0  0  0
  3  4  1  0  0  0  0
  3  5  1  0  0  0  0
  3  6  1  0  0  0  0
 45 48  1  0  0  0  0
 45 49  1  0  0  0  0
 45 50  1  0  0  0  0
 11 14  1  0  0  0  0
 11 15  1  0  0  0  0
 11 16  1  0  0  0  0
 52 54  1  0  0  0  0
 52 55  1  0  0  0  0
 52 56  1  0  0  0  0
 21 33  1  0  0  0  0
 21 34  1  0  0  0  0
 42 47  1  0  0  0  0
  8 13  1  0  0  0  0
 18 32  1  0  0  0  0
 25 36  1  0  0  0  0
 51 53  1  0  0  0  0
  7 12  1  0  0  0  0
 41 46  1  0  0  0  0
 17 31  1  0  0  0  0
M  END
$$$$

  -OEChem-05262214473D

 56 57  0     1  0  0  0  0  0999 V2000
   -2.2900    0.3401    4.1553 C   0  0  0  0  0  0  0  0  0  0  0  0
   -1.3426   -0.2746    3.6796 O   0  0  0  0  0  0  0  0  0  0  0  0
   -2.7219    0.0577    5.5560 C   0  0  0  0  0  0  0  0  0  0  0  0
   -3.4815   -0.7386    5.6094 H   0  0  0  0  0  0  0  0  0  0  0  0
   -1.8906   -0.2899    6.1903 H   0  0  0  0  0  0  0  0  0  0  0  0
   -3.1599    0.9126    6.0956 H   0  0  0  0  0  0  0  0  0  0  0  0
   -3.0397    1.3125    3.5142 N   0  0  0  0  0  0  0  0  0  0  0  0
   -2.7928    1.7385    2.1618 C   0  0  2  0  0  0  0  0  0  0  0  0
   -1.4579    1.1532    1.7206 C   0  0  0  0  0  0  0  0  0  0  0  0
   -0.5858    0.8004    2.5118 O   0  0  0  0  0  0  0  0  0  0  0  0
   -2.7841    3.2553    2.0523 C   0  0  0  0  0  0  0  0  0  0  0  0
   -3.8047    1.7484    4.0260 H   0  0  0  0  0  0  0  0  0  0  0  0
   -3.5969    1.3201    1.5466 H   0  0  0  0  0  0  0  0  0  0  0  0
   -1.9850    3.6926    2.6620 H   0  0  0  0  0  0  0  0  0  0  0  0
   -2.6246    3.5776    1.0180 H   0  0  0  0  0  0  0  0  0  0  0  0
   -3.7342    3.6765    2.3981 H   0  0  0  0  0  0  0  0  0  0  0  0
   -1.3352    1.1101    0.3372 N   0  0  0  0  0  0  0  0  0  0  0  0
   -0.1579    0.6093   -0.3265 C   0  0  2  0  0  0  0  0  0  0  0  0
   -0.5030   -0.7696   -0.8776 C   0  0  0  0  0  0  0  0  0  0  0  0
   -1.6587   -1.1645   -1.0167 O   0  0  0  0  0  0  0  0  0  0  0  0
    1.0456    0.5194    0.6189 C   0  0  0  0  0  0  0  0  0  0  0  0
    1.5320    1.8734    1.0748 C   0  0  0  0  0  0  0  0  0  0  0  0
    1.2020    2.4880    2.2607 C   0  0  0  0  0  0  0  0  0  0  0  0
    2.4091    2.7416    0.3664 C   0  0  0  0  0  0  0  0  0  0  0  0
    1.8437    3.6968    2.3016 N   0  0  0  0  0  0  0  0  0  0  0  0
    2.5883    3.8781    1.1579 C   0  0  0  0  0  0  0  0  0  0  0  0
    3.0698    2.6693   -0.8760 C   0  0  0  0  0  0  0  0  0  0  0  0
    3.3984    4.9503    0.7675 C   0  0  0  0  0  0  0  0  0  0  0  0
    3.8834    3.7343   -1.2796 C   0  0  0  0  0  0  0  0  0  0  0  0
    4.0437    4.8562   -0.4689 C   0  0  0  0  0  0  0  0  0  0  0  0
   -2.1183    1.4068   -0.2401 H   0  0  0  0  0  0  0  0  0  0  0  0
    0.0429    1.2899   -1.1623 H   0  0  0  0  0  0  0  0  0  0  0  0
    1.8684   -0.0255    0.1364 H   0  0  0  0  0  0  0  0  0  0  0  0
    0.7913   -0.0720    1.5084 H   0  0  0  0  0  0  0  0  0  0  0  0
    0.5675    2.1755    3.0785 H   0  0  0  0  0  0  0  0  0  0  0  0
    1.7806    4.3604    3.0612 H   0  0  0  0  0  0  0  0  0  0  0  0
    2.9544    1.8020   -1.5198 H   0  0  0  0  0  0  0  0  0  0  0  0
    3.5246    5.8236    1.3983 H   0  0  0  0  0  0  0  0  0  0  0  0
    4.3951    3.6845   -2.2369 H   0  0  0  0  0  0  0  0  0  0  0  0
    4.6804    5.6718   -0.8019 H   0  0  0  0  0  0  0  0  0  0  0  0
    0.6310   -1.4828   -1.2405 N   0  0  0  0  0  0  0  0  0  0  0  0
    0.5850   -2.8095   -1.8121 C   0  0  2  0  0  0  0  0  0  0  0  0
   -0.3101   -3.6705   -0.9307 C   0  0  0  0  0  0  0  0  0  0  0  0
   -0.5419   -3.4095    0.2480 O   0  0  0  0  0  0  0  0  0  0  0  0
    1.9769   -3.4115   -1.9259 C   0  0  0  0  0  0  0  0  0  0  0  0
    1.5390   -1.0507   -1.0971 H   0  0  0  0  0  0  0  0  0  0  0  0
    0.1339   -2.7104   -2.8054 H   0  0  0  0  0  0  0  0  0  0  0  0
    2.4448   -3.5185   -0.9405 H   0  0  0  0  0  0  0  0  0  0  0  0
    1.9431   -4.4049   -2.3854 H   0  0  0  0  0  0  0  0  0  0  0  0
    2.6278   -2.7757   -2.5357 H   0  0  0  0  0  0  0  0  0  0  0  0
   -0.7849   -4.7881   -1.6028 N   0  0  0  0  0  0  0  0  0  0  0  0
   -1.6443   -5.7667   -0.9785 C   0  0  0  0  0  0  0  0  0  0  0  0
   -0.5573   -4.9149   -2.5846 H   0  0  0  0  0  0  0  0  0  0  0  0
   -1.0317   -6.5761   -0.5546 H   0  0  0  0  0  0  0  0  0  0  0  0
   -2.2237   -5.2869   -0.1759 H   0  0  0  0  0  0  0  0  0  0  0  0
   -2.3324   -6.1824   -1.7293 H   0  0  0  0  0  0  0  0  0  0  0  0
 29 30  2  0  0  0  0
 27 29  1  0  0  0  0
 28 30  1  0  0  0  0
 24 27  2  0  0  0  0
 26 28  2  0  0  0  0
 22 23  2  0  0  0  0
 23 25  1  0  0  0  0
 22 24  1  0  0  0  0
 24 26  1  0  0  0  0
 21 22  1  0  0  0  0
 25 26  1  0  0  0  0
  1  3  1  0  0  0  0
  1  7  1  0  0  0  0
  1  2  2  0  0  0  0
 42 43  1  0  0  0  0
 43 51  1  0  0  0  0
 43 44  2  0  0  0  0
  8  9  1  0  0  0  0
  9 17  1  0  0  0  0
  9 10  2  0  0  0  0
 18 19  1  0  0  0  0
 19 41  1  0  0  0  0
 19 20  2  0  0  0  0
 42 45  1  0  0  0  0
  8 11  1  0  0  0  0
 51 52  1  0  0  0  0
 18 21  1  0  0  0  0
 41 42  1  0  0  0  0
  7  8  1  0  0  0  0
 17 18  1  0  0  0  0
 29 39  1  0  0  0  0
 30 40  1  0  0  0  0
 27 37  1  0  0  0  0
 28 38  1  0  0  0  0
 23 35  1  0  0  0  0
  3  4  1  0  0  0  0
  3  5  1  0  0  0  0
  3  6  1  0  0  0  0
 45 48  1  0  0  0  0
 45 49  1  0  0  0  0
 45 50  1  0  0  0  0
 11 14  1  0  0  0  0
 11 15  1  0  0  0  0
 11 16  1  0  0  0  0
 52 54  1  0  0  0  0
 52 55  1  0  0  0  0
 52 56  1  0  0  0  0
 21 33  1  0  0  0  0
 21 34  1  0  0  0  0
 42 47  1  0  0  0  0
  8 13  1  0  0  0  0
 18 32  1  0  0  0  0
 25 36  1  0  0  0  0
 51 53  1  0  0  0  0
  7 12  1  0  0  0  0
 41 46  1  0  0  0  0
 17 31  1  0  0  0  0
M  END
$$$$

  -OEChem-05262214473D

 56 57  0     1  0  0  0  0  0999 V2000
   -2.2900    0.3401    4.1553 C   0  0  0  0  0  0  0  0  0  0  0  0
   -1.3426   -0.2746    3.6796 O   0  0  0  0  0  0  0  0  0  0  0  0
   -2.7219    0.0577    5.5560 C   0  0  0  0  0  0  0  0  0  0  0  0
   -3.4815   -0.7386    5.6094 H   0  0  0  0  0  0  0  0  0  0  0  0
   -1.8906   -0.2899    6.1903 H   0  0  0  0  0  0  0  0  0  0  0  0
   -3.1599    0.9126    6.0956 H   0  0  0  0  0  0  0  0  0  0  0  0
   -3.0397    1.3125    3.5142 N   0  0  0  0  0  0  0  0  0  0  0  0
   -2.7928    1.7385    2.1618 C   0  0  2  0  0  0  0  0  0  0  0  0
   -1.4579    1.1532    1.7206 C   0  0  0  0  0  0  0  0  0  0  0  0
   -0.5858    0.8004    2.5118 O   0  0  0  0  0  0  0  0  0  0  0  0
   -2.7841    3.2553    2.0523 C   0  0  0  0  0  0  0  0  0  0  0  0
   -3.8047    1.7484    4.0260 H   0  0  0  0  0  0  0  0  0  0  0  0
   -3.5969    1.3201    1.5466 H   0  0  0  0  0  0  0  0  0  0  0  0
   -1.9850    3.6926    2.6620 H   0  0  0  0  0  0  0  0  0  0  0  0
   -2.6246    3.5776    1.0180 H   0  0  0  0  0  0  0  0  0  0  0  0
   -3.7342    3.6765    2.3981 H   0  0  0  0  0  0  0  0  0  0  0  0
   -1.3352    1.1101    0.3372 N   0  0  0  0  0  0  0  0  0  0  0  0
   -0.1579    0.6093   -0.3265 C   0  0  2  0  0  0  0  0  0  0  0  0
   -0.5030   -0.7696   -0.8776 C   0  0  0  0  0  0  0  0  0  0  0  0
   -1.6289   -1.0717   -1.2676 O   0  0  0  0  0  0  0  0  0  0  0  0
    1.0456    0.5194    0.6189 C   0  0  0  0  0  0  0  0  0  0  0  0
    1.5320    1.8734    1.0748 C   0  0  0  0  0  0  0  0  0  0  0  0
    1.2020    2.4880    2.2607 C   0  0  0  0  0  0  0  0  0  0  0  0
    2.4091    2.7416    0.3664 C   0  0  0  0  0  0  0  0  0  0  0  0
    1.8437    3.6968    2.3016 N   0  0  0  0  0  0  0  0  0  0  0  0
    2.5883    3.8781    1.1579 C   0  0  0  0  0  0  0  0  0  0  0  0
    3.0698    2.6693   -0.8760 C   0  0  0  0  0  0  0  0  0  0  0  0
    3.3984    4.9503    0.7675 C   0  0  0  0  0  0  0  0  0  0  0  0
    3.8834    3.7343   -1.2796 C   0  0  0  0  0  0  0  0  0  0  0  0
    4.0437    4.8562   -0.4689 C   0  0  0  0  0  0  0  0  0  0  0  0
   -2.1183    1.4068   -0.2401 H   0  0  0  0  0  0  0  0  0  0  0  0
    0.0429    1.2899   -1.1623 H   0  0  0  0  0  0  0  0  0  0  0  0
    1.8684   -0.0255    0.1364 H   0  0  0  0  0  0  0  0  0  0  0  0
    0.7913   -0.0720    1.5084 H   0  0  0  0  0  0  0  0  0  0  0  0
    0.5675    2.1755    3.0785 H   0  0  0  0  0  0  0  0  0  0  0  0
    1.7806    4.3604    3.0612 H   0  0  0  0  0  0  0  0  0  0  0  0
    2.9544    1.8020   -1.5198 H   0  0  0  0  0  0  0  0  0  0  0  0
    3.5246    5.8236    1.3983 H   0  0  0  0  0  0  0  0  0  0  0  0
    4.3951    3.6845   -2.2369 H   0  0  0  0  0  0  0  0  0  0  0  0
    4.6804    5.6718   -0.8019 H   0  0  0  0  0  0  0  0  0  0  0  0
    0.6066   -1.6019   -0.9273 N   0  0  0  0  0  0  0  0  0  0  0  0
    0.5609   -2.9562   -1.4299 C   0  0  2  0  0  0  0  0  0  0  0  0
   -0.5958   -3.6729   -0.7458 C   0  0  0  0  0  0  0  0  0  0  0  0
   -1.0665   -3.3112    0.3307 O   0  0  0  0  0  0  0  0  0  0  0  0
    1.8735   -3.6830   -1.1821 C   0  0  0  0  0  0  0  0  0  0  0  0
    1.4955   -1.2411   -0.5936 H   0  0  0  0  0  0  0  0  0  0  0  0
    0.3641   -2.8879   -2.5054 H   0  0  0  0  0  0  0  0  0  0  0  0
    2.0876   -3.7611   -0.1099 H   0  0  0  0  0  0  0  0  0  0  0  0
    1.8472   -4.6993   -1.5888 H   0  0  0  0  0  0  0  0  0  0  0  0
    2.7084   -3.1500   -1.6497 H   0  0  0  0  0  0  0  0  0  0  0  0
   -1.0121   -4.7893   -1.4574 N   0  0  0  0  0  0  0  0  0  0  0  0
   -2.0865   -5.6439   -1.0087 C   0  0  0  0  0  0  0  0  0  0  0  0
   -0.5775   -5.0035   -2.3502 H   0  0  0  0  0  0  0  0  0  0  0  0
   -1.6732   -6.4718   -0.4139 H   0  0  0  0  0  0  0  0  0  0  0  0
   -2.7845   -5.0609   -0.3900 H   0  0  0  0  0  0  0  0  0  0  0  0
   -2.6205   -6.0498   -1.8805 H   0  0  0  0  0  0  0  0  0  0  0  0
 29 30  2  0  0  0  0
 27 29  1  0  0  0  0
 28 30  1  0  0  0  0
 24 27  2  0  0  0  0
 26 28  2  0  0  0  0
 22 23  2  0  0  0  0
 23 25  1  0  0  0  0
 22 24  1  0  0  0  0
 24 26  1  0  0  0  0
 21 22  1  0  0  0  0
 25 26  1  0  0  0  0
  1  3  1  0  0  0  0
  1  7  1  0  0  0  0
  1  2  2  0  0  0  0
 42 43  1  0  0  0  0
 43 51  1  0  0  0  0
 43 44  2  0  0  0  0
  8  9  1  0  0  0  0
  9 17  1  0  0  0  0
  9 10  2  0  0  0  0
 18 19  1  0  0  0  0
 19 41  1  0  0  0  0
 19 20  2  0  0  0  0
 42 45  1  0  0  0  0
  8 11  1  0  0  0  0
 51 52  1  0  0  0  0
 18 21  1  0  0  0  0
 41 42  1  0  0  0  0
  7  8  1  0  0  0  0
 17 18  1  0  0  0  0
 29 39  1  0  0  0  0
 30 40  1  0  0  0  0
 27 37  1  0  0  0  0
 28 38  1  0  0  0  0
 23 35  1  0  0  0  0
  3  4  1  0  0  0  0
  3  5  1  0  0  0  0
  3  6  1  0  0  0  0
 45 48  1  0  0  0  0
 45 49  1  0  0  0  0
 45 50  1  0  0  0  0
 11 14  1  0  0  0  0
 11 15  1  0  0  0  0
 11 16  1  0  0  0  0
 52 54  1  0  0  0  0
 52 55  1  0  0  0  0
 52 56  1  0  0  0  0
 21 33  1  0  0  0  0
 21 34  1  0  0  0  0
 42 47  1  0  0  0  0
  8 13  1  0  0  0  0
 18 32  1  0  0  0  0
 25 36  1  0  0  0  0
 51 53  1  0  0  0  0
  7 12  1  0  0  0  0
 41 46  1  0  0  0  0
 17 31  1  0  0  0  0
M  END
$$$$

  -OEChem-05262214473D

 56 57  0     1  0  0  0  0  0999 V2000
   -2.2900    0.3401    4.1553 C   0  0  0  0  0  0  0  0  0  0  0  0
   -1.3426   -0.2746    3.6796 O   0  0  0  0  0  0  0  0  0  0  0  0
   -2.7219    0.0577    5.5560 C   0  0  0  0  0  0  0  0  0  0  0  0
   -3.4815   -0.7386    5.6094 H   0  0  0  0  0  0  0  0  0  0  0  0
   -1.8906   -0.2899    6.1903 H   0  0  0  0  0  0  0  0  0  0  0  0
   -3.1599    0.9126    6.0956 H   0  0  0  0  0  0  0  0  0  0  0  0
   -3.0397    1.3125    3.5142 N   0  0  0  0  0  0  0  0  0  0  0  0
   -2.7928    1.7385    2.1618 C   0  0  2  0  0  0  0  0  0  0  0  0
   -1.4579    1.1532    1.7206 C   0  0  0  0  0  0  0  0  0  0  0  0
   -0.5858    0.8004    2.5118 O   0  0  0  0  0  0  0  0  0  0  0  0
   -2.7841    3.2553    2.0523 C   0  0  0  0  0  0  0  0  0  0  0  0
   -3.8047    1.7484    4.0260 H   0  0  0  0  0  0  0  0  0  0  0  0
   -3.5969    1.3201    1.5466 H   0  0  0  0  0  0  0  0  0  0  0  0
   -1.9850    3.6926    2.6620 H   0  0  0  0  0  0  0  0  0  0  0  0
   -2.6246    3.5776    1.0180 H   0  0  0  0  0  0  0  0  0  0  0  0
   -3.7342    3.6765    2.3981 H   0  0  0  0  0  0  0  0  0  0  0  0
   -1.3352    1.1101    0.3372 N   0  0  0  0  0  0  0  0  0  0  0  0
   -0.1579    0.6093   -0.3265 C   0  0  2  0  0  0  0  0  0  0  0  0
   -0.5030   -0.7696   -0.8776 C   0  0  0  0  0  0  0  0  0  0  0  0
   -1.5326   -0.9995   -1.5084 O   0  0  0  0  0  0  0  0  0  0  0  0
    1.0456    0.5194    0.6189 C   0  0  0  0  0  0  0  0  0  0  0  0
    1.5320    1.8734    1.0748 C   0  0  0  0  0  0  0  0  0  0  0  0
    1.2020    2.4880    2.2607 C   0  0  0  0  0  0  0  0  0  0  0  0
    2.4091    2.7416    0.3664 C   0  0  0  0  0  0  0  0  0  0  0  0
    1.8437    3.6968    2.3016 N   0  0  0  0  0  0  0  0  0  0  0  0
    2.5883    3.8781    1.1579 C   0  0  0  0  0  0  0  0  0  0  0  0
    3.0698    2.6693   -0.8760 C   0  0  0  0  0  0  0  0  0  0  0  0
    3.3984    4.9503    0.7675 C   0  0  0  0  0  0  0  0  0  0  0  0
    3.8834    3.7343   -1.2796 C   0  0  0  0  0  0  0  0  0  0  0  0
    4.0437    4.8562   -0.4689 C   0  0  0  0  0  0  0  0  0  0  0  0
   -2.1183    1.4068   -0.2401 H   0  0  0  0  0  0  0  0  0  0  0  0
    0.0429    1.2899   -1.1623 H   0  0  0  0  0  0  0  0  0  0  0  0
    1.8684   -0.0255    0.1364 H   0  0  0  0  0  0  0  0  0  0  0  0
    0.7913   -0.0720    1.5084 H   0  0  0  0  0  0  0  0  0  0  0  0
    0.5675    2.1755    3.0785 H   0  0  0  0  0  0  0  0  0  0  0  0
    1.7806    4.3604    3.0612 H   0  0  0  0  0  0  0  0  0  0  0  0
    2.9544    1.8020   -1.5198 H   0  0  0  0  0  0  0  0  0  0  0  0
    3.5246    5.8236    1.3983 H   0  0  0  0  0  0  0  0  0  0  0  0
    4.3951    3.6845   -2.2369 H   0  0  0  0  0  0  0  0  0  0  0  0
    4.6804    5.6718   -0.8019 H   0  0  0  0  0  0  0  0  0  0  0  0
    0.4985   -1.6963   -0.6235 N   0  0  0  0  0  0  0  0  0  0  0  0
    0.4343   -3.0733   -1.0578 C   0  0  2  0  0  0  0  0  0  0  0  0
   -0.9152   -3.6377   -0.6339 C   0  0  0  0  0  0  0  0  0  0  0  0
   -1.5833   -3.1624    0.2820 O   0  0  0  0  0  0  0  0  0  0  0  0
    1.5742   -3.8920   -0.4719 C   0  0  0  0  0  0  0  0  0  0  0  0
    1.3178   -1.3914   -0.1062 H   0  0  0  0  0  0  0  0  0  0  0  0
    0.4996   -3.0634   -2.1512 H   0  0  0  0  0  0  0  0  0  0  0  0
    1.5255   -3.9134    0.6230 H   0  0  0  0  0  0  0  0  0  0  0  0
    1.5406   -4.9281   -0.8245 H   0  0  0  0  0  0  0  0  0  0  0  0
    2.5438   -3.4672   -0.7532 H   0  0  0  0  0  0  0  0  0  0  0  0
   -1.2657   -4.7608   -1.3701 N   0  0  0  0  0  0  0  0  0  0  0  0
   -2.4951   -5.4857   -1.1486 C   0  0  0  0  0  0  0  0  0  0  0  0
   -0.6602   -5.0735   -2.1233 H   0  0  0  0  0  0  0  0  0  0  0  0
   -2.3159   -6.3028   -0.4343 H   0  0  0  0  0  0  0  0  0  0  0  0
   -3.2550   -4.8028   -0.7412 H   0  0  0  0  0  0  0  0  0  0  0  0
   -2.8510   -5.9037   -2.1019 H   0  0  0  0  0  0  0  0  0  0  0  0
 29 30  2  0  0  0  0
 27 29  1  0  0  0  0
 28 30  1  0  0  0  0
 24 27  2  0  0  0  0
 26 28  2  0  0  0  0
 22 23  2  0  0  0  0
 23 25  1  0  0  0  0
 22 24  1  0  0  0  0
 24 26  1  0  0  0  0
 21 22  1  0  0  0  0
 25 26  1  0  0  0  0
  1  3  1  0  0  0  0
  1  7  1  0  0  0  0
  1  2  2  0  0  0  0
 42 43  1  0  0  0  0
 43 51  1  0  0  0  0
 43 44  2  0  0  0  0
  8  9  1  0  0  0  0
  9 17  1  0  0  0  0
  9 10  2  0  0  0  0
 18 19  1  0  0  0  0
 19 41  1  0  0  0  0
 19 20  2  0  0  0  0
 42 45  1  0  0  0  0
  8 11  1  0  0  0  0
 51 52  1  0  0  0  0
 18 21  1  0  0  0  0
 41 42  1  0  0  0  0
  7  8  1  0  0  0  0
 17 18  1  0  0  0  0
 29 39  1  0  0  0  0
 30 40  1  0  0  0  0
 27 37  1  0  0  0  0
 28 38  1  0  0  0  0
 23 35  1  0  0  0  0
  3  4  1  0  0  0  0
  3  5  1  0  0  0  0
  3  6  1  0  0  0  0
 45 48  1  0  0  0  0
 45 49  1  0  0  0  0
 45 50  1  0  0  0  0
 11 14  1  0  0  0  0
 11 15  1  0  0  0  0
 11 16  1  0  0  0  0
 52 54  1  0  0  0  0
 52 55  1  0  0  0  0
 52 56  1  0  0  0  0
 21 33  1  0  0  0  0
 21 34  1  0  0  0  0
 42 47  1  0  0  0  0
  8 13  1  0  0  0  0
 18 32  1  0  0  0  0
 25 36  1  0  0  0  0
 51 53  1  0  0  0  0
  7 12  1  0  0  0  0
 41 46  1  0  0  0  0
 17 31  1  0  0  0  0
M  END
$$$$

  -OEChem-05262214473D

 56 57  0     1  0  0  0  0  0999 V2000
   -2.2900    0.3401    4.1553 C   0  0  0  0  0  0  0  0  0  0  0  0
   -1.3426   -0.2746    3.6796 O   0  0  0  0  0  0  0  0  0  0  0  0
   -2.7219    0.0577    5.5560 C   0  0  0  0  0  0  0  0  0  0  0  0
   -3.4815   -0.7386    5.6094 H   0  0  0  0  0  0  0  0  0  0  0  0
   -1.8906   -0.2899    6.1903 H   0  0  0  0  0  0  0  0  0  0  0  0
   -3.1599    0.9126    6.0956 H   0  0  0  0  0  0  0  0  0  0  0  0
   -3.0397    1.3125    3.5142 N   0  0  0  0  0  0  0  0  0  0  0  0
   -2.7928    1.7385    2.1618 C   0  0  2  0  0  0  0  0  0  0  0  0
   -1.4579    1.1532    1.7206 C   0  0  0  0  0  0  0  0  0  0  0  0
   -0.5858    0.8004    2.5118 O   0  0  0  0  0  0  0  0  0  0  0  0
   -2.7841    3.2553    2.0523 C   0  0  0  0  0  0  0  0  0  0  0  0
   -3.8047    1.7484    4.0260 H   0  0  0  0  0  0  0  0  0  0  0  0
   -3.5969    1.3201    1.5466 H   0  0  0  0  0  0  0  0  0  0  0  0
   -1.9850    3.6926    2.6620 H   0  0  0  0  0  0  0  0  0  0  0  0
   -2.6246    3.5776    1.0180 H   0  0  0  0  0  0  0  0  0  0  0  0
   -3.7342    3.6765    2.3981 H   0  0  0  0  0  0  0  0  0  0  0  0
   -1.3352    1.1101    0.3372 N   0  0  0  0  0  0  0  0  0  0  0  0
   -0.1579    0.6093   -0.3265 C   0  0  2  0  0  0  0  0  0  0  0  0
   -0.5030   -0.7696   -0.8776 C   0  0  0  0  0  0  0  0  0  0  0  0
   -1.3766   -0.9529   -1.7227 O   0  0  0  0  0  0  0  0  0  0  0  0
    1.0456    0.5194    0.6189 C   0  0  0  0  0  0  0  0  0  0  0  0
    1.5320    1.8734    1.0748 C   0  0  0  0  0  0  0  0  0  0  0  0
    1.2020    2.4880    2.2607 C   0  0  0  0  0  0  0  0  0  0  0  0
    2.4091    2.7416    0.3664 C   0  0  0  0  0  0  0  0  0  0  0  0
    1.8437    3.6968    2.3016 N   0  0  0  0  0  0  0  0  0  0  0  0
    2.5883    3.8781    1.1579 C   0  0  0  0  0  0  0  0  0  0  0  0
    3.0698    2.6693   -0.8760 C   0  0  0  0  0  0  0  0  0  0  0  0
    3.3984    4.9503    0.7675 C   0  0  0  0  0  0  0  0  0  0  0  0
    3.8834    3.7343   -1.2796 C   0  0  0  0  0  0  0  0  0  0  0  0
    4.0437    4.8562   -0.4689 C   0  0  0  0  0  0  0  0  0  0  0  0
   -2.1183    1.4068   -0.2401 H   0  0  0  0  0  0  0  0  0  0  0  0
    0.0429    1.2899   -1.1623 H   0  0  0  0  0  0  0  0  0  0  0  0
    1.8684   -0.0255    0.1364 H   0  0  0  0  0  0  0  0  0  0  0  0
    0.7913   -0.0720    1.5084 H   0  0  0  0  0  0  0  0  0  0  0  0
    0.5675    2.1755    3.0785 H   0  0  0  0  0  0  0  0  0  0  0  0
    1.7806    4.3604    3.0612 H   0  0  0  0  0  0  0  0  0  0  0  0
    2.9544    1.8020   -1.5198 H   0  0  0  0  0  0  0  0  0  0  0  0
    3.5246    5.8236    1.3983 H   0  0  0  0  0  0  0  0  0  0  0  0
    4.3951    3.6845   -2.2369 H   0  0  0  0  0  0  0  0  0  0  0  0
    4.6804    5.6718   -0.8019 H   0  0  0  0  0  0  0  0  0  0  0  0
    0.3142   -1.7596   -0.3498 N   0  0  0  0  0  0  0  0  0  0  0  0
    0.2141   -3.1527   -0.7211 C   0  0  2  0  0  0  0  0  0  0  0  0
   -1.2466   -3.5672   -0.6026 C   0  0  0  0  0  0  0  0  0  0  0  0
   -2.0572   -2.9732    0.1053 O   0  0  0  0  0  0  0  0  0  0  0  0
    1.0992   -4.0242    0.1563 C   0  0  0  0  0  0  0  0  0  0  0  0
    1.0180   -1.4914    0.3318 H   0  0  0  0  0  0  0  0  0  0  0  0
    0.5311   -3.2248   -1.7672 H   0  0  0  0  0  0  0  0  0  0  0  0
    0.7968   -3.9649    1.2082 H   0  0  0  0  0  0  0  0  0  0  0  0
    1.0442   -5.0755   -0.1447 H   0  0  0  0  0  0  0  0  0  0  0  0
    2.1453   -3.7056    0.0929 H   0  0  0  0  0  0  0  0  0  0  0  0
   -1.5284   -4.7043   -1.3468 N   0  0  0  0  0  0  0  0  0  0  0  0
   -2.8422   -5.3029   -1.3887 C   0  0  0  0  0  0  0  0  0  0  0  0
   -0.7997   -5.1201   -1.9194 H   0  0  0  0  0  0  0  0  0  0  0  0
   -2.9162   -6.0806   -0.6143 H   0  0  0  0  0  0  0  0  0  0  0  0
   -3.6031   -4.5299   -1.2058 H   0  0  0  0  0  0  0  0  0  0  0  0
   -3.0081   -5.7539   -2.3782 H   0  0  0  0  0  0  0  0  0  0  0  0
 29 30  2  0  0  0  0
 27 29  1  0  0  0  0
 28 30  1  0  0  0  0
 24 27  2  0  0  0  0
 26 28  2  0  0  0  0
 22 23  2  0  0  0  0
 23 25  1  0  0  0  0
 22 24  1  0  0  0  0
 24 26  1  0  0  0  0
 21 22  1  0  0  0  0
 25 26  1  0  0  0  0
  1  3  1  0  0  0  0
  1  7  1  0  0  0  0
  1  2  2  0  0  0  0
 42 43  1  0  0  0  0
 43 51  1  0  0  0  0
 43 44  2  0  0  0  0
  8  9  1  0  0  0  0
  9 17  1  0  0  0  0
  9 10  2  0  0  0  0
 18 19  1  0  0  0  0
 19 41  1  0  0  0  0
 19 20  2  0  0  0  0
 42 45  1  0  0  0  0
  8 11  1  0  0  0  0
 51 52  1  0  0  0  0
 18 21  1  0  0  0  0
 41 42  1  0  0  0  0
  7  8  1  0  0  0  0
 17 18  1  0  0  0  0
 29 39  1  0  0  0  0
 30 40  1  0  0  0  0
 27 37  1  0  0  0  0
 28 38  1  0  0  0  0
 23 35  1  0  0  0  0
  3  4  1  0  0  0  0
  3  5  1  0  0  0  0
  3  6  1  0  0  0  0
 45 48  1  0  0  0  0
 45 49  1  0  0  0  0
 45 50  1  0  0  0  0
 11 14  1  0  0  0  0
 11 15  1  0  0  0  0
 11 16  1  0  0  0  0
 52 54  1  0  0  0  0
 52 55  1  0  0  0  0
 52 56  1  0  0  0  0
 21 33  1  0  0  0  0
 21 34  1  0  0  0  0
 42 47  1  0  0  0  0
  8 13  1  0  0  0  0
 18 32  1  0  0  0  0
 25 36  1  0  0  0  0
 51 53  1  0  0  0  0
  7 12  1  0  0  0  0
 41 46  1  0  0  0  0
 17 31  1  0  0  0  0
M  END
$$$$

  -OEChem-05262214473D

 56 57  0     1  0  0  0  0  0999 V2000
   -2.2900    0.3401    4.1553 C   0  0  0  0  0  0  0  0  0  0  0  0
   -1.3426   -0.2746    3.6796 O   0  0  0  0  0  0  0  0  0  0  0  0
   -2.7219    0.0577    5.5560 C   0  0  0  0  0  0  0  0  0  0  0  0
   -3.4815   -0.7386    5.6094 H   0  0  0  0  0  0  0  0  0  0  0  0
   -1.8906   -0.2899    6.1903 H   0  0  0  0  0  0  0  0  0  0  0  0
   -3.1599    0.9126    6.0956 H   0  0  0  0  0  0  0  0  0  0  0  0
   -3.0397    1.3125    3.5142 N   0  0  0  0  0  0  0  0  0  0  0  0
   -2.7928    1.7385    2.1618 C   0  0  2  0  0  0  0  0  0  0  0  0
   -1.4579    1.1532    1.7206 C   0  0  0  0  0  0  0  0  0  0  0  0
   -0.5858    0.8004    2.5118 O   0  0  0  0  0  0  0  0  0  0  0  0
   -2.7841    3.2553    2.0523 C   0  0  0  0  0  0  0  0  0  0  0  0
   -3.8047    1.7484    4.0260 H   0  0  0  0  0  0  0  0  0  0  0  0
   -3.5969    1.3201    1.5466 H   0  0  0  0  0  0  0  0  0  0  0  0
   -1.9850    3.6926    2.6620 H   0  0  0  0  0  0  0  0  0  0  0  0
   -2.6246    3.5776    1.0180 H   0  0  0  0  0  0  0  0  0  0  0  0
   -3.7342    3.6765    2.3981 H   0  0  0  0  0  0  0  0  0  0  0  0
   -1.3352    1.1101    0.3372 N   0  0  0  0  0  0  0  0  0  0  0  0
   -0.1579    0.6093   -0.3265 C   0  0  2  0  0  0  0  0  0  0  0  0
   -0.5030   -0.7696   -0.8776 C   0  0  0  0  0  0  0  0  0  0  0  0
   -1.1713   -0.9351   -1.8959 O   0  0  0  0  0  0  0  0  0  0  0  0
    1.0456    0.5194    0.6189 C   0  0  0  0  0  0  0  0  0  0  0  0
    1.5320    1.8734    1.0748 C   0  0  0  0  0  0  0  0  0  0  0  0
    1.2020    2.4880    2.2607 C   0  0  0  0  0  0  0  0  0  0  0  0
    2.4091    2.7416    0.3664 C   0  0  0  0  0  0  0  0  0  0  0  0
    1.8437    3.6968    2.3016 N   0  0  0  0  0  0  0  0  0  0  0  0
    2.5883    3.8781    1.1579 C   0  0  0  0  0  0  0  0  0  0  0  0
    3.0698    2.6693   -0.8760 C   0  0  0  0  0  0  0  0  0  0  0  0
    3.3984    4.9503    0.7675 C   0  0  0  0  0  0  0  0  0  0  0  0
    3.8834    3.7343   -1.2796 C   0  0  0  0  0  0  0  0  0  0  0  0
    4.0437    4.8562   -0.4689 C   0  0  0  0  0  0  0  0  0  0  0  0
   -2.1183    1.4068   -0.2401 H   0  0  0  0  0  0  0  0  0  0  0  0
    0.0429    1.2899   -1.1623 H   0  0  0  0  0  0  0  0  0  0  0  0
    1.8684   -0.0255    0.1364 H   0  0  0  0  0  0  0  0  0  0  0  0
    0.7913   -0.0720    1.5084 H   0  0  0  0  0  0  0  0  0  0  0  0
    0.5675    2.1755    3.0785 H   0  0  0  0  0  0  0  0  0  0  0  0
    1.7806    4.3604    3.0612 H   0  0  0  0  0  0  0  0  0  0  0  0
    2.9544    1.8020   -1.5198 H   0  0  0  0  0  0  0  0  0  0  0  0
    3.5246    5.8236    1.3983 H   0  0  0  0  0  0  0  0  0  0  0  0
    4.3951    3.6845   -2.2369 H   0  0  0  0  0  0  0  0  0  0  0  0
    4.6804    5.6718   -0.8019 H   0  0  0  0  0  0  0  0  0  0  0  0
    0.0661   -1.7874   -0.1249 N   0  0  0  0  0  0  0  0  0  0  0  0
   -0.0849   -3.1891   -0.4428 C   0  0  2  0  0  0  0  0  0  0  0  0
   -1.5675   -3.4663   -0.6542 C   0  0  0  0  0  0  0  0  0  0  0  0
   -2.4559   -2.7564   -0.1874 O   0  0  0  0  0  0  0  0  0  0  0  0
    0.4810   -4.0706    0.6597 C   0  0  0  0  0  0  0  0  0  0  0  0
    0.6165   -1.5343    0.6905 H   0  0  0  0  0  0  0  0  0  0  0  0
    0.4566   -3.3612   -1.3794 H   0  0  0  0  0  0  0  0  0  0  0  0
   -0.0490   -3.9122    1.6059 H   0  0  0  0  0  0  0  0  0  0  0  0
    0.3917   -5.1317    0.4045 H   0  0  0  0  0  0  0  0  0  0  0  0
    1.5400   -3.8491    0.8308 H   0  0  0  0  0  0  0  0  0  0  0  0
   -1.7824   -4.6239   -1.3891 N   0  0  0  0  0  0  0  0  0  0  0  0
   -3.1042   -5.1079   -1.7126 C   0  0  0  0  0  0  0  0  0  0  0  0
   -0.9866   -5.1400   -1.7524 H   0  0  0  0  0  0  0  0  0  0  0  0
   -3.4331   -5.8204   -0.9417 H   0  0  0  0  0  0  0  0  0  0  0  0
   -3.8051   -4.2611   -1.7520 H   0  0  0  0  0  0  0  0  0  0  0  0
   -3.0812   -5.6107   -2.6906 H   0  0  0  0  0  0  0  0  0  0  0  0
 29 30  2  0  0  0  0
 27 29  1  0  0  0  0
 28 30  1  0  0  0  0
 24 27  2  0  0  0  0
 26 28  2  0  0  0  0
 22 23  2  0  0  0  0
 23 25  1  0  0  0  0
 22 24  1  0  0  0  0
 24 26  1  0  0  0  0
 21 22  1  0  0  0  0
 25 26  1  0  0  0  0
  1  3  1  0  0  0  0
  1  7  1  0  0  0  0
  1  2  2  0  0  0  0
 42 43  1  0  0  0  0
 43 51  1  0  0  0  0
 43 44  2  0  0  0  0
  8  9  1  0  0  0  0
  9 17  1  0  0  0  0
  9 10  2  0  0  0  0
 18 19  1  0  0  0  0
 19 41  1  0  0  0  0
 19 20  2  0  0  0  0
 42 45  1  0  0  0  0
  8 11  1  0  0  0  0
 51 52  1  0  0  0  0
 18 21  1  0  0  0  0
 41 42  1  0  0  0  0
  7  8  1  0  0  0  0
 17 18  1  0  0  0  0
 29 39  1  0  0  0  0
 30 40  1  0  0  0  0
 27 37  1  0  0  0  0
 28 38  1  0  0  0  0
 23 35  1  0  0  0  0
  3  4  1  0  0  0  0
  3  5  1  0  0  0  0
  3  6  1  0  0  0  0
 45 48  1  0  0  0  0
 45 49  1  0  0  0  0
 45 50  1  0  0  0  0
 11 14  1  0  0  0  0
 11 15  1  0  0  0  0
 11 16  1  0  0  0  0
 52 54  1  0  0  0  0
 52 55  1  0  0  0  0
 52 56  1  0  0  0  0
 21 33  1  0  0  0  0
 21 34  1  0  0  0  0
 42 47  1  0  0  0  0
  8 13  1  0  0  0  0
 18 32  1  0  0  0  0
 25 36  1  0  0  0  0
 51 53  1  0  0  0  0
  7 12  1  0  0  0  0
 41 46  1  0  0  0  0
 17 31  1  0  0  0  0
M  END
$$$$

  -OEChem-05262214473D

 56 57  0     1  0  0  0  0  0999 V2000
   -2.2900    0.3401    4.1553 C   0  0  0  0  0  0  0  0  0  0  0  0
   -1.3426   -0.2746    3.6796 O   0  0  0  0  0  0  0  0  0  0  0  0
   -2.7219    0.0577    5.5560 C   0  0  0  0  0  0  0  0  0  0  0  0
   -3.4815   -0.7386    5.6094 H   0  0  0  0  0  0  0  0  0  0  0  0
   -1.8906   -0.2899    6.1903 H   0  0  0  0  0  0  0  0  0  0  0  0
   -3.1599    0.9126    6.0956 H   0  0  0  0  0  0  0  0  0  0  0  0
   -3.0397    1.3125    3.5142 N   0  0  0  0  0  0  0  0  0  0  0  0
   -2.7928    1.7385    2.1618 C   0  0  2  0  0  0  0  0  0  0  0  0
   -1.4579    1.1532    1.7206 C   0  0  0  0  0  0  0  0  0  0  0  0
   -0.5858    0.8004    2.5118 O   0  0  0  0  0  0  0  0  0  0  0  0
   -2.7841    3.2553    2.0523 C   0  0  0  0  0  0  0  0  0  0  0  0
   -3.8047    1.7484    4.0260 H   0  0  0  0  0  0  0  0  0  0  0  0
   -3.5969    1.3201    1.5466 H   0  0  0  0  0  0  0  0  0  0  0  0
   -1.9850    3.6926    2.6620 H   0  0  0  0  0  0  0  0  0  0  0  0
   -2.6246    3.5776    1.0180 H   0  0  0  0  0  0  0  0  0  0  0  0
   -3.7342    3.6765    2.3981 H   0  0  0  0  0  0  0  0  0  0  0  0
   -1.3352    1.1101    0.3372 N   0  0  0  0  0  0  0  0  0  0  0  0
   -0.1579    0.6093   -0.3265 C   0  0  2  0  0  0  0  0  0  0  0  0
   -0.5030   -0.7696   -0.8776 C   0  0  0  0  0  0  0  0  0  0  0  0
   -0.9308   -0.9472   -2.0162 O   0  0  0  0  0  0  0  0  0  0  0  0
    1.0456    0.5194    0.6189 C   0  0  0  0  0  0  0  0  0  0  0  0
    1.5320    1.8734    1.0748 C   0  0  0  0  0  0  0  0  0  0  0  0
    1.2020    2.4880    2.2607 C   0  0  0  0  0  0  0  0  0  0  0  0
    2.4091    2.7416    0.3664 C   0  0  0  0  0  0  0  0  0  0  0  0
    1.8437    3.6968    2.3016 N   0  0  0  0  0  0  0  0  0  0  0  0
    2.5883    3.8781    1.1579 C   0  0  0  0  0  0  0  0  0  0  0  0
    3.0698    2.6693   -0.8760 C   0  0  0  0  0  0  0  0  0  0  0  0
    3.3984    4.9503    0.7675 C   0  0  0  0  0  0  0  0  0  0  0  0
    3.8834    3.7343   -1.2796 C   0  0  0  0  0  0  0  0  0  0  0  0
    4.0437    4.8562   -0.4689 C   0  0  0  0  0  0  0  0  0  0  0  0
   -2.1183    1.4068   -0.2401 H   0  0  0  0  0  0  0  0  0  0  0  0
    0.0429    1.2899   -1.1623 H   0  0  0  0  0  0  0  0  0  0  0  0
    1.8684   -0.0255    0.1364 H   0  0  0  0  0  0  0  0  0  0  0  0
    0.7913   -0.0720    1.5084 H   0  0  0  0  0  0  0  0  0  0  0  0
    0.5675    2.1755    3.0785 H   0  0  0  0  0  0  0  0  0  0  0  0
    1.7806    4.3604    3.0612 H   0  0  0  0  0  0  0  0  0  0  0  0
    2.9544    1.8020   -1.5198 H   0  0  0  0  0  0  0  0  0  0  0  0
    3.5246    5.8236    1.3983 H   0  0  0  0  0  0  0  0  0  0  0  0
    4.3951    3.6845   -2.2369 H   0  0  0  0  0  0  0  0  0  0  0  0
    4.6804    5.6718   -0.8019 H   0  0  0  0  0  0  0  0  0  0  0  0
   -0.2287   -1.7779    0.0359 N   0  0  0  0  0  0  0  0  0  0  0  0
   -0.4423   -3.1800   -0.2418 C   0  0  2  0  0  0  0  0  0  0  0  0
   -1.8559   -3.3419   -0.7850 C   0  0  0  0  0  0  0  0  0  0  0  0
   -2.7522   -2.5269   -0.5762 O   0  0  0  0  0  0  0  0  0  0  0  0
   -0.2383   -4.0282    1.0039 C   0  0  0  0  0  0  0  0  0  0  0  0
    0.1407   -1.5172    0.9455 H   0  0  0  0  0  0  0  0  0  0  0  0
    0.2810   -3.4632   -1.0142 H   0  0  0  0  0  0  0  0  0  0  0  0
   -0.9541   -3.7588    1.7890 H   0  0  0  0  0  0  0  0  0  0  0  0
   -0.3724   -5.0927    0.7854 H   0  0  0  0  0  0  0  0  0  0  0  0
    0.7692   -3.8878    1.4102 H   0  0  0  0  0  0  0  0  0  0  0  0
   -2.0102   -4.5248   -1.4941 N   0  0  0  0  0  0  0  0  0  0  0  0
   -3.2631   -4.9140   -2.0981 C   0  0  0  0  0  0  0  0  0  0  0  0
   -1.2080   -5.1321   -1.6337 H   0  0  0  0  0  0  0  0  0  0  0  0
   -3.8314   -5.5398   -1.3943 H   0  0  0  0  0  0  0  0  0  0  0  0
   -3.8472   -4.0145   -2.3426 H   0  0  0  0  0  0  0  0  0  0  0  0
   -3.0652   -5.4839   -3.0179 H   0  0  0  0  0  0  0  0  0  0  0  0
 29 30  2  0  0  0  0
 27 29  1  0  0  0  0
 28 30  1  0  0  0  0
 24 27  2  0  0  0  0
 26 28  2  0  0  0  0
 22 23  2  0  0  0  0
 23 25  1  0  0  0  0
 22 24  1  0  0  0  0
 24 26  1  0  0  0  0
 21 22  1  0  0  0  0
 25 26  1  0  0  0  0
  1  3  1  0  0  0  0
  1  7  1  0  0  0  0
  1  2  2  0  0  0  0
 42 43  1  0  0  0  0
 43 51  1  0  0  0  0
 43 44  2  0  0  0  0
  8  9  1  0  0  0  0
  9 17  1  0  0  0  0
  9 10  2  0  0  0  0
 18 19  1  0  0  0  0
 19 41  1  0  0  0  0
 19 20  2  0  0  0  0
 42 45  1  0  0  0  0
  8 11  1  0  0  0  0
 51 52  1  0  0  0  0
 18 21  1  0  0  0  0
 41 42  1  0  0  0  0
  7  8  1  0  0  0  0
 17 18  1  0  0  0  0
 29 39  1  0  0  0  0
 30 40  1  0  0  0  0
 27 37  1  0  0  0  0
 28 38  1  0  0  0  0
 23 35  1  0  0  0  0
  3  4  1  0  0  0  0
  3  5  1  0  0  0  0
  3  6  1  0  0  0  0
 45 48  1  0  0  0  0
 45 49  1  0  0  0  0
 45 50  1  0  0  0  0
 11 14  1  0  0  0  0
 11 15  1  0  0  0  0
 11 16  1  0  0  0  0
 52 54  1  0  0  0  0
 52 55  1  0  0  0  0
 52 56  1  0  0  0  0
 21 33  1  0  0  0  0
 21 34  1  0  0  0  0
 42 47  1  0  0  0  0
  8 13  1  0  0  0  0
 18 32  1  0  0  0  0
 25 36  1  0  0  0  0
 51 53  1  0  0  0  0
  7 12  1  0  0  0  0
 41 46  1  0  0  0  0
 17 31  1  0  0  0  0
M  END
$$$$

  -OEChem-05262214473D

 56 57  0     1  0  0  0  0  0999 V2000
   -2.2900    0.3401    4.1553 C   0  0  0  0  0  0  0  0  0  0  0  0
   -1.3426   -0.2746    3.6796 O   0  0  0  0  0  0  0  0  0  0  0  0
   -2.7219    0.0577    5.5560 C   0  0  0  0  0  0  0  0  0  0  0  0
   -3.4815   -0.7386    5.6094 H   0  0  0  0  0  0  0  0  0  0  0  0
   -1.8906   -0.2899    6.1903 H   0  0  0  0  0  0  0  0  0  0  0  0
   -3.1599    0.9126    6.0956 H   0  0  0  0  0  0  0  0  0  0  0  0
   -3.0397    1.3125    3.5142 N   0  0  0  0  0  0  0  0  0  0  0  0
   -2.7928    1.7385    2.1618 C   0  0  2  0  0  0  0  0  0  0  0  0
   -1.4579    1.1532    1.7206 C   0  0  0  0  0  0  0  0  0  0  0  0
   -0.5858    0.8004    2.5118 O   0  0  0  0  0  0  0  0  0  0  0  0
   -2.7841    3.2553    2.0523 C   0  0  0  0  0  0  0  0  0  0  0  0
   -3.8047    1.7484    4.0260 H   0  0  0  0  0  0  0  0  0  0  0  0
   -3.5969    1.3201    1.5466 H   0  0  0  0  0  0  0  0  0  0  0  0
   -1.9850    3.6926    2.6620 H   0  0  0  0  0  0  0  0  0  0  0  0
   -2.6246    3.5776    1.0180 H   0  0  0  0  0  0  0  0  0  0  0  0
   -3.7342    3.6765    2.3981 H   0  0  0  0  0  0  0  0  0  0  0  0
   -1.3352    1.1101    0.3372 N   0  0  0  0  0  0  0  0  0  0  0  0
   -0.1579    0.6093   -0.3265 C   0  0  2  0  0  0  0  0  0  0  0  0
   -0.5030   -0.7696   -0.8776 C   0  0  0  0  0  0  0  0  0  0  0  0
   -0.6715   -0.9885   -2.0754 O   0  0  0  0  0  0  0  0  0  0  0  0
    1.0456    0.5194    0.6189 C   0  0  0  0  0  0  0  0  0  0  0  0
    1.5320    1.8734    1.0748 C   0  0  0  0  0  0  0  0  0  0  0  0
    1.2020    2.4880    2.2607 C   0  0  0  0  0  0  0  0  0  0  0  0
    2.4091    2.7416    0.3664 C   0  0  0  0  0  0  0  0  0  0  0  0
    1.8437    3.6968    2.3016 N   0  0  0  0  0  0  0  0  0  0  0  0
    2.5883    3.8781    1.1579 C   0  0  0  0  0  0  0  0  0  0  0  0
    3.0698    2.6693   -0.8760 C   0  0  0  0  0  0  0  0  0  0  0  0
    3.3984    4.9503    0.7675 C   0  0  0  0  0  0  0  0  0  0  0  0
    3.8834    3.7343   -1.2796 C   0  0  0  0  0  0  0  0  0  0  0  0
    4.0437    4.8562   -0.4689 C   0  0  0  0  0  0  0  0  0  0  0  0
   -2.1183    1.4068   -0.2401 H   0  0  0  0  0  0  0  0  0  0  0  0
    0.0429    1.2899   -1.1623 H   0  0  0  0  0  0  0  0  0  0  0  0
    1.8684   -0.0255    0.1364 H   0  0  0  0  0  0  0  0  0  0  0  0
    0.7913   -0.0720    1.5084 H   0  0  0  0  0  0  0  0  0  0  0  0
    0.5675    2.1755    3.0785 H   0  0  0  0  0  0  0  0  0  0  0  0
    1.7806    4.3604    3.0612 H   0  0  0  0  0  0  0  0  0  0  0  0
    2.9544    1.8020   -1.5198 H   0  0  0  0  0  0  0  0  0  0  0  0
    3.5246    5.8236    1.3983 H   0  0  0  0  0  0  0  0  0  0  0  0
    4.3951    3.6845   -2.2369 H   0  0  0  0  0  0  0  0  0  0  0  0
    4.6804    5.6718   -0.8019 H   0  0  0  0  0  0  0  0  0  0  0  0
   -0.5503   -1.7317    0.1217 N   0  0  0  0  0  0  0  0  0  0  0  0
   -0.8337   -3.1260   -0.1319 C   0  0  2  0  0  0  0  0  0  0  0  0
   -2.0922   -3.2023   -0.9862 C   0  0  0  0  0  0  0  0  0  0  0  0
   -2.9259   -2.3002   -1.0345 O   0  0  0  0  0  0  0  0  0  0  0  0
   -1.0097   -3.8997    1.1655 C   0  0  0  0  0  0  0  0  0  0  0  0
   -0.3770   -1.4411    1.0795 H   0  0  0  0  0  0  0  0  0  0  0  0
    0.0164   -3.5239   -0.6966 H   0  0  0  0  0  0  0  0  0  0  0  0
   -1.8569   -3.5153    1.7450 H   0  0  0  0  0  0  0  0  0  0  0  0
   -1.1960   -4.9613    0.9722 H   0  0  0  0  0  0  0  0  0  0  0  0
   -0.1147   -3.8190    1.7918 H   0  0  0  0  0  0  0  0  0  0  0  0
   -2.1965   -4.4140   -1.6547 N   0  0  0  0  0  0  0  0  0  0  0  0
   -3.3083   -4.7344   -2.5192 C   0  0  0  0  0  0  0  0  0  0  0  0
   -1.4490   -5.0967   -1.5713 H   0  0  0  0  0  0  0  0  0  0  0  0
   -4.0839   -5.2581   -1.9410 H   0  0  0  0  0  0  0  0  0  0  0  0
   -3.7265   -3.8069   -2.9374 H   0  0  0  0  0  0  0  0  0  0  0  0
   -2.9614   -5.3821   -3.3378 H   0  0  0  0  0  0  0  0  0  0  0  0
 29 30  2  0  0  0  0
 27 29  1  0  0  0  0
 28 30  1  0  0  0  0
 24 27  2  0  0  0  0
 26 28  2  0  0  0  0
 22 23  2  0  0  0  0
 23 25  1  0  0  0  0
 22 24  1  0  0  0  0
 24 26  1  0  0  0  0
 21 22  1  0  0  0  0
 25 26  1  0  0  0  0
  1  3  1  0  0  0  0
  1  7  1  0  0  0  0
  1  2  2  0  0  0  0
 42 43  1  0  0  0  0
 43 51  1  0  0  0  0
 43 44  2  0  0  0  0
  8  9  1  0  0  0  0
  9 17  1  0  0  0  0
  9 10  2  0  0  0  0
 18 19  1  0  0  0  0
 19 41  1  0  0  0  0
 19 20  2  0  0  0  0
 42 45  1  0  0  0  0
  8 11  1  0  0  0  0
 51 52  1  0  0  0  0
 18 21  1  0  0  0  0
 41 42  1  0  0  0  0
  7  8  1  0  0  0  0
 17 18  1  0  0  0  0
 29 39  1  0  0  0  0
 30 40  1  0  0  0  0
 27 37  1  0  0  0  0
 28 38  1  0  0  0  0
 23 35  1  0  0  0  0
  3  4  1  0  0  0  0
  3  5  1  0  0  0  0
  3  6  1  0  0  0  0
 45 48  1  0  0  0  0
 45 49  1  0  0  0  0
 45 50  1  0  0  0  0
 11 14  1  0  0  0  0
 11 15  1  0  0  0  0
 11 16  1  0  0  0  0
 52 54  1  0  0  0  0
 52 55  1  0  0  0  0
 52 56  1  0  0  0  0
 21 33  1  0  0  0  0
 21 34  1  0  0  0  0
 42 47  1  0  0  0  0
  8 13  1  0  0  0  0
 18 32  1  0  0  0  0
 25 36  1  0  0  0  0
 51 53  1  0  0  0  0
  7 12  1  0  0  0  0
 41 46  1  0  0  0  0
 17 31  1  0  0  0  0
M  END
$$$$

  -OEChem-05262214473D

 56 57  0     1  0  0  0  0  0999 V2000
   -2.2900    0.3401    4.1553 C   0  0  0  0  0  0  0  0  0  0  0  0
   -1.3426   -0.2746    3.6796 O   0  0  0  0  0  0  0  0  0  0  0  0
   -2.7219    0.0577    5.5560 C   0  0  0  0  0  0  0  0  0  0  0  0
   -3.4815   -0.7386    5.6094 H   0  0  0  0  0  0  0  0  0  0  0  0
   -1.8906   -0.2899    6.1903 H   0  0  0  0  0  0  0  0  0  0  0  0
   -3.1599    0.9126    6.0956 H   0  0  0  0  0  0  0  0  0  0  0  0
   -3.0397    1.3125    3.5142 N   0  0  0  0  0  0  0  0  0  0  0  0
   -2.7928    1.7385    2.1618 C   0  0  2  0  0  0  0  0  0  0  0  0
   -1.4579    1.1532    1.7206 C   0  0  0  0  0  0  0  0  0  0  0  0
   -0.5858    0.8004    2.5118 O   0  0  0  0  0  0  0  0  0  0  0  0
   -2.7841    3.2553    2.0523 C   0  0  0  0  0  0  0  0  0  0  0  0
   -3.8047    1.7484    4.0260 H   0  0  0  0  0  0  0  0  0  0  0  0
   -3.5969    1.3201    1.5466 H   0  0  0  0  0  0  0  0  0  0  0  0
   -1.9850    3.6926    2.6620 H   0  0  0  0  0  0  0  0  0  0  0  0
   -2.6246    3.5776    1.0180 H   0  0  0  0  0  0  0  0  0  0  0  0
   -3.7342    3.6765    2.3981 H   0  0  0  0  0  0  0  0  0  0  0  0
   -1.3352    1.1101    0.3372 N   0  0  0  0  0  0  0  0  0  0  0  0
   -0.1579    0.6093   -0.3265 C   0  0  2  0  0  0  0  0  0  0  0  0
   -0.5030   -0.7696   -0.8776 C   0  0  0  0  0  0  0  0  0  0  0  0
   -0.4110   -1.0560   -2.0694 O   0  0  0  0  0  0  0  0  0  0  0  0
    1.0456    0.5194    0.6189 C   0  0  0  0  0  0  0  0  0  0  0  0
    1.5320    1.8734    1.0748 C   0  0  0  0  0  0  0  0  0  0  0  0
    1.2020    2.4880    2.2607 C   0  0  0  0  0  0  0  0  0  0  0  0
    2.4091    2.7416    0.3664 C   0  0  0  0  0  0  0  0  0  0  0  0
    1.8437    3.6968    2.3016 N   0  0  0  0  0  0  0  0  0  0  0  0
    2.5883    3.8781    1.1579 C   0  0  0  0  0  0  0  0  0  0  0  0
    3.0698    2.6693   -0.8760 C   0  0  0  0  0  0  0  0  0  0  0  0
    3.3984    4.9503    0.7675 C   0  0  0  0  0  0  0  0  0  0  0  0
    3.8834    3.7343   -1.2796 C   0  0  0  0  0  0  0  0  0  0  0  0
    4.0437    4.8562   -0.4689 C   0  0  0  0  0  0  0  0  0  0  0  0
   -2.1183    1.4068   -0.2401 H   0  0  0  0  0  0  0  0  0  0  0  0
    0.0429    1.2899   -1.1623 H   0  0  0  0  0  0  0  0  0  0  0  0
    1.8684   -0.0255    0.1364 H   0  0  0  0  0  0  0  0  0  0  0  0
    0.7913   -0.0720    1.5084 H   0  0  0  0  0  0  0  0  0  0  0  0
    0.5675    2.1755    3.0785 H   0  0  0  0  0  0  0  0  0  0  0  0
    1.7806    4.3604    3.0612 H   0  0  0  0  0  0  0  0  0  0  0  0
    2.9544    1.8020   -1.5198 H   0  0  0  0  0  0  0  0  0  0  0  0
    3.5246    5.8236    1.3983 H   0  0  0  0  0  0  0  0  0  0  0  0
    4.3951    3.6845   -2.2369 H   0  0  0  0  0  0  0  0  0  0  0  0
    4.6804    5.6718   -0.8019 H   0  0  0  0  0  0  0  0  0  0  0  0
   -0.8766   -1.6519    0.1265 N   0  0  0  0  0  0  0  0  0  0  0  0
   -1.2324   -3.0307   -0.1205 C   0  0  2  0  0  0  0  0  0  0  0  0
   -2.2604   -3.0572   -1.2440 C   0  0  0  0  0  0  0  0  0  0  0  0
   -2.9651   -2.0918   -1.5311 O   0  0  0  0  0  0  0  0  0  0  0  0
   -1.7806   -3.6939    1.1335 C   0  0  0  0  0  0  0  0  0  0  0  0
   -0.9013   -1.3114    1.0832 H   0  0  0  0  0  0  0  0  0  0  0  0
   -0.3192   -3.5392   -0.4483 H   0  0  0  0  0  0  0  0  0  0  0  0
   -2.6958   -3.1981    1.4769 H   0  0  0  0  0  0  0  0  0  0  0  0
   -2.0229   -4.7463    0.9522 H   0  0  0  0  0  0  0  0  0  0  0  0
   -1.0513   -3.6476    1.9494 H   0  0  0  0  0  0  0  0  0  0  0  0
   -2.3284   -4.2990   -1.8599 N   0  0  0  0  0  0  0  0  0  0  0  0
   -3.2366   -4.5814   -2.9469 C   0  0  0  0  0  0  0  0  0  0  0  0
   -1.6930   -5.0363   -1.5695 H   0  0  0  0  0  0  0  0  0  0  0  0
   -4.1735   -4.9943   -2.5448 H   0  0  0  0  0  0  0  0  0  0  0  0
   -3.4512   -3.6526   -3.4959 H   0  0  0  0  0  0  0  0  0  0  0  0
   -2.7766   -5.3121   -3.6284 H   0  0  0  0  0  0  0  0  0  0  0  0
 29 30  2  0  0  0  0
 27 29  1  0  0  0  0
 28 30  1  0  0  0  0
 24 27  2  0  0  0  0
 26 28  2  0  0  0  0
 22 23  2  0  0  0  0
 23 25  1  0  0  0  0
 22 24  1  0  0  0  0
 24 26  1  0  0  0  0
 21 22  1  0  0  0  0
 25 26  1  0  0  0  0
  1  3  1  0  0  0  0
  1  7  1  0  0  0  0
  1  2  2  0  0  0  0
 42 43  1  0  0  0  0
 43 51  1  0  0  0  0
 43 44  2  0  0  0  0
  8  9  1  0  0  0  0
  9 17  1  0  0  0  0
  9 10  2  0  0  0  0
 18 19  1  0  0  0  0
 19 41  1  0  0  0  0
 19 20  2  0  0  0  0
 42 45  1  0  0  0  0
  8 11  1  0  0  0  0
 51 52  1  0  0  0  0
 18 21  1  0  0  0  0
 41 42  1  0  0  0  0
  7  8  1  0  0  0  0
 17 18  1  0  0  0  0
 29 39  1  0  0  0  0
 30 40  1  0  0  0  0
 27 37  1  0  0  0  0
 28 38  1  0  0  0  0
 23 35  1  0  0  0  0
  3  4  1  0  0  0  0
  3  5  1  0  0  0  0
  3  6  1  0  0  0  0
 45 48  1  0  0  0  0
 45 49  1  0  0  0  0
 45 50  1  0  0  0  0
 11 14  1  0  0  0  0
 11 15  1  0  0  0  0
 11 16  1  0  0  0  0
 52 54  1  0  0  0  0
 52 55  1  0  0  0  0
 52 56  1  0  0  0  0
 21 33  1  0  0  0  0
 21 34  1  0  0  0  0
 42 47  1  0  0  0  0
  8 13  1  0  0  0  0
 18 32  1  0  0  0  0
 25 36  1  0  0  0  0
 51 53  1  0  0  0  0
  7 12  1  0  0  0  0
 41 46  1  0  0  0  0
 17 31  1  0  0  0  0
M  END
$$$$

  -OEChem-05262214473D

 56 57  0     1  0  0  0  0  0999 V2000
   -2.2900    0.3401    4.1553 C   0  0  0  0  0  0  0  0  0  0  0  0
   -1.3426   -0.2746    3.6796 O   0  0  0  0  0  0  0  0  0  0  0  0
   -2.7219    0.0577    5.5560 C   0  0  0  0  0  0  0  0  0  0  0  0
   -3.4815   -0.7386    5.6094 H   0  0  0  0  0  0  0  0  0  0  0  0
   -1.8906   -0.2899    6.1903 H   0  0  0  0  0  0  0  0  0  0  0  0
   -3.1599    0.9126    6.0956 H   0  0  0  0  0  0  0  0  0  0  0  0
   -3.0397    1.3125    3.5142 N   0  0  0  0  0  0  0  0  0  0  0  0
   -2.7928    1.7385    2.1618 C   0  0  2  0  0  0  0  0  0  0  0  0
   -1.4579    1.1532    1.7206 C   0  0  0  0  0  0  0  0  0  0  0  0
   -0.5858    0.8004    2.5118 O   0  0  0  0  0  0  0  0  0  0  0  0
   -2.7841    3.2553    2.0523 C   0  0  0  0  0  0  0  0  0  0  0  0
   -3.8047    1.7484    4.0260 H   0  0  0  0  0  0  0  0  0  0  0  0
   -3.5969    1.3201    1.5466 H   0  0  0  0  0  0  0  0  0  0  0  0
   -1.9850    3.6926    2.6620 H   0  0  0  0  0  0  0  0  0  0  0  0
   -2.6246    3.5776    1.0180 H   0  0  0  0  0  0  0  0  0  0  0  0
   -3.7342    3.6765    2.3981 H   0  0  0  0  0  0  0  0  0  0  0  0
   -1.3352    1.1101    0.3372 N   0  0  0  0  0  0  0  0  0  0  0  0
   -0.1579    0.6093   -0.3265 C   0  0  2  0  0  0  0  0  0  0  0  0
   -0.5030   -0.7696   -0.8776 C   0  0  0  0  0  0  0  0  0  0  0  0
   -0.1671   -1.1453   -1.9987 O   0  0  0  0  0  0  0  0  0  0  0  0
    1.0456    0.5194    0.6189 C   0  0  0  0  0  0  0  0  0  0  0  0
    1.5320    1.8734    1.0748 C   0  0  0  0  0  0  0  0  0  0  0  0
    1.2020    2.4880    2.2607 C   0  0  0  0  0  0  0  0  0  0  0  0
    2.4091    2.7416    0.3664 C   0  0  0  0  0  0  0  0  0  0  0  0
    1.8437    3.6968    2.3016 N   0  0  0  0  0  0  0  0  0  0  0  0
    2.5883    3.8781    1.1579 C   0  0  0  0  0  0  0  0  0  0  0  0
    3.0698    2.6693   -0.8760 C   0  0  0  0  0  0  0  0  0  0  0  0
    3.3984    4.9503    0.7675 C   0  0  0  0  0  0  0  0  0  0  0  0
    3.8834    3.7343   -1.2796 C   0  0  0  0  0  0  0  0  0  0  0  0
    4.0437    4.8562   -0.4689 C   0  0  0  0  0  0  0  0  0  0  0  0
   -2.1183    1.4068   -0.2401 H   0  0  0  0  0  0  0  0  0  0  0  0
    0.0429    1.2899   -1.1623 H   0  0  0  0  0  0  0  0  0  0  0  0
    1.8684   -0.0255    0.1364 H   0  0  0  0  0  0  0  0  0  0  0  0
    0.7913   -0.0720    1.5084 H   0  0  0  0  0  0  0  0  0  0  0  0
    0.5675    2.1755    3.0785 H   0  0  0  0  0  0  0  0  0  0  0  0
    1.7806    4.3604    3.0612 H   0  0  0  0  0  0  0  0  0  0  0  0
    2.9544    1.8020   -1.5198 H   0  0  0  0  0  0  0  0  0  0  0  0
    3.5246    5.8236    1.3983 H   0  0  0  0  0  0  0  0  0  0  0  0
    4.3951    3.6845   -2.2369 H   0  0  0  0  0  0  0  0  0  0  0  0
    4.6804    5.6718   -0.8019 H   0  0  0  0  0  0  0  0  0  0  0  0
   -1.1856   -1.5441    0.0502 N   0  0  0  0  0  0  0  0  0  0  0  0
   -1.6113   -2.9008   -0.2084 C   0  0  2  0  0  0  0  0  0  0  0  0
   -2.3488   -2.9164   -1.5408 C   0  0  0  0  0  0  0  0  0  0  0  0
   -2.8673   -1.9160   -2.0323 O   0  0  0  0  0  0  0  0  0  0  0  0
   -2.4985   -3.4249    0.9100 C   0  0  0  0  0  0  0  0  0  0  0  0
   -1.3964   -1.1368    0.9565 H   0  0  0  0  0  0  0  0  0  0  0  0
   -0.7029   -3.5080   -0.2860 H   0  0  0  0  0  0  0  0  0  0  0  0
   -3.4137   -2.8290    1.0030 H   0  0  0  0  0  0  0  0  0  0  0  0
   -2.7968   -4.4624    0.7266 H   0  0  0  0  0  0  0  0  0  0  0  0
   -1.9768   -3.3852    1.8724 H   0  0  0  0  0  0  0  0  0  0  0  0
   -2.3971   -4.1875   -2.0958 N   0  0  0  0  0  0  0  0  0  0  0  0
   -3.0528   -4.4653   -3.3523 C   0  0  0  0  0  0  0  0  0  0  0  0
   -1.9236   -4.9551   -1.6284 H   0  0  0  0  0  0  0  0  0  0  0  0
   -4.0940   -4.7665   -3.1644 H   0  0  0  0  0  0  0  0  0  0  0  0
   -3.0401   -3.5620   -3.9799 H   0  0  0  0  0  0  0  0  0  0  0  0
   -2.5236   -5.2789   -3.8699 H   0  0  0  0  0  0  0  0  0  0  0  0
 29 30  2  0  0  0  0
 27 29  1  0  0  0  0
 28 30  1  0  0  0  0
 24 27  2  0  0  0  0
 26 28  2  0  0  0  0
 22 23  2  0  0  0  0
 23 25  1  0  0  0  0
 22 24  1  0  0  0  0
 24 26  1  0  0  0  0
 21 22  1  0  0  0  0
 25 26  1  0  0  0  0
  1  3  1  0  0  0  0
  1  7  1  0  0  0  0
  1  2  2  0  0  0  0
 42 43  1  0  0  0  0
 43 51  1  0  0  0  0
 43 44  2  0  0  0  0
  8  9  1  0  0  0  0
  9 17  1  0  0  0  0
  9 10  2  0  0  0  0
 18 19  1  0  0  0  0
 19 41  1  0  0  0  0
 19 20  2  0  0  0  0
 42 45  1  0  0  0  0
  8 11  1  0  0  0  0
 51 52  1  0  0  0  0
 18 21  1  0  0  0  0
 41 42  1  0  0  0  0
  7  8  1  0  0  0  0
 17 18  1  0  0  0  0
 29 39  1  0  0  0  0
 30 40  1  0  0  0  0
 27 37  1  0  0  0  0
 28 38  1  0  0  0  0
 23 35  1  0  0  0  0
  3  4  1  0  0  0  0
  3  5  1  0  0  0  0
  3  6  1  0  0  0  0
 45 48  1  0  0  0  0
 45 49  1  0  0  0  0
 45 50  1  0  0  0  0
 11 14  1  0  0  0  0
 11 15  1  0  0  0  0
 11 16  1  0  0  0  0
 52 54  1  0  0  0  0
 52 55  1  0  0  0  0
 52 56  1  0  0  0  0
 21 33  1  0  0  0  0
 21 34  1  0  0  0  0
 42 47  1  0  0  0  0
  8 13  1  0  0  0  0
 18 32  1  0  0  0  0
 25 36  1  0  0  0  0
 51 53  1  0  0  0  0
  7 12  1  0  0  0  0
 41 46  1  0  0  0  0
 17 31  1  0  0  0  0
M  END
$$$$

  -OEChem-05262214473D

 56 57  0     1  0  0  0  0  0999 V2000
   -2.2900    0.3401    4.1553 C   0  0  0  0  0  0  0  0  0  0  0  0
   -1.3426   -0.2746    3.6796 O   0  0  0  0  0  0  0  0  0  0  0  0
   -2.7219    0.0577    5.5560 C   0  0  0  0  0  0  0  0  0  0  0  0
   -3.4815   -0.7386    5.6094 H   0  0  0  0  0  0  0  0  0  0  0  0
   -1.8906   -0.2899    6.1903 H   0  0  0  0  0  0  0  0  0  0  0  0
   -3.1599    0.9126    6.0956 H   0  0  0  0  0  0  0  0  0  0  0  0
   -3.0397    1.3125    3.5142 N   0  0  0  0  0  0  0  0  0  0  0  0
   -2.7928    1.7385    2.1618 C   0  0  2  0  0  0  0  0  0  0  0  0
   -1.4579    1.1532    1.7206 C   0  0  0  0  0  0  0  0  0  0  0  0
   -0.5858    0.8004    2.5118 O   0  0  0  0  0  0  0  0  0  0  0  0
   -2.7841    3.2553    2.0523 C   0  0  0  0  0  0  0  0  0  0  0  0
   -3.8047    1.7484    4.0260 H   0  0  0  0  0  0  0  0  0  0  0  0
   -3.5969    1.3201    1.5466 H   0  0  0  0  0  0  0  0  0  0  0  0
   -1.9850    3.6926    2.6620 H   0  0  0  0  0  0  0  0  0  0  0  0
   -2.6246    3.5776    1.0180 H   0  0  0  0  0  0  0  0  0  0  0  0
   -3.7342    3.6765    2.3981 H   0  0  0  0  0  0  0  0  0  0  0  0
   -1.3352    1.1101    0.3372 N   0  0  0  0  0  0  0  0  0  0  0  0
   -0.1579    0.6093   -0.3265 C   0  0  2  0  0  0  0  0  0  0  0  0
   -0.5030   -0.7696   -0.8776 C   0  0  0  0  0  0  0  0  0  0  0  0
    0.0436   -1.2503   -1.8681 O   0  0  0  0  0  0  0  0  0  0  0  0
    1.0456    0.5194    0.6189 C   0  0  0  0  0  0  0  0  0  0  0  0
    1.5320    1.8734    1.0748 C   0  0  0  0  0  0  0  0  0  0  0  0
    1.2020    2.4880    2.2607 C   0  0  0  0  0  0  0  0  0  0  0  0
    2.4091    2.7416    0.3664 C   0  0  0  0  0  0  0  0  0  0  0  0
    1.8437    3.6968    2.3016 N   0  0  0  0  0  0  0  0  0  0  0  0
    2.5883    3.8781    1.1579 C   0  0  0  0  0  0  0  0  0  0  0  0
    3.0698    2.6693   -0.8760 C   0  0  0  0  0  0  0  0  0  0  0  0
    3.3984    4.9503    0.7675 C   0  0  0  0  0  0  0  0  0  0  0  0
    3.8834    3.7343   -1.2796 C   0  0  0  0  0  0  0  0  0  0  0  0
    4.0437    4.8562   -0.4689 C   0  0  0  0  0  0  0  0  0  0  0  0
   -2.1183    1.4068   -0.2401 H   0  0  0  0  0  0  0  0  0  0  0  0
    0.0429    1.2899   -1.1623 H   0  0  0  0  0  0  0  0  0  0  0  0
    1.8684   -0.0255    0.1364 H   0  0  0  0  0  0  0  0  0  0  0  0
    0.7913   -0.0720    1.5084 H   0  0  0  0  0  0  0  0  0  0  0  0
    0.5675    2.1755    3.0785 H   0  0  0  0  0  0  0  0  0  0  0  0
    1.7806    4.3604    3.0612 H   0  0  0  0  0  0  0  0  0  0  0  0
    2.9544    1.8020   -1.5198 H   0  0  0  0  0  0  0  0  0  0  0  0
    3.5246    5.8236    1.3983 H   0  0  0  0  0  0  0  0  0  0  0  0
    4.3951    3.6845   -2.2369 H   0  0  0  0  0  0  0  0  0  0  0  0
    4.6804    5.6718   -0.8019 H   0  0  0  0  0  0  0  0  0  0  0  0
   -1.4560   -1.4155   -0.1023 N   0  0  0  0  0  0  0  0  0  0  0  0
   -1.9446   -2.7449   -0.3897 C   0  0  2  0  0  0  0  0  0  0  0  0
   -2.3516   -2.7895   -1.8566 C   0  0  0  0  0  0  0  0  0  0  0  0
   -2.6391   -1.7847   -2.5037 O   0  0  0  0  0  0  0  0  0  0  0  0
   -3.1144   -3.1110    0.5104 C   0  0  0  0  0  0  0  0  0  0  0  0
   -1.8287   -0.9293    0.7080 H   0  0  0  0  0  0  0  0  0  0  0  0
   -1.1086   -3.4324   -0.2210 H   0  0  0  0  0  0  0  0  0  0  0  0
   -3.9617   -2.4330    0.3555 H   0  0  0  0  0  0  0  0  0  0  0  0
   -3.4651   -4.1290    0.3110 H   0  0  0  0  0  0  0  0  0  0  0  0
   -2.8282   -3.0496    1.5659 H   0  0  0  0  0  0  0  0  0  0  0  0
   -2.3978   -4.0873   -2.3462 N   0  0  0  0  0  0  0  0  0  0  0  0
   -2.7696   -4.3942   -3.7076 C   0  0  0  0  0  0  0  0  0  0  0  0
   -2.1248   -4.8585   -1.7441 H   0  0  0  0  0  0  0  0  0  0  0  0
   -3.8508   -4.5903   -3.7577 H   0  0  0  0  0  0  0  0  0  0  0  0
   -2.5213   -3.5413   -4.3565 H   0  0  0  0  0  0  0  0  0  0  0  0
   -2.2195   -5.2847   -4.0460 H   0  0  0  0  0  0  0  0  0  0  0  0
 29 30  2  0  0  0  0
 27 29  1  0  0  0  0
 28 30  1  0  0  0  0
 24 27  2  0  0  0  0
 26 28  2  0  0  0  0
 22 23  2  0  0  0  0
 23 25  1  0  0  0  0
 22 24  1  0  0  0  0
 24 26  1  0  0  0  0
 21 22  1  0  0  0  0
 25 26  1  0  0  0  0
  1  3  1  0  0  0  0
  1  7  1  0  0  0  0
  1  2  2  0  0  0  0
 42 43  1  0  0  0  0
 43 51  1  0  0  0  0
 43 44  2  0  0  0  0
  8  9  1  0  0  0  0
  9 17  1  0  0  0  0
  9 10  2  0  0  0  0
 18 19  1  0  0  0  0
 19 41  1  0  0  0  0
 19 20  2  0  0  0  0
 42 45  1  0  0  0  0
  8 11  1  0  0  0  0
 51 52  1  0  0  0  0
 18 21  1  0  0  0  0
 41 42  1  0  0  0  0
  7  8  1  0  0  0  0
 17 18  1  0  0  0  0
 29 39  1  0  0  0  0
 30 40  1  0  0  0  0
 27 37  1  0  0  0  0
 28 38  1  0  0  0  0
 23 35  1  0  0  0  0
  3  4  1  0  0  0  0
  3  5  1  0  0  0  0
  3  6  1  0  0  0  0
 45 48  1  0  0  0  0
 45 49  1  0  0  0  0
 45 50  1  0  0  0  0
 11 14  1  0  0  0  0
 11 15  1  0  0  0  0
 11 16  1  0  0  0  0
 52 54  1  0  0  0  0
 52 55  1  0  0  0  0
 52 56  1  0  0  0  0
 21 33  1  0  0  0  0
 21 34  1  0  0  0  0
 42 47  1  0  0  0  0
  8 13  1  0  0  0  0
 18 32  1  0  0  0  0
 25 36  1  0  0  0  0
 51 53  1  0  0  0  0
  7 12  1  0  0  0  0
 41 46  1  0  0  0  0
 17 31  1  0  0  0  0
M  END
$$$$

  -OEChem-05262214473D

 56 57  0     1  0  0  0  0  0999 V2000
   -2.2900    0.3401    4.1553 C   0  0  0  0  0  0  0  0  0  0  0  0
   -1.3426   -0.2746    3.6796 O   0  0  0  0  0  0  0  0  0  0  0  0
   -2.7219    0.0577    5.5560 C   0  0  0  0  0  0  0  0  0  0  0  0
   -3.4815   -0.7386    5.6094 H   0  0  0  0  0  0  0  0  0  0  0  0
   -1.8906   -0.2899    6.1903 H   0  0  0  0  0  0  0  0  0  0  0  0
   -3.1599    0.9126    6.0956 H   0  0  0  0  0  0  0  0  0  0  0  0
   -3.0397    1.3125    3.5142 N   0  0  0  0  0  0  0  0  0  0  0  0
   -2.7928    1.7385    2.1618 C   0  0  2  0  0  0  0  0  0  0  0  0
   -1.4579    1.1532    1.7206 C   0  0  0  0  0  0  0  0  0  0  0  0
   -0.5858    0.8004    2.5118 O   0  0  0  0  0  0  0  0  0  0  0  0
   -2.7841    3.2553    2.0523 C   0  0  0  0  0  0  0  0  0  0  0  0
   -3.8047    1.7484    4.0260 H   0  0  0  0  0  0  0  0  0  0  0  0
   -3.5969    1.3201    1.5466 H   0  0  0  0  0  0  0  0  0  0  0  0
   -1.9850    3.6926    2.6620 H   0  0  0  0  0  0  0  0  0  0  0  0
   -2.6246    3.5776    1.0180 H   0  0  0  0  0  0  0  0  0  0  0  0
   -3.7342    3.6765    2.3981 H   0  0  0  0  0  0  0  0  0  0  0  0
   -1.3352    1.1101    0.3372 N   0  0  0  0  0  0  0  0  0  0  0  0
   -0.1579    0.6093   -0.3265 C   0  0  2  0  0  0  0  0  0  0  0  0
   -0.5030   -0.7696   -0.8776 C   0  0  0  0  0  0  0  0  0  0  0  0
    0.2067   -1.3637   -1.6865 O   0  0  0  0  0  0  0  0  0  0  0  0
    1.0456    0.5194    0.6189 C   0  0  0  0  0  0  0  0  0  0  0  0
    1.5320    1.8734    1.0748 C   0  0  0  0  0  0  0  0  0  0  0  0
    1.2020    2.4880    2.2607 C   0  0  0  0  0  0  0  0  0  0  0  0
    2.4091    2.7416    0.3664 C   0  0  0  0  0  0  0  0  0  0  0  0
    1.8437    3.6968    2.3016 N   0  0  0  0  0  0  0  0  0  0  0  0
    2.5883    3.8781    1.1579 C   0  0  0  0  0  0  0  0  0  0  0  0
    3.0698    2.6693   -0.8760 C   0  0  0  0  0  0  0  0  0  0  0  0
    3.3984    4.9503    0.7675 C   0  0  0  0  0  0  0  0  0  0  0  0
    3.8834    3.7343   -1.2796 C   0  0  0  0  0  0  0  0  0  0  0  0
    4.0437    4.8562   -0.4689 C   0  0  0  0  0  0  0  0  0  0  0  0
   -2.1183    1.4068   -0.2401 H   0  0  0  0  0  0  0  0  0  0  0  0
    0.0429    1.2899   -1.1623 H   0  0  0  0  0  0  0  0  0  0  0  0
    1.8684   -0.0255    0.1364 H   0  0  0  0  0  0  0  0  0  0  0  0
    0.7913   -0.0720    1.5084 H   0  0  0  0  0  0  0  0  0  0  0  0
    0.5675    2.1755    3.0785 H   0  0  0  0  0  0  0  0  0  0  0  0
    1.7806    4.3604    3.0612 H   0  0  0  0  0  0  0  0  0  0  0  0
    2.9544    1.8020   -1.5198 H   0  0  0  0  0  0  0  0  0  0  0  0
    3.5246    5.8236    1.3983 H   0  0  0  0  0  0  0  0  0  0  0  0
    4.3951    3.6845   -2.2369 H   0  0  0  0  0  0  0  0  0  0  0  0
    4.6804    5.6718   -0.8019 H   0  0  0  0  0  0  0  0  0  0  0  0
   -1.6694   -1.2749   -0.3203 N   0  0  0  0  0  0  0  0  0  0  0  0
   -2.2095   -2.5738   -0.6519 C   0  0  2  0  0  0  0  0  0  0  0  0
   -2.2685   -2.6851   -2.1696 C   0  0  0  0  0  0  0  0  0  0  0  0
   -2.2960   -1.7068   -2.9134 O   0  0  0  0  0  0  0  0  0  0  0  0
   -3.5865   -2.7736   -0.0382 C   0  0  0  0  0  0  0  0  0  0  0  0
   -2.1687   -0.7029    0.3545 H   0  0  0  0  0  0  0  0  0  0  0  0
   -1.5087   -3.3177   -0.2575 H   0  0  0  0  0  0  0  0  0  0  0  0
   -4.3024   -2.0372   -0.4214 H   0  0  0  0  0  0  0  0  0  0  0  0
   -3.9820   -3.7688   -0.2665 H   0  0  0  0  0  0  0  0  0  0  0  0
   -3.5475   -2.6637    1.0509 H   0  0  0  0  0  0  0  0  0  0  0  0
   -2.3304   -4.0050   -2.5941 N   0  0  0  0  0  0  0  0  0  0  0  0
   -2.4062   -4.3728   -3.9887 C   0  0  0  0  0  0  0  0  0  0  0  0
   -2.2831   -4.7531   -1.9086 H   0  0  0  0  0  0  0  0  0  0  0  0
   -3.4606   -4.4775   -4.2841 H   0  0  0  0  0  0  0  0  0  0  0  0
   -1.9301   -3.5920   -4.6000 H   0  0  0  0  0  0  0  0  0  0  0  0
   -1.8852   -5.3290   -4.1445 H   0  0  0  0  0  0  0  0  0  0  0  0
 29 30  2  0  0  0  0
 27 29  1  0  0  0  0
 28 30  1  0  0  0  0
 24 27  2  0  0  0  0
 26 28  2  0  0  0  0
 22 23  2  0  0  0  0
 23 25  1  0  0  0  0
 22 24  1  0  0  0  0
 24 26  1  0  0  0  0
 21 22  1  0  0  0  0
 25 26  1  0  0  0  0
  1  3  1  0  0  0  0
  1  7  1  0  0  0  0
  1  2  2  0  0  0  0
 42 43  1  0  0  0  0
 43 51  1  0  0  0  0
 43 44  2  0  0  0  0
  8  9  1  0  0  0  0
  9 17  1  0  0  0  0
  9 10  2  0  0  0  0
 18 19  1  0  0  0  0
 19 41  1  0  0  0  0
 19 20  2  0  0  0  0
 42 45  1  0  0  0  0
  8 11  1  0  0  0  0
 51 52  1  0  0  0  0
 18 21  1  0  0  0  0
 41 42  1  0  0  0  0
  7  8  1  0  0  0  0
 17 18  1  0  0  0  0
 29 39  1  0  0  0  0
 30 40  1  0  0  0  0
 27 37  1  0  0  0  0
 28 38  1  0  0  0  0
 23 35  1  0  0  0  0
  3  4  1  0  0  0  0
  3  5  1  0  0  0  0
  3  6  1  0  0  0  0
 45 48  1  0  0  0  0
 45 49  1  0  0  0  0
 45 50  1  0  0  0  0
 11 14  1  0  0  0  0
 11 15  1  0  0  0  0
 11 16  1  0  0  0  0
 52 54  1  0  0  0  0
 52 55  1  0  0  0  0
 52 56  1  0  0  0  0
 21 33  1  0  0  0  0
 21 34  1  0  0  0  0
 42 47  1  0  0  0  0
  8 13  1  0  0  0  0
 18 32  1  0  0  0  0
 25 36  1  0  0  0  0
 51 53  1  0  0  0  0
  7 12  1  0  0  0  0
 41 46  1  0  0  0  0
 17 31  1  0  0  0  0
M  END
$$$$

  -OEChem-05262214473D

 56 57  0     1  0  0  0  0  0999 V2000
   -2.2900    0.3401    4.1553 C   0  0  0  0  0  0  0  0  0  0  0  0
   -1.3426   -0.2746    3.6796 O   0  0  0  0  0  0  0  0  0  0  0  0
   -2.7219    0.0577    5.5560 C   0  0  0  0  0  0  0  0  0  0  0  0
   -3.4815   -0.7386    5.6094 H   0  0  0  0  0  0  0  0  0  0  0  0
   -1.8906   -0.2899    6.1903 H   0  0  0  0  0  0  0  0  0  0  0  0
   -3.1599    0.9126    6.0956 H   0  0  0  0  0  0  0  0  0  0  0  0
   -3.0397    1.3125    3.5142 N   0  0  0  0  0  0  0  0  0  0  0  0
   -2.7928    1.7385    2.1618 C   0  0  2  0  0  0  0  0  0  0  0  0
   -1.4579    1.1532    1.7206 C   0  0  0  0  0  0  0  0  0  0  0  0
   -0.5858    0.8004    2.5118 O   0  0  0  0  0  0  0  0  0  0  0  0
   -2.7841    3.2553    2.0523 C   0  0  0  0  0  0  0  0  0  0  0  0
   -3.8047    1.7484    4.0260 H   0  0  0  0  0  0  0  0  0  0  0  0
   -3.5969    1.3201    1.5466 H   0  0  0  0  0  0  0  0  0  0  0  0
   -1.9850    3.6926    2.6620 H   0  0  0  0  0  0  0  0  0  0  0  0
   -2.6246    3.5776    1.0180 H   0  0  0  0  0  0  0  0  0  0  0  0
   -3.7342    3.6765    2.3981 H   0  0  0  0  0  0  0  0  0  0  0  0
   -1.3352    1.1101    0.3372 N   0  0  0  0  0  0  0  0  0  0  0  0
   -0.1579    0.6093   -0.3265 C   0  0  2  0  0  0  0  0  0  0  0  0
   -0.5030   -0.7696   -0.8776 C   0  0  0  0  0  0  0  0  0  0  0  0
    0.3111   -1.4779   -1.4663 O   0  0  0  0  0  0  0  0  0  0  0  0
    1.0456    0.5194    0.6189 C   0  0  0  0  0  0  0  0  0  0  0  0
    1.5320    1.8734    1.0748 C   0  0  0  0  0  0  0  0  0  0  0  0
    1.2020    2.4880    2.2607 C   0  0  0  0  0  0  0  0  0  0  0  0
    2.4091    2.7416    0.3664 C   0  0  0  0  0  0  0  0  0  0  0  0
    1.8437    3.6968    2.3016 N   0  0  0  0  0  0  0  0  0  0  0  0
    2.5883    3.8781    1.1579 C   0  0  0  0  0  0  0  0  0  0  0  0
    3.0698    2.6693   -0.8760 C   0  0  0  0  0  0  0  0  0  0  0  0
    3.3984    4.9503    0.7675 C   0  0  0  0  0  0  0  0  0  0  0  0
    3.8834    3.7343   -1.2796 C   0  0  0  0  0  0  0  0  0  0  0  0
    4.0437    4.8562   -0.4689 C   0  0  0  0  0  0  0  0  0  0  0  0
   -2.1183    1.4068   -0.2401 H   0  0  0  0  0  0  0  0  0  0  0  0
    0.0429    1.2899   -1.1623 H   0  0  0  0  0  0  0  0  0  0  0  0
    1.8684   -0.0255    0.1364 H   0  0  0  0  0  0  0  0  0  0  0  0
    0.7913   -0.0720    1.5084 H   0  0  0  0  0  0  0  0  0  0  0  0
    0.5675    2.1755    3.0785 H   0  0  0  0  0  0  0  0  0  0  0  0
    1.7806    4.3604    3.0612 H   0  0  0  0  0  0  0  0  0  0  0  0
    2.9544    1.8020   -1.5198 H   0  0  0  0  0  0  0  0  0  0  0  0
    3.5246    5.8236    1.3983 H   0  0  0  0  0  0  0  0  0  0  0  0
    4.3951    3.6845   -2.2369 H   0  0  0  0  0  0  0  0  0  0  0  0
    4.6804    5.6718   -0.8019 H   0  0  0  0  0  0  0  0  0  0  0  0
   -1.8114   -1.1319   -0.5892 N   0  0  0  0  0  0  0  0  0  0  0  0
   -2.3879   -2.3991   -0.9772 C   0  0  2  0  0  0  0  0  0  0  0  0
   -2.1052   -2.6105   -2.4587 C   0  0  0  0  0  0  0  0  0  0  0  0
   -1.8614   -1.6877   -3.2334 O   0  0  0  0  0  0  0  0  0  0  0  0
   -3.8825   -2.4356   -0.6984 C   0  0  0  0  0  0  0  0  0  0  0  0
   -2.3931   -0.4732   -0.0797 H   0  0  0  0  0  0  0  0  0  0  0  0
   -1.8758   -3.1716   -0.3932 H   0  0  0  0  0  0  0  0  0  0  0  0
   -4.4125   -1.6686   -1.2747 H   0  0  0  0  0  0  0  0  0  0  0  0
   -4.3125   -3.4064   -0.9664 H   0  0  0  0  0  0  0  0  0  0  0  0
   -4.0856   -2.2538    0.3625 H   0  0  0  0  0  0  0  0  0  0  0  0
   -2.1996   -3.9464   -2.8226 N   0  0  0  0  0  0  0  0  0  0  0  0
   -1.9873   -4.4026   -4.1764 C   0  0  0  0  0  0  0  0  0  0  0  0
   -2.3876   -4.6462   -2.1107 H   0  0  0  0  0  0  0  0  0  0  0  0
   -2.9499   -4.4360   -4.7078 H   0  0  0  0  0  0  0  0  0  0  0  0
   -1.3067   -3.7105   -4.6939 H   0  0  0  0  0  0  0  0  0  0  0  0
   -1.5433   -5.4088   -4.1588 H   0  0  0  0  0  0  0  0  0  0  0  0
 29 30  2  0  0  0  0
 27 29  1  0  0  0  0
 28 30  1  0  0  0  0
 24 27  2  0  0  0  0
 26 28  2  0  0  0  0
 22 23  2  0  0  0  0
 23 25  1  0  0  0  0
 22 24  1  0  0  0  0
 24 26  1  0  0  0  0
 21 22  1  0  0  0  0
 25 26  1  0  0  0  0
  1  3  1  0  0  0  0
  1  7  1  0  0  0  0
  1  2  2  0  0  0  0
 42 43  1  0  0  0  0
 43 51  1  0  0  0  0
 43 44  2  0  0  0  0
  8  9  1  0  0  0  0
  9 17  1  0  0  0  0
  9 10  2  0  0  0  0
 18 19  1  0  0  0  0
 19 41  1  0  0  0  0
 19 20  2  0  0  0  0
 42 45  1  0  0  0  0
  8 11  1  0  0  0  0
 51 52  1  0  0  0  0
 18 21  1  0  0  0  0
 41 42  1  0  0  0  0
  7  8  1  0  0  0  0
 17 18  1  0  0  0  0
 29 39  1  0  0  0  0
 30 40  1  0  0  0  0
 27 37  1  0  0  0  0
 28 38  1  0  0  0  0
 23 35  1  0  0  0  0
  3  4  1  0  0  0  0
  3  5  1  0  0  0  0
  3  6  1  0  0  0  0
 45 48  1  0  0  0  0
 45 49  1  0  0  0  0
 45 50  1  0  0  0  0
 11 14  1  0  0  0  0
 11 15  1  0  0  0  0
 11 16  1  0  0  0  0
 52 54  1  0  0  0  0
 52 55  1  0  0  0  0
 52 56  1  0  0  0  0
 21 33  1  0  0  0  0
 21 34  1  0  0  0  0
 42 47  1  0  0  0  0
  8 13  1  0  0  0  0
 18 32  1  0  0  0  0
 25 36  1  0  0  0  0
 51 53  1  0  0  0  0
  7 12  1  0  0  0  0
 41 46  1  0  0  0  0
 17 31  1  0  0  0  0
M  END
$$$$

  -OEChem-05262214473D

 56 57  0     1  0  0  0  0  0999 V2000
   -2.2900    0.3401    4.1553 C   0  0  0  0  0  0  0  0  0  0  0  0
   -1.3426   -0.2746    3.6796 O   0  0  0  0  0  0  0  0  0  0  0  0
   -2.7219    0.0577    5.5560 C   0  0  0  0  0  0  0  0  0  0  0  0
   -3.4815   -0.7386    5.6094 H   0  0  0  0  0  0  0  0  0  0  0  0
   -1.8906   -0.2899    6.1903 H   0  0  0  0  0  0  0  0  0  0  0  0
   -3.1599    0.9126    6.0956 H   0  0  0  0  0  0  0  0  0  0  0  0
   -3.0397    1.3125    3.5142 N   0  0  0  0  0  0  0  0  0  0  0  0
   -2.7928    1.7385    2.1618 C   0  0  2  0  0  0  0  0  0  0  0  0
   -1.4579    1.1532    1.7206 C   0  0  0  0  0  0  0  0  0  0  0  0
   -0.5858    0.8004    2.5118 O   0  0  0  0  0  0  0  0  0  0  0  0
   -2.7841    3.2553    2.0523 C   0  0  0  0  0  0  0  0  0  0  0  0
   -3.8047    1.7484    4.0260 H   0  0  0  0  0  0  0  0  0  0  0  0
   -3.5969    1.3201    1.5466 H   0  0  0  0  0  0  0  0  0  0  0  0
   -1.9850    3.6926    2.6620 H   0  0  0  0  0  0  0  0  0  0  0  0
   -2.6246    3.5776    1.0180 H   0  0  0  0  0  0  0  0  0  0  0  0
   -3.7342    3.6765    2.3981 H   0  0  0  0  0  0  0  0  0  0  0  0
   -1.3352    1.1101    0.3372 N   0  0  0  0  0  0  0  0  0  0  0  0
   -0.1579    0.6093   -0.3265 C   0  0  2  0  0  0  0  0  0  0  0  0
   -0.5030   -0.7696   -0.8776 C   0  0  0  0  0  0  0  0  0  0  0  0
    0.3497   -1.5850   -1.2224 O   0  0  0  0  0  0  0  0  0  0  0  0
    1.0456    0.5194    0.6189 C   0  0  0  0  0  0  0  0  0  0  0  0
    1.5320    1.8734    1.0748 C   0  0  0  0  0  0  0  0  0  0  0  0
    1.2020    2.4880    2.2607 C   0  0  0  0  0  0  0  0  0  0  0  0
    2.4091    2.7416    0.3664 C   0  0  0  0  0  0  0  0  0  0  0  0
    1.8437    3.6968    2.3016 N   0  0  0  0  0  0  0  0  0  0  0  0
    2.5883    3.8781    1.1579 C   0  0  0  0  0  0  0  0  0  0  0  0
    3.0698    2.6693   -0.8760 C   0  0  0  0  0  0  0  0  0  0  0  0
    3.3984    4.9503    0.7675 C   0  0  0  0  0  0  0  0  0  0  0  0
    3.8834    3.7343   -1.2796 C   0  0  0  0  0  0  0  0  0  0  0  0
    4.0437    4.8562   -0.4689 C   0  0  0  0  0  0  0  0  0  0  0  0
   -2.1183    1.4068   -0.2401 H   0  0  0  0  0  0  0  0  0  0  0  0
    0.0429    1.2899   -1.1623 H   0  0  0  0  0  0  0  0  0  0  0  0
    1.8684   -0.0255    0.1364 H   0  0  0  0  0  0  0  0  0  0  0  0
    0.7913   -0.0720    1.5084 H   0  0  0  0  0  0  0  0  0  0  0  0
    0.5675    2.1755    3.0785 H   0  0  0  0  0  0  0  0  0  0  0  0
    1.7806    4.3604    3.0612 H   0  0  0  0  0  0  0  0  0  0  0  0
    2.9544    1.8020   -1.5198 H   0  0  0  0  0  0  0  0  0  0  0  0
    3.5246    5.8236    1.3983 H   0  0  0  0  0  0  0  0  0  0  0  0
    4.3951    3.6845   -2.2369 H   0  0  0  0  0  0  0  0  0  0  0  0
    4.6804    5.6718   -0.8019 H   0  0  0  0  0  0  0  0  0  0  0  0
   -1.8723   -0.9962   -0.8904 N   0  0  0  0  0  0  0  0  0  0  0  0
   -2.4678   -2.2327   -1.3434 C   0  0  2  0  0  0  0  0  0  0  0  0
   -1.8728   -2.5706   -2.7040 C   0  0  0  0  0  0  0  0  0  0  0  0
   -1.3649   -1.7287   -3.4418 O   0  0  0  0  0  0  0  0  0  0  0  0
   -3.9822   -2.1202   -1.4252 C   0  0  0  0  0  0  0  0  0  0  0  0
   -2.4868   -0.2557   -0.5651 H   0  0  0  0  0  0  0  0  0  0  0  0
   -2.1850   -3.0040   -0.6187 H   0  0  0  0  0  0  0  0  0  0  0  0
   -4.2847   -1.3522   -2.1464 H   0  0  0  0  0  0  0  0  0  0  0  0
   -4.4339   -3.0664   -1.7410 H   0  0  0  0  0  0  0  0  0  0  0  0
   -4.4059   -1.8479   -0.4525 H   0  0  0  0  0  0  0  0  0  0  0  0
   -2.0143   -3.9155   -3.0161 N   0  0  0  0  0  0  0  0  0  0  0  0
   -1.5416   -4.4816   -4.2579 C   0  0  0  0  0  0  0  0  0  0  0  0
   -2.4312   -4.5449   -2.3366 H   0  0  0  0  0  0  0  0  0  0  0  0
   -2.3535   -4.4685   -5.0000 H   0  0  0  0  0  0  0  0  0  0  0  0
   -0.6937   -3.8888   -4.6317 H   0  0  0  0  0  0  0  0  0  0  0  0
   -1.2171   -5.5188   -4.0879 H   0  0  0  0  0  0  0  0  0  0  0  0
 29 30  2  0  0  0  0
 27 29  1  0  0  0  0
 28 30  1  0  0  0  0
 24 27  2  0  0  0  0
 26 28  2  0  0  0  0
 22 23  2  0  0  0  0
 23 25  1  0  0  0  0
 22 24  1  0  0  0  0
 24 26  1  0  0  0  0
 21 22  1  0  0  0  0
 25 26  1  0  0  0  0
  1  3  1  0  0  0  0
  1  7  1  0  0  0  0
  1  2  2  0  0  0  0
 42 43  1  0  0  0  0
 43 51  1  0  0  0  0
 43 44  2  0  0  0  0
  8  9  1  0  0  0  0
  9 17  1  0  0  0  0
  9 10  2  0  0  0  0
 18 19  1  0  0  0  0
 19 41  1  0  0  0  0
 19 20  2  0  0  0  0
 42 45  1  0  0  0  0
  8 11  1  0  0  0  0
 51 52  1  0  0  0  0
 18 21  1  0  0  0  0
 41 42  1  0  0  0  0
  7  8  1  0  0  0  0
 17 18  1  0  0  0  0
 29 39  1  0  0  0  0
 30 40  1  0  0  0  0
 27 37  1  0  0  0  0
 28 38  1  0  0  0  0
 23 35  1  0  0  0  0
  3  4  1  0  0  0  0
  3  5  1  0  0  0  0
  3  6  1  0  0  0  0
 45 48  1  0  0  0  0
 45 49  1  0  0  0  0
 45 50  1  0  0  0  0
 11 14  1  0  0  0  0
 11 15  1  0  0  0  0
 11 16  1  0  0  0  0
 52 54  1  0  0  0  0
 52 55  1  0  0  0  0
 52 56  1  0  0  0  0
 21 33  1  0  0  0  0
 21 34  1  0  0  0  0
 42 47  1  0  0  0  0
  8 13  1  0  0  0  0
 18 32  1  0  0  0  0
 25 36  1  0  0  0  0
 51 53  1  0  0  0  0
  7 12  1  0  0  0  0
 41 46  1  0  0  0  0
 17 31  1  0  0  0  0
M  END
$$$$

  -OEChem-05262214473D

 56 57  0     1  0  0  0  0  0999 V2000
   -2.2900    0.3401    4.1553 C   0  0  0  0  0  0  0  0  0  0  0  0
   -1.3426   -0.2746    3.6796 O   0  0  0  0  0  0  0  0  0  0  0  0
   -2.7219    0.0577    5.5560 C   0  0  0  0  0  0  0  0  0  0  0  0
   -3.4815   -0.7386    5.6094 H   0  0  0  0  0  0  0  0  0  0  0  0
   -1.8906   -0.2899    6.1903 H   0  0  0  0  0  0  0  0  0  0  0  0
   -3.1599    0.9126    6.0956 H   0  0  0  0  0  0  0  0  0  0  0  0
   -3.0397    1.3125    3.5142 N   0  0  0  0  0  0  0  0  0  0  0  0
   -2.7928    1.7385    2.1618 C   0  0  2  0  0  0  0  0  0  0  0  0
   -1.4579    1.1532    1.7206 C   0  0  0  0  0  0  0  0  0  0  0  0
   -0.5858    0.8004    2.5118 O   0  0  0  0  0  0  0  0  0  0  0  0
   -2.7841    3.2553    2.0523 C   0  0  0  0  0  0  0  0  0  0  0  0
   -3.8047    1.7484    4.0260 H   0  0  0  0  0  0  0  0  0  0  0  0
   -3.5969    1.3201    1.5466 H   0  0  0  0  0  0  0  0  0  0  0  0
   -1.9850    3.6926    2.6620 H   0  0  0  0  0  0  0  0  0  0  0  0
   -2.6246    3.5776    1.0180 H   0  0  0  0  0  0  0  0  0  0  0  0
   -3.7342    3.6765    2.3981 H   0  0  0  0  0  0  0  0  0  0  0  0
   -1.3352    1.1101    0.3372 N   0  0  0  0  0  0  0  0  0  0  0  0
   -0.1579    0.6093   -0.3265 C   0  0  2  0  0  0  0  0  0  0  0  0
   -0.5030   -0.7696   -0.8776 C   0  0  0  0  0  0  0  0  0  0  0  0
    0.3199   -1.6778   -0.9715 O   0  0  0  0  0  0  0  0  0  0  0  0
    1.0456    0.5194    0.6189 C   0  0  0  0  0  0  0  0  0  0  0  0
    1.5320    1.8734    1.0748 C   0  0  0  0  0  0  0  0  0  0  0  0
    1.2020    2.4880    2.2607 C   0  0  0  0  0  0  0  0  0  0  0  0
    2.4091    2.7416    0.3664 C   0  0  0  0  0  0  0  0  0  0  0  0
    1.8437    3.6968    2.3016 N   0  0  0  0  0  0  0  0  0  0  0  0
    2.5883    3.8781    1.1579 C   0  0  0  0  0  0  0  0  0  0  0  0
    3.0698    2.6693   -0.8760 C   0  0  0  0  0  0  0  0  0  0  0  0
    3.3984    4.9503    0.7675 C   0  0  0  0  0  0  0  0  0  0  0  0
    3.8834    3.7343   -1.2796 C   0  0  0  0  0  0  0  0  0  0  0  0
    4.0437    4.8562   -0.4689 C   0  0  0  0  0  0  0  0  0  0  0  0
   -2.1183    1.4068   -0.2401 H   0  0  0  0  0  0  0  0  0  0  0  0
    0.0429    1.2899   -1.1623 H   0  0  0  0  0  0  0  0  0  0  0  0
    1.8684   -0.0255    0.1364 H   0  0  0  0  0  0  0  0  0  0  0  0
    0.7913   -0.0720    1.5084 H   0  0  0  0  0  0  0  0  0  0  0  0
    0.5675    2.1755    3.0785 H   0  0  0  0  0  0  0  0  0  0  0  0
    1.7806    4.3604    3.0612 H   0  0  0  0  0  0  0  0  0  0  0  0
    2.9544    1.8020   -1.5198 H   0  0  0  0  0  0  0  0  0  0  0  0
    3.5246    5.8236    1.3983 H   0  0  0  0  0  0  0  0  0  0  0  0
    4.3951    3.6845   -2.2369 H   0  0  0  0  0  0  0  0  0  0  0  0
    4.6804    5.6718   -0.8019 H   0  0  0  0  0  0  0  0  0  0  0  0
   -1.8479   -0.8771   -1.2037 N   0  0  0  0  0  0  0  0  0  0  0  0
   -2.4437   -2.0860   -1.7256 C   0  0  2  0  0  0  0  0  0  0  0  0
   -1.5871   -2.5682   -2.8889 C   0  0  0  0  0  0  0  0  0  0  0  0
   -0.8404   -1.8269   -3.5245 O   0  0  0  0  0  0  0  0  0  0  0  0
   -3.8789   -1.8487   -2.1690 C   0  0  0  0  0  0  0  0  0  0  0  0
   -2.4433   -0.0653   -1.0687 H   0  0  0  0  0  0  0  0  0  0  0  0
   -2.4151   -2.8265   -0.9188 H   0  0  0  0  0  0  0  0  0  0  0  0
   -3.9275   -1.1096   -2.9770 H   0  0  0  0  0  0  0  0  0  0  0  0
   -4.3380   -2.7719   -2.5376 H   0  0  0  0  0  0  0  0  0  0  0  0
   -4.4865   -1.4736   -1.3384 H   0  0  0  0  0  0  0  0  0  0  0  0
   -1.7871   -3.9142   -3.1615 N   0  0  0  0  0  0  0  0  0  0  0  0
   -1.0994   -4.6044   -4.2277 C   0  0  0  0  0  0  0  0  0  0  0  0
   -2.4110   -4.4563   -2.5710 H   0  0  0  0  0  0  0  0  0  0  0  0
   -1.7120   -4.5728   -5.1407 H   0  0  0  0  0  0  0  0  0  0  0  0
   -0.1329   -4.1147   -4.4177 H   0  0  0  0  0  0  0  0  0  0  0  0
   -0.9290   -5.6514   -3.9366 H   0  0  0  0  0  0  0  0  0  0  0  0
 29 30  2  0  0  0  0
 27 29  1  0  0  0  0
 28 30  1  0  0  0  0
 24 27  2  0  0  0  0
 26 28  2  0  0  0  0
 22 23  2  0  0  0  0
 23 25  1  0  0  0  0
 22 24  1  0  0  0  0
 24 26  1  0  0  0  0
 21 22  1  0  0  0  0
 25 26  1  0  0  0  0
  1  3  1  0  0  0  0
  1  7  1  0  0  0  0
  1  2  2  0  0  0  0
 42 43  1  0  0  0  0
 43 51  1  0  0  0  0
 43 44  2  0  0  0  0
  8  9  1  0  0  0  0
  9 17  1  0  0  0  0
  9 10  2  0  0  0  0
 18 19  1  0  0  0  0
 19 41  1  0  0  0  0
 19 20  2  0  0  0  0
 42 45  1  0  0  0  0
  8 11  1  0  0  0  0
 51 52  1  0  0  0  0
 18 21  1  0  0  0  0
 41 42  1  0  0  0  0
  7  8  1  0  0  0  0
 17 18  1  0  0  0  0
 29 39  1  0  0  0  0
 30 40  1  0  0  0  0
 27 37  1  0  0  0  0
 28 38  1  0  0  0  0
 23 35  1  0  0  0  0
  3  4  1  0  0  0  0
  3  5  1  0  0  0  0
  3  6  1  0  0  0  0
 45 48  1  0  0  0  0
 45 49  1  0  0  0  0
 45 50  1  0  0  0  0
 11 14  1  0  0  0  0
 11 15  1  0  0  0  0
 11 16  1  0  0  0  0
 52 54  1  0  0  0  0
 52 55  1  0  0  0  0
 52 56  1  0  0  0  0
 21 33  1  0  0  0  0
 21 34  1  0  0  0  0
 42 47  1  0  0  0  0
  8 13  1  0  0  0  0
 18 32  1  0  0  0  0
 25 36  1  0  0  0  0
 51 53  1  0  0  0  0
  7 12  1  0  0  0  0
 41 46  1  0  0  0  0
 17 31  1  0  0  0  0
M  END
$$$$

  -OEChem-05262214473D

 56 57  0     1  0  0  0  0  0999 V2000
   -2.2900    0.3401    4.1553 C   0  0  0  0  0  0  0  0  0  0  0  0
   -1.3426   -0.2746    3.6796 O   0  0  0  0  0  0  0  0  0  0  0  0
   -2.7219    0.0577    5.5560 C   0  0  0  0  0  0  0  0  0  0  0  0
   -3.4815   -0.7386    5.6094 H   0  0  0  0  0  0  0  0  0  0  0  0
   -1.8906   -0.2899    6.1903 H   0  0  0  0  0  0  0  0  0  0  0  0
   -3.1599    0.9126    6.0956 H   0  0  0  0  0  0  0  0  0  0  0  0
   -3.0397    1.3125    3.5142 N   0  0  0  0  0  0  0  0  0  0  0  0
   -2.7928    1.7385    2.1618 C   0  0  2  0  0  0  0  0  0  0  0  0
   -1.4579    1.1532    1.7206 C   0  0  0  0  0  0  0  0  0  0  0  0
   -0.5858    0.8004    2.5118 O   0  0  0  0  0  0  0  0  0  0  0  0
   -2.7841    3.2553    2.0523 C   0  0  0  0  0  0  0  0  0  0  0  0
   -3.8047    1.7484    4.0260 H   0  0  0  0  0  0  0  0  0  0  0  0
   -3.5969    1.3201    1.5466 H   0  0  0  0  0  0  0  0  0  0  0  0
   -1.9850    3.6926    2.6620 H   0  0  0  0  0  0  0  0  0  0  0  0
   -2.6246    3.5776    1.0180 H   0  0  0  0  0  0  0  0  0  0  0  0
   -3.7342    3.6765    2.3981 H   0  0  0  0  0  0  0  0  0  0  0  0
   -1.3352    1.1101    0.3372 N   0  0  0  0  0  0  0  0  0  0  0  0
   -0.1579    0.6093   -0.3265 C   0  0  2  0  0  0  0  0  0  0  0  0
   -0.5030   -0.7696   -0.8776 C   0  0  0  0  0  0  0  0  0  0  0  0
    0.2237   -1.7500   -0.7307 O   0  0  0  0  0  0  0  0  0  0  0  0
    1.0456    0.5194    0.6189 C   0  0  0  0  0  0  0  0  0  0  0  0
    1.5320    1.8734    1.0748 C   0  0  0  0  0  0  0  0  0  0  0  0
    1.2020    2.4880    2.2607 C   0  0  0  0  0  0  0  0  0  0  0  0
    2.4091    2.7416    0.3664 C   0  0  0  0  0  0  0  0  0  0  0  0
    1.8437    3.6968    2.3016 N   0  0  0  0  0  0  0  0  0  0  0  0
    2.5883    3.8781    1.1579 C   0  0  0  0  0  0  0  0  0  0  0  0
    3.0698    2.6693   -0.8760 C   0  0  0  0  0  0  0  0  0  0  0  0
    3.3984    4.9503    0.7675 C   0  0  0  0  0  0  0  0  0  0  0  0
    3.8834    3.7343   -1.2796 C   0  0  0  0  0  0  0  0  0  0  0  0
    4.0437    4.8562   -0.4689 C   0  0  0  0  0  0  0  0  0  0  0  0
   -2.1183    1.4068   -0.2401 H   0  0  0  0  0  0  0  0  0  0  0  0
    0.0429    1.2899   -1.1623 H   0  0  0  0  0  0  0  0  0  0  0  0
    1.8684   -0.0255    0.1364 H   0  0  0  0  0  0  0  0  0  0  0  0
    0.7913   -0.0720    1.5084 H   0  0  0  0  0  0  0  0  0  0  0  0
    0.5675    2.1755    3.0785 H   0  0  0  0  0  0  0  0  0  0  0  0
    1.7806    4.3604    3.0612 H   0  0  0  0  0  0  0  0  0  0  0  0
    2.9544    1.8020   -1.5198 H   0  0  0  0  0  0  0  0  0  0  0  0
    3.5246    5.8236    1.3983 H   0  0  0  0  0  0  0  0  0  0  0  0
    4.3951    3.6845   -2.2369 H   0  0  0  0  0  0  0  0  0  0  0  0
    4.6804    5.6718   -0.8019 H   0  0  0  0  0  0  0  0  0  0  0  0
   -1.7398   -0.7827   -1.5075 N   0  0  0  0  0  0  0  0  0  0  0  0
   -2.3172   -1.9689   -2.0977 C   0  0  2  0  0  0  0  0  0  0  0  0
   -1.2677   -2.6034   -3.0008 C   0  0  0  0  0  0  0  0  0  0  0  0
   -0.3235   -1.9757   -3.4758 O   0  0  0  0  0  0  0  0  0  0  0  0
   -3.5795   -1.6398   -2.8793 C   0  0  0  0  0  0  0  0  0  0  0  0
   -2.2656    0.0850   -1.5560 H   0  0  0  0  0  0  0  0  0  0  0  0
   -2.5506   -2.6510   -1.2729 H   0  0  0  0  0  0  0  0  0  0  0  0
   -3.3654   -0.9573   -3.7099 H   0  0  0  0  0  0  0  0  0  0  0  0
   -4.0314   -2.5432   -3.3019 H   0  0  0  0  0  0  0  0  0  0  0  0
   -4.3219   -1.1565   -2.2350 H   0  0  0  0  0  0  0  0  0  0  0  0
   -1.5335   -3.9428   -3.2488 N   0  0  0  0  0  0  0  0  0  0  0  0
   -0.6908   -4.7625   -4.0877 C   0  0  0  0  0  0  0  0  0  0  0  0
   -2.3283   -4.3863   -2.7979 H   0  0  0  0  0  0  0  0  0  0  0  0
   -1.0693   -4.7418   -5.1204 H   0  0  0  0  0  0  0  0  0  0  0  0
    0.3377   -4.3729   -4.0664 H   0  0  0  0  0  0  0  0  0  0  0  0
   -0.6986   -5.7975   -3.7153 H   0  0  0  0  0  0  0  0  0  0  0  0
 29 30  2  0  0  0  0
 27 29  1  0  0  0  0
 28 30  1  0  0  0  0
 24 27  2  0  0  0  0
 26 28  2  0  0  0  0
 22 23  2  0  0  0  0
 23 25  1  0  0  0  0
 22 24  1  0  0  0  0
 24 26  1  0  0  0  0
 21 22  1  0  0  0  0
 25 26  1  0  0  0  0
  1  3  1  0  0  0  0
  1  7  1  0  0  0  0
  1  2  2  0  0  0  0
 42 43  1  0  0  0  0
 43 51  1  0  0  0  0
 43 44  2  0  0  0  0
  8  9  1  0  0  0  0
  9 17  1  0  0  0  0
  9 10  2  0  0  0  0
 18 19  1  0  0  0  0
 19 41  1  0  0  0  0
 19 20  2  0  0  0  0
 42 45  1  0  0  0  0
  8 11  1  0  0  0  0
 51 52  1  0  0  0  0
 18 21  1  0  0  0  0
 41 42  1  0  0  0  0
  7  8  1  0  0  0  0
 17 18  1  0  0  0  0
 29 39  1  0  0  0  0
 30 40  1  0  0  0  0
 27 37  1  0  0  0  0
 28 38  1  0  0  0  0
 23 35  1  0  0  0  0
  3  4  1  0  0  0  0
  3  5  1  0  0  0  0
  3  6  1  0  0  0  0
 45 48  1  0  0  0  0
 45 49  1  0  0  0  0
 45 50  1  0  0  0  0
 11 14  1  0  0  0  0
 11 15  1  0  0  0  0
 11 16  1  0  0  0  0
 52 54  1  0  0  0  0
 52 55  1  0  0  0  0
 52 56  1  0  0  0  0
 21 33  1  0  0  0  0
 21 34  1  0  0  0  0
 42 47  1  0  0  0  0
  8 13  1  0  0  0  0
 18 32  1  0  0  0  0
 25 36  1  0  0  0  0
 51 53  1  0  0  0  0
  7 12  1  0  0  0  0
 41 46  1  0  0  0  0
 17 31  1  0  0  0  0
M  END
$$$$

  -OEChem-05262214473D

 56 57  0     1  0  0  0  0  0999 V2000
   -2.2900    0.3401    4.1553 C   0  0  0  0  0  0  0  0  0  0  0  0
   -1.3426   -0.2746    3.6796 O   0  0  0  0  0  0  0  0  0  0  0  0
   -2.7219    0.0577    5.5560 C   0  0  0  0  0  0  0  0  0  0  0  0
   -3.4815   -0.7386    5.6094 H   0  0  0  0  0  0  0  0  0  0  0  0
   -1.8906   -0.2899    6.1903 H   0  0  0  0  0  0  0  0  0  0  0  0
   -3.1599    0.9126    6.0956 H   0  0  0  0  0  0  0  0  0  0  0  0
   -3.0397    1.3125    3.5142 N   0  0  0  0  0  0  0  0  0  0  0  0
   -2.7928    1.7385    2.1618 C   0  0  2  0  0  0  0  0  0  0  0  0
   -1.4579    1.1532    1.7206 C   0  0  0  0  0  0  0  0  0  0  0  0
   -0.5858    0.8004    2.5118 O   0  0  0  0  0  0  0  0  0  0  0  0
   -2.7841    3.2553    2.0523 C   0  0  0  0  0  0  0  0  0  0  0  0
   -3.8047    1.7484    4.0260 H   0  0  0  0  0  0  0  0  0  0  0  0
   -3.5969    1.3201    1.5466 H   0  0  0  0  0  0  0  0  0  0  0  0
   -1.9850    3.6926    2.6620 H   0  0  0  0  0  0  0  0  0  0  0  0
   -2.6246    3.5776    1.0180 H   0  0  0  0  0  0  0  0  0  0  0  0
   -3.7342    3.6765    2.3981 H   0  0  0  0  0  0  0  0  0  0  0  0
   -1.3352    1.1101    0.3372 N   0  0  0  0  0  0  0  0  0  0  0  0
   -0.1579    0.6093   -0.3265 C   0  0  2  0  0  0  0  0  0  0  0  0
   -0.5030   -0.7696   -0.8776 C   0  0  0  0  0  0  0  0  0  0  0  0
    0.0676   -1.7966   -0.5164 O   0  0  0  0  0  0  0  0  0  0  0  0
    1.0456    0.5194    0.6189 C   0  0  0  0  0  0  0  0  0  0  0  0
    1.5320    1.8734    1.0748 C   0  0  0  0  0  0  0  0  0  0  0  0
    1.2020    2.4880    2.2607 C   0  0  0  0  0  0  0  0  0  0  0  0
    2.4091    2.7416    0.3664 C   0  0  0  0  0  0  0  0  0  0  0  0
    1.8437    3.6968    2.3016 N   0  0  0  0  0  0  0  0  0  0  0  0
    2.5883    3.8781    1.1579 C   0  0  0  0  0  0  0  0  0  0  0  0
    3.0698    2.6693   -0.8760 C   0  0  0  0  0  0  0  0  0  0  0  0
    3.3984    4.9503    0.7675 C   0  0  0  0  0  0  0  0  0  0  0  0
    3.8834    3.7343   -1.2796 C   0  0  0  0  0  0  0  0  0  0  0  0
    4.0437    4.8562   -0.4689 C   0  0  0  0  0  0  0  0  0  0  0  0
   -2.1183    1.4068   -0.2401 H   0  0  0  0  0  0  0  0  0  0  0  0
    0.0429    1.2899   -1.1623 H   0  0  0  0  0  0  0  0  0  0  0  0
    1.8684   -0.0255    0.1364 H   0  0  0  0  0  0  0  0  0  0  0  0
    0.7913   -0.0720    1.5084 H   0  0  0  0  0  0  0  0  0  0  0  0
    0.5675    2.1755    3.0785 H   0  0  0  0  0  0  0  0  0  0  0  0
    1.7806    4.3604    3.0612 H   0  0  0  0  0  0  0  0  0  0  0  0
    2.9544    1.8020   -1.5198 H   0  0  0  0  0  0  0  0  0  0  0  0
    3.5246    5.8236    1.3983 H   0  0  0  0  0  0  0  0  0  0  0  0
    4.3951    3.6845   -2.2369 H   0  0  0  0  0  0  0  0  0  0  0  0
    4.6804    5.6718   -0.8019 H   0  0  0  0  0  0  0  0  0  0  0  0
   -1.5554   -0.7195   -1.7812 N   0  0  0  0  0  0  0  0  0  0  0  0
   -2.0969   -1.8895   -2.4344 C   0  0  2  0  0  0  0  0  0  0  0  0
   -0.9363   -2.6739   -3.0320 C   0  0  0  0  0  0  0  0  0  0  0  0
    0.1504   -2.1650   -3.2991 O   0  0  0  0  0  0  0  0  0  0  0  0
   -3.1046   -1.5076   -3.5074 C   0  0  0  0  0  0  0  0  0  0  0  0
   -1.9657    0.1850   -1.9940 H   0  0  0  0  0  0  0  0  0  0  0  0
   -2.5822   -2.4896   -1.6570 H   0  0  0  0  0  0  0  0  0  0  0  0
   -2.6366   -0.9058   -4.2951 H   0  0  0  0  0  0  0  0  0  0  0  0
   -3.5350   -2.3957   -3.9817 H   0  0  0  0  0  0  0  0  0  0  0  0
   -3.9234   -0.9180   -3.0810 H   0  0  0  0  0  0  0  0  0  0  0  0
   -1.2708   -3.9992   -3.2721 N   0  0  0  0  0  0  0  0  0  0  0  0
   -0.3437   -4.9454   -3.8477 C   0  0  0  0  0  0  0  0  0  0  0  0
   -2.1888   -4.3397   -3.0018 H   0  0  0  0  0  0  0  0  0  0  0  0
   -0.4690   -4.9640   -4.9404 H   0  0  0  0  0  0  0  0  0  0  0  0
    0.6858   -4.6457   -3.6018 H   0  0  0  0  0  0  0  0  0  0  0  0
   -0.5414   -5.9473   -3.4389 H   0  0  0  0  0  0  0  0  0  0  0  0
 29 30  2  0  0  0  0
 27 29  1  0  0  0  0
 28 30  1  0  0  0  0
 24 27  2  0  0  0  0
 26 28  2  0  0  0  0
 22 23  2  0  0  0  0
 23 25  1  0  0  0  0
 22 24  1  0  0  0  0
 24 26  1  0  0  0  0
 21 22  1  0  0  0  0
 25 26  1  0  0  0  0
  1  3  1  0  0  0  0
  1  7  1  0  0  0  0
  1  2  2  0  0  0  0
 42 43  1  0  0  0  0
 43 51  1  0  0  0  0
 43 44  2  0  0  0  0
  8  9  1  0  0  0  0
  9 17  1  0  0  0  0
  9 10  2  0  0  0  0
 18 19  1  0  0  0  0
 19 41  1  0  0  0  0
 19 20  2  0  0  0  0
 42 45  1  0  0  0  0
  8 11  1  0  0  0  0
 51 52  1  0  0  0  0
 18 21  1  0  0  0  0
 41 42  1  0  0  0  0
  7  8  1  0  0  0  0
 17 18  1  0  0  0  0
 29 39  1  0  0  0  0
 30 40  1  0  0  0  0
 27 37  1  0  0  0  0
 28 38  1  0  0  0  0
 23 35  1  0  0  0  0
  3  4  1  0  0  0  0
  3  5  1  0  0  0  0
  3  6  1  0  0  0  0
 45 48  1  0  0  0  0
 45 49  1  0  0  0  0
 45 50  1  0  0  0  0
 11 14  1  0  0  0  0
 11 15  1  0  0  0  0
 11 16  1  0  0  0  0
 52 54  1  0  0  0  0
 52 55  1  0  0  0  0
 52 56  1  0  0  0  0
 21 33  1  0  0  0  0
 21 34  1  0  0  0  0
 42 47  1  0  0  0  0
  8 13  1  0  0  0  0
 18 32  1  0  0  0  0
 25 36  1  0  0  0  0
 51 53  1  0  0  0  0
  7 12  1  0  0  0  0
 41 46  1  0  0  0  0
 17 31  1  0  0  0  0
M  END
$$$$

  -OEChem-05262214473D

 56 57  0     1  0  0  0  0  0999 V2000
   -2.2900    0.3401    4.1553 C   0  0  0  0  0  0  0  0  0  0  0  0
   -1.3426   -0.2746    3.6796 O   0  0  0  0  0  0  0  0  0  0  0  0
   -2.7219    0.0577    5.5560 C   0  0  0  0  0  0  0  0  0  0  0  0
   -3.4815   -0.7386    5.6094 H   0  0  0  0  0  0  0  0  0  0  0  0
   -1.8906   -0.2899    6.1903 H   0  0  0  0  0  0  0  0  0  0  0  0
   -3.1599    0.9126    6.0956 H   0  0  0  0  0  0  0  0  0  0  0  0
   -3.0397    1.3125    3.5142 N   0  0  0  0  0  0  0  0  0  0  0  0
   -2.7928    1.7385    2.1618 C   0  0  2  0  0  0  0  0  0  0  0  0
   -1.4579    1.1532    1.7206 C   0  0  0  0  0  0  0  0  0  0  0  0
   -0.5858    0.8004    2.5118 O   0  0  0  0  0  0  0  0  0  0  0  0
   -2.7841    3.2553    2.0523 C   0  0  0  0  0  0  0  0  0  0  0  0
   -3.8047    1.7484    4.0260 H   0  0  0  0  0  0  0  0  0  0  0  0
   -3.5969    1.3201    1.5466 H   0  0  0  0  0  0  0  0  0  0  0  0
   -1.9850    3.6926    2.6620 H   0  0  0  0  0  0  0  0  0  0  0  0
   -2.6246    3.5776    1.0180 H   0  0  0  0  0  0  0  0  0  0  0  0
   -3.7342    3.6765    2.3981 H   0  0  0  0  0  0  0  0  0  0  0  0
   -1.3352    1.1101    0.3372 N   0  0  0  0  0  0  0  0  0  0  0  0
   -0.1579    0.6093   -0.3265 C   0  0  2  0  0  0  0  0  0  0  0  0
   -0.5030   -0.7696   -0.8776 C   0  0  0  0  0  0  0  0  0  0  0  0
   -0.1377   -1.8145   -0.3432 O   0  0  0  0  0  0  0  0  0  0  0  0
    1.0456    0.5194    0.6189 C   0  0  0  0  0  0  0  0  0  0  0  0
    1.5320    1.8734    1.0748 C   0  0  0  0  0  0  0  0  0  0  0  0
    1.2020    2.4880    2.2607 C   0  0  0  0  0  0  0  0  0  0  0  0
    2.4091    2.7416    0.3664 C   0  0  0  0  0  0  0  0  0  0  0  0
    1.8437    3.6968    2.3016 N   0  0  0  0  0  0  0  0  0  0  0  0
    2.5883    3.8781    1.1579 C   0  0  0  0  0  0  0  0  0  0  0  0
    3.0698    2.6693   -0.8760 C   0  0  0  0  0  0  0  0  0  0  0  0
    3.3984    4.9503    0.7675 C   0  0  0  0  0  0  0  0  0  0  0  0
    3.8834    3.7343   -1.2796 C   0  0  0  0  0  0  0  0  0  0  0  0
    4.0437    4.8562   -0.4689 C   0  0  0  0  0  0  0  0  0  0  0  0
   -2.1183    1.4068   -0.2401 H   0  0  0  0  0  0  0  0  0  0  0  0
    0.0429    1.2899   -1.1623 H   0  0  0  0  0  0  0  0  0  0  0  0
    1.8684   -0.0255    0.1364 H   0  0  0  0  0  0  0  0  0  0  0  0
    0.7913   -0.0720    1.5084 H   0  0  0  0  0  0  0  0  0  0  0  0
    0.5675    2.1755    3.0785 H   0  0  0  0  0  0  0  0  0  0  0  0
    1.7806    4.3604    3.0612 H   0  0  0  0  0  0  0  0  0  0  0  0
    2.9544    1.8020   -1.5198 H   0  0  0  0  0  0  0  0  0  0  0  0
    3.5246    5.8236    1.3983 H   0  0  0  0  0  0  0  0  0  0  0  0
    4.3951    3.6845   -2.2369 H   0  0  0  0  0  0  0  0  0  0  0  0
    4.6804    5.6718   -0.8019 H   0  0  0  0  0  0  0  0  0  0  0  0
   -1.3074   -0.6917   -2.0061 N   0  0  0  0  0  0  0  0  0  0  0  0
   -1.7979   -1.8531   -2.7127 C   0  0  2  0  0  0  0  0  0  0  0  0
   -0.6154   -2.7748   -2.9805 C   0  0  0  0  0  0  0  0  0  0  0  0
    0.5490   -2.3817   -3.0064 O   0  0  0  0  0  0  0  0  0  0  0  0
   -2.4864   -1.4611   -4.0108 C   0  0  0  0  0  0  0  0  0  0  0  0
   -1.5642    0.2279   -2.3527 H   0  0  0  0  0  0  0  0  0  0  0  0
   -2.5076   -2.3533   -2.0448 H   0  0  0  0  0  0  0  0  0  0  0  0
   -1.7909   -0.9585   -4.6928 H   0  0  0  0  0  0  0  0  0  0  0  0
   -2.8824   -2.3396   -4.5308 H   0  0  0  0  0  0  0  0  0  0  0  0
   -3.3181   -0.7746   -3.8189 H   0  0  0  0  0  0  0  0  0  0  0  0
   -1.0168   -4.0797   -3.2298 N   0  0  0  0  0  0  0  0  0  0  0  0
   -0.0817   -5.1404   -3.5238 C   0  0  0  0  0  0  0  0  0  0  0  0
   -2.0019   -4.3198   -3.1688 H   0  0  0  0  0  0  0  0  0  0  0  0
    0.0479   -5.2242   -4.6129 H   0  0  0  0  0  0  0  0  0  0  0  0
    0.8877   -4.9146   -3.0556 H   0  0  0  0  0  0  0  0  0  0  0  0
   -0.4683   -6.0905   -3.1265 H   0  0  0  0  0  0  0  0  0  0  0  0
 29 30  2  0  0  0  0
 27 29  1  0  0  0  0
 28 30  1  0  0  0  0
 24 27  2  0  0  0  0
 26 28  2  0  0  0  0
 22 23  2  0  0  0  0
 23 25  1  0  0  0  0
 22 24  1  0  0  0  0
 24 26  1  0  0  0  0
 21 22  1  0  0  0  0
 25 26  1  0  0  0  0
  1  3  1  0  0  0  0
  1  7  1  0  0  0  0
  1  2  2  0  0  0  0
 42 43  1  0  0  0  0
 43 51  1  0  0  0  0
 43 44  2  0  0  0  0
  8  9  1  0  0  0  0
  9 17  1  0  0  0  0
  9 10  2  0  0  0  0
 18 19  1  0  0  0  0
 19 41  1  0  0  0  0
 19 20  2  0  0  0  0
 42 45  1  0  0  0  0
  8 11  1  0  0  0  0
 51 52  1  0  0  0  0
 18 21  1  0  0  0  0
 41 42  1  0  0  0  0
  7  8  1  0  0  0  0
 17 18  1  0  0  0  0
 29 39  1  0  0  0  0
 30 40  1  0  0  0  0
 27 37  1  0  0  0  0
 28 38  1  0  0  0  0
 23 35  1  0  0  0  0
  3  4  1  0  0  0  0
  3  5  1  0  0  0  0
  3  6  1  0  0  0  0
 45 48  1  0  0  0  0
 45 49  1  0  0  0  0
 45 50  1  0  0  0  0
 11 14  1  0  0  0  0
 11 15  1  0  0  0  0
 11 16  1  0  0  0  0
 52 54  1  0  0  0  0
 52 55  1  0  0  0  0
 52 56  1  0  0  0  0
 21 33  1  0  0  0  0
 21 34  1  0  0  0  0
 42 47  1  0  0  0  0
  8 13  1  0  0  0  0
 18 32  1  0  0  0  0
 25 36  1  0  0  0  0
 51 53  1  0  0  0  0
  7 12  1  0  0  0  0
 41 46  1  0  0  0  0
 17 31  1  0  0  0  0
M  END
$$$$

  -OEChem-05262214473D

 56 57  0     1  0  0  0  0  0999 V2000
   -2.2900    0.3401    4.1553 C   0  0  0  0  0  0  0  0  0  0  0  0
   -1.3426   -0.2746    3.6796 O   0  0  0  0  0  0  0  0  0  0  0  0
   -2.7219    0.0577    5.5560 C   0  0  0  0  0  0  0  0  0  0  0  0
   -3.4815   -0.7386    5.6094 H   0  0  0  0  0  0  0  0  0  0  0  0
   -1.8906   -0.2899    6.1903 H   0  0  0  0  0  0  0  0  0  0  0  0
   -3.1599    0.9126    6.0956 H   0  0  0  0  0  0  0  0  0  0  0  0
   -3.0397    1.3125    3.5142 N   0  0  0  0  0  0  0  0  0  0  0  0
   -2.7928    1.7385    2.1618 C   0  0  2  0  0  0  0  0  0  0  0  0
   -1.4579    1.1532    1.7206 C   0  0  0  0  0  0  0  0  0  0  0  0
   -0.5858    0.8004    2.5118 O   0  0  0  0  0  0  0  0  0  0  0  0
   -2.7841    3.2553    2.0523 C   0  0  0  0  0  0  0  0  0  0  0  0
   -3.8047    1.7484    4.0260 H   0  0  0  0  0  0  0  0  0  0  0  0
   -3.5969    1.3201    1.5466 H   0  0  0  0  0  0  0  0  0  0  0  0
   -1.9850    3.6926    2.6620 H   0  0  0  0  0  0  0  0  0  0  0  0
   -2.6246    3.5776    1.0180 H   0  0  0  0  0  0  0  0  0  0  0  0
   -3.7342    3.6765    2.3981 H   0  0  0  0  0  0  0  0  0  0  0  0
   -1.3352    1.1101    0.3372 N   0  0  0  0  0  0  0  0  0  0  0  0
   -0.1579    0.6093   -0.3265 C   0  0  2  0  0  0  0  0  0  0  0  0
   -0.5030   -0.7696   -0.8776 C   0  0  0  0  0  0  0  0  0  0  0  0
   -0.3782   -1.8023   -0.2229 O   0  0  0  0  0  0  0  0  0  0  0  0
    1.0456    0.5194    0.6189 C   0  0  0  0  0  0  0  0  0  0  0  0
    1.5320    1.8734    1.0748 C   0  0  0  0  0  0  0  0  0  0  0  0
    1.2020    2.4880    2.2607 C   0  0  0  0  0  0  0  0  0  0  0  0
    2.4091    2.7416    0.3664 C   0  0  0  0  0  0  0  0  0  0  0  0
    1.8437    3.6968    2.3016 N   0  0  0  0  0  0  0  0  0  0  0  0
    2.5883    3.8781    1.1579 C   0  0  0  0  0  0  0  0  0  0  0  0
    3.0698    2.6693   -0.8760 C   0  0  0  0  0  0  0  0  0  0  0  0
    3.3984    4.9503    0.7675 C   0  0  0  0  0  0  0  0  0  0  0  0
    3.8834    3.7343   -1.2796 C   0  0  0  0  0  0  0  0  0  0  0  0
    4.0437    4.8562   -0.4689 C   0  0  0  0  0  0  0  0  0  0  0  0
   -2.1183    1.4068   -0.2401 H   0  0  0  0  0  0  0  0  0  0  0  0
    0.0429    1.2899   -1.1623 H   0  0  0  0  0  0  0  0  0  0  0  0
    1.8684   -0.0255    0.1364 H   0  0  0  0  0  0  0  0  0  0  0  0
    0.7913   -0.0720    1.5084 H   0  0  0  0  0  0  0  0  0  0  0  0
    0.5675    2.1755    3.0785 H   0  0  0  0  0  0  0  0  0  0  0  0
    1.7806    4.3604    3.0612 H   0  0  0  0  0  0  0  0  0  0  0  0
    2.9544    1.8020   -1.5198 H   0  0  0  0  0  0  0  0  0  0  0  0
    3.5246    5.8236    1.3983 H   0  0  0  0  0  0  0  0  0  0  0  0
    4.3951    3.6845   -2.2369 H   0  0  0  0  0  0  0  0  0  0  0  0
    4.6804    5.6718   -0.8019 H   0  0  0  0  0  0  0  0  0  0  0  0
   -1.0125   -0.7012   -2.1669 N   0  0  0  0  0  0  0  0  0  0  0  0
   -1.4405   -1.8622   -2.9137 C   0  0  2  0  0  0  0  0  0  0  0  0
   -0.3270   -2.8993   -2.8497 C   0  0  0  0  0  0  0  0  0  0  0  0
    0.8453   -2.6113   -2.6176 O   0  0  0  0  0  0  0  0  0  0  0  0
   -1.7671   -1.5035   -4.3550 C   0  0  0  0  0  0  0  0  0  0  0  0
   -1.0885    0.2107   -2.6077 H   0  0  0  0  0  0  0  0  0  0  0  0
   -2.3321   -2.2513   -2.4099 H   0  0  0  0  0  0  0  0  0  0  0  0
   -0.8858   -1.1119   -4.8759 H   0  0  0  0  0  0  0  0  0  0  0  0
   -2.1184   -2.3785   -4.9118 H   0  0  0  0  0  0  0  0  0  0  0  0
   -2.5472   -0.7359   -4.3984 H   0  0  0  0  0  0  0  0  0  0  0  0
   -0.7890   -4.1787   -3.1248 N   0  0  0  0  0  0  0  0  0  0  0  0
    0.0773   -5.3343   -3.1382 C   0  0  0  0  0  0  0  0  0  0  0  0
   -1.7805   -4.3277   -3.2876 H   0  0  0  0  0  0  0  0  0  0  0  0
    0.4462   -5.5048   -4.1604 H   0  0  0  0  0  0  0  0  0  0  0  0
    0.9298   -5.1612   -2.4650 H   0  0  0  0  0  0  0  0  0  0  0  0
   -0.4843   -6.2173   -2.7992 H   0  0  0  0  0  0  0  0  0  0  0  0
 29 30  2  0  0  0  0
 27 29  1  0  0  0  0
 28 30  1  0  0  0  0
 24 27  2  0  0  0  0
 26 28  2  0  0  0  0
 22 23  2  0  0  0  0
 23 25  1  0  0  0  0
 22 24  1  0  0  0  0
 24 26  1  0  0  0  0
 21 22  1  0  0  0  0
 25 26  1  0  0  0  0
  1  3  1  0  0  0  0
  1  7  1  0  0  0  0
  1  2  2  0  0  0  0
 42 43  1  0  0  0  0
 43 51  1  0  0  0  0
 43 44  2  0  0  0  0
  8  9  1  0  0  0  0
  9 17  1  0  0  0  0
  9 10  2  0  0  0  0
 18 19  1  0  0  0  0
 19 41  1  0  0  0  0
 19 20  2  0  0  0  0
 42 45  1  0  0  0  0
  8 11  1  0  0  0  0
 51 52  1  0  0  0  0
 18 21  1  0  0  0  0
 41 42  1  0  0  0  0
  7  8  1  0  0  0  0
 17 18  1  0  0  0  0
 29 39  1  0  0  0  0
 30 40  1  0  0  0  0
 27 37  1  0  0  0  0
 28 38  1  0  0  0  0
 23 35  1  0  0  0  0
  3  4  1  0  0  0  0
  3  5  1  0  0  0  0
  3  6  1  0  0  0  0
 45 48  1  0  0  0  0
 45 49  1  0  0  0  0
 45 50  1  0  0  0  0
 11 14  1  0  0  0  0
 11 15  1  0  0  0  0
 11 16  1  0  0  0  0
 52 54  1  0  0  0  0
 52 55  1  0  0  0  0
 52 56  1  0  0  0  0
 21 33  1  0  0  0  0
 21 34  1  0  0  0  0
 42 47  1  0  0  0  0
  8 13  1  0  0  0  0
 18 32  1  0  0  0  0
 25 36  1  0  0  0  0
 51 53  1  0  0  0  0
  7 12  1  0  0  0  0
 41 46  1  0  0  0  0
 17 31  1  0  0  0  0
M  END
$$$$

  -OEChem-05262214473D

 56 57  0     1  0  0  0  0  0999 V2000
   -2.2900    0.3401    4.1553 C   0  0  0  0  0  0  0  0  0  0  0  0
   -1.3426   -0.2746    3.6796 O   0  0  0  0  0  0  0  0  0  0  0  0
   -2.7219    0.0577    5.5560 C   0  0  0  0  0  0  0  0  0  0  0  0
   -3.4815   -0.7386    5.6094 H   0  0  0  0  0  0  0  0  0  0  0  0
   -1.8906   -0.2899    6.1903 H   0  0  0  0  0  0  0  0  0  0  0  0
   -3.1599    0.9126    6.0956 H   0  0  0  0  0  0  0  0  0  0  0  0
   -3.0397    1.3125    3.5142 N   0  0  0  0  0  0  0  0  0  0  0  0
   -2.7928    1.7385    2.1618 C   0  0  2  0  0  0  0  0  0  0  0  0
   -1.4579    1.1532    1.7206 C   0  0  0  0  0  0  0  0  0  0  0  0
   -0.5858    0.8004    2.5118 O   0  0  0  0  0  0  0  0  0  0  0  0
   -2.7841    3.2553    2.0523 C   0  0  0  0  0  0  0  0  0  0  0  0
   -3.8047    1.7484    4.0260 H   0  0  0  0  0  0  0  0  0  0  0  0
   -3.5969    1.3201    1.5466 H   0  0  0  0  0  0  0  0  0  0  0  0
   -1.9850    3.6926    2.6620 H   0  0  0  0  0  0  0  0  0  0  0  0
   -2.6246    3.5776    1.0180 H   0  0  0  0  0  0  0  0  0  0  0  0
   -3.7342    3.6765    2.3981 H   0  0  0  0  0  0  0  0  0  0  0  0
   -1.3352    1.1101    0.3372 N   0  0  0  0  0  0  0  0  0  0  0  0
   -0.1579    0.6093   -0.3265 C   0  0  2  0  0  0  0  0  0  0  0  0
   -0.5030   -0.7696   -0.8776 C   0  0  0  0  0  0  0  0  0  0  0  0
   -0.6375   -1.7611   -0.1637 O   0  0  0  0  0  0  0  0  0  0  0  0
    1.0456    0.5194    0.6189 C   0  0  0  0  0  0  0  0  0  0  0  0
    1.5320    1.8734    1.0748 C   0  0  0  0  0  0  0  0  0  0  0  0
    1.2020    2.4880    2.2607 C   0  0  0  0  0  0  0  0  0  0  0  0
    2.4091    2.7416    0.3664 C   0  0  0  0  0  0  0  0  0  0  0  0
    1.8437    3.6968    2.3016 N   0  0  0  0  0  0  0  0  0  0  0  0
    2.5883    3.8781    1.1579 C   0  0  0  0  0  0  0  0  0  0  0  0
    3.0698    2.6693   -0.8760 C   0  0  0  0  0  0  0  0  0  0  0  0
    3.3984    4.9503    0.7675 C   0  0  0  0  0  0  0  0  0  0  0  0
    3.8834    3.7343   -1.2796 C   0  0  0  0  0  0  0  0  0  0  0  0
    4.0437    4.8562   -0.4689 C   0  0  0  0  0  0  0  0  0  0  0  0
   -2.1183    1.4068   -0.2401 H   0  0  0  0  0  0  0  0  0  0  0  0
    0.0429    1.2899   -1.1623 H   0  0  0  0  0  0  0  0  0  0  0  0
    1.8684   -0.0255    0.1364 H   0  0  0  0  0  0  0  0  0  0  0  0
    0.7913   -0.0720    1.5084 H   0  0  0  0  0  0  0  0  0  0  0  0
    0.5675    2.1755    3.0785 H   0  0  0  0  0  0  0  0  0  0  0  0
    1.7806    4.3604    3.0612 H   0  0  0  0  0  0  0  0  0  0  0  0
    2.9544    1.8020   -1.5198 H   0  0  0  0  0  0  0  0  0  0  0  0
    3.5246    5.8236    1.3983 H   0  0  0  0  0  0  0  0  0  0  0  0
    4.3951    3.6845   -2.2369 H   0  0  0  0  0  0  0  0  0  0  0  0
    4.6804    5.6718   -0.8019 H   0  0  0  0  0  0  0  0  0  0  0  0
   -0.6910   -0.7474   -2.2526 N   0  0  0  0  0  0  0  0  0  0  0  0
   -1.0491   -1.9162   -3.0236 C   0  0  2  0  0  0  0  0  0  0  0  0
   -0.0907   -3.0388   -2.6485 C   0  0  0  0  0  0  0  0  0  0  0  0
    1.0190   -2.8380   -2.1593 O   0  0  0  0  0  0  0  0  0  0  0  0
   -0.9957   -1.6320   -4.5166 C   0  0  0  0  0  0  0  0  0  0  0  0
   -0.5708    0.1347   -2.7417 H   0  0  0  0  0  0  0  0  0  0  0  0
   -2.0675   -2.1905   -2.7275 H   0  0  0  0  0  0  0  0  0  0  0  0
    0.0170   -1.3554   -4.8319 H   0  0  0  0  0  0  0  0  0  0  0  0
   -1.2948   -2.5100   -5.0986 H   0  0  0  0  0  0  0  0  0  0  0  0
   -1.6634   -0.8046   -4.7800 H   0  0  0  0  0  0  0  0  0  0  0  0
   -0.6027   -4.2895   -2.9642 N   0  0  0  0  0  0  0  0  0  0  0  0
    0.1224   -5.5139   -2.7172 C   0  0  0  0  0  0  0  0  0  0  0  0
   -1.5395   -4.3631   -3.3499 H   0  0  0  0  0  0  0  0  0  0  0  0
    0.6987   -5.7866   -3.6136 H   0  0  0  0  0  0  0  0  0  0  0  0
    0.8091   -5.3687   -1.8702 H   0  0  0  0  0  0  0  0  0  0  0  0
   -0.5882   -6.3192   -2.4793 H   0  0  0  0  0  0  0  0  0  0  0  0
 29 30  2  0  0  0  0
 27 29  1  0  0  0  0
 28 30  1  0  0  0  0
 24 27  2  0  0  0  0
 26 28  2  0  0  0  0
 22 23  2  0  0  0  0
 23 25  1  0  0  0  0
 22 24  1  0  0  0  0
 24 26  1  0  0  0  0
 21 22  1  0  0  0  0
 25 26  1  0  0  0  0
  1  3  1  0  0  0  0
  1  7  1  0  0  0  0
  1  2  2  0  0  0  0
 42 43  1  0  0  0  0
 43 51  1  0  0  0  0
 43 44  2  0  0  0  0
  8  9  1  0  0  0  0
  9 17  1  0  0  0  0
  9 10  2  0  0  0  0
 18 19  1  0  0  0  0
 19 41  1  0  0  0  0
 19 20  2  0  0  0  0
 42 45  1  0  0  0  0
  8 11  1  0  0  0  0
 51 52  1  0  0  0  0
 18 21  1  0  0  0  0
 41 42  1  0  0  0  0
  7  8  1  0  0  0  0
 17 18  1  0  0  0  0
 29 39  1  0  0  0  0
 30 40  1  0  0  0  0
 27 37  1  0  0  0  0
 28 38  1  0  0  0  0
 23 35  1  0  0  0  0
  3  4  1  0  0  0  0
  3  5  1  0  0  0  0
  3  6  1  0  0  0  0
 45 48  1  0  0  0  0
 45 49  1  0  0  0  0
 45 50  1  0  0  0  0
 11 14  1  0  0  0  0
 11 15  1  0  0  0  0
 11 16  1  0  0  0  0
 52 54  1  0  0  0  0
 52 55  1  0  0  0  0
 52 56  1  0  0  0  0
 21 33  1  0  0  0  0
 21 34  1  0  0  0  0
 42 47  1  0  0  0  0
  8 13  1  0  0  0  0
 18 32  1  0  0  0  0
 25 36  1  0  0  0  0
 51 53  1  0  0  0  0
  7 12  1  0  0  0  0
 41 46  1  0  0  0  0
 17 31  1  0  0  0  0
M  END
$$$$

  -OEChem-05262214473D

 56 57  0     1  0  0  0  0  0999 V2000
   -2.2900    0.3401    4.1553 C   0  0  0  0  0  0  0  0  0  0  0  0
   -1.3426   -0.2746    3.6796 O   0  0  0  0  0  0  0  0  0  0  0  0
   -2.7219    0.0577    5.5560 C   0  0  0  0  0  0  0  0  0  0  0  0
   -3.4815   -0.7386    5.6094 H   0  0  0  0  0  0  0  0  0  0  0  0
   -1.8906   -0.2899    6.1903 H   0  0  0  0  0  0  0  0  0  0  0  0
   -3.1599    0.9126    6.0956 H   0  0  0  0  0  0  0  0  0  0  0  0
   -3.0397    1.3125    3.5142 N   0  0  0  0  0  0  0  0  0  0  0  0
   -2.7928    1.7385    2.1618 C   0  0  2  0  0  0  0  0  0  0  0  0
   -1.4579    1.1532    1.7206 C   0  0  0  0  0  0  0  0  0  0  0  0
   -0.5858    0.8004    2.5118 O   0  0  0  0  0  0  0  0  0  0  0  0
   -2.7841    3.2553    2.0523 C   0  0  0  0  0  0  0  0  0  0  0  0
   -3.8047    1.7484    4.0260 H   0  0  0  0  0  0  0  0  0  0  0  0
   -3.5969    1.3201    1.5466 H   0  0  0  0  0  0  0  0  0  0  0  0
   -1.9850    3.6926    2.6620 H   0  0  0  0  0  0  0  0  0  0  0  0
   -2.6246    3.5776    1.0180 H   0  0  0  0  0  0  0  0  0  0  0  0
   -3.7342    3.6765    2.3981 H   0  0  0  0  0  0  0  0  0  0  0  0
   -1.3352    1.1101    0.3372 N   0  0  0  0  0  0  0  0  0  0  0  0
   -0.1579    0.6093   -0.3265 C   0  0  2  0  0  0  0  0  0  0  0  0
   -0.5030   -0.7696   -0.8776 C   0  0  0  0  0  0  0  0  0  0  0  0
   -0.8980   -1.6935   -0.1696 O   0  0  0  0  0  0  0  0  0  0  0  0
    1.0456    0.5194    0.6189 C   0  0  0  0  0  0  0  0  0  0  0  0
    1.5320    1.8734    1.0748 C   0  0  0  0  0  0  0  0  0  0  0  0
    1.2020    2.4880    2.2607 C   0  0  0  0  0  0  0  0  0  0  0  0
    2.4091    2.7416    0.3664 C   0  0  0  0  0  0  0  0  0  0  0  0
    1.8437    3.6968    2.3016 N   0  0  0  0  0  0  0  0  0  0  0  0
    2.5883    3.8781    1.1579 C   0  0  0  0  0  0  0  0  0  0  0  0
    3.0698    2.6693   -0.8760 C   0  0  0  0  0  0  0  0  0  0  0  0
    3.3984    4.9503    0.7675 C   0  0  0  0  0  0  0  0  0  0  0  0
    3.8834    3.7343   -1.2796 C   0  0  0  0  0  0  0  0  0  0  0  0
    4.0437    4.8562   -0.4689 C   0  0  0  0  0  0  0  0  0  0  0  0
   -2.1183    1.4068   -0.2401 H   0  0  0  0  0  0  0  0  0  0  0  0
    0.0429    1.2899   -1.1623 H   0  0  0  0  0  0  0  0  0  0  0  0
    1.8684   -0.0255    0.1364 H   0  0  0  0  0  0  0  0  0  0  0  0
    0.7913   -0.0720    1.5084 H   0  0  0  0  0  0  0  0  0  0  0  0
    0.5675    2.1755    3.0785 H   0  0  0  0  0  0  0  0  0  0  0  0
    1.7806    4.3604    3.0612 H   0  0  0  0  0  0  0  0  0  0  0  0
    2.9544    1.8020   -1.5198 H   0  0  0  0  0  0  0  0  0  0  0  0
    3.5246    5.8236    1.3983 H   0  0  0  0  0  0  0  0  0  0  0  0
    4.3951    3.6845   -2.2369 H   0  0  0  0  0  0  0  0  0  0  0  0
    4.6804    5.6718   -0.8019 H   0  0  0  0  0  0  0  0  0  0  0  0
   -0.3646   -0.8271   -2.2575 N   0  0  0  0  0  0  0  0  0  0  0  0
   -0.6504   -2.0115   -3.0350 C   0  0  2  0  0  0  0  0  0  0  0  0
    0.0775   -3.1839   -2.3907 C   0  0  0  0  0  0  0  0  0  0  0  0
    1.0583   -3.0463   -1.6627 O   0  0  0  0  0  0  0  0  0  0  0  0
   -0.2248   -1.8378   -4.4846 C   0  0  0  0  0  0  0  0  0  0  0  0
   -0.0465    0.0050   -2.7454 H   0  0  0  0  0  0  0  0  0  0  0  0
   -1.7319   -2.1753   -2.9759 H   0  0  0  0  0  0  0  0  0  0  0  0
    0.8559   -1.6726   -4.5638 H   0  0  0  0  0  0  0  0  0  0  0  0
   -0.4679   -2.7250   -5.0785 H   0  0  0  0  0  0  0  0  0  0  0  0
   -0.7268   -0.9760   -4.9376 H   0  0  0  0  0  0  0  0  0  0  0  0
   -0.4708   -4.4046   -2.7590 N   0  0  0  0  0  0  0  0  0  0  0  0
    0.0507   -5.6669   -2.2895 C   0  0  0  0  0  0  0  0  0  0  0  0
   -1.2955   -4.4235   -3.3517 H   0  0  0  0  0  0  0  0  0  0  0  0
    0.7883   -6.0503   -3.0099 H   0  0  0  0  0  0  0  0  0  0  0  0
    0.5338   -5.5230   -1.3117 H   0  0  0  0  0  0  0  0  0  0  0  0
   -0.7729   -6.3891   -2.1887 H   0  0  0  0  0  0  0  0  0  0  0  0
 29 30  2  0  0  0  0
 27 29  1  0  0  0  0
 28 30  1  0  0  0  0
 24 27  2  0  0  0  0
 26 28  2  0  0  0  0
 22 23  2  0  0  0  0
 23 25  1  0  0  0  0
 22 24  1  0  0  0  0
 24 26  1  0  0  0  0
 21 22  1  0  0  0  0
 25 26  1  0  0  0  0
  1  3  1  0  0  0  0
  1  7  1  0  0  0  0
  1  2  2  0  0  0  0
 42 43  1  0  0  0  0
 43 51  1  0  0  0  0
 43 44  2  0  0  0  0
  8  9  1  0  0  0  0
  9 17  1  0  0  0  0
  9 10  2  0  0  0  0
 18 19  1  0  0  0  0
 19 41  1  0  0  0  0
 19 20  2  0  0  0  0
 42 45  1  0  0  0  0
  8 11  1  0  0  0  0
 51 52  1  0  0  0  0
 18 21  1  0  0  0  0
 41 42  1  0  0  0  0
  7  8  1  0  0  0  0
 17 18  1  0  0  0  0
 29 39  1  0  0  0  0
 30 40  1  0  0  0  0
 27 37  1  0  0  0  0
 28 38  1  0  0  0  0
 23 35  1  0  0  0  0
  3  4  1  0  0  0  0
  3  5  1  0  0  0  0
  3  6  1  0  0  0  0
 45 48  1  0  0  0  0
 45 49  1  0  0  0  0
 45 50  1  0  0  0  0
 11 14  1  0  0  0  0
 11 15  1  0  0  0  0
 11 16  1  0  0  0  0
 52 54  1  0  0  0  0
 52 55  1  0  0  0  0
 52 56  1  0  0  0  0
 21 33  1  0  0  0  0
 21 34  1  0  0  0  0
 42 47  1  0  0  0  0
  8 13  1  0  0  0  0
 18 32  1  0  0  0  0
 25 36  1  0  0  0  0
 51 53  1  0  0  0  0
  7 12  1  0  0  0  0
 41 46  1  0  0  0  0
 17 31  1  0  0  0  0
M  END
$$$$

  -OEChem-05262214473D

 56 57  0     1  0  0  0  0  0999 V2000
   -2.2900    0.3401    4.1553 C   0  0  0  0  0  0  0  0  0  0  0  0
   -1.3426   -0.2746    3.6796 O   0  0  0  0  0  0  0  0  0  0  0  0
   -2.7219    0.0577    5.5560 C   0  0  0  0  0  0  0  0  0  0  0  0
   -3.4815   -0.7386    5.6094 H   0  0  0  0  0  0  0  0  0  0  0  0
   -1.8906   -0.2899    6.1903 H   0  0  0  0  0  0  0  0  0  0  0  0
   -3.1599    0.9126    6.0956 H   0  0  0  0  0  0  0  0  0  0  0  0
   -3.0397    1.3125    3.5142 N   0  0  0  0  0  0  0  0  0  0  0  0
   -2.7928    1.7385    2.1618 C   0  0  2  0  0  0  0  0  0  0  0  0
   -1.4579    1.1532    1.7206 C   0  0  0  0  0  0  0  0  0  0  0  0
   -0.5858    0.8004    2.5118 O   0  0  0  0  0  0  0  0  0  0  0  0
   -2.7841    3.2553    2.0523 C   0  0  0  0  0  0  0  0  0  0  0  0
   -3.8047    1.7484    4.0260 H   0  0  0  0  0  0  0  0  0  0  0  0
   -3.5969    1.3201    1.5466 H   0  0  0  0  0  0  0  0  0  0  0  0
   -1.9850    3.6926    2.6620 H   0  0  0  0  0  0  0  0  0  0  0  0
   -2.6246    3.5776    1.0180 H   0  0  0  0  0  0  0  0  0  0  0  0
   -3.7342    3.6765    2.3981 H   0  0  0  0  0  0  0  0  0  0  0  0
   -1.3352    1.1101    0.3372 N   0  0  0  0  0  0  0  0  0  0  0  0
   -0.1579    0.6093   -0.3265 C   0  0  2  0  0  0  0  0  0  0  0  0
   -0.5030   -0.7696   -0.8776 C   0  0  0  0  0  0  0  0  0  0  0  0
   -1.1419   -1.6042   -0.2403 O   0  0  0  0  0  0  0  0  0  0  0  0
    1.0456    0.5194    0.6189 C   0  0  0  0  0  0  0  0  0  0  0  0
    1.5320    1.8734    1.0748 C   0  0  0  0  0  0  0  0  0  0  0  0
    1.2020    2.4880    2.2607 C   0  0  0  0  0  0  0  0  0  0  0  0
    2.4091    2.7416    0.3664 C   0  0  0  0  0  0  0  0  0  0  0  0
    1.8437    3.6968    2.3016 N   0  0  0  0  0  0  0  0  0  0  0  0
    2.5883    3.8781    1.1579 C   0  0  0  0  0  0  0  0  0  0  0  0
    3.0698    2.6693   -0.8760 C   0  0  0  0  0  0  0  0  0  0  0  0
    3.3984    4.9503    0.7675 C   0  0  0  0  0  0  0  0  0  0  0  0
    3.8834    3.7343   -1.2796 C   0  0  0  0  0  0  0  0  0  0  0  0
    4.0437    4.8562   -0.4689 C   0  0  0  0  0  0  0  0  0  0  0  0
   -2.1183    1.4068   -0.2401 H   0  0  0  0  0  0  0  0  0  0  0  0
    0.0429    1.2899   -1.1623 H   0  0  0  0  0  0  0  0  0  0  0  0
    1.8684   -0.0255    0.1364 H   0  0  0  0  0  0  0  0  0  0  0  0
    0.7913   -0.0720    1.5084 H   0  0  0  0  0  0  0  0  0  0  0  0
    0.5675    2.1755    3.0785 H   0  0  0  0  0  0  0  0  0  0  0  0
    1.7806    4.3604    3.0612 H   0  0  0  0  0  0  0  0  0  0  0  0
    2.9544    1.8020   -1.5198 H   0  0  0  0  0  0  0  0  0  0  0  0
    3.5246    5.8236    1.3983 H   0  0  0  0  0  0  0  0  0  0  0  0
    4.3951    3.6845   -2.2369 H   0  0  0  0  0  0  0  0  0  0  0  0
    4.6804    5.6718   -0.8019 H   0  0  0  0  0  0  0  0  0  0  0  0
   -0.0557   -0.9350   -2.1811 N   0  0  0  0  0  0  0  0  0  0  0  0
   -0.2715   -2.1415   -2.9471 C   0  0  2  0  0  0  0  0  0  0  0  0
    0.1659   -3.3247   -2.0938 C   0  0  0  0  0  0  0  0  0  0  0  0
    0.9605   -3.2221   -1.1615 O   0  0  0  0  0  0  0  0  0  0  0  0
    0.4931   -2.1068   -4.2612 C   0  0  0  0  0  0  0  0  0  0  0  0
    0.4486   -0.1696   -2.6187 H   0  0  0  0  0  0  0  0  0  0  0  0
   -1.3482   -2.2065   -3.1381 H   0  0  0  0  0  0  0  0  0  0  0  0
    1.5738   -2.0417   -4.0899 H   0  0  0  0  0  0  0  0  0  0  0  0
    0.3060   -3.0088   -4.8530 H   0  0  0  0  0  0  0  0  0  0  0  0
    0.1988   -1.2385   -4.8605 H   0  0  0  0  0  0  0  0  0  0  0  0
   -0.4021   -4.5160   -2.5232 N   0  0  0  0  0  0  0  0  0  0  0  0
   -0.1330   -5.7830   -1.8841 C   0  0  0  0  0  0  0  0  0  0  0  0
   -1.0650   -4.5047   -3.2928 H   0  0  0  0  0  0  0  0  0  0  0  0
    0.7088   -6.2781   -2.3902 H   0  0  0  0  0  0  0  0  0  0  0  0
    0.1228   -5.6136   -0.8277 H   0  0  0  0  0  0  0  0  0  0  0  0
   -1.0259   -6.4223   -1.9472 H   0  0  0  0  0  0  0  0  0  0  0  0
 29 30  2  0  0  0  0
 27 29  1  0  0  0  0
 28 30  1  0  0  0  0
 24 27  2  0  0  0  0
 26 28  2  0  0  0  0
 22 23  2  0  0  0  0
 23 25  1  0  0  0  0
 22 24  1  0  0  0  0
 24 26  1  0  0  0  0
 21 22  1  0  0  0  0
 25 26  1  0  0  0  0
  1  3  1  0  0  0  0
  1  7  1  0  0  0  0
  1  2  2  0  0  0  0
 42 43  1  0  0  0  0
 43 51  1  0  0  0  0
 43 44  2  0  0  0  0
  8  9  1  0  0  0  0
  9 17  1  0  0  0  0
  9 10  2  0  0  0  0
 18 19  1  0  0  0  0
 19 41  1  0  0  0  0
 19 20  2  0  0  0  0
 42 45  1  0  0  0  0
  8 11  1  0  0  0  0
 51 52  1  0  0  0  0
 18 21  1  0  0  0  0
 41 42  1  0  0  0  0
  7  8  1  0  0  0  0
 17 18  1  0  0  0  0
 29 39  1  0  0  0  0
 30 40  1  0  0  0  0
 27 37  1  0  0  0  0
 28 38  1  0  0  0  0
 23 35  1  0  0  0  0
  3  4  1  0  0  0  0
  3  5  1  0  0  0  0
  3  6  1  0  0  0  0
 45 48  1  0  0  0  0
 45 49  1  0  0  0  0
 45 50  1  0  0  0  0
 11 14  1  0  0  0  0
 11 15  1  0  0  0  0
 11 16  1  0  0  0  0
 52 54  1  0  0  0  0
 52 55  1  0  0  0  0
 52 56  1  0  0  0  0
 21 33  1  0  0  0  0
 21 34  1  0  0  0  0
 42 47  1  0  0  0  0
  8 13  1  0  0  0  0
 18 32  1  0  0  0  0
 25 36  1  0  0  0  0
 51 53  1  0  0  0  0
  7 12  1  0  0  0  0
 41 46  1  0  0  0  0
 17 31  1  0  0  0  0
M  END
$$$$

  -OEChem-05262214473D

 56 57  0     1  0  0  0  0  0999 V2000
   -2.2900    0.3401    4.1553 C   0  0  0  0  0  0  0  0  0  0  0  0
   -1.3426   -0.2746    3.6796 O   0  0  0  0  0  0  0  0  0  0  0  0
   -2.7219    0.0577    5.5560 C   0  0  0  0  0  0  0  0  0  0  0  0
   -3.4815   -0.7386    5.6094 H   0  0  0  0  0  0  0  0  0  0  0  0
   -1.8906   -0.2899    6.1903 H   0  0  0  0  0  0  0  0  0  0  0  0
   -3.1599    0.9126    6.0956 H   0  0  0  0  0  0  0  0  0  0  0  0
   -3.0397    1.3125    3.5142 N   0  0  0  0  0  0  0  0  0  0  0  0
   -2.7928    1.7385    2.1618 C   0  0  2  0  0  0  0  0  0  0  0  0
   -1.4579    1.1532    1.7206 C   0  0  0  0  0  0  0  0  0  0  0  0
   -0.5858    0.8004    2.5118 O   0  0  0  0  0  0  0  0  0  0  0  0
   -2.7841    3.2553    2.0523 C   0  0  0  0  0  0  0  0  0  0  0  0
   -3.8047    1.7484    4.0260 H   0  0  0  0  0  0  0  0  0  0  0  0
   -3.5969    1.3201    1.5466 H   0  0  0  0  0  0  0  0  0  0  0  0
   -1.9850    3.6926    2.6620 H   0  0  0  0  0  0  0  0  0  0  0  0
   -2.6246    3.5776    1.0180 H   0  0  0  0  0  0  0  0  0  0  0  0
   -3.7342    3.6765    2.3981 H   0  0  0  0  0  0  0  0  0  0  0  0
   -1.3352    1.1101    0.3372 N   0  0  0  0  0  0  0  0  0  0  0  0
   -0.1579    0.6093   -0.3265 C   0  0  2  0  0  0  0  0  0  0  0  0
   -0.5030   -0.7696   -0.8776 C   0  0  0  0  0  0  0  0  0  0  0  0
   -1.3525   -1.4993   -0.3709 O   0  0  0  0  0  0  0  0  0  0  0  0
    1.0456    0.5194    0.6189 C   0  0  0  0  0  0  0  0  0  0  0  0
    1.5320    1.8734    1.0748 C   0  0  0  0  0  0  0  0  0  0  0  0
    1.2020    2.4880    2.2607 C   0  0  0  0  0  0  0  0  0  0  0  0
    2.4091    2.7416    0.3664 C   0  0  0  0  0  0  0  0  0  0  0  0
    1.8437    3.6968    2.3016 N   0  0  0  0  0  0  0  0  0  0  0  0
    2.5883    3.8781    1.1579 C   0  0  0  0  0  0  0  0  0  0  0  0
    3.0698    2.6693   -0.8760 C   0  0  0  0  0  0  0  0  0  0  0  0
    3.3984    4.9503    0.7675 C   0  0  0  0  0  0  0  0  0  0  0  0
    3.8834    3.7343   -1.2796 C   0  0  0  0  0  0  0  0  0  0  0  0
    4.0437    4.8562   -0.4689 C   0  0  0  0  0  0  0  0  0  0  0  0
   -2.1183    1.4068   -0.2401 H   0  0  0  0  0  0  0  0  0  0  0  0
    0.0429    1.2899   -1.1623 H   0  0  0  0  0  0  0  0  0  0  0  0
    1.8684   -0.0255    0.1364 H   0  0  0  0  0  0  0  0  0  0  0  0
    0.7913   -0.0720    1.5084 H   0  0  0  0  0  0  0  0  0  0  0  0
    0.5675    2.1755    3.0785 H   0  0  0  0  0  0  0  0  0  0  0  0
    1.7806    4.3604    3.0612 H   0  0  0  0  0  0  0  0  0  0  0  0
    2.9544    1.8020   -1.5198 H   0  0  0  0  0  0  0  0  0  0  0  0
    3.5246    5.8236    1.3983 H   0  0  0  0  0  0  0  0  0  0  0  0
    4.3951    3.6845   -2.2369 H   0  0  0  0  0  0  0  0  0  0  0  0
    4.6804    5.6718   -0.8019 H   0  0  0  0  0  0  0  0  0  0  0  0
    0.2147   -1.0636   -2.0287 N   0  0  0  0  0  0  0  0  0  0  0  0
    0.0618   -2.2973   -2.7658 C   0  0  2  0  0  0  0  0  0  0  0  0
    0.1687   -3.4516   -1.7781 C   0  0  0  0  0  0  0  0  0  0  0  0
    0.7323   -3.3535   -0.6901 O   0  0  0  0  0  0  0  0  0  0  0  0
    1.1091   -2.4207   -3.8615 C   0  0  0  0  0  0  0  0  0  0  0  0
    0.8809   -0.3771   -2.3702 H   0  0  0  0  0  0  0  0  0  0  0  0
   -0.9425   -2.2820   -3.2032 H   0  0  0  0  0  0  0  0  0  0  0  0
    2.1218   -2.4376   -3.4424 H   0  0  0  0  0  0  0  0  0  0  0  0
    0.9743   -3.3422   -4.4373 H   0  0  0  0  0  0  0  0  0  0  0  0
    1.0502   -1.5741   -4.5541 H   0  0  0  0  0  0  0  0  0  0  0  0
   -0.4015   -4.6163   -2.2728 N   0  0  0  0  0  0  0  0  0  0  0  0
   -0.4163   -5.8541   -1.5288 C   0  0  0  0  0  0  0  0  0  0  0  0
   -0.8637   -4.6013   -3.1771 H   0  0  0  0  0  0  0  0  0  0  0  0
    0.4656   -6.4543   -1.7970 H   0  0  0  0  0  0  0  0  0  0  0  0
   -0.3961   -5.6343   -0.4511 H   0  0  0  0  0  0  0  0  0  0  0  0
   -1.3300   -6.4166   -1.7712 H   0  0  0  0  0  0  0  0  0  0  0  0
 29 30  2  0  0  0  0
 27 29  1  0  0  0  0
 28 30  1  0  0  0  0
 24 27  2  0  0  0  0
 26 28  2  0  0  0  0
 22 23  2  0  0  0  0
 23 25  1  0  0  0  0
 22 24  1  0  0  0  0
 24 26  1  0  0  0  0
 21 22  1  0  0  0  0
 25 26  1  0  0  0  0
  1  3  1  0  0  0  0
  1  7  1  0  0  0  0
  1  2  2  0  0  0  0
 42 43  1  0  0  0  0
 43 51  1  0  0  0  0
 43 44  2  0  0  0  0
  8  9  1  0  0  0  0
  9 17  1  0  0  0  0
  9 10  2  0  0  0  0
 18 19  1  0  0  0  0
 19 41  1  0  0  0  0
 19 20  2  0  0  0  0
 42 45  1  0  0  0  0
  8 11  1  0  0  0  0
 51 52  1  0  0  0  0
 18 21  1  0  0  0  0
 41 42  1  0  0  0  0
  7  8  1  0  0  0  0
 17 18  1  0  0  0  0
 29 39  1  0  0  0  0
 30 40  1  0  0  0  0
 27 37  1  0  0  0  0
 28 38  1  0  0  0  0
 23 35  1  0  0  0  0
  3  4  1  0  0  0  0
  3  5  1  0  0  0  0
  3  6  1  0  0  0  0
 45 48  1  0  0  0  0
 45 49  1  0  0  0  0
 45 50  1  0  0  0  0
 11 14  1  0  0  0  0
 11 15  1  0  0  0  0
 11 16  1  0  0  0  0
 52 54  1  0  0  0  0
 52 55  1  0  0  0  0
 52 56  1  0  0  0  0
 21 33  1  0  0  0  0
 21 34  1  0  0  0  0
 42 47  1  0  0  0  0
  8 13  1  0  0  0  0
 18 32  1  0  0  0  0
 25 36  1  0  0  0  0
 51 53  1  0  0  0  0
  7 12  1  0  0  0  0
 41 46  1  0  0  0  0
 17 31  1  0  0  0  0
M  END
$$$$

  -OEChem-05262214473D

 56 57  0     1  0  0  0  0  0999 V2000
   -2.2900    0.3401    4.1553 C   0  0  0  0  0  0  0  0  0  0  0  0
   -1.3426   -0.2746    3.6796 O   0  0  0  0  0  0  0  0  0  0  0  0
   -2.7219    0.0577    5.5560 C   0  0  0  0  0  0  0  0  0  0  0  0
   -3.4815   -0.7386    5.6094 H   0  0  0  0  0  0  0  0  0  0  0  0
   -1.8906   -0.2899    6.1903 H   0  0  0  0  0  0  0  0  0  0  0  0
   -3.1599    0.9126    6.0956 H   0  0  0  0  0  0  0  0  0  0  0  0
   -3.0397    1.3125    3.5142 N   0  0  0  0  0  0  0  0  0  0  0  0
   -2.7928    1.7385    2.1618 C   0  0  2  0  0  0  0  0  0  0  0  0
   -1.4579    1.1532    1.7206 C   0  0  0  0  0  0  0  0  0  0  0  0
   -0.5858    0.8004    2.5118 O   0  0  0  0  0  0  0  0  0  0  0  0
   -2.7841    3.2553    2.0523 C   0  0  0  0  0  0  0  0  0  0  0  0
   -3.8047    1.7484    4.0260 H   0  0  0  0  0  0  0  0  0  0  0  0
   -3.5969    1.3201    1.5466 H   0  0  0  0  0  0  0  0  0  0  0  0
   -1.9850    3.6926    2.6620 H   0  0  0  0  0  0  0  0  0  0  0  0
   -2.6246    3.5776    1.0180 H   0  0  0  0  0  0  0  0  0  0  0  0
   -3.7342    3.6765    2.3981 H   0  0  0  0  0  0  0  0  0  0  0  0
   -1.3352    1.1101    0.3372 N   0  0  0  0  0  0  0  0  0  0  0  0
   -0.1579    0.6093   -0.3265 C   0  0  2  0  0  0  0  0  0  0  0  0
   -0.5030   -0.7696   -0.8776 C   0  0  0  0  0  0  0  0  0  0  0  0
   -1.5156   -1.3859   -0.5526 O   0  0  0  0  0  0  0  0  0  0  0  0
    1.0456    0.5194    0.6189 C   0  0  0  0  0  0  0  0  0  0  0  0
    1.5320    1.8734    1.0748 C   0  0  0  0  0  0  0  0  0  0  0  0
    1.2020    2.4880    2.2607 C   0  0  0  0  0  0  0  0  0  0  0  0
    2.4091    2.7416    0.3664 C   0  0  0  0  0  0  0  0  0  0  0  0
    1.8437    3.6968    2.3016 N   0  0  0  0  0  0  0  0  0  0  0  0
    2.5883    3.8781    1.1579 C   0  0  0  0  0  0  0  0  0  0  0  0
    3.0698    2.6693   -0.8760 C   0  0  0  0  0  0  0  0  0  0  0  0
    3.3984    4.9503    0.7675 C   0  0  0  0  0  0  0  0  0  0  0  0
    3.8834    3.7343   -1.2796 C   0  0  0  0  0  0  0  0  0  0  0  0
    4.0437    4.8562   -0.4689 C   0  0  0  0  0  0  0  0  0  0  0  0
   -2.1183    1.4068   -0.2401 H   0  0  0  0  0  0  0  0  0  0  0  0
    0.0429    1.2899   -1.1623 H   0  0  0  0  0  0  0  0  0  0  0  0
    1.8684   -0.0255    0.1364 H   0  0  0  0  0  0  0  0  0  0  0  0
    0.7913   -0.0720    1.5084 H   0  0  0  0  0  0  0  0  0  0  0  0
    0.5675    2.1755    3.0785 H   0  0  0  0  0  0  0  0  0  0  0  0
    1.7806    4.3604    3.0612 H   0  0  0  0  0  0  0  0  0  0  0  0
    2.9544    1.8020   -1.5198 H   0  0  0  0  0  0  0  0  0  0  0  0
    3.5246    5.8236    1.3983 H   0  0  0  0  0  0  0  0  0  0  0  0
    4.3951    3.6845   -2.2369 H   0  0  0  0  0  0  0  0  0  0  0  0
    4.6804    5.6718   -0.8019 H   0  0  0  0  0  0  0  0  0  0  0  0
    0.4282   -1.2042   -1.8106 N   0  0  0  0  0  0  0  0  0  0  0  0
    0.3266   -2.4684   -2.5036 C   0  0  2  0  0  0  0  0  0  0  0  0
    0.0856   -3.5560   -1.4651 C   0  0  0  0  0  0  0  0  0  0  0  0
    0.3892   -3.4313   -0.2804 O   0  0  0  0  0  0  0  0  0  0  0  0
    1.5812   -2.7581   -3.3129 C   0  0  0  0  0  0  0  0  0  0  0  0
    1.2209   -0.6035   -2.0168 H   0  0  0  0  0  0  0  0  0  0  0  0
   -0.5424   -2.3967   -3.1667 H   0  0  0  0  0  0  0  0  0  0  0  0
    2.4625   -2.8334   -2.6655 H   0  0  0  0  0  0  0  0  0  0  0  0
    1.4912   -3.7024   -3.8599 H   0  0  0  0  0  0  0  0  0  0  0  0
    1.7695   -1.9600   -4.0391 H   0  0  0  0  0  0  0  0  0  0  0  0
   -0.4688   -4.6985   -2.0249 N   0  0  0  0  0  0  0  0  0  0  0  0
   -0.7797   -5.8755   -1.2477 C   0  0  0  0  0  0  0  0  0  0  0  0
   -0.7054   -4.7067   -3.0126 H   0  0  0  0  0  0  0  0  0  0  0  0
    0.0754   -6.5671   -1.2706 H   0  0  0  0  0  0  0  0  0  0  0  0
   -0.9873   -5.5837   -0.2076 H   0  0  0  0  0  0  0  0  0  0  0  0
   -1.6644   -6.3722   -1.6726 H   0  0  0  0  0  0  0  0  0  0  0  0
 29 30  2  0  0  0  0
 27 29  1  0  0  0  0
 28 30  1  0  0  0  0
 24 27  2  0  0  0  0
 26 28  2  0  0  0  0
 22 23  2  0  0  0  0
 23 25  1  0  0  0  0
 22 24  1  0  0  0  0
 24 26  1  0  0  0  0
 21 22  1  0  0  0  0
 25 26  1  0  0  0  0
  1  3  1  0  0  0  0
  1  7  1  0  0  0  0
  1  2  2  0  0  0  0
 42 43  1  0  0  0  0
 43 51  1  0  0  0  0
 43 44  2  0  0  0  0
  8  9  1  0  0  0  0
  9 17  1  0  0  0  0
  9 10  2  0  0  0  0
 18 19  1  0  0  0  0
 19 41  1  0  0  0  0
 19 20  2  0  0  0  0
 42 45  1  0  0  0  0
  8 11  1  0  0  0  0
 51 52  1  0  0  0  0
 18 21  1  0  0  0  0
 41 42  1  0  0  0  0
  7  8  1  0  0  0  0
 17 18  1  0  0  0  0
 29 39  1  0  0  0  0
 30 40  1  0  0  0  0
 27 37  1  0  0  0  0
 28 38  1  0  0  0  0
 23 35  1  0  0  0  0
  3  4  1  0  0  0  0
  3  5  1  0  0  0  0
  3  6  1  0  0  0  0
 45 48  1  0  0  0  0
 45 49  1  0  0  0  0
 45 50  1  0  0  0  0
 11 14  1  0  0  0  0
 11 15  1  0  0  0  0
 11 16  1  0  0  0  0
 52 54  1  0  0  0  0
 52 55  1  0  0  0  0
 52 56  1  0  0  0  0
 21 33  1  0  0  0  0
 21 34  1  0  0  0  0
 42 47  1  0  0  0  0
  8 13  1  0  0  0  0
 18 32  1  0  0  0  0
 25 36  1  0  0  0  0
 51 53  1  0  0  0  0
  7 12  1  0  0  0  0
 41 46  1  0  0  0  0
 17 31  1  0  0  0  0
M  END
$$$$

  -OEChem-05262214473D

 56 57  0     1  0  0  0  0  0999 V2000
   -2.2900    0.3401    4.1553 C   0  0  0  0  0  0  0  0  0  0  0  0
   -1.3426   -0.2746    3.6796 O   0  0  0  0  0  0  0  0  0  0  0  0
   -2.7219    0.0577    5.5560 C   0  0  0  0  0  0  0  0  0  0  0  0
   -3.4815   -0.7386    5.6094 H   0  0  0  0  0  0  0  0  0  0  0  0
   -1.8906   -0.2899    6.1903 H   0  0  0  0  0  0  0  0  0  0  0  0
   -3.1599    0.9126    6.0956 H   0  0  0  0  0  0  0  0  0  0  0  0
   -3.0397    1.3125    3.5142 N   0  0  0  0  0  0  0  0  0  0  0  0
   -2.7928    1.7385    2.1618 C   0  0  2  0  0  0  0  0  0  0  0  0
   -1.4579    1.1532    1.7206 C   0  0  0  0  0  0  0  0  0  0  0  0
   -0.5858    0.8004    2.5118 O   0  0  0  0  0  0  0  0  0  0  0  0
   -2.7841    3.2553    2.0523 C   0  0  0  0  0  0  0  0  0  0  0  0
   -3.8047    1.7484    4.0260 H   0  0  0  0  0  0  0  0  0  0  0  0
   -3.5969    1.3201    1.5466 H   0  0  0  0  0  0  0  0  0  0  0  0
   -1.9850    3.6926    2.6620 H   0  0  0  0  0  0  0  0  0  0  0  0
   -2.6246    3.5776    1.0180 H   0  0  0  0  0  0  0  0  0  0  0  0
   -3.7342    3.6765    2.3981 H   0  0  0  0  0  0  0  0  0  0  0  0
   -1.3352    1.1101    0.3372 N   0  0  0  0  0  0  0  0  0  0  0  0
   -0.1579    0.6093   -0.3265 C   0  0  2  0  0  0  0  0  0  0  0  0
   -0.5935   -0.5703   -1.1885 C   0  0  0  0  0  0  0  0  0  0  0  0
   -1.7636   -0.9350   -1.2815 O   0  0  0  0  0  0  0  0  0  0  0  0
    0.9250    0.1723    0.6668 C   0  0  0  0  0  0  0  0  0  0  0  0
    1.5073    1.3292    1.4416 C   0  0  0  0  0  0  0  0  0  0  0  0
    1.1265    1.7237    2.7035 C   0  0  0  0  0  0  0  0  0  0  0  0
    2.5423    2.2042    1.0082 C   0  0  0  0  0  0  0  0  0  0  0  0
    1.8891    2.8051    3.0549 N   0  0  0  0  0  0  0  0  0  0  0  0
    2.7626    3.1206    2.0387 C   0  0  0  0  0  0  0  0  0  0  0  0
    3.3153    2.3049   -0.1656 C   0  0  0  0  0  0  0  0  0  0  0  0
    3.7210    4.1367    1.9538 C   0  0  0  0  0  0  0  0  0  0  0  0
    4.2777    3.3162   -0.2646 C   0  0  0  0  0  0  0  0  0  0  0  0
    4.4758    4.2170    0.7800 C   0  0  0  0  0  0  0  0  0  0  0  0
   -2.1183    1.4068   -0.2401 H   0  0  0  0  0  0  0  0  0  0  0  0
    0.2010    1.4157   -0.9767 H   0  0  0  0  0  0  0  0  0  0  0  0
    1.7283   -0.3629    0.1426 H   0  0  0  0  0  0  0  0  0  0  0  0
    0.5174   -0.5518    1.3846 H   0  0  0  0  0  0  0  0  0  0  0  0
    0.3809    1.3338    3.3827 H   0  0  0  0  0  0  0  0  0  0  0  0
    1.8214    3.3005    3.9332 H   0  0  0  0  0  0  0  0  0  0  0  0
    3.1723    1.6110   -0.9892 H   0  0  0  0  0  0  0  0  0  0  0  0
    3.8766    4.8376    2.7668 H   0  0  0  0  0  0  0  0  0  0  0  0
    4.8765    3.3992   -1.1676 H   0  0  0  0  0  0  0  0  0  0  0  0
    5.2288    4.9947    0.6818 H   0  0  0  0  0  0  0  0  0  0  0  0
    0.4725   -1.1321   -1.8773 N   0  0  0  0  0  0  0  0  0  0  0  0
    0.3317   -2.2497   -2.7828 C   0  0  2  0  0  0  0  0  0  0  0  0
   -0.4556   -3.3390   -2.0665 C   0  0  0  0  0  0  0  0  0  0  0  0
   -0.5289   -3.4187   -0.8420 O   0  0  0  0  0  0  0  0  0  0  0  0
    1.6873   -2.7682   -3.2369 C   0  0  0  0  0  0  0  0  0  0  0  0
    1.3983   -0.7379   -1.7380 H   0  0  0  0  0  0  0  0  0  0  0  0
   -0.2424   -1.8891   -3.6433 H   0  0  0  0  0  0  0  0  0  0  0  0
    2.2769   -3.1337   -2.3883 H   0  0  0  0  0  0  0  0  0  0  0  0
    1.5785   -3.5963   -3.9449 H   0  0  0  0  0  0  0  0  0  0  0  0
    2.2641   -1.9754   -3.7254 H   0  0  0  0  0  0  0  0  0  0  0  0
   -1.0312   -4.2367   -2.9547 N   0  0  0  0  0  0  0  0  0  0  0  0
   -1.8183   -5.3671   -2.5204 C   0  0  0  0  0  0  0  0  0  0  0  0
   -0.9345   -4.0825   -3.9540 H   0  0  0  0  0  0  0  0  0  0  0  0
   -1.1691   -6.2495   -2.4196 H   0  0  0  0  0  0  0  0  0  0  0  0
   -2.2812   -5.1398   -1.5488 H   0  0  0  0  0  0  0  0  0  0  0  0
   -2.6042   -5.5731   -3.2619 H   0  0  0  0  0  0  0  0  0  0  0  0
 29 30  2  0  0  0  0
 27 29  1  0  0  0  0
 28 30  1  0  0  0  0
 24 27  2  0  0  0  0
 26 28  2  0  0  0  0
 22 23  2  0  0  0  0
 23 25  1  0  0  0  0
 22 24  1  0  0  0  0
 24 26  1  0  0  0  0
 21 22  1  0  0  0  0
 25 26  1  0  0  0  0
  1  3  1  0  0  0  0
  1  7  1  0  0  0  0
  1  2  2  0  0  0  0
 42 43  1  0  0  0  0
 43 51  1  0  0  0  0
 43 44  2  0  0  0  0
  8  9  1  0  0  0  0
  9 17  1  0  0  0  0
  9 10  2  0  0  0  0
 18 19  1  0  0  0  0
 19 41  1  0  0  0  0
 19 20  2  0  0  0  0
 42 45  1  0  0  0  0
  8 11  1  0  0  0  0
 51 52  1  0  0  0  0
 18 21  1  0  0  0  0
 41 42  1  0  0  0  0
  7  8  1  0  0  0  0
 17 18  1  0  0  0  0
 29 39  1  0  0  0  0
 30 40  1  0  0  0  0
 27 37  1  0  0  0  0
 28 38  1  0  0  0  0
 23 35  1  0  0  0  0
  3  4  1  0  0  0  0
  3  5  1  0  0  0  0
  3  6  1  0  0  0  0
 45 48  1  0  0  0  0
 45 49  1  0  0  0  0
 45 50  1  0  0  0  0
 11 14  1  0  0  0  0
 11 15  1  0  0  0  0
 11 16  1  0  0  0  0
 52 54  1  0  0  0  0
 52 55  1  0  0  0  0
 52 56  1  0  0  0  0
 21 33  1  0  0  0  0
 21 34  1  0  0  0  0
 42 47  1  0  0  0  0
  8 13  1  0  0  0  0
 18 32  1  0  0  0  0
 25 36  1  0  0  0  0
 51 53  1  0  0  0  0
  7 12  1  0  0  0  0
 41 46  1  0  0  0  0
 17 31  1  0  0  0  0
M  END
$$$$

  -OEChem-05262214473D

 56 57  0     1  0  0  0  0  0999 V2000
   -2.2900    0.3401    4.1553 C   0  0  0  0  0  0  0  0  0  0  0  0
   -1.3426   -0.2746    3.6796 O   0  0  0  0  0  0  0  0  0  0  0  0
   -2.7219    0.0577    5.5560 C   0  0  0  0  0  0  0  0  0  0  0  0
   -3.4815   -0.7386    5.6094 H   0  0  0  0  0  0  0  0  0  0  0  0
   -1.8906   -0.2899    6.1903 H   0  0  0  0  0  0  0  0  0  0  0  0
   -3.1599    0.9126    6.0956 H   0  0  0  0  0  0  0  0  0  0  0  0
   -3.0397    1.3125    3.5142 N   0  0  0  0  0  0  0  0  0  0  0  0
   -2.7928    1.7385    2.1618 C   0  0  2  0  0  0  0  0  0  0  0  0
   -1.4579    1.1532    1.7206 C   0  0  0  0  0  0  0  0  0  0  0  0
   -0.5858    0.8004    2.5118 O   0  0  0  0  0  0  0  0  0  0  0  0
   -2.7841    3.2553    2.0523 C   0  0  0  0  0  0  0  0  0  0  0  0
   -3.8047    1.7484    4.0260 H   0  0  0  0  0  0  0  0  0  0  0  0
   -3.5969    1.3201    1.5466 H   0  0  0  0  0  0  0  0  0  0  0  0
   -1.9850    3.6926    2.6620 H   0  0  0  0  0  0  0  0  0  0  0  0
   -2.6246    3.5776    1.0180 H   0  0  0  0  0  0  0  0  0  0  0  0
   -3.7342    3.6765    2.3981 H   0  0  0  0  0  0  0  0  0  0  0  0
   -1.3352    1.1101    0.3372 N   0  0  0  0  0  0  0  0  0  0  0  0
   -0.1579    0.6093   -0.3265 C   0  0  2  0  0  0  0  0  0  0  0  0
   -0.5935   -0.5703   -1.1885 C   0  0  0  0  0  0  0  0  0  0  0  0
   -1.7650   -0.7759   -1.4986 O   0  0  0  0  0  0  0  0  0  0  0  0
    0.9250    0.1723    0.6668 C   0  0  0  0  0  0  0  0  0  0  0  0
    1.5073    1.3292    1.4416 C   0  0  0  0  0  0  0  0  0  0  0  0
    1.1265    1.7237    2.7035 C   0  0  0  0  0  0  0  0  0  0  0  0
    2.5423    2.2042    1.0082 C   0  0  0  0  0  0  0  0  0  0  0  0
    1.8891    2.8051    3.0549 N   0  0  0  0  0  0  0  0  0  0  0  0
    2.7626    3.1206    2.0387 C   0  0  0  0  0  0  0  0  0  0  0  0
    3.3153    2.3049   -0.1656 C   0  0  0  0  0  0  0  0  0  0  0  0
    3.7210    4.1367    1.9538 C   0  0  0  0  0  0  0  0  0  0  0  0
    4.2777    3.3162   -0.2646 C   0  0  0  0  0  0  0  0  0  0  0  0
    4.4758    4.2170    0.7800 C   0  0  0  0  0  0  0  0  0  0  0  0
   -2.1183    1.4068   -0.2401 H   0  0  0  0  0  0  0  0  0  0  0  0
    0.2010    1.4157   -0.9767 H   0  0  0  0  0  0  0  0  0  0  0  0
    1.7283   -0.3629    0.1426 H   0  0  0  0  0  0  0  0  0  0  0  0
    0.5174   -0.5518    1.3846 H   0  0  0  0  0  0  0  0  0  0  0  0
    0.3809    1.3338    3.3827 H   0  0  0  0  0  0  0  0  0  0  0  0
    1.8214    3.3005    3.9332 H   0  0  0  0  0  0  0  0  0  0  0  0
    3.1723    1.6110   -0.9892 H   0  0  0  0  0  0  0  0  0  0  0  0
    3.8766    4.8376    2.7668 H   0  0  0  0  0  0  0  0  0  0  0  0
    4.8765    3.3992   -1.1676 H   0  0  0  0  0  0  0  0  0  0  0  0
    5.2288    4.9947    0.6818 H   0  0  0  0  0  0  0  0  0  0  0  0
    0.4869   -1.3336   -1.6088 N   0  0  0  0  0  0  0  0  0  0  0  0
    0.3548   -2.4968   -2.4563 C   0  0  2  0  0  0  0  0  0  0  0  0
   -0.7150   -3.3982   -1.8543 C   0  0  0  0  0  0  0  0  0  0  0  0
   -1.0367   -3.3579   -0.6686 O   0  0  0  0  0  0  0  0  0  0  0  0
    1.6767   -3.2367   -2.5903 C   0  0  0  0  0  0  0  0  0  0  0  0
    1.4172   -1.0609   -1.3056 H   0  0  0  0  0  0  0  0  0  0  0  0
    0.0218   -2.1380   -3.4363 H   0  0  0  0  0  0  0  0  0  0  0  0
    2.0263   -3.6037   -1.6185 H   0  0  0  0  0  0  0  0  0  0  0  0
    1.5817   -4.1014   -3.2555 H   0  0  0  0  0  0  0  0  0  0  0  0
    2.4525   -2.5782   -2.9957 H   0  0  0  0  0  0  0  0  0  0  0  0
   -1.2377   -4.2827   -2.7874 N   0  0  0  0  0  0  0  0  0  0  0  0
   -2.2586   -5.2499   -2.4583 C   0  0  0  0  0  0  0  0  0  0  0  0
   -0.9257   -4.2328   -3.7528 H   0  0  0  0  0  0  0  0  0  0  0  0
   -1.7852   -6.2013   -2.1742 H   0  0  0  0  0  0  0  0  0  0  0  0
   -2.8614   -4.8750   -1.6179 H   0  0  0  0  0  0  0  0  0  0  0  0
   -2.9073   -5.4098   -3.3322 H   0  0  0  0  0  0  0  0  0  0  0  0
 29 30  2  0  0  0  0
 27 29  1  0  0  0  0
 28 30  1  0  0  0  0
 24 27  2  0  0  0  0
 26 28  2  0  0  0  0
 22 23  2  0  0  0  0
 23 25  1  0  0  0  0
 22 24  1  0  0  0  0
 24 26  1  0  0  0  0
 21 22  1  0  0  0  0
 25 26  1  0  0  0  0
  1  3  1  0  0  0  0
  1  7  1  0  0  0  0
  1  2  2  0  0  0  0
 42 43  1  0  0  0  0
 43 51  1  0  0  0  0
 43 44  2  0  0  0  0
  8  9  1  0  0  0  0
  9 17  1  0  0  0  0
  9 10  2  0  0  0  0
 18 19  1  0  0  0  0
 19 41  1  0  0  0  0
 19 20  2  0  0  0  0
 42 45  1  0  0  0  0
  8 11  1  0  0  0  0
 51 52  1  0  0  0  0
 18 21  1  0  0  0  0
 41 42  1  0  0  0  0
  7  8  1  0  0  0  0
 17 18  1  0  0  0  0
 29 39  1  0  0  0  0
 30 40  1  0  0  0  0
 27 37  1  0  0  0  0
 28 38  1  0  0  0  0
 23 35  1  0  0  0  0
  3  4  1  0  0  0  0
  3  5  1  0  0  0  0
  3  6  1  0  0  0  0
 45 48  1  0  0  0  0
 45 49  1  0  0  0  0
 45 50  1  0  0  0  0
 11 14  1  0  0  0  0
 11 15  1  0  0  0  0
 11 16  1  0  0  0  0
 52 54  1  0  0  0  0
 52 55  1  0  0  0  0
 52 56  1  0  0  0  0
 21 33  1  0  0  0  0
 21 34  1  0  0  0  0
 42 47  1  0  0  0  0
  8 13  1  0  0  0  0
 18 32  1  0  0  0  0
 25 36  1  0  0  0  0
 51 53  1  0  0  0  0
  7 12  1  0  0  0  0
 41 46  1  0  0  0  0
 17 31  1  0  0  0  0
M  END
$$$$

  -OEChem-05262214473D

 56 57  0     1  0  0  0  0  0999 V2000
   -2.2900    0.3401    4.1553 C   0  0  0  0  0  0  0  0  0  0  0  0
   -1.3426   -0.2746    3.6796 O   0  0  0  0  0  0  0  0  0  0  0  0
   -2.7219    0.0577    5.5560 C   0  0  0  0  0  0  0  0  0  0  0  0
   -3.4815   -0.7386    5.6094 H   0  0  0  0  0  0  0  0  0  0  0  0
   -1.8906   -0.2899    6.1903 H   0  0  0  0  0  0  0  0  0  0  0  0
   -3.1599    0.9126    6.0956 H   0  0  0  0  0  0  0  0  0  0  0  0
   -3.0397    1.3125    3.5142 N   0  0  0  0  0  0  0  0  0  0  0  0
   -2.7928    1.7385    2.1618 C   0  0  2  0  0  0  0  0  0  0  0  0
   -1.4579    1.1532    1.7206 C   0  0  0  0  0  0  0  0  0  0  0  0
   -0.5858    0.8004    2.5118 O   0  0  0  0  0  0  0  0  0  0  0  0
   -2.7841    3.2553    2.0523 C   0  0  0  0  0  0  0  0  0  0  0  0
   -3.8047    1.7484    4.0260 H   0  0  0  0  0  0  0  0  0  0  0  0
   -3.5969    1.3201    1.5466 H   0  0  0  0  0  0  0  0  0  0  0  0
   -1.9850    3.6926    2.6620 H   0  0  0  0  0  0  0  0  0  0  0  0
   -2.6246    3.5776    1.0180 H   0  0  0  0  0  0  0  0  0  0  0  0
   -3.7342    3.6765    2.3981 H   0  0  0  0  0  0  0  0  0  0  0  0
   -1.3352    1.1101    0.3372 N   0  0  0  0  0  0  0  0  0  0  0  0
   -0.1579    0.6093   -0.3265 C   0  0  2  0  0  0  0  0  0  0  0  0
   -0.5935   -0.5703   -1.1885 C   0  0  0  0  0  0  0  0  0  0  0  0
   -1.6996   -0.6380   -1.7203 O   0  0  0  0  0  0  0  0  0  0  0  0
    0.9250    0.1723    0.6668 C   0  0  0  0  0  0  0  0  0  0  0  0
    1.5073    1.3292    1.4416 C   0  0  0  0  0  0  0  0  0  0  0  0
    1.1265    1.7237    2.7035 C   0  0  0  0  0  0  0  0  0  0  0  0
    2.5423    2.2042    1.0082 C   0  0  0  0  0  0  0  0  0  0  0  0
    1.8891    2.8051    3.0549 N   0  0  0  0  0  0  0  0  0  0  0  0
    2.7626    3.1206    2.0387 C   0  0  0  0  0  0  0  0  0  0  0  0
    3.3153    2.3049   -0.1656 C   0  0  0  0  0  0  0  0  0  0  0  0
    3.7210    4.1367    1.9538 C   0  0  0  0  0  0  0  0  0  0  0  0
    4.2777    3.3162   -0.2646 C   0  0  0  0  0  0  0  0  0  0  0  0
    4.4758    4.2170    0.7800 C   0  0  0  0  0  0  0  0  0  0  0  0
   -2.1183    1.4068   -0.2401 H   0  0  0  0  0  0  0  0  0  0  0  0
    0.2010    1.4157   -0.9767 H   0  0  0  0  0  0  0  0  0  0  0  0
    1.7283   -0.3629    0.1426 H   0  0  0  0  0  0  0  0  0  0  0  0
    0.5174   -0.5518    1.3846 H   0  0  0  0  0  0  0  0  0  0  0  0
    0.3809    1.3338    3.3827 H   0  0  0  0  0  0  0  0  0  0  0  0
    1.8214    3.3005    3.9332 H   0  0  0  0  0  0  0  0  0  0  0  0
    3.1723    1.6110   -0.9892 H   0  0  0  0  0  0  0  0  0  0  0  0
    3.8766    4.8376    2.7668 H   0  0  0  0  0  0  0  0  0  0  0  0
    4.8765    3.3992   -1.1676 H   0  0  0  0  0  0  0  0  0  0  0  0
    5.2288    4.9947    0.6818 H   0  0  0  0  0  0  0  0  0  0  0  0
    0.4175   -1.5104   -1.3317 N   0  0  0  0  0  0  0  0  0  0  0  0
    0.2756   -2.7147   -2.1181 C   0  0  2  0  0  0  0  0  0  0  0  0
   -1.0167   -3.4019   -1.6969 C   0  0  0  0  0  0  0  0  0  0  0  0
   -1.5530   -3.2121   -0.6073 O   0  0  0  0  0  0  0  0  0  0  0  0
    1.4684   -3.6399   -1.9333 C   0  0  0  0  0  0  0  0  0  0  0  0
    1.3016   -1.3437   -0.8602 H   0  0  0  0  0  0  0  0  0  0  0  0
    0.1991   -2.4017   -3.1650 H   0  0  0  0  0  0  0  0  0  0  0  0
    1.5613   -3.9641   -0.8904 H   0  0  0  0  0  0  0  0  0  0  0  0
    1.3729   -4.5387   -2.5515 H   0  0  0  0  0  0  0  0  0  0  0  0
    2.4002   -3.1342   -2.2085 H   0  0  0  0  0  0  0  0  0  0  0  0
   -1.4774   -4.2846   -2.6637 N   0  0  0  0  0  0  0  0  0  0  0  0
   -2.6793   -5.0676   -2.4952 C   0  0  0  0  0  0  0  0  0  0  0  0
   -0.9794   -4.3645   -3.5454 H   0  0  0  0  0  0  0  0  0  0  0  0
   -2.4224   -6.0464   -2.0641 H   0  0  0  0  0  0  0  0  0  0  0  0
   -3.3692   -4.5395   -1.8205 H   0  0  0  0  0  0  0  0  0  0  0  0
   -3.1621   -5.2130   -3.4729 H   0  0  0  0  0  0  0  0  0  0  0  0
 29 30  2  0  0  0  0
 27 29  1  0  0  0  0
 28 30  1  0  0  0  0
 24 27  2  0  0  0  0
 26 28  2  0  0  0  0
 22 23  2  0  0  0  0
 23 25  1  0  0  0  0
 22 24  1  0  0  0  0
 24 26  1  0  0  0  0
 21 22  1  0  0  0  0
 25 26  1  0  0  0  0
  1  3  1  0  0  0  0
  1  7  1  0  0  0  0
  1  2  2  0  0  0  0
 42 43  1  0  0  0  0
 43 51  1  0  0  0  0
 43 44  2  0  0  0  0
  8  9  1  0  0  0  0
  9 17  1  0  0  0  0
  9 10  2  0  0  0  0
 18 19  1  0  0  0  0
 19 41  1  0  0  0  0
 19 20  2  0  0  0  0
 42 45  1  0  0  0  0
  8 11  1  0  0  0  0
 51 52  1  0  0  0  0
 18 21  1  0  0  0  0
 41 42  1  0  0  0  0
  7  8  1  0  0  0  0
 17 18  1  0  0  0  0
 29 39  1  0  0  0  0
 30 40  1  0  0  0  0
 27 37  1  0  0  0  0
 28 38  1  0  0  0  0
 23 35  1  0  0  0  0
  3  4  1  0  0  0  0
  3  5  1  0  0  0  0
  3  6  1  0  0  0  0
 45 48  1  0  0  0  0
 45 49  1  0  0  0  0
 45 50  1  0  0  0  0
 11 14  1  0  0  0  0
 11 15  1  0  0  0  0
 11 16  1  0  0  0  0
 52 54  1  0  0  0  0
 52 55  1  0  0  0  0
 52 56  1  0  0  0  0
 21 33  1  0  0  0  0
 21 34  1  0  0  0  0
 42 47  1  0  0  0  0
  8 13  1  0  0  0  0
 18 32  1  0  0  0  0
 25 36  1  0  0  0  0
 51 53  1  0  0  0  0
  7 12  1  0  0  0  0
 41 46  1  0  0  0  0
 17 31  1  0  0  0  0
M  END
$$$$

  -OEChem-05262214473D

 56 57  0     1  0  0  0  0  0999 V2000
   -2.2900    0.3401    4.1553 C   0  0  0  0  0  0  0  0  0  0  0  0
   -1.3426   -0.2746    3.6796 O   0  0  0  0  0  0  0  0  0  0  0  0
   -2.7219    0.0577    5.5560 C   0  0  0  0  0  0  0  0  0  0  0  0
   -3.4815   -0.7386    5.6094 H   0  0  0  0  0  0  0  0  0  0  0  0
   -1.8906   -0.2899    6.1903 H   0  0  0  0  0  0  0  0  0  0  0  0
   -3.1599    0.9126    6.0956 H   0  0  0  0  0  0  0  0  0  0  0  0
   -3.0397    1.3125    3.5142 N   0  0  0  0  0  0  0  0  0  0  0  0
   -2.7928    1.7385    2.1618 C   0  0  2  0  0  0  0  0  0  0  0  0
   -1.4579    1.1532    1.7206 C   0  0  0  0  0  0  0  0  0  0  0  0
   -0.5858    0.8004    2.5118 O   0  0  0  0  0  0  0  0  0  0  0  0
   -2.7841    3.2553    2.0523 C   0  0  0  0  0  0  0  0  0  0  0  0
   -3.8047    1.7484    4.0260 H   0  0  0  0  0  0  0  0  0  0  0  0
   -3.5969    1.3201    1.5466 H   0  0  0  0  0  0  0  0  0  0  0  0
   -1.9850    3.6926    2.6620 H   0  0  0  0  0  0  0  0  0  0  0  0
   -2.6246    3.5776    1.0180 H   0  0  0  0  0  0  0  0  0  0  0  0
   -3.7342    3.6765    2.3981 H   0  0  0  0  0  0  0  0  0  0  0  0
   -1.3352    1.1101    0.3372 N   0  0  0  0  0  0  0  0  0  0  0  0
   -0.1579    0.6093   -0.3265 C   0  0  2  0  0  0  0  0  0  0  0  0
   -0.5935   -0.5703   -1.1885 C   0  0  0  0  0  0  0  0  0  0  0  0
   -1.5718   -0.5308   -1.9316 O   0  0  0  0  0  0  0  0  0  0  0  0
    0.9250    0.1723    0.6668 C   0  0  0  0  0  0  0  0  0  0  0  0
    1.5073    1.3292    1.4416 C   0  0  0  0  0  0  0  0  0  0  0  0
    1.1265    1.7237    2.7035 C   0  0  0  0  0  0  0  0  0  0  0  0
    2.5423    2.2042    1.0082 C   0  0  0  0  0  0  0  0  0  0  0  0
    1.8891    2.8051    3.0549 N   0  0  0  0  0  0  0  0  0  0  0  0
    2.7626    3.1206    2.0387 C   0  0  0  0  0  0  0  0  0  0  0  0
    3.3153    2.3049   -0.1656 C   0  0  0  0  0  0  0  0  0  0  0  0
    3.7210    4.1367    1.9538 C   0  0  0  0  0  0  0  0  0  0  0  0
    4.2777    3.3162   -0.2646 C   0  0  0  0  0  0  0  0  0  0  0  0
    4.4758    4.2170    0.7800 C   0  0  0  0  0  0  0  0  0  0  0  0
   -2.1183    1.4068   -0.2401 H   0  0  0  0  0  0  0  0  0  0  0  0
    0.2010    1.4157   -0.9767 H   0  0  0  0  0  0  0  0  0  0  0  0
    1.7283   -0.3629    0.1426 H   0  0  0  0  0  0  0  0  0  0  0  0
    0.5174   -0.5518    1.3846 H   0  0  0  0  0  0  0  0  0  0  0  0
    0.3809    1.3338    3.3827 H   0  0  0  0  0  0  0  0  0  0  0  0
    1.8214    3.3005    3.9332 H   0  0  0  0  0  0  0  0  0  0  0  0
    3.1723    1.6110   -0.9892 H   0  0  0  0  0  0  0  0  0  0  0  0
    3.8766    4.8376    2.7668 H   0  0  0  0  0  0  0  0  0  0  0  0
    4.8765    3.3992   -1.1676 H   0  0  0  0  0  0  0  0  0  0  0  0
    5.2288    4.9947    0.6818 H   0  0  0  0  0  0  0  0  0  0  0  0
    0.2691   -1.6506   -1.0649 N   0  0  0  0  0  0  0  0  0  0  0  0
    0.0995   -2.8887   -1.7911 C   0  0  2  0  0  0  0  0  0  0  0  0
   -1.3401   -3.3496   -1.6050 C   0  0  0  0  0  0  0  0  0  0  0  0
   -2.0427   -2.9911   -0.6622 O   0  0  0  0  0  0  0  0  0  0  0  0
    1.0766   -3.9503   -1.3106 C   0  0  0  0  0  0  0  0  0  0  0  0
    1.0593   -1.5670   -0.4322 H   0  0  0  0  0  0  0  0  0  0  0  0
    0.2774   -2.6623   -2.8480 H   0  0  0  0  0  0  0  0  0  0  0  0
    0.9136   -4.1903   -0.2535 H   0  0  0  0  0  0  0  0  0  0  0  0
    0.9662   -4.8785   -1.8810 H   0  0  0  0  0  0  0  0  0  0  0  0
    2.1106   -3.6053   -1.4175 H   0  0  0  0  0  0  0  0  0  0  0  0
   -1.7340   -4.2422   -2.5921 N   0  0  0  0  0  0  0  0  0  0  0  0
   -3.0516   -4.8327   -2.6286 C   0  0  0  0  0  0  0  0  0  0  0  0
   -1.0922   -4.4684   -3.3462 H   0  0  0  0  0  0  0  0  0  0  0  0
   -3.0373   -5.7955   -2.0968 H   0  0  0  0  0  0  0  0  0  0  0  0
   -3.7700   -4.1561   -2.1426 H   0  0  0  0  0  0  0  0  0  0  0  0
   -3.3512   -4.9959   -3.6743 H   0  0  0  0  0  0  0  0  0  0  0  0
 29 30  2  0  0  0  0
 27 29  1  0  0  0  0
 28 30  1  0  0  0  0
 24 27  2  0  0  0  0
 26 28  2  0  0  0  0
 22 23  2  0  0  0  0
 23 25  1  0  0  0  0
 22 24  1  0  0  0  0
 24 26  1  0  0  0  0
 21 22  1  0  0  0  0
 25 26  1  0  0  0  0
  1  3  1  0  0  0  0
  1  7  1  0  0  0  0
  1  2  2  0  0  0  0
 42 43  1  0  0  0  0
 43 51  1  0  0  0  0
 43 44  2  0  0  0  0
  8  9  1  0  0  0  0
  9 17  1  0  0  0  0
  9 10  2  0  0  0  0
 18 19  1  0  0  0  0
 19 41  1  0  0  0  0
 19 20  2  0  0  0  0
 42 45  1  0  0  0  0
  8 11  1  0  0  0  0
 51 52  1  0  0  0  0
 18 21  1  0  0  0  0
 41 42  1  0  0  0  0
  7  8  1  0  0  0  0
 17 18  1  0  0  0  0
 29 39  1  0  0  0  0
 30 40  1  0  0  0  0
 27 37  1  0  0  0  0
 28 38  1  0  0  0  0
 23 35  1  0  0  0  0
  3  4  1  0  0  0  0
  3  5  1  0  0  0  0
  3  6  1  0  0  0  0
 45 48  1  0  0  0  0
 45 49  1  0  0  0  0
 45 50  1  0  0  0  0
 11 14  1  0  0  0  0
 11 15  1  0  0  0  0
 11 16  1  0  0  0  0
 52 54  1  0  0  0  0
 52 55  1  0  0  0  0
 52 56  1  0  0  0  0
 21 33  1  0  0  0  0
 21 34  1  0  0  0  0
 42 47  1  0  0  0  0
  8 13  1  0  0  0  0
 18 32  1  0  0  0  0
 25 36  1  0  0  0  0
 51 53  1  0  0  0  0
  7 12  1  0  0  0  0
 41 46  1  0  0  0  0
 17 31  1  0  0  0  0
M  END
$$$$

  -OEChem-05262214473D

 56 57  0     1  0  0  0  0  0999 V2000
   -2.2900    0.3401    4.1553 C   0  0  0  0  0  0  0  0  0  0  0  0
   -1.3426   -0.2746    3.6796 O   0  0  0  0  0  0  0  0  0  0  0  0
   -2.7219    0.0577    5.5560 C   0  0  0  0  0  0  0  0  0  0  0  0
   -3.4815   -0.7386    5.6094 H   0  0  0  0  0  0  0  0  0  0  0  0
   -1.8906   -0.2899    6.1903 H   0  0  0  0  0  0  0  0  0  0  0  0
   -3.1599    0.9126    6.0956 H   0  0  0  0  0  0  0  0  0  0  0  0
   -3.0397    1.3125    3.5142 N   0  0  0  0  0  0  0  0  0  0  0  0
   -2.7928    1.7385    2.1618 C   0  0  2  0  0  0  0  0  0  0  0  0
   -1.4579    1.1532    1.7206 C   0  0  0  0  0  0  0  0  0  0  0  0
   -0.5858    0.8004    2.5118 O   0  0  0  0  0  0  0  0  0  0  0  0
   -2.7841    3.2553    2.0523 C   0  0  0  0  0  0  0  0  0  0  0  0
   -3.8047    1.7484    4.0260 H   0  0  0  0  0  0  0  0  0  0  0  0
   -3.5969    1.3201    1.5466 H   0  0  0  0  0  0  0  0  0  0  0  0
   -1.9850    3.6926    2.6620 H   0  0  0  0  0  0  0  0  0  0  0  0
   -2.6246    3.5776    1.0180 H   0  0  0  0  0  0  0  0  0  0  0  0
   -3.7342    3.6765    2.3981 H   0  0  0  0  0  0  0  0  0  0  0  0
   -1.3352    1.1101    0.3372 N   0  0  0  0  0  0  0  0  0  0  0  0
   -0.1579    0.6093   -0.3265 C   0  0  2  0  0  0  0  0  0  0  0  0
   -0.5935   -0.5703   -1.1885 C   0  0  0  0  0  0  0  0  0  0  0  0
   -1.3904   -0.4615   -2.1180 O   0  0  0  0  0  0  0  0  0  0  0  0
    0.9250    0.1723    0.6668 C   0  0  0  0  0  0  0  0  0  0  0  0
    1.5073    1.3292    1.4416 C   0  0  0  0  0  0  0  0  0  0  0  0
    1.1265    1.7237    2.7035 C   0  0  0  0  0  0  0  0  0  0  0  0
    2.5423    2.2042    1.0082 C   0  0  0  0  0  0  0  0  0  0  0  0
    1.8891    2.8051    3.0549 N   0  0  0  0  0  0  0  0  0  0  0  0
    2.7626    3.1206    2.0387 C   0  0  0  0  0  0  0  0  0  0  0  0
    3.3153    2.3049   -0.1656 C   0  0  0  0  0  0  0  0  0  0  0  0
    3.7210    4.1367    1.9538 C   0  0  0  0  0  0  0  0  0  0  0  0
    4.2777    3.3162   -0.2646 C   0  0  0  0  0  0  0  0  0  0  0  0
    4.4758    4.2170    0.7800 C   0  0  0  0  0  0  0  0  0  0  0  0
   -2.1183    1.4068   -0.2401 H   0  0  0  0  0  0  0  0  0  0  0  0
    0.2010    1.4157   -0.9767 H   0  0  0  0  0  0  0  0  0  0  0  0
    1.7283   -0.3629    0.1426 H   0  0  0  0  0  0  0  0  0  0  0  0
    0.5174   -0.5518    1.3846 H   0  0  0  0  0  0  0  0  0  0  0  0
    0.3809    1.3338    3.3827 H   0  0  0  0  0  0  0  0  0  0  0  0
    1.8214    3.3005    3.9332 H   0  0  0  0  0  0  0  0  0  0  0  0
    3.1723    1.6110   -0.9892 H   0  0  0  0  0  0  0  0  0  0  0  0
    3.8766    4.8376    2.7668 H   0  0  0  0  0  0  0  0  0  0  0  0
    4.8765    3.3992   -1.1676 H   0  0  0  0  0  0  0  0  0  0  0  0
    5.2288    4.9947    0.6818 H   0  0  0  0  0  0  0  0  0  0  0  0
    0.0518   -1.7446   -0.8265 N   0  0  0  0  0  0  0  0  0  0  0  0
   -0.1616   -3.0067   -1.4976 C   0  0  2  0  0  0  0  0  0  0  0  0
   -1.6633   -3.2449   -1.5849 C   0  0  0  0  0  0  0  0  0  0  0  0
   -2.4723   -2.7101   -0.8297 O   0  0  0  0  0  0  0  0  0  0  0  0
    0.5280   -4.1468   -0.7645 C   0  0  0  0  0  0  0  0  0  0  0  0
    0.7070   -1.7156   -0.0508 H   0  0  0  0  0  0  0  0  0  0  0  0
    0.2514   -2.9020   -2.5068 H   0  0  0  0  0  0  0  0  0  0  0  0
    0.1273   -4.2669    0.2486 H   0  0  0  0  0  0  0  0  0  0  0  0
    0.3893   -5.0976   -1.2897 H   0  0  0  0  0  0  0  0  0  0  0  0
    1.6036   -3.9595   -0.6766 H   0  0  0  0  0  0  0  0  0  0  0  0
   -1.9899   -4.1584   -2.5774 N   0  0  0  0  0  0  0  0  0  0  0  0
   -3.3500   -4.5611   -2.8493 C   0  0  0  0  0  0  0  0  0  0  0  0
   -1.2562   -4.5376   -3.1686 H   0  0  0  0  0  0  0  0  0  0  0  0
   -3.5880   -5.4655   -2.2701 H   0  0  0  0  0  0  0  0  0  0  0  0
   -4.0365   -3.7509   -2.5624 H   0  0  0  0  0  0  0  0  0  0  0  0
   -3.4618   -4.7735   -3.9228 H   0  0  0  0  0  0  0  0  0  0  0  0
 29 30  2  0  0  0  0
 27 29  1  0  0  0  0
 28 30  1  0  0  0  0
 24 27  2  0  0  0  0
 26 28  2  0  0  0  0
 22 23  2  0  0  0  0
 23 25  1  0  0  0  0
 22 24  1  0  0  0  0
 24 26  1  0  0  0  0
 21 22  1  0  0  0  0
 25 26  1  0  0  0  0
  1  3  1  0  0  0  0
  1  7  1  0  0  0  0
  1  2  2  0  0  0  0
 42 43  1  0  0  0  0
 43 51  1  0  0  0  0
 43 44  2  0  0  0  0
  8  9  1  0  0  0  0
  9 17  1  0  0  0  0
  9 10  2  0  0  0  0
 18 19  1  0  0  0  0
 19 41  1  0  0  0  0
 19 20  2  0  0  0  0
 42 45  1  0  0  0  0
  8 11  1  0  0  0  0
 51 52  1  0  0  0  0
 18 21  1  0  0  0  0
 41 42  1  0  0  0  0
  7  8  1  0  0  0  0
 17 18  1  0  0  0  0
 29 39  1  0  0  0  0
 30 40  1  0  0  0  0
 27 37  1  0  0  0  0
 28 38  1  0  0  0  0
 23 35  1  0  0  0  0
  3  4  1  0  0  0  0
  3  5  1  0  0  0  0
  3  6  1  0  0  0  0
 45 48  1  0  0  0  0
 45 49  1  0  0  0  0
 45 50  1  0  0  0  0
 11 14  1  0  0  0  0
 11 15  1  0  0  0  0
 11 16  1  0  0  0  0
 52 54  1  0  0  0  0
 52 55  1  0  0  0  0
 52 56  1  0  0  0  0
 21 33  1  0  0  0  0
 21 34  1  0  0  0  0
 42 47  1  0  0  0  0
  8 13  1  0  0  0  0
 18 32  1  0  0  0  0
 25 36  1  0  0  0  0
 51 53  1  0  0  0  0
  7 12  1  0  0  0  0
 41 46  1  0  0  0  0
 17 31  1  0  0  0  0
M  END
$$$$

  -OEChem-05262214473D

 56 57  0     1  0  0  0  0  0999 V2000
   -2.2900    0.3401    4.1553 C   0  0  0  0  0  0  0  0  0  0  0  0
   -1.3426   -0.2746    3.6796 O   0  0  0  0  0  0  0  0  0  0  0  0
   -2.7219    0.0577    5.5560 C   0  0  0  0  0  0  0  0  0  0  0  0
   -3.4815   -0.7386    5.6094 H   0  0  0  0  0  0  0  0  0  0  0  0
   -1.8906   -0.2899    6.1903 H   0  0  0  0  0  0  0  0  0  0  0  0
   -3.1599    0.9126    6.0956 H   0  0  0  0  0  0  0  0  0  0  0  0
   -3.0397    1.3125    3.5142 N   0  0  0  0  0  0  0  0  0  0  0  0
   -2.7928    1.7385    2.1618 C   0  0  2  0  0  0  0  0  0  0  0  0
   -1.4579    1.1532    1.7206 C   0  0  0  0  0  0  0  0  0  0  0  0
   -0.5858    0.8004    2.5118 O   0  0  0  0  0  0  0  0  0  0  0  0
   -2.7841    3.2553    2.0523 C   0  0  0  0  0  0  0  0  0  0  0  0
   -3.8047    1.7484    4.0260 H   0  0  0  0  0  0  0  0  0  0  0  0
   -3.5969    1.3201    1.5466 H   0  0  0  0  0  0  0  0  0  0  0  0
   -1.9850    3.6926    2.6620 H   0  0  0  0  0  0  0  0  0  0  0  0
   -2.6246    3.5776    1.0180 H   0  0  0  0  0  0  0  0  0  0  0  0
   -3.7342    3.6765    2.3981 H   0  0  0  0  0  0  0  0  0  0  0  0
   -1.3352    1.1101    0.3372 N   0  0  0  0  0  0  0  0  0  0  0  0
   -0.1579    0.6093   -0.3265 C   0  0  2  0  0  0  0  0  0  0  0  0
   -0.5935   -0.5703   -1.1885 C   0  0  0  0  0  0  0  0  0  0  0  0
   -1.1677   -0.4350   -2.2669 O   0  0  0  0  0  0  0  0  0  0  0  0
    0.9250    0.1723    0.6668 C   0  0  0  0  0  0  0  0  0  0  0  0
    1.5073    1.3292    1.4416 C   0  0  0  0  0  0  0  0  0  0  0  0
    1.1265    1.7237    2.7035 C   0  0  0  0  0  0  0  0  0  0  0  0
    2.5423    2.2042    1.0082 C   0  0  0  0  0  0  0  0  0  0  0  0
    1.8891    2.8051    3.0549 N   0  0  0  0  0  0  0  0  0  0  0  0
    2.7626    3.1206    2.0387 C   0  0  0  0  0  0  0  0  0  0  0  0
    3.3153    2.3049   -0.1656 C   0  0  0  0  0  0  0  0  0  0  0  0
    3.7210    4.1367    1.9538 C   0  0  0  0  0  0  0  0  0  0  0  0
    4.2777    3.3162   -0.2646 C   0  0  0  0  0  0  0  0  0  0  0  0
    4.4758    4.2170    0.7800 C   0  0  0  0  0  0  0  0  0  0  0  0
   -2.1183    1.4068   -0.2401 H   0  0  0  0  0  0  0  0  0  0  0  0
    0.2010    1.4157   -0.9767 H   0  0  0  0  0  0  0  0  0  0  0  0
    1.7283   -0.3629    0.1426 H   0  0  0  0  0  0  0  0  0  0  0  0
    0.5174   -0.5518    1.3846 H   0  0  0  0  0  0  0  0  0  0  0  0
    0.3809    1.3338    3.3827 H   0  0  0  0  0  0  0  0  0  0  0  0
    1.8214    3.3005    3.9332 H   0  0  0  0  0  0  0  0  0  0  0  0
    3.1723    1.6110   -0.9892 H   0  0  0  0  0  0  0  0  0  0  0  0
    3.8766    4.8376    2.7668 H   0  0  0  0  0  0  0  0  0  0  0  0
    4.8765    3.3992   -1.1676 H   0  0  0  0  0  0  0  0  0  0  0  0
    5.2288    4.9947    0.6818 H   0  0  0  0  0  0  0  0  0  0  0  0
   -0.2196   -1.7860   -0.6328 N   0  0  0  0  0  0  0  0  0  0  0  0
   -0.4898   -3.0608   -1.2578 C   0  0  2  0  0  0  0  0  0  0  0  0
   -1.9641   -3.0951   -1.6379 C   0  0  0  0  0  0  0  0  0  0  0  0
   -2.8127   -2.3881   -1.0983 O   0  0  0  0  0  0  0  0  0  0  0  0
   -0.1400   -4.2159   -0.3325 C   0  0  0  0  0  0  0  0  0  0  0  0
    0.2685   -1.7793    0.2580 H   0  0  0  0  0  0  0  0  0  0  0  0
    0.1230   -3.1045   -2.1648 H   0  0  0  0  0  0  0  0  0  0  0  0
   -0.7439   -4.1887    0.5819 H   0  0  0  0  0  0  0  0  0  0  0  0
   -0.3184   -5.1811   -0.8178 H   0  0  0  0  0  0  0  0  0  0  0  0
    0.9136   -4.1726   -0.0362 H   0  0  0  0  0  0  0  0  0  0  0  0
   -2.2278   -4.0389   -2.6207 N   0  0  0  0  0  0  0  0  0  0  0  0
   -3.5544   -4.2715   -3.1424 C   0  0  0  0  0  0  0  0  0  0  0  0
   -1.4603   -4.5673   -3.0249 H   0  0  0  0  0  0  0  0  0  0  0  0
   -4.0368   -5.0790   -2.5722 H   0  0  0  0  0  0  0  0  0  0  0  0
   -4.1506   -3.3516   -3.0512 H   0  0  0  0  0  0  0  0  0  0  0  0
   -3.4863   -4.5608   -4.2015 H   0  0  0  0  0  0  0  0  0  0  0  0
 29 30  2  0  0  0  0
 27 29  1  0  0  0  0
 28 30  1  0  0  0  0
 24 27  2  0  0  0  0
 26 28  2  0  0  0  0
 22 23  2  0  0  0  0
 23 25  1  0  0  0  0
 22 24  1  0  0  0  0
 24 26  1  0  0  0  0
 21 22  1  0  0  0  0
 25 26  1  0  0  0  0
  1  3  1  0  0  0  0
  1  7  1  0  0  0  0
  1  2  2  0  0  0  0
 42 43  1  0  0  0  0
 43 51  1  0  0  0  0
 43 44  2  0  0  0  0
  8  9  1  0  0  0  0
  9 17  1  0  0  0  0
  9 10  2  0  0  0  0
 18 19  1  0  0  0  0
 19 41  1  0  0  0  0
 19 20  2  0  0  0  0
 42 45  1  0  0  0  0
  8 11  1  0  0  0  0
 51 52  1  0  0  0  0
 18 21  1  0  0  0  0
 41 42  1  0  0  0  0
  7  8  1  0  0  0  0
 17 18  1  0  0  0  0
 29 39  1  0  0  0  0
 30 40  1  0  0  0  0
 27 37  1  0  0  0  0
 28 38  1  0  0  0  0
 23 35  1  0  0  0  0
  3  4  1  0  0  0  0
  3  5  1  0  0  0  0
  3  6  1  0  0  0  0
 45 48  1  0  0  0  0
 45 49  1  0  0  0  0
 45 50  1  0  0  0  0
 11 14  1  0  0  0  0
 11 15  1  0  0  0  0
 11 16  1  0  0  0  0
 52 54  1  0  0  0  0
 52 55  1  0  0  0  0
 52 56  1  0  0  0  0
 21 33  1  0  0  0  0
 21 34  1  0  0  0  0
 42 47  1  0  0  0  0
  8 13  1  0  0  0  0
 18 32  1  0  0  0  0
 25 36  1  0  0  0  0
 51 53  1  0  0  0  0
  7 12  1  0  0  0  0
 41 46  1  0  0  0  0
 17 31  1  0  0  0  0
M  END
$$$$

  -OEChem-05262214473D

 56 57  0     1  0  0  0  0  0999 V2000
   -2.2900    0.3401    4.1553 C   0  0  0  0  0  0  0  0  0  0  0  0
   -1.3426   -0.2746    3.6796 O   0  0  0  0  0  0  0  0  0  0  0  0
   -2.7219    0.0577    5.5560 C   0  0  0  0  0  0  0  0  0  0  0  0
   -3.4815   -0.7386    5.6094 H   0  0  0  0  0  0  0  0  0  0  0  0
   -1.8906   -0.2899    6.1903 H   0  0  0  0  0  0  0  0  0  0  0  0
   -3.1599    0.9126    6.0956 H   0  0  0  0  0  0  0  0  0  0  0  0
   -3.0397    1.3125    3.5142 N   0  0  0  0  0  0  0  0  0  0  0  0
   -2.7928    1.7385    2.1618 C   0  0  2  0  0  0  0  0  0  0  0  0
   -1.4579    1.1532    1.7206 C   0  0  0  0  0  0  0  0  0  0  0  0
   -0.5858    0.8004    2.5118 O   0  0  0  0  0  0  0  0  0  0  0  0
   -2.7841    3.2553    2.0523 C   0  0  0  0  0  0  0  0  0  0  0  0
   -3.8047    1.7484    4.0260 H   0  0  0  0  0  0  0  0  0  0  0  0
   -3.5969    1.3201    1.5466 H   0  0  0  0  0  0  0  0  0  0  0  0
   -1.9850    3.6926    2.6620 H   0  0  0  0  0  0  0  0  0  0  0  0
   -2.6246    3.5776    1.0180 H   0  0  0  0  0  0  0  0  0  0  0  0
   -3.7342    3.6765    2.3981 H   0  0  0  0  0  0  0  0  0  0  0  0
   -1.3352    1.1101    0.3372 N   0  0  0  0  0  0  0  0  0  0  0  0
   -0.1579    0.6093   -0.3265 C   0  0  2  0  0  0  0  0  0  0  0  0
   -0.5935   -0.5703   -1.1885 C   0  0  0  0  0  0  0  0  0  0  0  0
   -0.9189   -0.4530   -2.3680 O   0  0  0  0  0  0  0  0  0  0  0  0
    0.9250    0.1723    0.6668 C   0  0  0  0  0  0  0  0  0  0  0  0
    1.5073    1.3292    1.4416 C   0  0  0  0  0  0  0  0  0  0  0  0
    1.1265    1.7237    2.7035 C   0  0  0  0  0  0  0  0  0  0  0  0
    2.5423    2.2042    1.0082 C   0  0  0  0  0  0  0  0  0  0  0  0
    1.8891    2.8051    3.0549 N   0  0  0  0  0  0  0  0  0  0  0  0
    2.7626    3.1206    2.0387 C   0  0  0  0  0  0  0  0  0  0  0  0
    3.3153    2.3049   -0.1656 C   0  0  0  0  0  0  0  0  0  0  0  0
    3.7210    4.1367    1.9538 C   0  0  0  0  0  0  0  0  0  0  0  0
    4.2777    3.3162   -0.2646 C   0  0  0  0  0  0  0  0  0  0  0  0
    4.4758    4.2170    0.7800 C   0  0  0  0  0  0  0  0  0  0  0  0
   -2.1183    1.4068   -0.2401 H   0  0  0  0  0  0  0  0  0  0  0  0
    0.2010    1.4157   -0.9767 H   0  0  0  0  0  0  0  0  0  0  0  0
    1.7283   -0.3629    0.1426 H   0  0  0  0  0  0  0  0  0  0  0  0
    0.5174   -0.5518    1.3846 H   0  0  0  0  0  0  0  0  0  0  0  0
    0.3809    1.3338    3.3827 H   0  0  0  0  0  0  0  0  0  0  0  0
    1.8214    3.3005    3.9332 H   0  0  0  0  0  0  0  0  0  0  0  0
    3.1723    1.6110   -0.9892 H   0  0  0  0  0  0  0  0  0  0  0  0
    3.8766    4.8376    2.7668 H   0  0  0  0  0  0  0  0  0  0  0  0
    4.8765    3.3992   -1.1676 H   0  0  0  0  0  0  0  0  0  0  0  0
    5.2288    4.9947    0.6818 H   0  0  0  0  0  0  0  0  0  0  0  0
   -0.5266   -1.7719   -0.4970 N   0  0  0  0  0  0  0  0  0  0  0  0
   -0.8628   -3.0473   -1.0878 C   0  0  2  0  0  0  0  0  0  0  0  0
   -2.2222   -2.9102   -1.7605 C   0  0  0  0  0  0  0  0  0  0  0  0
   -3.0405   -2.0472   -1.4496 O   0  0  0  0  0  0  0  0  0  0  0  0
   -0.8819   -4.1529   -0.0438 C   0  0  0  0  0  0  0  0  0  0  0  0
   -0.2263   -1.7539    0.4732 H   0  0  0  0  0  0  0  0  0  0  0  0
   -0.0993   -3.2561   -1.8451 H   0  0  0  0  0  0  0  0  0  0  0  0
   -1.6408   -3.9611    0.7235 H   0  0  0  0  0  0  0  0  0  0  0  0
   -1.1086   -5.1233   -0.4976 H   0  0  0  0  0  0  0  0  0  0  0  0
    0.0878   -4.2302    0.4598 H   0  0  0  0  0  0  0  0  0  0  0  0
   -2.4315   -3.8919   -2.7190 N   0  0  0  0  0  0  0  0  0  0  0  0
   -3.6507   -3.9835   -3.4878 C   0  0  0  0  0  0  0  0  0  0  0  0
   -1.6905   -4.5555   -2.9247 H   0  0  0  0  0  0  0  0  0  0  0  0
   -4.3534   -4.6623   -2.9824 H   0  0  0  0  0  0  0  0  0  0  0  0
   -4.1045   -2.9853   -3.5757 H   0  0  0  0  0  0  0  0  0  0  0  0
   -3.4230   -4.3724   -4.4913 H   0  0  0  0  0  0  0  0  0  0  0  0
 29 30  2  0  0  0  0
 27 29  1  0  0  0  0
 28 30  1  0  0  0  0
 24 27  2  0  0  0  0
 26 28  2  0  0  0  0
 22 23  2  0  0  0  0
 23 25  1  0  0  0  0
 22 24  1  0  0  0  0
 24 26  1  0  0  0  0
 21 22  1  0  0  0  0
 25 26  1  0  0  0  0
  1  3  1  0  0  0  0
  1  7  1  0  0  0  0
  1  2  2  0  0  0  0
 42 43  1  0  0  0  0
 43 51  1  0  0  0  0
 43 44  2  0  0  0  0
  8  9  1  0  0  0  0
  9 17  1  0  0  0  0
  9 10  2  0  0  0  0
 18 19  1  0  0  0  0
 19 41  1  0  0  0  0
 19 20  2  0  0  0  0
 42 45  1  0  0  0  0
  8 11  1  0  0  0  0
 51 52  1  0  0  0  0
 18 21  1  0  0  0  0
 41 42  1  0  0  0  0
  7  8  1  0  0  0  0
 17 18  1  0  0  0  0
 29 39  1  0  0  0  0
 30 40  1  0  0  0  0
 27 37  1  0  0  0  0
 28 38  1  0  0  0  0
 23 35  1  0  0  0  0
  3  4  1  0  0  0  0
  3  5  1  0  0  0  0
  3  6  1  0  0  0  0
 45 48  1  0  0  0  0
 45 49  1  0  0  0  0
 45 50  1  0  0  0  0
 11 14  1  0  0  0  0
 11 15  1  0  0  0  0
 11 16  1  0  0  0  0
 52 54  1  0  0  0  0
 52 55  1  0  0  0  0
 52 56  1  0  0  0  0
 21 33  1  0  0  0  0
 21 34  1  0  0  0  0
 42 47  1  0  0  0  0
  8 13  1  0  0  0  0
 18 32  1  0  0  0  0
 25 36  1  0  0  0  0
 51 53  1  0  0  0  0
  7 12  1  0  0  0  0
 41 46  1  0  0  0  0
 17 31  1  0  0  0  0
M  END
$$$$

  -OEChem-05262214473D

 56 57  0     1  0  0  0  0  0999 V2000
   -2.2900    0.3401    4.1553 C   0  0  0  0  0  0  0  0  0  0  0  0
   -1.3426   -0.2746    3.6796 O   0  0  0  0  0  0  0  0  0  0  0  0
   -2.7219    0.0577    5.5560 C   0  0  0  0  0  0  0  0  0  0  0  0
   -3.4815   -0.7386    5.6094 H   0  0  0  0  0  0  0  0  0  0  0  0
   -1.8906   -0.2899    6.1903 H   0  0  0  0  0  0  0  0  0  0  0  0
   -3.1599    0.9126    6.0956 H   0  0  0  0  0  0  0  0  0  0  0  0
   -3.0397    1.3125    3.5142 N   0  0  0  0  0  0  0  0  0  0  0  0
   -2.7928    1.7385    2.1618 C   0  0  2  0  0  0  0  0  0  0  0  0
   -1.4579    1.1532    1.7206 C   0  0  0  0  0  0  0  0  0  0  0  0
   -0.5858    0.8004    2.5118 O   0  0  0  0  0  0  0  0  0  0  0  0
   -2.7841    3.2553    2.0523 C   0  0  0  0  0  0  0  0  0  0  0  0
   -3.8047    1.7484    4.0260 H   0  0  0  0  0  0  0  0  0  0  0  0
   -3.5969    1.3201    1.5466 H   0  0  0  0  0  0  0  0  0  0  0  0
   -1.9850    3.6926    2.6620 H   0  0  0  0  0  0  0  0  0  0  0  0
   -2.6246    3.5776    1.0180 H   0  0  0  0  0  0  0  0  0  0  0  0
   -3.7342    3.6765    2.3981 H   0  0  0  0  0  0  0  0  0  0  0  0
   -1.3352    1.1101    0.3372 N   0  0  0  0  0  0  0  0  0  0  0  0
   -0.1579    0.6093   -0.3265 C   0  0  2  0  0  0  0  0  0  0  0  0
   -0.5935   -0.5703   -1.1885 C   0  0  0  0  0  0  0  0  0  0  0  0
   -0.6609   -0.5142   -2.4145 O   0  0  0  0  0  0  0  0  0  0  0  0
    0.9250    0.1723    0.6668 C   0  0  0  0  0  0  0  0  0  0  0  0
    1.5073    1.3292    1.4416 C   0  0  0  0  0  0  0  0  0  0  0  0
    1.1265    1.7237    2.7035 C   0  0  0  0  0  0  0  0  0  0  0  0
    2.5423    2.2042    1.0082 C   0  0  0  0  0  0  0  0  0  0  0  0
    1.8891    2.8051    3.0549 N   0  0  0  0  0  0  0  0  0  0  0  0
    2.7626    3.1206    2.0387 C   0  0  0  0  0  0  0  0  0  0  0  0
    3.3153    2.3049   -0.1656 C   0  0  0  0  0  0  0  0  0  0  0  0
    3.7210    4.1367    1.9538 C   0  0  0  0  0  0  0  0  0  0  0  0
    4.2777    3.3162   -0.2646 C   0  0  0  0  0  0  0  0  0  0  0  0
    4.4758    4.2170    0.7800 C   0  0  0  0  0  0  0  0  0  0  0  0
   -2.1183    1.4068   -0.2401 H   0  0  0  0  0  0  0  0  0  0  0  0
    0.2010    1.4157   -0.9767 H   0  0  0  0  0  0  0  0  0  0  0  0
    1.7283   -0.3629    0.1426 H   0  0  0  0  0  0  0  0  0  0  0  0
    0.5174   -0.5518    1.3846 H   0  0  0  0  0  0  0  0  0  0  0  0
    0.3809    1.3338    3.3827 H   0  0  0  0  0  0  0  0  0  0  0  0
    1.8214    3.3005    3.9332 H   0  0  0  0  0  0  0  0  0  0  0  0
    3.1723    1.6110   -0.9892 H   0  0  0  0  0  0  0  0  0  0  0  0
    3.8766    4.8376    2.7668 H   0  0  0  0  0  0  0  0  0  0  0  0
    4.8765    3.3992   -1.1676 H   0  0  0  0  0  0  0  0  0  0  0  0
    5.2288    4.9947    0.6818 H   0  0  0  0  0  0  0  0  0  0  0  0
   -0.8482   -1.7033   -0.4283 N   0  0  0  0  0  0  0  0  0  0  0  0
   -1.2551   -2.9671   -0.9993 C   0  0  2  0  0  0  0  0  0  0  0  0
   -2.4199   -2.7030   -1.9442 C   0  0  0  0  0  0  0  0  0  0  0  0
   -3.1403   -1.7105   -1.8599 O   0  0  0  0  0  0  0  0  0  0  0  0
   -1.6471   -3.9621    0.0819 C   0  0  0  0  0  0  0  0  0  0  0  0
   -0.7435   -1.6410    0.5801 H   0  0  0  0  0  0  0  0  0  0  0  0
   -0.4001   -3.3463   -1.5696 H   0  0  0  0  0  0  0  0  0  0  0  0
   -2.5021   -3.5994    0.6639 H   0  0  0  0  0  0  0  0  0  0  0  0
   -1.9277   -4.9281   -0.3508 H   0  0  0  0  0  0  0  0  0  0  0  0
   -0.8177   -4.1282    0.7779 H   0  0  0  0  0  0  0  0  0  0  0  0
   -2.5870   -3.7273   -2.8656 N   0  0  0  0  0  0  0  0  0  0  0  0
   -3.6325   -3.7167   -3.8621 C   0  0  0  0  0  0  0  0  0  0  0  0
   -1.9313   -4.5030   -2.8748 H   0  0  0  0  0  0  0  0  0  0  0  0
   -4.5160   -4.2439   -3.4729 H   0  0  0  0  0  0  0  0  0  0  0  0
   -3.9013   -2.6770   -4.1003 H   0  0  0  0  0  0  0  0  0  0  0  0
   -3.2763   -4.2211   -4.7724 H   0  0  0  0  0  0  0  0  0  0  0  0
 29 30  2  0  0  0  0
 27 29  1  0  0  0  0
 28 30  1  0  0  0  0
 24 27  2  0  0  0  0
 26 28  2  0  0  0  0
 22 23  2  0  0  0  0
 23 25  1  0  0  0  0
 22 24  1  0  0  0  0
 24 26  1  0  0  0  0
 21 22  1  0  0  0  0
 25 26  1  0  0  0  0
  1  3  1  0  0  0  0
  1  7  1  0  0  0  0
  1  2  2  0  0  0  0
 42 43  1  0  0  0  0
 43 51  1  0  0  0  0
 43 44  2  0  0  0  0
  8  9  1  0  0  0  0
  9 17  1  0  0  0  0
  9 10  2  0  0  0  0
 18 19  1  0  0  0  0
 19 41  1  0  0  0  0
 19 20  2  0  0  0  0
 42 45  1  0  0  0  0
  8 11  1  0  0  0  0
 51 52  1  0  0  0  0
 18 21  1  0  0  0  0
 41 42  1  0  0  0  0
  7  8  1  0  0  0  0
 17 18  1  0  0  0  0
 29 39  1  0  0  0  0
 30 40  1  0  0  0  0
 27 37  1  0  0  0  0
 28 38  1  0  0  0  0
 23 35  1  0  0  0  0
  3  4  1  0  0  0  0
  3  5  1  0  0  0  0
  3  6  1  0  0  0  0
 45 48  1  0  0  0  0
 45 49  1  0  0  0  0
 45 50  1  0  0  0  0
 11 14  1  0  0  0  0
 11 15  1  0  0  0  0
 11 16  1  0  0  0  0
 52 54  1  0  0  0  0
 52 55  1  0  0  0  0
 52 56  1  0  0  0  0
 21 33  1  0  0  0  0
 21 34  1  0  0  0  0
 42 47  1  0  0  0  0
  8 13  1  0  0  0  0
 18 32  1  0  0  0  0
 25 36  1  0  0  0  0
 51 53  1  0  0  0  0
  7 12  1  0  0  0  0
 41 46  1  0  0  0  0
 17 31  1  0  0  0  0
M  END
$$$$

  -OEChem-05262214473D

 56 57  0     1  0  0  0  0  0999 V2000
   -2.2900    0.3401    4.1553 C   0  0  0  0  0  0  0  0  0  0  0  0
   -1.3426   -0.2746    3.6796 O   0  0  0  0  0  0  0  0  0  0  0  0
   -2.7219    0.0577    5.5560 C   0  0  0  0  0  0  0  0  0  0  0  0
   -3.4815   -0.7386    5.6094 H   0  0  0  0  0  0  0  0  0  0  0  0
   -1.8906   -0.2899    6.1903 H   0  0  0  0  0  0  0  0  0  0  0  0
   -3.1599    0.9126    6.0956 H   0  0  0  0  0  0  0  0  0  0  0  0
   -3.0397    1.3125    3.5142 N   0  0  0  0  0  0  0  0  0  0  0  0
   -2.7928    1.7385    2.1618 C   0  0  2  0  0  0  0  0  0  0  0  0
   -1.4579    1.1532    1.7206 C   0  0  0  0  0  0  0  0  0  0  0  0
   -0.5858    0.8004    2.5118 O   0  0  0  0  0  0  0  0  0  0  0  0
   -2.7841    3.2553    2.0523 C   0  0  0  0  0  0  0  0  0  0  0  0
   -3.8047    1.7484    4.0260 H   0  0  0  0  0  0  0  0  0  0  0  0
   -3.5969    1.3201    1.5466 H   0  0  0  0  0  0  0  0  0  0  0  0
   -1.9850    3.6926    2.6620 H   0  0  0  0  0  0  0  0  0  0  0  0
   -2.6246    3.5776    1.0180 H   0  0  0  0  0  0  0  0  0  0  0  0
   -3.7342    3.6765    2.3981 H   0  0  0  0  0  0  0  0  0  0  0  0
   -1.3352    1.1101    0.3372 N   0  0  0  0  0  0  0  0  0  0  0  0
   -0.1579    0.6093   -0.3265 C   0  0  2  0  0  0  0  0  0  0  0  0
   -0.5935   -0.5703   -1.1885 C   0  0  0  0  0  0  0  0  0  0  0  0
   -0.4114   -0.6145   -2.4033 O   0  0  0  0  0  0  0  0  0  0  0  0
    0.9250    0.1723    0.6668 C   0  0  0  0  0  0  0  0  0  0  0  0
    1.5073    1.3292    1.4416 C   0  0  0  0  0  0  0  0  0  0  0  0
    1.1265    1.7237    2.7035 C   0  0  0  0  0  0  0  0  0  0  0  0
    2.5423    2.2042    1.0082 C   0  0  0  0  0  0  0  0  0  0  0  0
    1.8891    2.8051    3.0549 N   0  0  0  0  0  0  0  0  0  0  0  0
    2.7626    3.1206    2.0387 C   0  0  0  0  0  0  0  0  0  0  0  0
    3.3153    2.3049   -0.1656 C   0  0  0  0  0  0  0  0  0  0  0  0
    3.7210    4.1367    1.9538 C   0  0  0  0  0  0  0  0  0  0  0  0
    4.2777    3.3162   -0.2646 C   0  0  0  0  0  0  0  0  0  0  0  0
    4.4758    4.2170    0.7800 C   0  0  0  0  0  0  0  0  0  0  0  0
   -2.1183    1.4068   -0.2401 H   0  0  0  0  0  0  0  0  0  0  0  0
    0.2010    1.4157   -0.9767 H   0  0  0  0  0  0  0  0  0  0  0  0
    1.7283   -0.3629    0.1426 H   0  0  0  0  0  0  0  0  0  0  0  0
    0.5174   -0.5518    1.3846 H   0  0  0  0  0  0  0  0  0  0  0  0
    0.3809    1.3338    3.3827 H   0  0  0  0  0  0  0  0  0  0  0  0
    1.8214    3.3005    3.9332 H   0  0  0  0  0  0  0  0  0  0  0  0
    3.1723    1.6110   -0.9892 H   0  0  0  0  0  0  0  0  0  0  0  0
    3.8766    4.8376    2.7668 H   0  0  0  0  0  0  0  0  0  0  0  0
    4.8765    3.3992   -1.1676 H   0  0  0  0  0  0  0  0  0  0  0  0
    5.2288    4.9947    0.6818 H   0  0  0  0  0  0  0  0  0  0  0  0
   -1.1627   -1.5849   -0.4314 N   0  0  0  0  0  0  0  0  0  0  0  0
   -1.6400   -2.8257   -0.9983 C   0  0  2  0  0  0  0  0  0  0  0  0
   -2.5438   -2.4874   -2.1766 C   0  0  0  0  0  0  0  0  0  0  0  0
   -3.1053   -1.4011   -2.3011 O   0  0  0  0  0  0  0  0  0  0  0  0
   -2.3834   -3.6566    0.0359 C   0  0  0  0  0  0  0  0  0  0  0  0
   -1.2480   -1.4484    0.5715 H   0  0  0  0  0  0  0  0  0  0  0  0
   -0.7591   -3.3690   -1.3571 H   0  0  0  0  0  0  0  0  0  0  0  0
   -3.2693   -3.1285    0.4071 H   0  0  0  0  0  0  0  0  0  0  0  0
   -2.7196   -4.6089   -0.3874 H   0  0  0  0  0  0  0  0  0  0  0  0
   -1.7411   -3.8737    0.8962 H   0  0  0  0  0  0  0  0  0  0  0  0
   -2.6838   -3.5564   -3.0506 N   0  0  0  0  0  0  0  0  0  0  0  0
   -3.5008   -3.4894   -4.2397 C   0  0  0  0  0  0  0  0  0  0  0  0
   -2.1662   -4.4134   -2.8788 H   0  0  0  0  0  0  0  0  0  0  0  0
   -4.5137   -3.8521   -4.0101 H   0  0  0  0  0  0  0  0  0  0  0  0
   -3.5549   -2.4478   -4.5890 H   0  0  0  0  0  0  0  0  0  0  0  0
   -3.0561   -4.1172   -5.0258 H   0  0  0  0  0  0  0  0  0  0  0  0
 29 30  2  0  0  0  0
 27 29  1  0  0  0  0
 28 30  1  0  0  0  0
 24 27  2  0  0  0  0
 26 28  2  0  0  0  0
 22 23  2  0  0  0  0
 23 25  1  0  0  0  0
 22 24  1  0  0  0  0
 24 26  1  0  0  0  0
 21 22  1  0  0  0  0
 25 26  1  0  0  0  0
  1  3  1  0  0  0  0
  1  7  1  0  0  0  0
  1  2  2  0  0  0  0
 42 43  1  0  0  0  0
 43 51  1  0  0  0  0
 43 44  2  0  0  0  0
  8  9  1  0  0  0  0
  9 17  1  0  0  0  0
  9 10  2  0  0  0  0
 18 19  1  0  0  0  0
 19 41  1  0  0  0  0
 19 20  2  0  0  0  0
 42 45  1  0  0  0  0
  8 11  1  0  0  0  0
 51 52  1  0  0  0  0
 18 21  1  0  0  0  0
 41 42  1  0  0  0  0
  7  8  1  0  0  0  0
 17 18  1  0  0  0  0
 29 39  1  0  0  0  0
 30 40  1  0  0  0  0
 27 37  1  0  0  0  0
 28 38  1  0  0  0  0
 23 35  1  0  0  0  0
  3  4  1  0  0  0  0
  3  5  1  0  0  0  0
  3  6  1  0  0  0  0
 45 48  1  0  0  0  0
 45 49  1  0  0  0  0
 45 50  1  0  0  0  0
 11 14  1  0  0  0  0
 11 15  1  0  0  0  0
 11 16  1  0  0  0  0
 52 54  1  0  0  0  0
 52 55  1  0  0  0  0
 52 56  1  0  0  0  0
 21 33  1  0  0  0  0
 21 34  1  0  0  0  0
 42 47  1  0  0  0  0
  8 13  1  0  0  0  0
 18 32  1  0  0  0  0
 25 36  1  0  0  0  0
 51 53  1  0  0  0  0
  7 12  1  0  0  0  0
 41 46  1  0  0  0  0
 17 31  1  0  0  0  0
M  END
$$$$

  -OEChem-05262214473D

 56 57  0     1  0  0  0  0  0999 V2000
   -2.2900    0.3401    4.1553 C   0  0  0  0  0  0  0  0  0  0  0  0
   -1.3426   -0.2746    3.6796 O   0  0  0  0  0  0  0  0  0  0  0  0
   -2.7219    0.0577    5.5560 C   0  0  0  0  0  0  0  0  0  0  0  0
   -3.4815   -0.7386    5.6094 H   0  0  0  0  0  0  0  0  0  0  0  0
   -1.8906   -0.2899    6.1903 H   0  0  0  0  0  0  0  0  0  0  0  0
   -3.1599    0.9126    6.0956 H   0  0  0  0  0  0  0  0  0  0  0  0
   -3.0397    1.3125    3.5142 N   0  0  0  0  0  0  0  0  0  0  0  0
   -2.7928    1.7385    2.1618 C   0  0  2  0  0  0  0  0  0  0  0  0
   -1.4579    1.1532    1.7206 C   0  0  0  0  0  0  0  0  0  0  0  0
   -0.5858    0.8004    2.5118 O   0  0  0  0  0  0  0  0  0  0  0  0
   -2.7841    3.2553    2.0523 C   0  0  0  0  0  0  0  0  0  0  0  0
   -3.8047    1.7484    4.0260 H   0  0  0  0  0  0  0  0  0  0  0  0
   -3.5969    1.3201    1.5466 H   0  0  0  0  0  0  0  0  0  0  0  0
   -1.9850    3.6926    2.6620 H   0  0  0  0  0  0  0  0  0  0  0  0
   -2.6246    3.5776    1.0180 H   0  0  0  0  0  0  0  0  0  0  0  0
   -3.7342    3.6765    2.3981 H   0  0  0  0  0  0  0  0  0  0  0  0
   -1.3352    1.1101    0.3372 N   0  0  0  0  0  0  0  0  0  0  0  0
   -0.1579    0.6093   -0.3265 C   0  0  2  0  0  0  0  0  0  0  0  0
   -0.5935   -0.5703   -1.1885 C   0  0  0  0  0  0  0  0  0  0  0  0
   -0.1873   -0.7472   -2.3351 O   0  0  0  0  0  0  0  0  0  0  0  0
    0.9250    0.1723    0.6668 C   0  0  0  0  0  0  0  0  0  0  0  0
    1.5073    1.3292    1.4416 C   0  0  0  0  0  0  0  0  0  0  0  0
    1.1265    1.7237    2.7035 C   0  0  0  0  0  0  0  0  0  0  0  0
    2.5423    2.2042    1.0082 C   0  0  0  0  0  0  0  0  0  0  0  0
    1.8891    2.8051    3.0549 N   0  0  0  0  0  0  0  0  0  0  0  0
    2.7626    3.1206    2.0387 C   0  0  0  0  0  0  0  0  0  0  0  0
    3.3153    2.3049   -0.1656 C   0  0  0  0  0  0  0  0  0  0  0  0
    3.7210    4.1367    1.9538 C   0  0  0  0  0  0  0  0  0  0  0  0
    4.2777    3.3162   -0.2646 C   0  0  0  0  0  0  0  0  0  0  0  0
    4.4758    4.2170    0.7800 C   0  0  0  0  0  0  0  0  0  0  0  0
   -2.1183    1.4068   -0.2401 H   0  0  0  0  0  0  0  0  0  0  0  0
    0.2010    1.4157   -0.9767 H   0  0  0  0  0  0  0  0  0  0  0  0
    1.7283   -0.3629    0.1426 H   0  0  0  0  0  0  0  0  0  0  0  0
    0.5174   -0.5518    1.3846 H   0  0  0  0  0  0  0  0  0  0  0  0
    0.3809    1.3338    3.3827 H   0  0  0  0  0  0  0  0  0  0  0  0
    1.8214    3.3005    3.9332 H   0  0  0  0  0  0  0  0  0  0  0  0
    3.1723    1.6110   -0.9892 H   0  0  0  0  0  0  0  0  0  0  0  0
    3.8766    4.8376    2.7668 H   0  0  0  0  0  0  0  0  0  0  0  0
    4.8765    3.3992   -1.1676 H   0  0  0  0  0  0  0  0  0  0  0  0
    5.2288    4.9947    0.6818 H   0  0  0  0  0  0  0  0  0  0  0  0
   -1.4484   -1.4247   -0.5062 N   0  0  0  0  0  0  0  0  0  0  0  0
   -1.9914   -2.6326   -1.0849 C   0  0  2  0  0  0  0  0  0  0  0  0
   -2.5853   -2.2783   -2.4418 C   0  0  0  0  0  0  0  0  0  0  0  0
   -2.9379   -1.1399   -2.7431 O   0  0  0  0  0  0  0  0  0  0  0  0
   -3.0408   -3.2572   -0.1786 C   0  0  0  0  0  0  0  0  0  0  0  0
   -1.7054   -1.1892    0.4479 H   0  0  0  0  0  0  0  0  0  0  0  0
   -1.1517   -3.3227   -1.2220 H   0  0  0  0  0  0  0  0  0  0  0  0
   -3.8899   -2.5803   -0.0294 H   0  0  0  0  0  0  0  0  0  0  0  0
   -3.4305   -4.1873   -0.6050 H   0  0  0  0  0  0  0  0  0  0  0  0
   -2.6195   -3.4840    0.8068 H   0  0  0  0  0  0  0  0  0  0  0  0
   -2.7152   -3.3909   -3.2612 N   0  0  0  0  0  0  0  0  0  0  0  0
   -3.2648   -3.3171   -4.5948 C   0  0  0  0  0  0  0  0  0  0  0  0
   -2.3791   -4.2927   -2.9364 H   0  0  0  0  0  0  0  0  0  0  0  0
   -4.3464   -3.5138   -4.5576 H   0  0  0  0  0  0  0  0  0  0  0  0
   -3.0889   -2.3132   -5.0087 H   0  0  0  0  0  0  0  0  0  0  0  0
   -2.7775   -4.0679   -5.2342 H   0  0  0  0  0  0  0  0  0  0  0  0
 29 30  2  0  0  0  0
 27 29  1  0  0  0  0
 28 30  1  0  0  0  0
 24 27  2  0  0  0  0
 26 28  2  0  0  0  0
 22 23  2  0  0  0  0
 23 25  1  0  0  0  0
 22 24  1  0  0  0  0
 24 26  1  0  0  0  0
 21 22  1  0  0  0  0
 25 26  1  0  0  0  0
  1  3  1  0  0  0  0
  1  7  1  0  0  0  0
  1  2  2  0  0  0  0
 42 43  1  0  0  0  0
 43 51  1  0  0  0  0
 43 44  2  0  0  0  0
  8  9  1  0  0  0  0
  9 17  1  0  0  0  0
  9 10  2  0  0  0  0
 18 19  1  0  0  0  0
 19 41  1  0  0  0  0
 19 20  2  0  0  0  0
 42 45  1  0  0  0  0
  8 11  1  0  0  0  0
 51 52  1  0  0  0  0
 18 21  1  0  0  0  0
 41 42  1  0  0  0  0
  7  8  1  0  0  0  0
 17 18  1  0  0  0  0
 29 39  1  0  0  0  0
 30 40  1  0  0  0  0
 27 37  1  0  0  0  0
 28 38  1  0  0  0  0
 23 35  1  0  0  0  0
  3  4  1  0  0  0  0
  3  5  1  0  0  0  0
  3  6  1  0  0  0  0
 45 48  1  0  0  0  0
 45 49  1  0  0  0  0
 45 50  1  0  0  0  0
 11 14  1  0  0  0  0
 11 15  1  0  0  0  0
 11 16  1  0  0  0  0
 52 54  1  0  0  0  0
 52 55  1  0  0  0  0
 52 56  1  0  0  0  0
 21 33  1  0  0  0  0
 21 34  1  0  0  0  0
 42 47  1  0  0  0  0
  8 13  1  0  0  0  0
 18 32  1  0  0  0  0
 25 36  1  0  0  0  0
 51 53  1  0  0  0  0
  7 12  1  0  0  0  0
 41 46  1  0  0  0  0
 17 31  1  0  0  0  0
M  END
$$$$

  -OEChem-05262214473D

 56 57  0     1  0  0  0  0  0999 V2000
   -2.2900    0.3401    4.1553 C   0  0  0  0  0  0  0  0  0  0  0  0
   -1.3426   -0.2746    3.6796 O   0  0  0  0  0  0  0  0  0  0  0  0
   -2.7219    0.0577    5.5560 C   0  0  0  0  0  0  0  0  0  0  0  0
   -3.4815   -0.7386    5.6094 H   0  0  0  0  0  0  0  0  0  0  0  0
   -1.8906   -0.2899    6.1903 H   0  0  0  0  0  0  0  0  0  0  0  0
   -3.1599    0.9126    6.0956 H   0  0  0  0  0  0  0  0  0  0  0  0
   -3.0397    1.3125    3.5142 N   0  0  0  0  0  0  0  0  0  0  0  0
   -2.7928    1.7385    2.1618 C   0  0  2  0  0  0  0  0  0  0  0  0
   -1.4579    1.1532    1.7206 C   0  0  0  0  0  0  0  0  0  0  0  0
   -0.5858    0.8004    2.5118 O   0  0  0  0  0  0  0  0  0  0  0  0
   -2.7841    3.2553    2.0523 C   0  0  0  0  0  0  0  0  0  0  0  0
   -3.8047    1.7484    4.0260 H   0  0  0  0  0  0  0  0  0  0  0  0
   -3.5969    1.3201    1.5466 H   0  0  0  0  0  0  0  0  0  0  0  0
   -1.9850    3.6926    2.6620 H   0  0  0  0  0  0  0  0  0  0  0  0
   -2.6246    3.5776    1.0180 H   0  0  0  0  0  0  0  0  0  0  0  0
   -3.7342    3.6765    2.3981 H   0  0  0  0  0  0  0  0  0  0  0  0
   -1.3352    1.1101    0.3372 N   0  0  0  0  0  0  0  0  0  0  0  0
   -0.1579    0.6093   -0.3265 C   0  0  2  0  0  0  0  0  0  0  0  0
   -0.5935   -0.5703   -1.1885 C   0  0  0  0  0  0  0  0  0  0  0  0
   -0.0040   -0.9030   -2.2145 O   0  0  0  0  0  0  0  0  0  0  0  0
    0.9250    0.1723    0.6668 C   0  0  0  0  0  0  0  0  0  0  0  0
    1.5073    1.3292    1.4416 C   0  0  0  0  0  0  0  0  0  0  0  0
    1.1265    1.7237    2.7035 C   0  0  0  0  0  0  0  0  0  0  0  0
    2.5423    2.2042    1.0082 C   0  0  0  0  0  0  0  0  0  0  0  0
    1.8891    2.8051    3.0549 N   0  0  0  0  0  0  0  0  0  0  0  0
    2.7626    3.1206    2.0387 C   0  0  0  0  0  0  0  0  0  0  0  0
    3.3153    2.3049   -0.1656 C   0  0  0  0  0  0  0  0  0  0  0  0
    3.7210    4.1367    1.9538 C   0  0  0  0  0  0  0  0  0  0  0  0
    4.2777    3.3162   -0.2646 C   0  0  0  0  0  0  0  0  0  0  0  0
    4.4758    4.2170    0.7800 C   0  0  0  0  0  0  0  0  0  0  0  0
   -2.1183    1.4068   -0.2401 H   0  0  0  0  0  0  0  0  0  0  0  0
    0.2010    1.4157   -0.9767 H   0  0  0  0  0  0  0  0  0  0  0  0
    1.7283   -0.3629    0.1426 H   0  0  0  0  0  0  0  0  0  0  0  0
    0.5174   -0.5518    1.3846 H   0  0  0  0  0  0  0  0  0  0  0  0
    0.3809    1.3338    3.3827 H   0  0  0  0  0  0  0  0  0  0  0  0
    1.8214    3.3005    3.9332 H   0  0  0  0  0  0  0  0  0  0  0  0
    3.1723    1.6110   -0.9892 H   0  0  0  0  0  0  0  0  0  0  0  0
    3.8766    4.8376    2.7668 H   0  0  0  0  0  0  0  0  0  0  0  0
    4.8765    3.3992   -1.1676 H   0  0  0  0  0  0  0  0  0  0  0  0
    5.2288    4.9947    0.6818 H   0  0  0  0  0  0  0  0  0  0  0  0
   -1.6860   -1.2337   -0.6475 N   0  0  0  0  0  0  0  0  0  0  0  0
   -2.2851   -2.4012   -1.2532 C   0  0  2  0  0  0  0  0  0  0  0  0
   -2.5417   -2.0898   -2.7217 C   0  0  0  0  0  0  0  0  0  0  0  0
   -2.6494   -0.9448   -3.1558 O   0  0  0  0  0  0  0  0  0  0  0  0
   -3.5743   -2.7910   -0.5469 C   0  0  0  0  0  0  0  0  0  0  0  0
   -2.0845   -0.8810    0.2177 H   0  0  0  0  0  0  0  0  0  0  0  0
   -1.5513   -3.2106   -1.1736 H   0  0  0  0  0  0  0  0  0  0  0  0
   -4.3218   -1.9922   -0.6159 H   0  0  0  0  0  0  0  0  0  0  0  0
   -4.0119   -3.6922   -0.9888 H   0  0  0  0  0  0  0  0  0  0  0  0
   -3.3931   -2.9856    0.5157 H   0  0  0  0  0  0  0  0  0  0  0  0
   -2.6792   -3.2420   -3.4832 N   0  0  0  0  0  0  0  0  0  0  0  0
   -2.9405   -3.2114   -4.9033 C   0  0  0  0  0  0  0  0  0  0  0  0
   -2.5556   -4.1493   -3.0435 H   0  0  0  0  0  0  0  0  0  0  0  0
   -4.0258   -3.2520   -5.0779 H   0  0  0  0  0  0  0  0  0  0  0  0
   -2.5350   -2.2824   -5.3307 H   0  0  0  0  0  0  0  0  0  0  0  0
   -2.4594   -4.0764   -5.3833 H   0  0  0  0  0  0  0  0  0  0  0  0
 29 30  2  0  0  0  0
 27 29  1  0  0  0  0
 28 30  1  0  0  0  0
 24 27  2  0  0  0  0
 26 28  2  0  0  0  0
 22 23  2  0  0  0  0
 23 25  1  0  0  0  0
 22 24  1  0  0  0  0
 24 26  1  0  0  0  0
 21 22  1  0  0  0  0
 25 26  1  0  0  0  0
  1  3  1  0  0  0  0
  1  7  1  0  0  0  0
  1  2  2  0  0  0  0
 42 43  1  0  0  0  0
 43 51  1  0  0  0  0
 43 44  2  0  0  0  0
  8  9  1  0  0  0  0
  9 17  1  0  0  0  0
  9 10  2  0  0  0  0
 18 19  1  0  0  0  0
 19 41  1  0  0  0  0
 19 20  2  0  0  0  0
 42 45  1  0  0  0  0
  8 11  1  0  0  0  0
 51 52  1  0  0  0  0
 18 21  1  0  0  0  0
 41 42  1  0  0  0  0
  7  8  1  0  0  0  0
 17 18  1  0  0  0  0
 29 39  1  0  0  0  0
 30 40  1  0  0  0  0
 27 37  1  0  0  0  0
 28 38  1  0  0  0  0
 23 35  1  0  0  0  0
  3  4  1  0  0  0  0
  3  5  1  0  0  0  0
  3  6  1  0  0  0  0
 45 48  1  0  0  0  0
 45 49  1  0  0  0  0
 45 50  1  0  0  0  0
 11 14  1  0  0  0  0
 11 15  1  0  0  0  0
 11 16  1  0  0  0  0
 52 54  1  0  0  0  0
 52 55  1  0  0  0  0
 52 56  1  0  0  0  0
 21 33  1  0  0  0  0
 21 34  1  0  0  0  0
 42 47  1  0  0  0  0
  8 13  1  0  0  0  0
 18 32  1  0  0  0  0
 25 36  1  0  0  0  0
 51 53  1  0  0  0  0
  7 12  1  0  0  0  0
 41 46  1  0  0  0  0
 17 31  1  0  0  0  0
M  END
$$$$

  -OEChem-05262214473D

 56 57  0     1  0  0  0  0  0999 V2000
   -2.2900    0.3401    4.1553 C   0  0  0  0  0  0  0  0  0  0  0  0
   -1.3426   -0.2746    3.6796 O   0  0  0  0  0  0  0  0  0  0  0  0
   -2.7219    0.0577    5.5560 C   0  0  0  0  0  0  0  0  0  0  0  0
   -3.4815   -0.7386    5.6094 H   0  0  0  0  0  0  0  0  0  0  0  0
   -1.8906   -0.2899    6.1903 H   0  0  0  0  0  0  0  0  0  0  0  0
   -3.1599    0.9126    6.0956 H   0  0  0  0  0  0  0  0  0  0  0  0
   -3.0397    1.3125    3.5142 N   0  0  0  0  0  0  0  0  0  0  0  0
   -2.7928    1.7385    2.1618 C   0  0  2  0  0  0  0  0  0  0  0  0
   -1.4579    1.1532    1.7206 C   0  0  0  0  0  0  0  0  0  0  0  0
   -0.5858    0.8004    2.5118 O   0  0  0  0  0  0  0  0  0  0  0  0
   -2.7841    3.2553    2.0523 C   0  0  0  0  0  0  0  0  0  0  0  0
   -3.8047    1.7484    4.0260 H   0  0  0  0  0  0  0  0  0  0  0  0
   -3.5969    1.3201    1.5466 H   0  0  0  0  0  0  0  0  0  0  0  0
   -1.9850    3.6926    2.6620 H   0  0  0  0  0  0  0  0  0  0  0  0
   -2.6246    3.5776    1.0180 H   0  0  0  0  0  0  0  0  0  0  0  0
   -3.7342    3.6765    2.3981 H   0  0  0  0  0  0  0  0  0  0  0  0
   -1.3352    1.1101    0.3372 N   0  0  0  0  0  0  0  0  0  0  0  0
   -0.1579    0.6093   -0.3265 C   0  0  2  0  0  0  0  0  0  0  0  0
   -0.5935   -0.5703   -1.1885 C   0  0  0  0  0  0  0  0  0  0  0  0
    0.1262   -1.0714   -2.0498 O   0  0  0  0  0  0  0  0  0  0  0  0
    0.9250    0.1723    0.6668 C   0  0  0  0  0  0  0  0  0  0  0  0
    1.5073    1.3292    1.4416 C   0  0  0  0  0  0  0  0  0  0  0  0
    1.1265    1.7237    2.7035 C   0  0  0  0  0  0  0  0  0  0  0  0
    2.5423    2.2042    1.0082 C   0  0  0  0  0  0  0  0  0  0  0  0
    1.8891    2.8051    3.0549 N   0  0  0  0  0  0  0  0  0  0  0  0
    2.7626    3.1206    2.0387 C   0  0  0  0  0  0  0  0  0  0  0  0
    3.3153    2.3049   -0.1656 C   0  0  0  0  0  0  0  0  0  0  0  0
    3.7210    4.1367    1.9538 C   0  0  0  0  0  0  0  0  0  0  0  0
    4.2777    3.3162   -0.2646 C   0  0  0  0  0  0  0  0  0  0  0  0
    4.4758    4.2170    0.7800 C   0  0  0  0  0  0  0  0  0  0  0  0
   -2.1183    1.4068   -0.2401 H   0  0  0  0  0  0  0  0  0  0  0  0
    0.2010    1.4157   -0.9767 H   0  0  0  0  0  0  0  0  0  0  0  0
    1.7283   -0.3629    0.1426 H   0  0  0  0  0  0  0  0  0  0  0  0
    0.5174   -0.5518    1.3846 H   0  0  0  0  0  0  0  0  0  0  0  0
    0.3809    1.3338    3.3827 H   0  0  0  0  0  0  0  0  0  0  0  0
    1.8214    3.3005    3.9332 H   0  0  0  0  0  0  0  0  0  0  0  0
    3.1723    1.6110   -0.9892 H   0  0  0  0  0  0  0  0  0  0  0  0
    3.8766    4.8376    2.7668 H   0  0  0  0  0  0  0  0  0  0  0  0
    4.8765    3.3992   -1.1676 H   0  0  0  0  0  0  0  0  0  0  0  0
    5.2288    4.9947    0.6818 H   0  0  0  0  0  0  0  0  0  0  0  0
   -1.8593   -1.0249   -0.8457 N   0  0  0  0  0  0  0  0  0  0  0  0
   -2.5013   -2.1471   -1.4916 C   0  0  2  0  0  0  0  0  0  0  0  0
   -2.4159   -1.9349   -2.9973 C   0  0  0  0  0  0  0  0  0  0  0  0
   -2.2596   -0.8291   -3.5111 O   0  0  0  0  0  0  0  0  0  0  0  0
   -3.9477   -2.2898   -1.0440 C   0  0  0  0  0  0  0  0  0  0  0  0
   -2.3595   -0.5448   -0.1034 H   0  0  0  0  0  0  0  0  0  0  0  0
   -1.9305   -3.0402   -1.2152 H   0  0  0  0  0  0  0  0  0  0  0  0
   -4.5354   -1.4044   -1.3124 H   0  0  0  0  0  0  0  0  0  0  0  0
   -4.4242   -3.1573   -1.5125 H   0  0  0  0  0  0  0  0  0  0  0  0
   -4.0090   -2.4126    0.0427 H   0  0  0  0  0  0  0  0  0  0  0  0
   -2.5781   -3.1198   -3.7014 N   0  0  0  0  0  0  0  0  0  0  0  0
   -2.5500   -3.1795   -5.1442 C   0  0  0  0  0  0  0  0  0  0  0  0
   -2.6837   -3.9928   -3.1929 H   0  0  0  0  0  0  0  0  0  0  0  0
   -3.5735   -3.0845   -5.5357 H   0  0  0  0  0  0  0  0  0  0  0  0
   -1.9310   -2.3576   -5.5331 H   0  0  0  0  0  0  0  0  0  0  0  0
   -2.1236   -4.1421   -5.4630 H   0  0  0  0  0  0  0  0  0  0  0  0
 29 30  2  0  0  0  0
 27 29  1  0  0  0  0
 28 30  1  0  0  0  0
 24 27  2  0  0  0  0
 26 28  2  0  0  0  0
 22 23  2  0  0  0  0
 23 25  1  0  0  0  0
 22 24  1  0  0  0  0
 24 26  1  0  0  0  0
 21 22  1  0  0  0  0
 25 26  1  0  0  0  0
  1  3  1  0  0  0  0
  1  7  1  0  0  0  0
  1  2  2  0  0  0  0
 42 43  1  0  0  0  0
 43 51  1  0  0  0  0
 43 44  2  0  0  0  0
  8  9  1  0  0  0  0
  9 17  1  0  0  0  0
  9 10  2  0  0  0  0
 18 19  1  0  0  0  0
 19 41  1  0  0  0  0
 19 20  2  0  0  0  0
 42 45  1  0  0  0  0
  8 11  1  0  0  0  0
 51 52  1  0  0  0  0
 18 21  1  0  0  0  0
 41 42  1  0  0  0  0
  7  8  1  0  0  0  0
 17 18  1  0  0  0  0
 29 39  1  0  0  0  0
 30 40  1  0  0  0  0
 27 37  1  0  0  0  0
 28 38  1  0  0  0  0
 23 35  1  0  0  0  0
  3  4  1  0  0  0  0
  3  5  1  0  0  0  0
  3  6  1  0  0  0  0
 45 48  1  0  0  0  0
 45 49  1  0  0  0  0
 45 50  1  0  0  0  0
 11 14  1  0  0  0  0
 11 15  1  0  0  0  0
 11 16  1  0  0  0  0
 52 54  1  0  0  0  0
 52 55  1  0  0  0  0
 52 56  1  0  0  0  0
 21 33  1  0  0  0  0
 21 34  1  0  0  0  0
 42 47  1  0  0  0  0
  8 13  1  0  0  0  0
 18 32  1  0  0  0  0
 25 36  1  0  0  0  0
 51 53  1  0  0  0  0
  7 12  1  0  0  0  0
 41 46  1  0  0  0  0
 17 31  1  0  0  0  0
M  END
$$$$

  -OEChem-05262214473D

 56 57  0     1  0  0  0  0  0999 V2000
   -2.2900    0.3401    4.1553 C   0  0  0  0  0  0  0  0  0  0  0  0
   -1.3426   -0.2746    3.6796 O   0  0  0  0  0  0  0  0  0  0  0  0
   -2.7219    0.0577    5.5560 C   0  0  0  0  0  0  0  0  0  0  0  0
   -3.4815   -0.7386    5.6094 H   0  0  0  0  0  0  0  0  0  0  0  0
   -1.8906   -0.2899    6.1903 H   0  0  0  0  0  0  0  0  0  0  0  0
   -3.1599    0.9126    6.0956 H   0  0  0  0  0  0  0  0  0  0  0  0
   -3.0397    1.3125    3.5142 N   0  0  0  0  0  0  0  0  0  0  0  0
   -2.7928    1.7385    2.1618 C   0  0  2  0  0  0  0  0  0  0  0  0
   -1.4579    1.1532    1.7206 C   0  0  0  0  0  0  0  0  0  0  0  0
   -0.5858    0.8004    2.5118 O   0  0  0  0  0  0  0  0  0  0  0  0
   -2.7841    3.2553    2.0523 C   0  0  0  0  0  0  0  0  0  0  0  0
   -3.8047    1.7484    4.0260 H   0  0  0  0  0  0  0  0  0  0  0  0
   -3.5969    1.3201    1.5466 H   0  0  0  0  0  0  0  0  0  0  0  0
   -1.9850    3.6926    2.6620 H   0  0  0  0  0  0  0  0  0  0  0  0
   -2.6246    3.5776    1.0180 H   0  0  0  0  0  0  0  0  0  0  0  0
   -3.7342    3.6765    2.3981 H   0  0  0  0  0  0  0  0  0  0  0  0
   -1.3352    1.1101    0.3372 N   0  0  0  0  0  0  0  0  0  0  0  0
   -0.1579    0.6093   -0.3265 C   0  0  2  0  0  0  0  0  0  0  0  0
   -0.5935   -0.5703   -1.1885 C   0  0  0  0  0  0  0  0  0  0  0  0
    0.1943   -1.2410   -1.8521 O   0  0  0  0  0  0  0  0  0  0  0  0
    0.9250    0.1723    0.6668 C   0  0  0  0  0  0  0  0  0  0  0  0
    1.5073    1.3292    1.4416 C   0  0  0  0  0  0  0  0  0  0  0  0
    1.1265    1.7237    2.7035 C   0  0  0  0  0  0  0  0  0  0  0  0
    2.5423    2.2042    1.0082 C   0  0  0  0  0  0  0  0  0  0  0  0
    1.8891    2.8051    3.0549 N   0  0  0  0  0  0  0  0  0  0  0  0
    2.7626    3.1206    2.0387 C   0  0  0  0  0  0  0  0  0  0  0  0
    3.3153    2.3049   -0.1656 C   0  0  0  0  0  0  0  0  0  0  0  0
    3.7210    4.1367    1.9538 C   0  0  0  0  0  0  0  0  0  0  0  0
    4.2777    3.3162   -0.2646 C   0  0  0  0  0  0  0  0  0  0  0  0
    4.4758    4.2170    0.7800 C   0  0  0  0  0  0  0  0  0  0  0  0
   -2.1183    1.4068   -0.2401 H   0  0  0  0  0  0  0  0  0  0  0  0
    0.2010    1.4157   -0.9767 H   0  0  0  0  0  0  0  0  0  0  0  0
    1.7283   -0.3629    0.1426 H   0  0  0  0  0  0  0  0  0  0  0  0
    0.5174   -0.5518    1.3846 H   0  0  0  0  0  0  0  0  0  0  0  0
    0.3809    1.3338    3.3827 H   0  0  0  0  0  0  0  0  0  0  0  0
    1.8214    3.3005    3.9332 H   0  0  0  0  0  0  0  0  0  0  0  0
    3.1723    1.6110   -0.9892 H   0  0  0  0  0  0  0  0  0  0  0  0
    3.8766    4.8376    2.7668 H   0  0  0  0  0  0  0  0  0  0  0  0
    4.8765    3.3992   -1.1676 H   0  0  0  0  0  0  0  0  0  0  0  0
    5.2288    4.9947    0.6818 H   0  0  0  0  0  0  0  0  0  0  0  0
   -1.9564   -0.8125   -1.0872 N   0  0  0  0  0  0  0  0  0  0  0  0
   -2.6252   -1.8876   -1.7841 C   0  0  2  0  0  0  0  0  0  0  0  0
   -2.2166   -1.8240   -3.2498 C   0  0  0  0  0  0  0  0  0  0  0  0
   -1.7949   -0.8007   -3.7848 O   0  0  0  0  0  0  0  0  0  0  0  0
   -4.1355   -1.7879   -1.6360 C   0  0  0  0  0  0  0  0  0  0  0  0
   -2.5117   -0.2036   -0.4934 H   0  0  0  0  0  0  0  0  0  0  0  0
   -2.2635   -2.8232   -1.3438 H   0  0  0  0  0  0  0  0  0  0  0  0
   -4.5163   -0.8568   -2.0714 H   0  0  0  0  0  0  0  0  0  0  0  0
   -4.6393   -2.6190   -2.1404 H   0  0  0  0  0  0  0  0  0  0  0  0
   -4.4254   -1.8039   -0.5798 H   0  0  0  0  0  0  0  0  0  0  0  0
   -2.4189   -3.0328   -3.9010 N   0  0  0  0  0  0  0  0  0  0  0  0
   -2.1198   -3.2238   -5.3010 C   0  0  0  0  0  0  0  0  0  0  0  0
   -2.7545   -3.8339   -3.3745 H   0  0  0  0  0  0  0  0  0  0  0  0
   -3.0205   -3.0227   -5.8997 H   0  0  0  0  0  0  0  0  0  0  0  0
   -1.3180   -2.5335   -5.6020 H   0  0  0  0  0  0  0  0  0  0  0  0
   -1.7928   -4.2607   -5.4678 H   0  0  0  0  0  0  0  0  0  0  0  0
 29 30  2  0  0  0  0
 27 29  1  0  0  0  0
 28 30  1  0  0  0  0
 24 27  2  0  0  0  0
 26 28  2  0  0  0  0
 22 23  2  0  0  0  0
 23 25  1  0  0  0  0
 22 24  1  0  0  0  0
 24 26  1  0  0  0  0
 21 22  1  0  0  0  0
 25 26  1  0  0  0  0
  1  3  1  0  0  0  0
  1  7  1  0  0  0  0
  1  2  2  0  0  0  0
 42 43  1  0  0  0  0
 43 51  1  0  0  0  0
 43 44  2  0  0  0  0
  8  9  1  0  0  0  0
  9 17  1  0  0  0  0
  9 10  2  0  0  0  0
 18 19  1  0  0  0  0
 19 41  1  0  0  0  0
 19 20  2  0  0  0  0
 42 45  1  0  0  0  0
  8 11  1  0  0  0  0
 51 52  1  0  0  0  0
 18 21  1  0  0  0  0
 41 42  1  0  0  0  0
  7  8  1  0  0  0  0
 17 18  1  0  0  0  0
 29 39  1  0  0  0  0
 30 40  1  0  0  0  0
 27 37  1  0  0  0  0
 28 38  1  0  0  0  0
 23 35  1  0  0  0  0
  3  4  1  0  0  0  0
  3  5  1  0  0  0  0
  3  6  1  0  0  0  0
 45 48  1  0  0  0  0
 45 49  1  0  0  0  0
 45 50  1  0  0  0  0
 11 14  1  0  0  0  0
 11 15  1  0  0  0  0
 11 16  1  0  0  0  0
 52 54  1  0  0  0  0
 52 55  1  0  0  0  0
 52 56  1  0  0  0  0
 21 33  1  0  0  0  0
 21 34  1  0  0  0  0
 42 47  1  0  0  0  0
  8 13  1  0  0  0  0
 18 32  1  0  0  0  0
 25 36  1  0  0  0  0
 51 53  1  0  0  0  0
  7 12  1  0  0  0  0
 41 46  1  0  0  0  0
 17 31  1  0  0  0  0
M  END
$$$$

  -OEChem-05262214473D

 56 57  0     1  0  0  0  0  0999 V2000
   -2.2900    0.3401    4.1553 C   0  0  0  0  0  0  0  0  0  0  0  0
   -1.3426   -0.2746    3.6796 O   0  0  0  0  0  0  0  0  0  0  0  0
   -2.7219    0.0577    5.5560 C   0  0  0  0  0  0  0  0  0  0  0  0
   -3.4815   -0.7386    5.6094 H   0  0  0  0  0  0  0  0  0  0  0  0
   -1.8906   -0.2899    6.1903 H   0  0  0  0  0  0  0  0  0  0  0  0
   -3.1599    0.9126    6.0956 H   0  0  0  0  0  0  0  0  0  0  0  0
   -3.0397    1.3125    3.5142 N   0  0  0  0  0  0  0  0  0  0  0  0
   -2.7928    1.7385    2.1618 C   0  0  2  0  0  0  0  0  0  0  0  0
   -1.4579    1.1532    1.7206 C   0  0  0  0  0  0  0  0  0  0  0  0
   -0.5858    0.8004    2.5118 O   0  0  0  0  0  0  0  0  0  0  0  0
   -2.7841    3.2553    2.0523 C   0  0  0  0  0  0  0  0  0  0  0  0
   -3.8047    1.7484    4.0260 H   0  0  0  0  0  0  0  0  0  0  0  0
   -3.5969    1.3201    1.5466 H   0  0  0  0  0  0  0  0  0  0  0  0
   -1.9850    3.6926    2.6620 H   0  0  0  0  0  0  0  0  0  0  0  0
   -2.6246    3.5776    1.0180 H   0  0  0  0  0  0  0  0  0  0  0  0
   -3.7342    3.6765    2.3981 H   0  0  0  0  0  0  0  0  0  0  0  0
   -1.3352    1.1101    0.3372 N   0  0  0  0  0  0  0  0  0  0  0  0
   -0.1579    0.6093   -0.3265 C   0  0  2  0  0  0  0  0  0  0  0  0
   -0.5935   -0.5703   -1.1885 C   0  0  0  0  0  0  0  0  0  0  0  0
    0.1957   -1.4002   -1.6350 O   0  0  0  0  0  0  0  0  0  0  0  0
    0.9250    0.1723    0.6668 C   0  0  0  0  0  0  0  0  0  0  0  0
    1.5073    1.3292    1.4416 C   0  0  0  0  0  0  0  0  0  0  0  0
    1.1265    1.7237    2.7035 C   0  0  0  0  0  0  0  0  0  0  0  0
    2.5423    2.2042    1.0082 C   0  0  0  0  0  0  0  0  0  0  0  0
    1.8891    2.8051    3.0549 N   0  0  0  0  0  0  0  0  0  0  0  0
    2.7626    3.1206    2.0387 C   0  0  0  0  0  0  0  0  0  0  0  0
    3.3153    2.3049   -0.1656 C   0  0  0  0  0  0  0  0  0  0  0  0
    3.7210    4.1367    1.9538 C   0  0  0  0  0  0  0  0  0  0  0  0
    4.2777    3.3162   -0.2646 C   0  0  0  0  0  0  0  0  0  0  0  0
    4.4758    4.2170    0.7800 C   0  0  0  0  0  0  0  0  0  0  0  0
   -2.1183    1.4068   -0.2401 H   0  0  0  0  0  0  0  0  0  0  0  0
    0.2010    1.4157   -0.9767 H   0  0  0  0  0  0  0  0  0  0  0  0
    1.7283   -0.3629    0.1426 H   0  0  0  0  0  0  0  0  0  0  0  0
    0.5174   -0.5518    1.3846 H   0  0  0  0  0  0  0  0  0  0  0  0
    0.3809    1.3338    3.3827 H   0  0  0  0  0  0  0  0  0  0  0  0
    1.8214    3.3005    3.9332 H   0  0  0  0  0  0  0  0  0  0  0  0
    3.1723    1.6110   -0.9892 H   0  0  0  0  0  0  0  0  0  0  0  0
    3.8766    4.8376    2.7668 H   0  0  0  0  0  0  0  0  0  0  0  0
    4.8765    3.3992   -1.1676 H   0  0  0  0  0  0  0  0  0  0  0  0
    5.2288    4.9947    0.6818 H   0  0  0  0  0  0  0  0  0  0  0  0
   -1.9707   -0.6110   -1.3557 N   0  0  0  0  0  0  0  0  0  0  0  0
   -2.6484   -1.6405   -2.1106 C   0  0  2  0  0  0  0  0  0  0  0  0
   -1.9573   -1.7647   -3.4620 C   0  0  0  0  0  0  0  0  0  0  0  0
   -1.2871   -0.8615   -3.9582 O   0  0  0  0  0  0  0  0  0  0  0  0
   -4.1248   -1.3193   -2.2825 C   0  0  0  0  0  0  0  0  0  0  0  0
   -2.5306    0.1194   -0.9259 H   0  0  0  0  0  0  0  0  0  0  0  0
   -2.5276   -2.5744   -1.5508 H   0  0  0  0  0  0  0  0  0  0  0  0
   -4.2657   -0.3868   -2.8412 H   0  0  0  0  0  0  0  0  0  0  0  0
   -4.6426   -2.1139   -2.8299 H   0  0  0  0  0  0  0  0  0  0  0  0
   -4.6138   -1.2010   -1.3096 H   0  0  0  0  0  0  0  0  0  0  0  0
   -2.2124   -2.9867   -4.0683 N   0  0  0  0  0  0  0  0  0  0  0  0
   -1.6795   -3.3410   -5.3631 C   0  0  0  0  0  0  0  0  0  0  0  0
   -2.7634   -3.6836   -3.5758 H   0  0  0  0  0  0  0  0  0  0  0  0
   -2.4044   -3.0709   -6.1450 H   0  0  0  0  0  0  0  0  0  0  0  0
   -0.7379   -2.7983   -5.5329 H   0  0  0  0  0  0  0  0  0  0  0  0
   -1.4897   -4.4240   -5.3975 H   0  0  0  0  0  0  0  0  0  0  0  0
 29 30  2  0  0  0  0
 27 29  1  0  0  0  0
 28 30  1  0  0  0  0
 24 27  2  0  0  0  0
 26 28  2  0  0  0  0
 22 23  2  0  0  0  0
 23 25  1  0  0  0  0
 22 24  1  0  0  0  0
 24 26  1  0  0  0  0
 21 22  1  0  0  0  0
 25 26  1  0  0  0  0
  1  3  1  0  0  0  0
  1  7  1  0  0  0  0
  1  2  2  0  0  0  0
 42 43  1  0  0  0  0
 43 51  1  0  0  0  0
 43 44  2  0  0  0  0
  8  9  1  0  0  0  0
  9 17  1  0  0  0  0
  9 10  2  0  0  0  0
 18 19  1  0  0  0  0
 19 41  1  0  0  0  0
 19 20  2  0  0  0  0
 42 45  1  0  0  0  0
  8 11  1  0  0  0  0
 51 52  1  0  0  0  0
 18 21  1  0  0  0  0
 41 42  1  0  0  0  0
  7  8  1  0  0  0  0
 17 18  1  0  0  0  0
 29 39  1  0  0  0  0
 30 40  1  0  0  0  0
 27 37  1  0  0  0  0
 28 38  1  0  0  0  0
 23 35  1  0  0  0  0
  3  4  1  0  0  0  0
  3  5  1  0  0  0  0
  3  6  1  0  0  0  0
 45 48  1  0  0  0  0
 45 49  1  0  0  0  0
 45 50  1  0  0  0  0
 11 14  1  0  0  0  0
 11 15  1  0  0  0  0
 11 16  1  0  0  0  0
 52 54  1  0  0  0  0
 52 55  1  0  0  0  0
 52 56  1  0  0  0  0
 21 33  1  0  0  0  0
 21 34  1  0  0  0  0
 42 47  1  0  0  0  0
  8 13  1  0  0  0  0
 18 32  1  0  0  0  0
 25 36  1  0  0  0  0
 51 53  1  0  0  0  0
  7 12  1  0  0  0  0
 41 46  1  0  0  0  0
 17 31  1  0  0  0  0
M  END
$$$$

  -OEChem-05262214473D

 56 57  0     1  0  0  0  0  0999 V2000
   -2.2900    0.3401    4.1553 C   0  0  0  0  0  0  0  0  0  0  0  0
   -1.3426   -0.2746    3.6796 O   0  0  0  0  0  0  0  0  0  0  0  0
   -2.7219    0.0577    5.5560 C   0  0  0  0  0  0  0  0  0  0  0  0
   -3.4815   -0.7386    5.6094 H   0  0  0  0  0  0  0  0  0  0  0  0
   -1.8906   -0.2899    6.1903 H   0  0  0  0  0  0  0  0  0  0  0  0
   -3.1599    0.9126    6.0956 H   0  0  0  0  0  0  0  0  0  0  0  0
   -3.0397    1.3125    3.5142 N   0  0  0  0  0  0  0  0  0  0  0  0
   -2.7928    1.7385    2.1618 C   0  0  2  0  0  0  0  0  0  0  0  0
   -1.4579    1.1532    1.7206 C   0  0  0  0  0  0  0  0  0  0  0  0
   -0.5858    0.8004    2.5118 O   0  0  0  0  0  0  0  0  0  0  0  0
   -2.7841    3.2553    2.0523 C   0  0  0  0  0  0  0  0  0  0  0  0
   -3.8047    1.7484    4.0260 H   0  0  0  0  0  0  0  0  0  0  0  0
   -3.5969    1.3201    1.5466 H   0  0  0  0  0  0  0  0  0  0  0  0
   -1.9850    3.6926    2.6620 H   0  0  0  0  0  0  0  0  0  0  0  0
   -2.6246    3.5776    1.0180 H   0  0  0  0  0  0  0  0  0  0  0  0
   -3.7342    3.6765    2.3981 H   0  0  0  0  0  0  0  0  0  0  0  0
   -1.3352    1.1101    0.3372 N   0  0  0  0  0  0  0  0  0  0  0  0
   -0.1579    0.6093   -0.3265 C   0  0  2  0  0  0  0  0  0  0  0  0
   -0.5935   -0.5703   -1.1885 C   0  0  0  0  0  0  0  0  0  0  0  0
    0.1303   -1.5380   -1.4133 O   0  0  0  0  0  0  0  0  0  0  0  0
    0.9250    0.1723    0.6668 C   0  0  0  0  0  0  0  0  0  0  0  0
    1.5073    1.3292    1.4416 C   0  0  0  0  0  0  0  0  0  0  0  0
    1.1265    1.7237    2.7035 C   0  0  0  0  0  0  0  0  0  0  0  0
    2.5423    2.2042    1.0082 C   0  0  0  0  0  0  0  0  0  0  0  0
    1.8891    2.8051    3.0549 N   0  0  0  0  0  0  0  0  0  0  0  0
    2.7626    3.1206    2.0387 C   0  0  0  0  0  0  0  0  0  0  0  0
    3.3153    2.3049   -0.1656 C   0  0  0  0  0  0  0  0  0  0  0  0
    3.7210    4.1367    1.9538 C   0  0  0  0  0  0  0  0  0  0  0  0
    4.2777    3.3162   -0.2646 C   0  0  0  0  0  0  0  0  0  0  0  0
    4.4758    4.2170    0.7800 C   0  0  0  0  0  0  0  0  0  0  0  0
   -2.1183    1.4068   -0.2401 H   0  0  0  0  0  0  0  0  0  0  0  0
    0.2010    1.4157   -0.9767 H   0  0  0  0  0  0  0  0  0  0  0  0
    1.7283   -0.3629    0.1426 H   0  0  0  0  0  0  0  0  0  0  0  0
    0.5174   -0.5518    1.3846 H   0  0  0  0  0  0  0  0  0  0  0  0
    0.3809    1.3338    3.3827 H   0  0  0  0  0  0  0  0  0  0  0  0
    1.8214    3.3005    3.9332 H   0  0  0  0  0  0  0  0  0  0  0  0
    3.1723    1.6110   -0.9892 H   0  0  0  0  0  0  0  0  0  0  0  0
    3.8766    4.8376    2.7668 H   0  0  0  0  0  0  0  0  0  0  0  0
    4.8765    3.3992   -1.1676 H   0  0  0  0  0  0  0  0  0  0  0  0
    5.2288    4.9947    0.6818 H   0  0  0  0  0  0  0  0  0  0  0  0
   -1.9013   -0.4342   -1.6328 N   0  0  0  0  0  0  0  0  0  0  0  0
   -2.5692   -1.4226   -2.4488 C   0  0  2  0  0  0  0  0  0  0  0  0
   -1.6556   -1.7610   -3.6194 C   0  0  0  0  0  0  0  0  0  0  0  0
   -0.7708   -1.0073   -4.0196 O   0  0  0  0  0  0  0  0  0  0  0  0
   -3.9165   -0.9161   -2.9396 C   0  0  0  0  0  0  0  0  0  0  0  0
   -2.4150    0.4022   -1.3713 H   0  0  0  0  0  0  0  0  0  0  0  0
   -2.7049   -2.3107   -1.8221 H   0  0  0  0  0  0  0  0  0  0  0  0
   -3.8007   -0.0265   -3.5693 H   0  0  0  0  0  0  0  0  0  0  0  0
   -4.4337   -1.6766   -3.5339 H   0  0  0  0  0  0  0  0  0  0  0  0
   -4.5615   -0.6451   -2.0968 H   0  0  0  0  0  0  0  0  0  0  0  0
   -1.9727   -2.9849   -4.1920 N   0  0  0  0  0  0  0  0  0  0  0  0
   -1.2588   -3.5233   -5.3262 C   0  0  0  0  0  0  0  0  0  0  0  0
   -2.7096   -3.5519   -3.7831 H   0  0  0  0  0  0  0  0  0  0  0  0
   -1.7672   -3.2257   -6.2551 H   0  0  0  0  0  0  0  0  0  0  0  0
   -0.2301   -3.1338   -5.3304 H   0  0  0  0  0  0  0  0  0  0  0  0
   -1.2350   -4.6209   -5.2569 H   0  0  0  0  0  0  0  0  0  0  0  0
 29 30  2  0  0  0  0
 27 29  1  0  0  0  0
 28 30  1  0  0  0  0
 24 27  2  0  0  0  0
 26 28  2  0  0  0  0
 22 23  2  0  0  0  0
 23 25  1  0  0  0  0
 22 24  1  0  0  0  0
 24 26  1  0  0  0  0
 21 22  1  0  0  0  0
 25 26  1  0  0  0  0
  1  3  1  0  0  0  0
  1  7  1  0  0  0  0
  1  2  2  0  0  0  0
 42 43  1  0  0  0  0
 43 51  1  0  0  0  0
 43 44  2  0  0  0  0
  8  9  1  0  0  0  0
  9 17  1  0  0  0  0
  9 10  2  0  0  0  0
 18 19  1  0  0  0  0
 19 41  1  0  0  0  0
 19 20  2  0  0  0  0
 42 45  1  0  0  0  0
  8 11  1  0  0  0  0
 51 52  1  0  0  0  0
 18 21  1  0  0  0  0
 41 42  1  0  0  0  0
  7  8  1  0  0  0  0
 17 18  1  0  0  0  0
 29 39  1  0  0  0  0
 30 40  1  0  0  0  0
 27 37  1  0  0  0  0
 28 38  1  0  0  0  0
 23 35  1  0  0  0  0
  3  4  1  0  0  0  0
  3  5  1  0  0  0  0
  3  6  1  0  0  0  0
 45 48  1  0  0  0  0
 45 49  1  0  0  0  0
 45 50  1  0  0  0  0
 11 14  1  0  0  0  0
 11 15  1  0  0  0  0
 11 16  1  0  0  0  0
 52 54  1  0  0  0  0
 52 55  1  0  0  0  0
 52 56  1  0  0  0  0
 21 33  1  0  0  0  0
 21 34  1  0  0  0  0
 42 47  1  0  0  0  0
  8 13  1  0  0  0  0
 18 32  1  0  0  0  0
 25 36  1  0  0  0  0
 51 53  1  0  0  0  0
  7 12  1  0  0  0  0
 41 46  1  0  0  0  0
 17 31  1  0  0  0  0
M  END
$$$$

  -OEChem-05262214473D

 56 57  0     1  0  0  0  0  0999 V2000
   -2.2900    0.3401    4.1553 C   0  0  0  0  0  0  0  0  0  0  0  0
   -1.3426   -0.2746    3.6796 O   0  0  0  0  0  0  0  0  0  0  0  0
   -2.7219    0.0577    5.5560 C   0  0  0  0  0  0  0  0  0  0  0  0
   -3.4815   -0.7386    5.6094 H   0  0  0  0  0  0  0  0  0  0  0  0
   -1.8906   -0.2899    6.1903 H   0  0  0  0  0  0  0  0  0  0  0  0
   -3.1599    0.9126    6.0956 H   0  0  0  0  0  0  0  0  0  0  0  0
   -3.0397    1.3125    3.5142 N   0  0  0  0  0  0  0  0  0  0  0  0
   -2.7928    1.7385    2.1618 C   0  0  2  0  0  0  0  0  0  0  0  0
   -1.4579    1.1532    1.7206 C   0  0  0  0  0  0  0  0  0  0  0  0
   -0.5858    0.8004    2.5118 O   0  0  0  0  0  0  0  0  0  0  0  0
   -2.7841    3.2553    2.0523 C   0  0  0  0  0  0  0  0  0  0  0  0
   -3.8047    1.7484    4.0260 H   0  0  0  0  0  0  0  0  0  0  0  0
   -3.5969    1.3201    1.5466 H   0  0  0  0  0  0  0  0  0  0  0  0
   -1.9850    3.6926    2.6620 H   0  0  0  0  0  0  0  0  0  0  0  0
   -2.6246    3.5776    1.0180 H   0  0  0  0  0  0  0  0  0  0  0  0
   -3.7342    3.6765    2.3981 H   0  0  0  0  0  0  0  0  0  0  0  0
   -1.3352    1.1101    0.3372 N   0  0  0  0  0  0  0  0  0  0  0  0
   -0.1579    0.6093   -0.3265 C   0  0  2  0  0  0  0  0  0  0  0  0
   -0.5935   -0.5703   -1.1885 C   0  0  0  0  0  0  0  0  0  0  0  0
    0.0025   -1.6452   -1.2020 O   0  0  0  0  0  0  0  0  0  0  0  0
    0.9250    0.1723    0.6668 C   0  0  0  0  0  0  0  0  0  0  0  0
    1.5073    1.3292    1.4416 C   0  0  0  0  0  0  0  0  0  0  0  0
    1.1265    1.7237    2.7035 C   0  0  0  0  0  0  0  0  0  0  0  0
    2.5423    2.2042    1.0082 C   0  0  0  0  0  0  0  0  0  0  0  0
    1.8891    2.8051    3.0549 N   0  0  0  0  0  0  0  0  0  0  0  0
    2.7626    3.1206    2.0387 C   0  0  0  0  0  0  0  0  0  0  0  0
    3.3153    2.3049   -0.1656 C   0  0  0  0  0  0  0  0  0  0  0  0
    3.7210    4.1367    1.9538 C   0  0  0  0  0  0  0  0  0  0  0  0
    4.2777    3.3162   -0.2646 C   0  0  0  0  0  0  0  0  0  0  0  0
    4.4758    4.2170    0.7800 C   0  0  0  0  0  0  0  0  0  0  0  0
   -2.1183    1.4068   -0.2401 H   0  0  0  0  0  0  0  0  0  0  0  0
    0.2010    1.4157   -0.9767 H   0  0  0  0  0  0  0  0  0  0  0  0
    1.7283   -0.3629    0.1426 H   0  0  0  0  0  0  0  0  0  0  0  0
    0.5174   -0.5518    1.3846 H   0  0  0  0  0  0  0  0  0  0  0  0
    0.3809    1.3338    3.3827 H   0  0  0  0  0  0  0  0  0  0  0  0
    1.8214    3.3005    3.9332 H   0  0  0  0  0  0  0  0  0  0  0  0
    3.1723    1.6110   -0.9892 H   0  0  0  0  0  0  0  0  0  0  0  0
    3.8766    4.8376    2.7668 H   0  0  0  0  0  0  0  0  0  0  0  0
    4.8765    3.3992   -1.1676 H   0  0  0  0  0  0  0  0  0  0  0  0
    5.2288    4.9947    0.6818 H   0  0  0  0  0  0  0  0  0  0  0  0
   -1.7529   -0.2940   -1.8996 N   0  0  0  0  0  0  0  0  0  0  0  0
   -2.3930   -1.2487   -2.7758 C   0  0  2  0  0  0  0  0  0  0  0  0
   -1.3322   -1.8133   -3.7113 C   0  0  0  0  0  0  0  0  0  0  0  0
   -0.2812   -1.2283   -3.9646 O   0  0  0  0  0  0  0  0  0  0  0  0
   -3.5247   -0.6057   -3.5623 C   0  0  0  0  0  0  0  0  0  0  0  0
   -2.1727    0.6255   -1.7993 H   0  0  0  0  0  0  0  0  0  0  0  0
   -2.7833   -2.0501   -2.1391 H   0  0  0  0  0  0  0  0  0  0  0  0
   -3.1530    0.1997   -4.2061 H   0  0  0  0  0  0  0  0  0  0  0  0
   -4.0270   -1.3368   -4.2044 H   0  0  0  0  0  0  0  0  0  0  0  0
   -4.2720   -0.1740   -2.8878 H   0  0  0  0  0  0  0  0  0  0  0  0
   -1.7162   -3.0273   -4.2636 N   0  0  0  0  0  0  0  0  0  0  0  0
   -0.8865   -3.7583   -5.1928 C   0  0  0  0  0  0  0  0  0  0  0  0
   -2.5968   -3.4480   -3.9823 H   0  0  0  0  0  0  0  0  0  0  0  0
   -1.1523   -3.4767   -6.2224 H   0  0  0  0  0  0  0  0  0  0  0  0
    0.1707   -3.5172   -5.0082 H   0  0  0  0  0  0  0  0  0  0  0  0
   -1.0458   -4.8380   -5.0554 H   0  0  0  0  0  0  0  0  0  0  0  0
 29 30  2  0  0  0  0
 27 29  1  0  0  0  0
 28 30  1  0  0  0  0
 24 27  2  0  0  0  0
 26 28  2  0  0  0  0
 22 23  2  0  0  0  0
 23 25  1  0  0  0  0
 22 24  1  0  0  0  0
 24 26  1  0  0  0  0
 21 22  1  0  0  0  0
 25 26  1  0  0  0  0
  1  3  1  0  0  0  0
  1  7  1  0  0  0  0
  1  2  2  0  0  0  0
 42 43  1  0  0  0  0
 43 51  1  0  0  0  0
 43 44  2  0  0  0  0
  8  9  1  0  0  0  0
  9 17  1  0  0  0  0
  9 10  2  0  0  0  0
 18 19  1  0  0  0  0
 19 41  1  0  0  0  0
 19 20  2  0  0  0  0
 42 45  1  0  0  0  0
  8 11  1  0  0  0  0
 51 52  1  0  0  0  0
 18 21  1  0  0  0  0
 41 42  1  0  0  0  0
  7  8  1  0  0  0  0
 17 18  1  0  0  0  0
 29 39  1  0  0  0  0
 30 40  1  0  0  0  0
 27 37  1  0  0  0  0
 28 38  1  0  0  0  0
 23 35  1  0  0  0  0
  3  4  1  0  0  0  0
  3  5  1  0  0  0  0
  3  6  1  0  0  0  0
 45 48  1  0  0  0  0
 45 49  1  0  0  0  0
 45 50  1  0  0  0  0
 11 14  1  0  0  0  0
 11 15  1  0  0  0  0
 11 16  1  0  0  0  0
 52 54  1  0  0  0  0
 52 55  1  0  0  0  0
 52 56  1  0  0  0  0
 21 33  1  0  0  0  0
 21 34  1  0  0  0  0
 42 47  1  0  0  0  0
  8 13  1  0  0  0  0
 18 32  1  0  0  0  0
 25 36  1  0  0  0  0
 51 53  1  0  0  0  0
  7 12  1  0  0  0  0
 41 46  1  0  0  0  0
 17 31  1  0  0  0  0
M  END
$$$$

  -OEChem-05262214473D

 56 57  0     1  0  0  0  0  0999 V2000
   -2.2900    0.3401    4.1553 C   0  0  0  0  0  0  0  0  0  0  0  0
   -1.3426   -0.2746    3.6796 O   0  0  0  0  0  0  0  0  0  0  0  0
   -2.7219    0.0577    5.5560 C   0  0  0  0  0  0  0  0  0  0  0  0
   -3.4815   -0.7386    5.6094 H   0  0  0  0  0  0  0  0  0  0  0  0
   -1.8906   -0.2899    6.1903 H   0  0  0  0  0  0  0  0  0  0  0  0
   -3.1599    0.9126    6.0956 H   0  0  0  0  0  0  0  0  0  0  0  0
   -3.0397    1.3125    3.5142 N   0  0  0  0  0  0  0  0  0  0  0  0
   -2.7928    1.7385    2.1618 C   0  0  2  0  0  0  0  0  0  0  0  0
   -1.4579    1.1532    1.7206 C   0  0  0  0  0  0  0  0  0  0  0  0
   -0.5858    0.8004    2.5118 O   0  0  0  0  0  0  0  0  0  0  0  0
   -2.7841    3.2553    2.0523 C   0  0  0  0  0  0  0  0  0  0  0  0
   -3.8047    1.7484    4.0260 H   0  0  0  0  0  0  0  0  0  0  0  0
   -3.5969    1.3201    1.5466 H   0  0  0  0  0  0  0  0  0  0  0  0
   -1.9850    3.6926    2.6620 H   0  0  0  0  0  0  0  0  0  0  0  0
   -2.6246    3.5776    1.0180 H   0  0  0  0  0  0  0  0  0  0  0  0
   -3.7342    3.6765    2.3981 H   0  0  0  0  0  0  0  0  0  0  0  0
   -1.3352    1.1101    0.3372 N   0  0  0  0  0  0  0  0  0  0  0  0
   -0.1579    0.6093   -0.3265 C   0  0  2  0  0  0  0  0  0  0  0  0
   -0.5935   -0.5703   -1.1885 C   0  0  0  0  0  0  0  0  0  0  0  0
   -0.1789   -1.7145   -1.0156 O   0  0  0  0  0  0  0  0  0  0  0  0
    0.9250    0.1723    0.6668 C   0  0  0  0  0  0  0  0  0  0  0  0
    1.5073    1.3292    1.4416 C   0  0  0  0  0  0  0  0  0  0  0  0
    1.1265    1.7237    2.7035 C   0  0  0  0  0  0  0  0  0  0  0  0
    2.5423    2.2042    1.0082 C   0  0  0  0  0  0  0  0  0  0  0  0
    1.8891    2.8051    3.0549 N   0  0  0  0  0  0  0  0  0  0  0  0
    2.7626    3.1206    2.0387 C   0  0  0  0  0  0  0  0  0  0  0  0
    3.3153    2.3049   -0.1656 C   0  0  0  0  0  0  0  0  0  0  0  0
    3.7210    4.1367    1.9538 C   0  0  0  0  0  0  0  0  0  0  0  0
    4.2777    3.3162   -0.2646 C   0  0  0  0  0  0  0  0  0  0  0  0
    4.4758    4.2170    0.7800 C   0  0  0  0  0  0  0  0  0  0  0  0
   -2.1183    1.4068   -0.2401 H   0  0  0  0  0  0  0  0  0  0  0  0
    0.2010    1.4157   -0.9767 H   0  0  0  0  0  0  0  0  0  0  0  0
    1.7283   -0.3629    0.1426 H   0  0  0  0  0  0  0  0  0  0  0  0
    0.5174   -0.5518    1.3846 H   0  0  0  0  0  0  0  0  0  0  0  0
    0.3809    1.3338    3.3827 H   0  0  0  0  0  0  0  0  0  0  0  0
    1.8214    3.3005    3.9332 H   0  0  0  0  0  0  0  0  0  0  0  0
    3.1723    1.6110   -0.9892 H   0  0  0  0  0  0  0  0  0  0  0  0
    3.8766    4.8376    2.7668 H   0  0  0  0  0  0  0  0  0  0  0  0
    4.8765    3.3992   -1.1676 H   0  0  0  0  0  0  0  0  0  0  0  0
    5.2288    4.9947    0.6818 H   0  0  0  0  0  0  0  0  0  0  0  0
   -1.5356   -0.2000   -2.1380 N   0  0  0  0  0  0  0  0  0  0  0  0
   -2.1320   -1.1306   -3.0692 C   0  0  2  0  0  0  0  0  0  0  0  0
   -1.0090   -1.9180   -3.7314 C   0  0  0  0  0  0  0  0  0  0  0  0
    0.1485   -1.5093   -3.7972 O   0  0  0  0  0  0  0  0  0  0  0  0
   -2.9761   -0.4093   -4.1083 C   0  0  0  0  0  0  0  0  0  0  0  0
   -1.8204    0.7741   -2.1807 H   0  0  0  0  0  0  0  0  0  0  0  0
   -2.7573   -1.8104   -2.4803 H   0  0  0  0  0  0  0  0  0  0  0  0
   -2.3667    0.2764   -4.7083 H   0  0  0  0  0  0  0  0  0  0  0  0
   -3.4502   -1.1177   -4.7957 H   0  0  0  0  0  0  0  0  0  0  0  0
   -3.7649    0.1802   -3.6287 H   0  0  0  0  0  0  0  0  0  0  0  0
   -1.4602   -3.1111   -4.2783 N   0  0  0  0  0  0  0  0  0  0  0  0
   -0.5881   -4.0298   -4.9721 C   0  0  0  0  0  0  0  0  0  0  0  0
   -2.4328   -3.3788   -4.1599 H   0  0  0  0  0  0  0  0  0  0  0  0
   -0.6017   -3.8066   -6.0491 H   0  0  0  0  0  0  0  0  0  0  0  0
    0.4373   -3.9224   -4.5885 H   0  0  0  0  0  0  0  0  0  0  0  0
   -0.9353   -5.0604   -4.8069 H   0  0  0  0  0  0  0  0  0  0  0  0
 29 30  2  0  0  0  0
 27 29  1  0  0  0  0
 28 30  1  0  0  0  0
 24 27  2  0  0  0  0
 26 28  2  0  0  0  0
 22 23  2  0  0  0  0
 23 25  1  0  0  0  0
 22 24  1  0  0  0  0
 24 26  1  0  0  0  0
 21 22  1  0  0  0  0
 25 26  1  0  0  0  0
  1  3  1  0  0  0  0
  1  7  1  0  0  0  0
  1  2  2  0  0  0  0
 42 43  1  0  0  0  0
 43 51  1  0  0  0  0
 43 44  2  0  0  0  0
  8  9  1  0  0  0  0
  9 17  1  0  0  0  0
  9 10  2  0  0  0  0
 18 19  1  0  0  0  0
 19 41  1  0  0  0  0
 19 20  2  0  0  0  0
 42 45  1  0  0  0  0
  8 11  1  0  0  0  0
 51 52  1  0  0  0  0
 18 21  1  0  0  0  0
 41 42  1  0  0  0  0
  7  8  1  0  0  0  0
 17 18  1  0  0  0  0
 29 39  1  0  0  0  0
 30 40  1  0  0  0  0
 27 37  1  0  0  0  0
 28 38  1  0  0  0  0
 23 35  1  0  0  0  0
  3  4  1  0  0  0  0
  3  5  1  0  0  0  0
  3  6  1  0  0  0  0
 45 48  1  0  0  0  0
 45 49  1  0  0  0  0
 45 50  1  0  0  0  0
 11 14  1  0  0  0  0
 11 15  1  0  0  0  0
 11 16  1  0  0  0  0
 52 54  1  0  0  0  0
 52 55  1  0  0  0  0
 52 56  1  0  0  0  0
 21 33  1  0  0  0  0
 21 34  1  0  0  0  0
 42 47  1  0  0  0  0
  8 13  1  0  0  0  0
 18 32  1  0  0  0  0
 25 36  1  0  0  0  0
 51 53  1  0  0  0  0
  7 12  1  0  0  0  0
 41 46  1  0  0  0  0
 17 31  1  0  0  0  0
M  END
$$$$

  -OEChem-05262214473D

 56 57  0     1  0  0  0  0  0999 V2000
   -2.2900    0.3401    4.1553 C   0  0  0  0  0  0  0  0  0  0  0  0
   -1.3426   -0.2746    3.6796 O   0  0  0  0  0  0  0  0  0  0  0  0
   -2.7219    0.0577    5.5560 C   0  0  0  0  0  0  0  0  0  0  0  0
   -3.4815   -0.7386    5.6094 H   0  0  0  0  0  0  0  0  0  0  0  0
   -1.8906   -0.2899    6.1903 H   0  0  0  0  0  0  0  0  0  0  0  0
   -3.1599    0.9126    6.0956 H   0  0  0  0  0  0  0  0  0  0  0  0
   -3.0397    1.3125    3.5142 N   0  0  0  0  0  0  0  0  0  0  0  0
   -2.7928    1.7385    2.1618 C   0  0  2  0  0  0  0  0  0  0  0  0
   -1.4579    1.1532    1.7206 C   0  0  0  0  0  0  0  0  0  0  0  0
   -0.5858    0.8004    2.5118 O   0  0  0  0  0  0  0  0  0  0  0  0
   -2.7841    3.2553    2.0523 C   0  0  0  0  0  0  0  0  0  0  0  0
   -3.8047    1.7484    4.0260 H   0  0  0  0  0  0  0  0  0  0  0  0
   -3.5969    1.3201    1.5466 H   0  0  0  0  0  0  0  0  0  0  0  0
   -1.9850    3.6926    2.6620 H   0  0  0  0  0  0  0  0  0  0  0  0
   -2.6246    3.5776    1.0180 H   0  0  0  0  0  0  0  0  0  0  0  0
   -3.7342    3.6765    2.3981 H   0  0  0  0  0  0  0  0  0  0  0  0
   -1.3352    1.1101    0.3372 N   0  0  0  0  0  0  0  0  0  0  0  0
   -0.1579    0.6093   -0.3265 C   0  0  2  0  0  0  0  0  0  0  0  0
   -0.5935   -0.5703   -1.1885 C   0  0  0  0  0  0  0  0  0  0  0  0
   -0.4016   -1.7410   -0.8668 O   0  0  0  0  0  0  0  0  0  0  0  0
    0.9250    0.1723    0.6668 C   0  0  0  0  0  0  0  0  0  0  0  0
    1.5073    1.3292    1.4416 C   0  0  0  0  0  0  0  0  0  0  0  0
    1.1265    1.7237    2.7035 C   0  0  0  0  0  0  0  0  0  0  0  0
    2.5423    2.2042    1.0082 C   0  0  0  0  0  0  0  0  0  0  0  0
    1.8891    2.8051    3.0549 N   0  0  0  0  0  0  0  0  0  0  0  0
    2.7626    3.1206    2.0387 C   0  0  0  0  0  0  0  0  0  0  0  0
    3.3153    2.3049   -0.1656 C   0  0  0  0  0  0  0  0  0  0  0  0
    3.7210    4.1367    1.9538 C   0  0  0  0  0  0  0  0  0  0  0  0
    4.2777    3.3162   -0.2646 C   0  0  0  0  0  0  0  0  0  0  0  0
    4.4758    4.2170    0.7800 C   0  0  0  0  0  0  0  0  0  0  0  0
   -2.1183    1.4068   -0.2401 H   0  0  0  0  0  0  0  0  0  0  0  0
    0.2010    1.4157   -0.9767 H   0  0  0  0  0  0  0  0  0  0  0  0
    1.7283   -0.3629    0.1426 H   0  0  0  0  0  0  0  0  0  0  0  0
    0.5174   -0.5518    1.3846 H   0  0  0  0  0  0  0  0  0  0  0  0
    0.3809    1.3338    3.3827 H   0  0  0  0  0  0  0  0  0  0  0  0
    1.8214    3.3005    3.9332 H   0  0  0  0  0  0  0  0  0  0  0  0
    3.1723    1.6110   -0.9892 H   0  0  0  0  0  0  0  0  0  0  0  0
    3.8766    4.8376    2.7668 H   0  0  0  0  0  0  0  0  0  0  0  0
    4.8765    3.3992   -1.1676 H   0  0  0  0  0  0  0  0  0  0  0  0
    5.2288    4.9947    0.6818 H   0  0  0  0  0  0  0  0  0  0  0  0
   -1.2642   -0.1587   -2.3318 N   0  0  0  0  0  0  0  0  0  0  0  0
   -1.8038   -1.0765   -3.3091 C   0  0  2  0  0  0  0  0  0  0  0  0
   -0.7081   -2.0678   -3.6784 C   0  0  0  0  0  0  0  0  0  0  0  0
    0.4888   -1.8312   -3.5286 O   0  0  0  0  0  0  0  0  0  0  0  0
   -2.3082   -0.3402   -4.5404 C   0  0  0  0  0  0  0  0  0  0  0  0
   -1.3819    0.8379   -2.4895 H   0  0  0  0  0  0  0  0  0  0  0  0
   -2.6289   -1.6078   -2.8223 H   0  0  0  0  0  0  0  0  0  0  0  0
   -1.4954    0.1982   -5.0415 H   0  0  0  0  0  0  0  0  0  0  0  0
   -2.7425   -1.0342   -5.2676 H   0  0  0  0  0  0  0  0  0  0  0  0
   -3.0750    0.3934   -4.2690 H   0  0  0  0  0  0  0  0  0  0  0  0
   -1.2223   -3.2306   -4.2350 N   0  0  0  0  0  0  0  0  0  0  0  0
   -0.3837   -4.3194   -4.6790 C   0  0  0  0  0  0  0  0  0  0  0  0
   -2.2288   -3.3491   -4.3036 H   0  0  0  0  0  0  0  0  0  0  0  0
   -0.1528   -4.1931   -5.7471 H   0  0  0  0  0  0  0  0  0  0  0  0
    0.5514   -4.3217   -4.0997 H   0  0  0  0  0  0  0  0  0  0  0  0
   -0.9108   -5.2731   -4.5282 H   0  0  0  0  0  0  0  0  0  0  0  0
 29 30  2  0  0  0  0
 27 29  1  0  0  0  0
 28 30  1  0  0  0  0
 24 27  2  0  0  0  0
 26 28  2  0  0  0  0
 22 23  2  0  0  0  0
 23 25  1  0  0  0  0
 22 24  1  0  0  0  0
 24 26  1  0  0  0  0
 21 22  1  0  0  0  0
 25 26  1  0  0  0  0
  1  3  1  0  0  0  0
  1  7  1  0  0  0  0
  1  2  2  0  0  0  0
 42 43  1  0  0  0  0
 43 51  1  0  0  0  0
 43 44  2  0  0  0  0
  8  9  1  0  0  0  0
  9 17  1  0  0  0  0
  9 10  2  0  0  0  0
 18 19  1  0  0  0  0
 19 41  1  0  0  0  0
 19 20  2  0  0  0  0
 42 45  1  0  0  0  0
  8 11  1  0  0  0  0
 51 52  1  0  0  0  0
 18 21  1  0  0  0  0
 41 42  1  0  0  0  0
  7  8  1  0  0  0  0
 17 18  1  0  0  0  0
 29 39  1  0  0  0  0
 30 40  1  0  0  0  0
 27 37  1  0  0  0  0
 28 38  1  0  0  0  0
 23 35  1  0  0  0  0
  3  4  1  0  0  0  0
  3  5  1  0  0  0  0
  3  6  1  0  0  0  0
 45 48  1  0  0  0  0
 45 49  1  0  0  0  0
 45 50  1  0  0  0  0
 11 14  1  0  0  0  0
 11 15  1  0  0  0  0
 11 16  1  0  0  0  0
 52 54  1  0  0  0  0
 52 55  1  0  0  0  0
 52 56  1  0  0  0  0
 21 33  1  0  0  0  0
 21 34  1  0  0  0  0
 42 47  1  0  0  0  0
  8 13  1  0  0  0  0
 18 32  1  0  0  0  0
 25 36  1  0  0  0  0
 51 53  1  0  0  0  0
  7 12  1  0  0  0  0
 41 46  1  0  0  0  0
 17 31  1  0  0  0  0
M  END
$$$$

  -OEChem-05262214473D

 56 57  0     1  0  0  0  0  0999 V2000
   -2.2900    0.3401    4.1553 C   0  0  0  0  0  0  0  0  0  0  0  0
   -1.3426   -0.2746    3.6796 O   0  0  0  0  0  0  0  0  0  0  0  0
   -2.7219    0.0577    5.5560 C   0  0  0  0  0  0  0  0  0  0  0  0
   -3.4815   -0.7386    5.6094 H   0  0  0  0  0  0  0  0  0  0  0  0
   -1.8906   -0.2899    6.1903 H   0  0  0  0  0  0  0  0  0  0  0  0
   -3.1599    0.9126    6.0956 H   0  0  0  0  0  0  0  0  0  0  0  0
   -3.0397    1.3125    3.5142 N   0  0  0  0  0  0  0  0  0  0  0  0
   -2.7928    1.7385    2.1618 C   0  0  2  0  0  0  0  0  0  0  0  0
   -1.4579    1.1532    1.7206 C   0  0  0  0  0  0  0  0  0  0  0  0
   -0.5858    0.8004    2.5118 O   0  0  0  0  0  0  0  0  0  0  0  0
   -2.7841    3.2553    2.0523 C   0  0  0  0  0  0  0  0  0  0  0  0
   -3.8047    1.7484    4.0260 H   0  0  0  0  0  0  0  0  0  0  0  0
   -3.5969    1.3201    1.5466 H   0  0  0  0  0  0  0  0  0  0  0  0
   -1.9850    3.6926    2.6620 H   0  0  0  0  0  0  0  0  0  0  0  0
   -2.6246    3.5776    1.0180 H   0  0  0  0  0  0  0  0  0  0  0  0
   -3.7342    3.6765    2.3981 H   0  0  0  0  0  0  0  0  0  0  0  0
   -1.3352    1.1101    0.3372 N   0  0  0  0  0  0  0  0  0  0  0  0
   -0.1579    0.6093   -0.3265 C   0  0  2  0  0  0  0  0  0  0  0  0
   -0.5935   -0.5703   -1.1885 C   0  0  0  0  0  0  0  0  0  0  0  0
   -0.6504   -1.7230   -0.7656 O   0  0  0  0  0  0  0  0  0  0  0  0
    0.9250    0.1723    0.6668 C   0  0  0  0  0  0  0  0  0  0  0  0
    1.5073    1.3292    1.4416 C   0  0  0  0  0  0  0  0  0  0  0  0
    1.1265    1.7237    2.7035 C   0  0  0  0  0  0  0  0  0  0  0  0
    2.5423    2.2042    1.0082 C   0  0  0  0  0  0  0  0  0  0  0  0
    1.8891    2.8051    3.0549 N   0  0  0  0  0  0  0  0  0  0  0  0
    2.7626    3.1206    2.0387 C   0  0  0  0  0  0  0  0  0  0  0  0
    3.3153    2.3049   -0.1656 C   0  0  0  0  0  0  0  0  0  0  0  0
    3.7210    4.1367    1.9538 C   0  0  0  0  0  0  0  0  0  0  0  0
    4.2777    3.3162   -0.2646 C   0  0  0  0  0  0  0  0  0  0  0  0
    4.4758    4.2170    0.7800 C   0  0  0  0  0  0  0  0  0  0  0  0
   -2.1183    1.4068   -0.2401 H   0  0  0  0  0  0  0  0  0  0  0  0
    0.2010    1.4157   -0.9767 H   0  0  0  0  0  0  0  0  0  0  0  0
    1.7283   -0.3629    0.1426 H   0  0  0  0  0  0  0  0  0  0  0  0
    0.5174   -0.5518    1.3846 H   0  0  0  0  0  0  0  0  0  0  0  0
    0.3809    1.3338    3.3827 H   0  0  0  0  0  0  0  0  0  0  0  0
    1.8214    3.3005    3.9332 H   0  0  0  0  0  0  0  0  0  0  0  0
    3.1723    1.6110   -0.9892 H   0  0  0  0  0  0  0  0  0  0  0  0
    3.8766    4.8376    2.7668 H   0  0  0  0  0  0  0  0  0  0  0  0
    4.8765    3.3992   -1.1676 H   0  0  0  0  0  0  0  0  0  0  0  0
    5.2288    4.9947    0.6818 H   0  0  0  0  0  0  0  0  0  0  0  0
   -0.9573   -0.1728   -2.4676 N   0  0  0  0  0  0  0  0  0  0  0  0
   -1.4308   -1.0900   -3.4791 C   0  0  2  0  0  0  0  0  0  0  0  0
   -0.4500   -2.2527   -3.5559 C   0  0  0  0  0  0  0  0  0  0  0  0
    0.7167   -2.1722   -3.1772 O   0  0  0  0  0  0  0  0  0  0  0  0
   -1.5663   -0.4032   -4.8291 C   0  0  0  0  0  0  0  0  0  0  0  0
   -0.8872    0.8124   -2.7047 H   0  0  0  0  0  0  0  0  0  0  0  0
   -2.4066   -1.4563   -3.1420 H   0  0  0  0  0  0  0  0  0  0  0  0
   -0.5986   -0.0295   -5.1832 H   0  0  0  0  0  0  0  0  0  0  0  0
   -1.9522   -1.0920   -5.5878 H   0  0  0  0  0  0  0  0  0  0  0  0
   -2.2491    0.4509   -4.7651 H   0  0  0  0  0  0  0  0  0  0  0  0
   -1.0186   -3.3776   -4.1367 N   0  0  0  0  0  0  0  0  0  0  0  0
   -0.2874   -4.6074   -4.3336 C   0  0  0  0  0  0  0  0  0  0  0  0
   -1.9985   -3.3609   -4.4039 H   0  0  0  0  0  0  0  0  0  0  0  0
    0.1637   -4.6098   -5.3368 H   0  0  0  0  0  0  0  0  0  0  0  0
    0.5053   -4.6880   -3.5751 H   0  0  0  0  0  0  0  0  0  0  0  0
   -0.9741   -5.4615   -4.2384 H   0  0  0  0  0  0  0  0  0  0  0  0
 29 30  2  0  0  0  0
 27 29  1  0  0  0  0
 28 30  1  0  0  0  0
 24 27  2  0  0  0  0
 26 28  2  0  0  0  0
 22 23  2  0  0  0  0
 23 25  1  0  0  0  0
 22 24  1  0  0  0  0
 24 26  1  0  0  0  0
 21 22  1  0  0  0  0
 25 26  1  0  0  0  0
  1  3  1  0  0  0  0
  1  7  1  0  0  0  0
  1  2  2  0  0  0  0
 42 43  1  0  0  0  0
 43 51  1  0  0  0  0
 43 44  2  0  0  0  0
  8  9  1  0  0  0  0
  9 17  1  0  0  0  0
  9 10  2  0  0  0  0
 18 19  1  0  0  0  0
 19 41  1  0  0  0  0
 19 20  2  0  0  0  0
 42 45  1  0  0  0  0
  8 11  1  0  0  0  0
 51 52  1  0  0  0  0
 18 21  1  0  0  0  0
 41 42  1  0  0  0  0
  7  8  1  0  0  0  0
 17 18  1  0  0  0  0
 29 39  1  0  0  0  0
 30 40  1  0  0  0  0
 27 37  1  0  0  0  0
 28 38  1  0  0  0  0
 23 35  1  0  0  0  0
  3  4  1  0  0  0  0
  3  5  1  0  0  0  0
  3  6  1  0  0  0  0
 45 48  1  0  0  0  0
 45 49  1  0  0  0  0
 45 50  1  0  0  0  0
 11 14  1  0  0  0  0
 11 15  1  0  0  0  0
 11 16  1  0  0  0  0
 52 54  1  0  0  0  0
 52 55  1  0  0  0  0
 52 56  1  0  0  0  0
 21 33  1  0  0  0  0
 21 34  1  0  0  0  0
 42 47  1  0  0  0  0
  8 13  1  0  0  0  0
 18 32  1  0  0  0  0
 25 36  1  0  0  0  0
 51 53  1  0  0  0  0
  7 12  1  0  0  0  0
 41 46  1  0  0  0  0
 17 31  1  0  0  0  0
M  END
$$$$

  -OEChem-05262214473D

 56 57  0     1  0  0  0  0  0999 V2000
   -2.2900    0.3401    4.1553 C   0  0  0  0  0  0  0  0  0  0  0  0
   -1.3426   -0.2746    3.6796 O   0  0  0  0  0  0  0  0  0  0  0  0
   -2.7219    0.0577    5.5560 C   0  0  0  0  0  0  0  0  0  0  0  0
   -3.4815   -0.7386    5.6094 H   0  0  0  0  0  0  0  0  0  0  0  0
   -1.8906   -0.2899    6.1903 H   0  0  0  0  0  0  0  0  0  0  0  0
   -3.1599    0.9126    6.0956 H   0  0  0  0  0  0  0  0  0  0  0  0
   -3.0397    1.3125    3.5142 N   0  0  0  0  0  0  0  0  0  0  0  0
   -2.7928    1.7385    2.1618 C   0  0  2  0  0  0  0  0  0  0  0  0
   -1.4579    1.1532    1.7206 C   0  0  0  0  0  0  0  0  0  0  0  0
   -0.5858    0.8004    2.5118 O   0  0  0  0  0  0  0  0  0  0  0  0
   -2.7841    3.2553    2.0523 C   0  0  0  0  0  0  0  0  0  0  0  0
   -3.8047    1.7484    4.0260 H   0  0  0  0  0  0  0  0  0  0  0  0
   -3.5969    1.3201    1.5466 H   0  0  0  0  0  0  0  0  0  0  0  0
   -1.9850    3.6926    2.6620 H   0  0  0  0  0  0  0  0  0  0  0  0
   -2.6246    3.5776    1.0180 H   0  0  0  0  0  0  0  0  0  0  0  0
   -3.7342    3.6765    2.3981 H   0  0  0  0  0  0  0  0  0  0  0  0
   -1.3352    1.1101    0.3372 N   0  0  0  0  0  0  0  0  0  0  0  0
   -0.1579    0.6093   -0.3265 C   0  0  2  0  0  0  0  0  0  0  0  0
   -0.5935   -0.5703   -1.1885 C   0  0  0  0  0  0  0  0  0  0  0  0
   -0.9084   -1.6618   -0.7191 O   0  0  0  0  0  0  0  0  0  0  0  0
    0.9250    0.1723    0.6668 C   0  0  0  0  0  0  0  0  0  0  0  0
    1.5073    1.3292    1.4416 C   0  0  0  0  0  0  0  0  0  0  0  0
    1.1265    1.7237    2.7035 C   0  0  0  0  0  0  0  0  0  0  0  0
    2.5423    2.2042    1.0082 C   0  0  0  0  0  0  0  0  0  0  0  0
    1.8891    2.8051    3.0549 N   0  0  0  0  0  0  0  0  0  0  0  0
    2.7626    3.1206    2.0387 C   0  0  0  0  0  0  0  0  0  0  0  0
    3.3153    2.3049   -0.1656 C   0  0  0  0  0  0  0  0  0  0  0  0
    3.7210    4.1367    1.9538 C   0  0  0  0  0  0  0  0  0  0  0  0
    4.2777    3.3162   -0.2646 C   0  0  0  0  0  0  0  0  0  0  0  0
    4.4758    4.2170    0.7800 C   0  0  0  0  0  0  0  0  0  0  0  0
   -2.1183    1.4068   -0.2401 H   0  0  0  0  0  0  0  0  0  0  0  0
    0.2010    1.4157   -0.9767 H   0  0  0  0  0  0  0  0  0  0  0  0
    1.7283   -0.3629    0.1426 H   0  0  0  0  0  0  0  0  0  0  0  0
    0.5174   -0.5518    1.3846 H   0  0  0  0  0  0  0  0  0  0  0  0
    0.3809    1.3338    3.3827 H   0  0  0  0  0  0  0  0  0  0  0  0
    1.8214    3.3005    3.9332 H   0  0  0  0  0  0  0  0  0  0  0  0
    3.1723    1.6110   -0.9892 H   0  0  0  0  0  0  0  0  0  0  0  0
    3.8766    4.8376    2.7668 H   0  0  0  0  0  0  0  0  0  0  0  0
    4.8765    3.3992   -1.1676 H   0  0  0  0  0  0  0  0  0  0  0  0
    5.2288    4.9947    0.6818 H   0  0  0  0  0  0  0  0  0  0  0  0
   -0.6356   -0.2414   -2.5363 N   0  0  0  0  0  0  0  0  0  0  0  0
   -1.0385   -1.1702   -3.5676 C   0  0  2  0  0  0  0  0  0  0  0  0
   -0.2523   -2.4599   -3.3721 C   0  0  0  0  0  0  0  0  0  0  0  0
    0.8165   -2.5088   -2.7669 O   0  0  0  0  0  0  0  0  0  0  0  0
   -0.8011   -0.5939   -4.9548 C   0  0  0  0  0  0  0  0  0  0  0  0
   -0.3699    0.6996   -2.8116 H   0  0  0  0  0  0  0  0  0  0  0  0
   -2.1058   -1.3661   -3.4175 H   0  0  0  0  0  0  0  0  0  0  0  0
    0.2628   -0.3911   -5.1236 H   0  0  0  0  0  0  0  0  0  0  0  0
   -1.1332   -1.2872   -5.7346 H   0  0  0  0  0  0  0  0  0  0  0  0
   -1.3436    0.3490   -5.0831 H   0  0  0  0  0  0  0  0  0  0  0  0
   -0.8631   -3.5422   -3.9901 N   0  0  0  0  0  0  0  0  0  0  0  0
   -0.3056   -4.8742   -3.9593 C   0  0  0  0  0  0  0  0  0  0  0  0
   -1.7577   -3.4134   -4.4537 H   0  0  0  0  0  0  0  0  0  0  0  0
    0.3264   -5.0283   -4.8464 H   0  0  0  0  0  0  0  0  0  0  0  0
    0.3021   -4.9963   -3.0506 H   0  0  0  0  0  0  0  0  0  0  0  0
   -1.1208   -5.6127   -3.9573 H   0  0  0  0  0  0  0  0  0  0  0  0
 29 30  2  0  0  0  0
 27 29  1  0  0  0  0
 28 30  1  0  0  0  0
 24 27  2  0  0  0  0
 26 28  2  0  0  0  0
 22 23  2  0  0  0  0
 23 25  1  0  0  0  0
 22 24  1  0  0  0  0
 24 26  1  0  0  0  0
 21 22  1  0  0  0  0
 25 26  1  0  0  0  0
  1  3  1  0  0  0  0
  1  7  1  0  0  0  0
  1  2  2  0  0  0  0
 42 43  1  0  0  0  0
 43 51  1  0  0  0  0
 43 44  2  0  0  0  0
  8  9  1  0  0  0  0
  9 17  1  0  0  0  0
  9 10  2  0  0  0  0
 18 19  1  0  0  0  0
 19 41  1  0  0  0  0
 19 20  2  0  0  0  0
 42 45  1  0  0  0  0
  8 11  1  0  0  0  0
 51 52  1  0  0  0  0
 18 21  1  0  0  0  0
 41 42  1  0  0  0  0
  7  8  1  0  0  0  0
 17 18  1  0  0  0  0
 29 39  1  0  0  0  0
 30 40  1  0  0  0  0
 27 37  1  0  0  0  0
 28 38  1  0  0  0  0
 23 35  1  0  0  0  0
  3  4  1  0  0  0  0
  3  5  1  0  0  0  0
  3  6  1  0  0  0  0
 45 48  1  0  0  0  0
 45 49  1  0  0  0  0
 45 50  1  0  0  0  0
 11 14  1  0  0  0  0
 11 15  1  0  0  0  0
 11 16  1  0  0  0  0
 52 54  1  0  0  0  0
 52 55  1  0  0  0  0
 52 56  1  0  0  0  0
 21 33  1  0  0  0  0
 21 34  1  0  0  0  0
 42 47  1  0  0  0  0
  8 13  1  0  0  0  0
 18 32  1  0  0  0  0
 25 36  1  0  0  0  0
 51 53  1  0  0  0  0
  7 12  1  0  0  0  0
 41 46  1  0  0  0  0
 17 31  1  0  0  0  0
M  END
$$$$

  -OEChem-05262214473D

 56 57  0     1  0  0  0  0  0999 V2000
   -2.2900    0.3401    4.1553 C   0  0  0  0  0  0  0  0  0  0  0  0
   -1.3426   -0.2746    3.6796 O   0  0  0  0  0  0  0  0  0  0  0  0
   -2.7219    0.0577    5.5560 C   0  0  0  0  0  0  0  0  0  0  0  0
   -3.4815   -0.7386    5.6094 H   0  0  0  0  0  0  0  0  0  0  0  0
   -1.8906   -0.2899    6.1903 H   0  0  0  0  0  0  0  0  0  0  0  0
   -3.1599    0.9126    6.0956 H   0  0  0  0  0  0  0  0  0  0  0  0
   -3.0397    1.3125    3.5142 N   0  0  0  0  0  0  0  0  0  0  0  0
   -2.7928    1.7385    2.1618 C   0  0  2  0  0  0  0  0  0  0  0  0
   -1.4579    1.1532    1.7206 C   0  0  0  0  0  0  0  0  0  0  0  0
   -0.5858    0.8004    2.5118 O   0  0  0  0  0  0  0  0  0  0  0  0
   -2.7841    3.2553    2.0523 C   0  0  0  0  0  0  0  0  0  0  0  0
   -3.8047    1.7484    4.0260 H   0  0  0  0  0  0  0  0  0  0  0  0
   -3.5969    1.3201    1.5466 H   0  0  0  0  0  0  0  0  0  0  0  0
   -1.9850    3.6926    2.6620 H   0  0  0  0  0  0  0  0  0  0  0  0
   -2.6246    3.5776    1.0180 H   0  0  0  0  0  0  0  0  0  0  0  0
   -3.7342    3.6765    2.3981 H   0  0  0  0  0  0  0  0  0  0  0  0
   -1.3352    1.1101    0.3372 N   0  0  0  0  0  0  0  0  0  0  0  0
   -0.1579    0.6093   -0.3265 C   0  0  2  0  0  0  0  0  0  0  0  0
   -0.5935   -0.5703   -1.1885 C   0  0  0  0  0  0  0  0  0  0  0  0
   -1.1579   -1.5615   -0.7303 O   0  0  0  0  0  0  0  0  0  0  0  0
    0.9250    0.1723    0.6668 C   0  0  0  0  0  0  0  0  0  0  0  0
    1.5073    1.3292    1.4416 C   0  0  0  0  0  0  0  0  0  0  0  0
    1.1265    1.7237    2.7035 C   0  0  0  0  0  0  0  0  0  0  0  0
    2.5423    2.2042    1.0082 C   0  0  0  0  0  0  0  0  0  0  0  0
    1.8891    2.8051    3.0549 N   0  0  0  0  0  0  0  0  0  0  0  0
    2.7626    3.1206    2.0387 C   0  0  0  0  0  0  0  0  0  0  0  0
    3.3153    2.3049   -0.1656 C   0  0  0  0  0  0  0  0  0  0  0  0
    3.7210    4.1367    1.9538 C   0  0  0  0  0  0  0  0  0  0  0  0
    4.2777    3.3162   -0.2646 C   0  0  0  0  0  0  0  0  0  0  0  0
    4.4758    4.2170    0.7800 C   0  0  0  0  0  0  0  0  0  0  0  0
   -2.1183    1.4068   -0.2401 H   0  0  0  0  0  0  0  0  0  0  0  0
    0.2010    1.4157   -0.9767 H   0  0  0  0  0  0  0  0  0  0  0  0
    1.7283   -0.3629    0.1426 H   0  0  0  0  0  0  0  0  0  0  0  0
    0.5174   -0.5518    1.3846 H   0  0  0  0  0  0  0  0  0  0  0  0
    0.3809    1.3338    3.3827 H   0  0  0  0  0  0  0  0  0  0  0  0
    1.8214    3.3005    3.9332 H   0  0  0  0  0  0  0  0  0  0  0  0
    3.1723    1.6110   -0.9892 H   0  0  0  0  0  0  0  0  0  0  0  0
    3.8766    4.8376    2.7668 H   0  0  0  0  0  0  0  0  0  0  0  0
    4.8765    3.3992   -1.1676 H   0  0  0  0  0  0  0  0  0  0  0  0
    5.2288    4.9947    0.6818 H   0  0  0  0  0  0  0  0  0  0  0  0
   -0.3212   -0.3598   -2.5331 N   0  0  0  0  0  0  0  0  0  0  0  0
   -0.6535   -1.3117   -3.5686 C   0  0  2  0  0  0  0  0  0  0  0  0
   -0.1285   -2.6755   -3.1398 C   0  0  0  0  0  0  0  0  0  0  0  0
    0.7815   -2.8183   -2.3258 O   0  0  0  0  0  0  0  0  0  0  0  0
   -0.0647   -0.8994   -4.9088 C   0  0  0  0  0  0  0  0  0  0  0  0
    0.1346    0.5070   -2.8030 H   0  0  0  0  0  0  0  0  0  0  0  0
   -1.7468   -1.3433   -3.6300 H   0  0  0  0  0  0  0  0  0  0  0  0
    1.0299   -0.8621   -4.8667 H   0  0  0  0  0  0  0  0  0  0  0  0
   -0.3413   -1.6064   -5.6979 H   0  0  0  0  0  0  0  0  0  0  0  0
   -0.4202    0.0945   -5.2015 H   0  0  0  0  0  0  0  0  0  0  0  0
   -0.7664   -3.7130   -3.8052 N   0  0  0  0  0  0  0  0  0  0  0  0
   -0.4373   -5.1015   -3.5818 C   0  0  0  0  0  0  0  0  0  0  0  0
   -1.5229   -3.5030   -4.4497 H   0  0  0  0  0  0  0  0  0  0  0  0
    0.3240   -5.4200   -4.3091 H   0  0  0  0  0  0  0  0  0  0  0  0
   -0.0443   -5.2255   -2.5619 H   0  0  0  0  0  0  0  0  0  0  0  0
   -1.3410   -5.7166   -3.7039 H   0  0  0  0  0  0  0  0  0  0  0  0
 29 30  2  0  0  0  0
 27 29  1  0  0  0  0
 28 30  1  0  0  0  0
 24 27  2  0  0  0  0
 26 28  2  0  0  0  0
 22 23  2  0  0  0  0
 23 25  1  0  0  0  0
 22 24  1  0  0  0  0
 24 26  1  0  0  0  0
 21 22  1  0  0  0  0
 25 26  1  0  0  0  0
  1  3  1  0  0  0  0
  1  7  1  0  0  0  0
  1  2  2  0  0  0  0
 42 43  1  0  0  0  0
 43 51  1  0  0  0  0
 43 44  2  0  0  0  0
  8  9  1  0  0  0  0
  9 17  1  0  0  0  0
  9 10  2  0  0  0  0
 18 19  1  0  0  0  0
 19 41  1  0  0  0  0
 19 20  2  0  0  0  0
 42 45  1  0  0  0  0
  8 11  1  0  0  0  0
 51 52  1  0  0  0  0
 18 21  1  0  0  0  0
 41 42  1  0  0  0  0
  7  8  1  0  0  0  0
 17 18  1  0  0  0  0
 29 39  1  0  0  0  0
 30 40  1  0  0  0  0
 27 37  1  0  0  0  0
 28 38  1  0  0  0  0
 23 35  1  0  0  0  0
  3  4  1  0  0  0  0
  3  5  1  0  0  0  0
  3  6  1  0  0  0  0
 45 48  1  0  0  0  0
 45 49  1  0  0  0  0
 45 50  1  0  0  0  0
 11 14  1  0  0  0  0
 11 15  1  0  0  0  0
 11 16  1  0  0  0  0
 52 54  1  0  0  0  0
 52 55  1  0  0  0  0
 52 56  1  0  0  0  0
 21 33  1  0  0  0  0
 21 34  1  0  0  0  0
 42 47  1  0  0  0  0
  8 13  1  0  0  0  0
 18 32  1  0  0  0  0
 25 36  1  0  0  0  0
 51 53  1  0  0  0  0
  7 12  1  0  0  0  0
 41 46  1  0  0  0  0
 17 31  1  0  0  0  0
M  END
$$$$

  -OEChem-05262214473D

 56 57  0     1  0  0  0  0  0999 V2000
   -2.2900    0.3401    4.1553 C   0  0  0  0  0  0  0  0  0  0  0  0
   -1.3426   -0.2746    3.6796 O   0  0  0  0  0  0  0  0  0  0  0  0
   -2.7219    0.0577    5.5560 C   0  0  0  0  0  0  0  0  0  0  0  0
   -3.4815   -0.7386    5.6094 H   0  0  0  0  0  0  0  0  0  0  0  0
   -1.8906   -0.2899    6.1903 H   0  0  0  0  0  0  0  0  0  0  0  0
   -3.1599    0.9126    6.0956 H   0  0  0  0  0  0  0  0  0  0  0  0
   -3.0397    1.3125    3.5142 N   0  0  0  0  0  0  0  0  0  0  0  0
   -2.7928    1.7385    2.1618 C   0  0  2  0  0  0  0  0  0  0  0  0
   -1.4579    1.1532    1.7206 C   0  0  0  0  0  0  0  0  0  0  0  0
   -0.5858    0.8004    2.5118 O   0  0  0  0  0  0  0  0  0  0  0  0
   -2.7841    3.2553    2.0523 C   0  0  0  0  0  0  0  0  0  0  0  0
   -3.8047    1.7484    4.0260 H   0  0  0  0  0  0  0  0  0  0  0  0
   -3.5969    1.3201    1.5466 H   0  0  0  0  0  0  0  0  0  0  0  0
   -1.9850    3.6926    2.6620 H   0  0  0  0  0  0  0  0  0  0  0  0
   -2.6246    3.5776    1.0180 H   0  0  0  0  0  0  0  0  0  0  0  0
   -3.7342    3.6765    2.3981 H   0  0  0  0  0  0  0  0  0  0  0  0
   -1.3352    1.1101    0.3372 N   0  0  0  0  0  0  0  0  0  0  0  0
   -0.1579    0.6093   -0.3265 C   0  0  2  0  0  0  0  0  0  0  0  0
   -0.5935   -0.5703   -1.1885 C   0  0  0  0  0  0  0  0  0  0  0  0
   -1.3820   -1.4289   -0.7986 O   0  0  0  0  0  0  0  0  0  0  0  0
    0.9250    0.1723    0.6668 C   0  0  0  0  0  0  0  0  0  0  0  0
    1.5073    1.3292    1.4416 C   0  0  0  0  0  0  0  0  0  0  0  0
    1.1265    1.7237    2.7035 C   0  0  0  0  0  0  0  0  0  0  0  0
    2.5423    2.2042    1.0082 C   0  0  0  0  0  0  0  0  0  0  0  0
    1.8891    2.8051    3.0549 N   0  0  0  0  0  0  0  0  0  0  0  0
    2.7626    3.1206    2.0387 C   0  0  0  0  0  0  0  0  0  0  0  0
    3.3153    2.3049   -0.1656 C   0  0  0  0  0  0  0  0  0  0  0  0
    3.7210    4.1367    1.9538 C   0  0  0  0  0  0  0  0  0  0  0  0
    4.2777    3.3162   -0.2646 C   0  0  0  0  0  0  0  0  0  0  0  0
    4.4758    4.2170    0.7800 C   0  0  0  0  0  0  0  0  0  0  0  0
   -2.1183    1.4068   -0.2401 H   0  0  0  0  0  0  0  0  0  0  0  0
    0.2010    1.4157   -0.9767 H   0  0  0  0  0  0  0  0  0  0  0  0
    1.7283   -0.3629    0.1426 H   0  0  0  0  0  0  0  0  0  0  0  0
    0.5174   -0.5518    1.3846 H   0  0  0  0  0  0  0  0  0  0  0  0
    0.3809    1.3338    3.3827 H   0  0  0  0  0  0  0  0  0  0  0  0
    1.8214    3.3005    3.9332 H   0  0  0  0  0  0  0  0  0  0  0  0
    3.1723    1.6110   -0.9892 H   0  0  0  0  0  0  0  0  0  0  0  0
    3.8766    4.8376    2.7668 H   0  0  0  0  0  0  0  0  0  0  0  0
    4.8765    3.3992   -1.1676 H   0  0  0  0  0  0  0  0  0  0  0  0
    5.2288    4.9947    0.6818 H   0  0  0  0  0  0  0  0  0  0  0  0
   -0.0354   -0.5199   -2.4583 N   0  0  0  0  0  0  0  0  0  0  0  0
   -0.3022   -1.5047   -3.4820 C   0  0  2  0  0  0  0  0  0  0  0  0
   -0.0870   -2.8846   -2.8746 C   0  0  0  0  0  0  0  0  0  0  0  0
    0.6141   -3.0795   -1.8838 O   0  0  0  0  0  0  0  0  0  0  0  0
    0.5926   -1.2989   -4.6943 C   0  0  0  0  0  0  0  0  0  0  0  0
    0.5920    0.2477   -2.6793 H   0  0  0  0  0  0  0  0  0  0  0  0
   -1.3541   -1.3896   -3.7651 H   0  0  0  0  0  0  0  0  0  0  0  0
    1.6506   -1.4103   -4.4302 H   0  0  0  0  0  0  0  0  0  0  0  0
    0.3697   -2.0279   -5.4803 H   0  0  0  0  0  0  0  0  0  0  0  0
    0.4582   -0.2952   -5.1120 H   0  0  0  0  0  0  0  0  0  0  0  0
   -0.7349   -3.8786   -3.5945 N   0  0  0  0  0  0  0  0  0  0  0  0
   -0.6733   -5.2738   -3.2266 C   0  0  0  0  0  0  0  0  0  0  0  0
   -1.3099   -3.6237   -4.3921 H   0  0  0  0  0  0  0  0  0  0  0  0
    0.1568   -5.7583   -3.7616 H   0  0  0  0  0  0  0  0  0  0  0  0
   -0.5104   -5.3601   -2.1422 H   0  0  0  0  0  0  0  0  0  0  0  0
   -1.6196   -5.7660   -3.4955 H   0  0  0  0  0  0  0  0  0  0  0  0
 29 30  2  0  0  0  0
 27 29  1  0  0  0  0
 28 30  1  0  0  0  0
 24 27  2  0  0  0  0
 26 28  2  0  0  0  0
 22 23  2  0  0  0  0
 23 25  1  0  0  0  0
 22 24  1  0  0  0  0
 24 26  1  0  0  0  0
 21 22  1  0  0  0  0
 25 26  1  0  0  0  0
  1  3  1  0  0  0  0
  1  7  1  0  0  0  0
  1  2  2  0  0  0  0
 42 43  1  0  0  0  0
 43 51  1  0  0  0  0
 43 44  2  0  0  0  0
  8  9  1  0  0  0  0
  9 17  1  0  0  0  0
  9 10  2  0  0  0  0
 18 19  1  0  0  0  0
 19 41  1  0  0  0  0
 19 20  2  0  0  0  0
 42 45  1  0  0  0  0
  8 11  1  0  0  0  0
 51 52  1  0  0  0  0
 18 21  1  0  0  0  0
 41 42  1  0  0  0  0
  7  8  1  0  0  0  0
 17 18  1  0  0  0  0
 29 39  1  0  0  0  0
 30 40  1  0  0  0  0
 27 37  1  0  0  0  0
 28 38  1  0  0  0  0
 23 35  1  0  0  0  0
  3  4  1  0  0  0  0
  3  5  1  0  0  0  0
  3  6  1  0  0  0  0
 45 48  1  0  0  0  0
 45 49  1  0  0  0  0
 45 50  1  0  0  0  0
 11 14  1  0  0  0  0
 11 15  1  0  0  0  0
 11 16  1  0  0  0  0
 52 54  1  0  0  0  0
 52 55  1  0  0  0  0
 52 56  1  0  0  0  0
 21 33  1  0  0  0  0
 21 34  1  0  0  0  0
 42 47  1  0  0  0  0
  8 13  1  0  0  0  0
 18 32  1  0  0  0  0
 25 36  1  0  0  0  0
 51 53  1  0  0  0  0
  7 12  1  0  0  0  0
 41 46  1  0  0  0  0
 17 31  1  0  0  0  0
M  END
$$$$

  -OEChem-05262214473D

 56 57  0     1  0  0  0  0  0999 V2000
   -2.2900    0.3401    4.1553 C   0  0  0  0  0  0  0  0  0  0  0  0
   -1.3426   -0.2746    3.6796 O   0  0  0  0  0  0  0  0  0  0  0  0
   -2.7219    0.0577    5.5560 C   0  0  0  0  0  0  0  0  0  0  0  0
   -3.4815   -0.7386    5.6094 H   0  0  0  0  0  0  0  0  0  0  0  0
   -1.8906   -0.2899    6.1903 H   0  0  0  0  0  0  0  0  0  0  0  0
   -3.1599    0.9126    6.0956 H   0  0  0  0  0  0  0  0  0  0  0  0
   -3.0397    1.3125    3.5142 N   0  0  0  0  0  0  0  0  0  0  0  0
   -2.7928    1.7385    2.1618 C   0  0  2  0  0  0  0  0  0  0  0  0
   -1.4579    1.1532    1.7206 C   0  0  0  0  0  0  0  0  0  0  0  0
   -0.5858    0.8004    2.5118 O   0  0  0  0  0  0  0  0  0  0  0  0
   -2.7841    3.2553    2.0523 C   0  0  0  0  0  0  0  0  0  0  0  0
   -3.8047    1.7484    4.0260 H   0  0  0  0  0  0  0  0  0  0  0  0
   -3.5969    1.3201    1.5466 H   0  0  0  0  0  0  0  0  0  0  0  0
   -1.9850    3.6926    2.6620 H   0  0  0  0  0  0  0  0  0  0  0  0
   -2.6246    3.5776    1.0180 H   0  0  0  0  0  0  0  0  0  0  0  0
   -3.7342    3.6765    2.3981 H   0  0  0  0  0  0  0  0  0  0  0  0
   -1.3352    1.1101    0.3372 N   0  0  0  0  0  0  0  0  0  0  0  0
   -0.1579    0.6093   -0.3265 C   0  0  2  0  0  0  0  0  0  0  0  0
   -0.5935   -0.5703   -1.1885 C   0  0  0  0  0  0  0  0  0  0  0  0
   -1.5653   -1.2730   -0.9191 O   0  0  0  0  0  0  0  0  0  0  0  0
    0.9250    0.1723    0.6668 C   0  0  0  0  0  0  0  0  0  0  0  0
    1.5073    1.3292    1.4416 C   0  0  0  0  0  0  0  0  0  0  0  0
    1.1265    1.7237    2.7035 C   0  0  0  0  0  0  0  0  0  0  0  0
    2.5423    2.2042    1.0082 C   0  0  0  0  0  0  0  0  0  0  0  0
    1.8891    2.8051    3.0549 N   0  0  0  0  0  0  0  0  0  0  0  0
    2.7626    3.1206    2.0387 C   0  0  0  0  0  0  0  0  0  0  0  0
    3.3153    2.3049   -0.1656 C   0  0  0  0  0  0  0  0  0  0  0  0
    3.7210    4.1367    1.9538 C   0  0  0  0  0  0  0  0  0  0  0  0
    4.2777    3.3162   -0.2646 C   0  0  0  0  0  0  0  0  0  0  0  0
    4.4758    4.2170    0.7800 C   0  0  0  0  0  0  0  0  0  0  0  0
   -2.1183    1.4068   -0.2401 H   0  0  0  0  0  0  0  0  0  0  0  0
    0.2010    1.4157   -0.9767 H   0  0  0  0  0  0  0  0  0  0  0  0
    1.7283   -0.3629    0.1426 H   0  0  0  0  0  0  0  0  0  0  0  0
    0.5174   -0.5518    1.3846 H   0  0  0  0  0  0  0  0  0  0  0  0
    0.3809    1.3338    3.3827 H   0  0  0  0  0  0  0  0  0  0  0  0
    1.8214    3.3005    3.9332 H   0  0  0  0  0  0  0  0  0  0  0  0
    3.1723    1.6110   -0.9892 H   0  0  0  0  0  0  0  0  0  0  0  0
    3.8766    4.8376    2.7668 H   0  0  0  0  0  0  0  0  0  0  0  0
    4.8765    3.3992   -1.1676 H   0  0  0  0  0  0  0  0  0  0  0  0
    5.2288    4.9947    0.6818 H   0  0  0  0  0  0  0  0  0  0  0  0
    0.2022   -0.7109   -2.3171 N   0  0  0  0  0  0  0  0  0  0  0  0
   -0.0084   -1.7361   -3.3137 C   0  0  2  0  0  0  0  0  0  0  0  0
   -0.1306   -3.0731   -2.5946 C   0  0  0  0  0  0  0  0  0  0  0  0
    0.3256   -3.2745   -1.4711 O   0  0  0  0  0  0  0  0  0  0  0  0
    1.1261   -1.7651   -4.3260 C   0  0  0  0  0  0  0  0  0  0  0  0
    0.9711   -0.0605   -2.4491 H   0  0  0  0  0  0  0  0  0  0  0  0
   -0.9546   -1.5018   -3.8135 H   0  0  0  0  0  0  0  0  0  0  0  0
    2.0824   -1.9983   -3.8437 H   0  0  0  0  0  0  0  0  0  0  0  0
    0.9511   -2.5230   -5.0966 H   0  0  0  0  0  0  0  0  0  0  0  0
    1.2318   -0.7936   -4.8209 H   0  0  0  0  0  0  0  0  0  0  0  0
   -0.7710   -4.0275   -3.3725 N   0  0  0  0  0  0  0  0  0  0  0  0
   -0.9976   -5.3795   -2.9181 C   0  0  0  0  0  0  0  0  0  0  0  0
   -1.1334   -3.7671   -4.2850 H   0  0  0  0  0  0  0  0  0  0  0  0
   -0.1639   -6.0202   -3.2413 H   0  0  0  0  0  0  0  0  0  0  0  0
   -1.0643   -5.3909   -1.8202 H   0  0  0  0  0  0  0  0  0  0  0  0
   -1.9377   -5.7575   -3.3464 H   0  0  0  0  0  0  0  0  0  0  0  0
 29 30  2  0  0  0  0
 27 29  1  0  0  0  0
 28 30  1  0  0  0  0
 24 27  2  0  0  0  0
 26 28  2  0  0  0  0
 22 23  2  0  0  0  0
 23 25  1  0  0  0  0
 22 24  1  0  0  0  0
 24 26  1  0  0  0  0
 21 22  1  0  0  0  0
 25 26  1  0  0  0  0
  1  3  1  0  0  0  0
  1  7  1  0  0  0  0
  1  2  2  0  0  0  0
 42 43  1  0  0  0  0
 43 51  1  0  0  0  0
 43 44  2  0  0  0  0
  8  9  1  0  0  0  0
  9 17  1  0  0  0  0
  9 10  2  0  0  0  0
 18 19  1  0  0  0  0
 19 41  1  0  0  0  0
 19 20  2  0  0  0  0
 42 45  1  0  0  0  0
  8 11  1  0  0  0  0
 51 52  1  0  0  0  0
 18 21  1  0  0  0  0
 41 42  1  0  0  0  0
  7  8  1  0  0  0  0
 17 18  1  0  0  0  0
 29 39  1  0  0  0  0
 30 40  1  0  0  0  0
 27 37  1  0  0  0  0
 28 38  1  0  0  0  0
 23 35  1  0  0  0  0
  3  4  1  0  0  0  0
  3  5  1  0  0  0  0
  3  6  1  0  0  0  0
 45 48  1  0  0  0  0
 45 49  1  0  0  0  0
 45 50  1  0  0  0  0
 11 14  1  0  0  0  0
 11 15  1  0  0  0  0
 11 16  1  0  0  0  0
 52 54  1  0  0  0  0
 52 55  1  0  0  0  0
 52 56  1  0  0  0  0
 21 33  1  0  0  0  0
 21 34  1  0  0  0  0
 42 47  1  0  0  0  0
  8 13  1  0  0  0  0
 18 32  1  0  0  0  0
 25 36  1  0  0  0  0
 51 53  1  0  0  0  0
  7 12  1  0  0  0  0
 41 46  1  0  0  0  0
 17 31  1  0  0  0  0
M  END
$$$$

  -OEChem-05262214473D

 56 57  0     1  0  0  0  0  0999 V2000
   -2.2900    0.3401    4.1553 C   0  0  0  0  0  0  0  0  0  0  0  0
   -1.3426   -0.2746    3.6796 O   0  0  0  0  0  0  0  0  0  0  0  0
   -2.7219    0.0577    5.5560 C   0  0  0  0  0  0  0  0  0  0  0  0
   -3.4815   -0.7386    5.6094 H   0  0  0  0  0  0  0  0  0  0  0  0
   -1.8906   -0.2899    6.1903 H   0  0  0  0  0  0  0  0  0  0  0  0
   -3.1599    0.9126    6.0956 H   0  0  0  0  0  0  0  0  0  0  0  0
   -3.0397    1.3125    3.5142 N   0  0  0  0  0  0  0  0  0  0  0  0
   -2.7928    1.7385    2.1618 C   0  0  2  0  0  0  0  0  0  0  0  0
   -1.4579    1.1532    1.7206 C   0  0  0  0  0  0  0  0  0  0  0  0
   -0.5858    0.8004    2.5118 O   0  0  0  0  0  0  0  0  0  0  0  0
   -2.7841    3.2553    2.0523 C   0  0  0  0  0  0  0  0  0  0  0  0
   -3.8047    1.7484    4.0260 H   0  0  0  0  0  0  0  0  0  0  0  0
   -3.5969    1.3201    1.5466 H   0  0  0  0  0  0  0  0  0  0  0  0
   -1.9850    3.6926    2.6620 H   0  0  0  0  0  0  0  0  0  0  0  0
   -2.6246    3.5776    1.0180 H   0  0  0  0  0  0  0  0  0  0  0  0
   -3.7342    3.6765    2.3981 H   0  0  0  0  0  0  0  0  0  0  0  0
   -1.3352    1.1101    0.3372 N   0  0  0  0  0  0  0  0  0  0  0  0
   -0.1579    0.6093   -0.3265 C   0  0  2  0  0  0  0  0  0  0  0  0
   -0.5935   -0.5703   -1.1885 C   0  0  0  0  0  0  0  0  0  0  0  0
   -1.6955   -1.1046   -1.0839 O   0  0  0  0  0  0  0  0  0  0  0  0
    0.9250    0.1723    0.6668 C   0  0  0  0  0  0  0  0  0  0  0  0
    1.5073    1.3292    1.4416 C   0  0  0  0  0  0  0  0  0  0  0  0
    1.1265    1.7237    2.7035 C   0  0  0  0  0  0  0  0  0  0  0  0
    2.5423    2.2042    1.0082 C   0  0  0  0  0  0  0  0  0  0  0  0
    1.8891    2.8051    3.0549 N   0  0  0  0  0  0  0  0  0  0  0  0
    2.7626    3.1206    2.0387 C   0  0  0  0  0  0  0  0  0  0  0  0
    3.3153    2.3049   -0.1656 C   0  0  0  0  0  0  0  0  0  0  0  0
    3.7210    4.1367    1.9538 C   0  0  0  0  0  0  0  0  0  0  0  0
    4.2777    3.3162   -0.2646 C   0  0  0  0  0  0  0  0  0  0  0  0
    4.4758    4.2170    0.7800 C   0  0  0  0  0  0  0  0  0  0  0  0
   -2.1183    1.4068   -0.2401 H   0  0  0  0  0  0  0  0  0  0  0  0
    0.2010    1.4157   -0.9767 H   0  0  0  0  0  0  0  0  0  0  0  0
    1.7283   -0.3629    0.1426 H   0  0  0  0  0  0  0  0  0  0  0  0
    0.5174   -0.5518    1.3846 H   0  0  0  0  0  0  0  0  0  0  0  0
    0.3809    1.3338    3.3827 H   0  0  0  0  0  0  0  0  0  0  0  0
    1.8214    3.3005    3.9332 H   0  0  0  0  0  0  0  0  0  0  0  0
    3.1723    1.6110   -0.9892 H   0  0  0  0  0  0  0  0  0  0  0  0
    3.8766    4.8376    2.7668 H   0  0  0  0  0  0  0  0  0  0  0  0
    4.8765    3.3992   -1.1676 H   0  0  0  0  0  0  0  0  0  0  0  0
    5.2288    4.9947    0.6818 H   0  0  0  0  0  0  0  0  0  0  0  0
    0.3754   -0.9197   -2.1189 N   0  0  0  0  0  0  0  0  0  0  0  0
    0.2078   -1.9902   -3.0752 C   0  0  2  0  0  0  0  0  0  0  0  0
   -0.2563   -3.2280   -2.3190 C   0  0  0  0  0  0  0  0  0  0  0  0
   -0.0643   -3.3902   -1.1157 O   0  0  0  0  0  0  0  0  0  0  0  0
    1.4995   -2.2662   -3.8289 C   0  0  0  0  0  0  0  0  0  0  0  0
    1.2461   -0.3967   -2.1281 H   0  0  0  0  0  0  0  0  0  0  0  0
   -0.5754   -1.6722   -3.7720 H   0  0  0  0  0  0  0  0  0  0  0  0
    2.2961   -2.5862   -3.1473 H   0  0  0  0  0  0  0  0  0  0  0  0
    1.3634   -3.0580   -4.5729 H   0  0  0  0  0  0  0  0  0  0  0  0
    1.8477   -1.3667   -4.3480 H   0  0  0  0  0  0  0  0  0  0  0  0
   -0.8720   -4.1496   -3.1543 N   0  0  0  0  0  0  0  0  0  0  0  0
   -1.3881   -5.4114   -2.6772 C   0  0  0  0  0  0  0  0  0  0  0  0
   -1.0054   -3.9236   -4.1356 H   0  0  0  0  0  0  0  0  0  0  0  0
   -0.6161   -6.1877   -2.7836 H   0  0  0  0  0  0  0  0  0  0  0  0
   -1.6683   -5.3157   -1.6178 H   0  0  0  0  0  0  0  0  0  0  0  0
   -2.2735   -5.6917   -3.2667 H   0  0  0  0  0  0  0  0  0  0  0  0
 29 30  2  0  0  0  0
 27 29  1  0  0  0  0
 28 30  1  0  0  0  0
 24 27  2  0  0  0  0
 26 28  2  0  0  0  0
 22 23  2  0  0  0  0
 23 25  1  0  0  0  0
 22 24  1  0  0  0  0
 24 26  1  0  0  0  0
 21 22  1  0  0  0  0
 25 26  1  0  0  0  0
  1  3  1  0  0  0  0
  1  7  1  0  0  0  0
  1  2  2  0  0  0  0
 42 43  1  0  0  0  0
 43 51  1  0  0  0  0
 43 44  2  0  0  0  0
  8  9  1  0  0  0  0
  9 17  1  0  0  0  0
  9 10  2  0  0  0  0
 18 19  1  0  0  0  0
 19 41  1  0  0  0  0
 19 20  2  0  0  0  0
 42 45  1  0  0  0  0
  8 11  1  0  0  0  0
 51 52  1  0  0  0  0
 18 21  1  0  0  0  0
 41 42  1  0  0  0  0
  7  8  1  0  0  0  0
 17 18  1  0  0  0  0
 29 39  1  0  0  0  0
 30 40  1  0  0  0  0
 27 37  1  0  0  0  0
 28 38  1  0  0  0  0
 23 35  1  0  0  0  0
  3  4  1  0  0  0  0
  3  5  1  0  0  0  0
  3  6  1  0  0  0  0
 45 48  1  0  0  0  0
 45 49  1  0  0  0  0
 45 50  1  0  0  0  0
 11 14  1  0  0  0  0
 11 15  1  0  0  0  0
 11 16  1  0  0  0  0
 52 54  1  0  0  0  0
 52 55  1  0  0  0  0
 52 56  1  0  0  0  0
 21 33  1  0  0  0  0
 21 34  1  0  0  0  0
 42 47  1  0  0  0  0
  8 13  1  0  0  0  0
 18 32  1  0  0  0  0
 25 36  1  0  0  0  0
 51 53  1  0  0  0  0
  7 12  1  0  0  0  0
 41 46  1  0  0  0  0
 17 31  1  0  0  0  0
M  END
$$$$

  -OEChem-05262214473D

 56 57  0     1  0  0  0  0  0999 V2000
   -2.2900    0.3401    4.1553 C   0  0  0  0  0  0  0  0  0  0  0  0
   -1.3426   -0.2746    3.6796 O   0  0  0  0  0  0  0  0  0  0  0  0
   -2.7219    0.0577    5.5560 C   0  0  0  0  0  0  0  0  0  0  0  0
   -3.4815   -0.7386    5.6094 H   0  0  0  0  0  0  0  0  0  0  0  0
   -1.8906   -0.2899    6.1903 H   0  0  0  0  0  0  0  0  0  0  0  0
   -3.1599    0.9126    6.0956 H   0  0  0  0  0  0  0  0  0  0  0  0
   -3.0397    1.3125    3.5142 N   0  0  0  0  0  0  0  0  0  0  0  0
   -2.7928    1.7385    2.1618 C   0  0  2  0  0  0  0  0  0  0  0  0
   -1.4579    1.1532    1.7206 C   0  0  0  0  0  0  0  0  0  0  0  0
   -0.5858    0.8004    2.5118 O   0  0  0  0  0  0  0  0  0  0  0  0
   -2.7841    3.2553    2.0523 C   0  0  0  0  0  0  0  0  0  0  0  0
   -3.8047    1.7484    4.0260 H   0  0  0  0  0  0  0  0  0  0  0  0
   -3.5969    1.3201    1.5466 H   0  0  0  0  0  0  0  0  0  0  0  0
   -1.9850    3.6926    2.6620 H   0  0  0  0  0  0  0  0  0  0  0  0
   -2.6246    3.5776    1.0180 H   0  0  0  0  0  0  0  0  0  0  0  0
   -3.7342    3.6765    2.3981 H   0  0  0  0  0  0  0  0  0  0  0  0
   -1.3352    1.1101    0.3372 N   0  0  0  0  0  0  0  0  0  0  0  0
   -0.1579    0.6093   -0.3265 C   0  0  2  0  0  0  0  0  0  0  0  0
   -0.6291   -0.3013   -1.4547 C   0  0  0  0  0  0  0  0  0  0  0  0
   -1.8164   -0.4851   -1.7146 O   0  0  0  0  0  0  0  0  0  0  0  0
    0.7628   -0.1587    0.6289 C   0  0  0  0  0  0  0  0  0  0  0  0
    1.3855    0.7289    1.6787 C   0  0  0  0  0  0  0  0  0  0  0  0
    0.9227    0.9007    2.9629 C   0  0  0  0  0  0  0  0  0  0  0  0
    2.5492    1.5336    1.5264 C   0  0  0  0  0  0  0  0  0  0  0  0
    1.7589    1.7791    3.5982 N   0  0  0  0  0  0  0  0  0  0  0  0
    2.7614    2.1819    2.7450 C   0  0  0  0  0  0  0  0  0  0  0  0
    3.4451    1.7734    0.4656 C   0  0  0  0  0  0  0  0  0  0  0  0
    3.8290    3.0616    2.9566 C   0  0  0  0  0  0  0  0  0  0  0  0
    4.5175    2.6509    0.6628 C   0  0  0  0  0  0  0  0  0  0  0  0
    4.7046    3.2839    1.8900 C   0  0  0  0  0  0  0  0  0  0  0  0
   -2.1183    1.4068   -0.2401 H   0  0  0  0  0  0  0  0  0  0  0  0
    0.3521    1.4793   -0.7567 H   0  0  0  0  0  0  0  0  0  0  0  0
    1.5523   -0.6734    0.0646 H   0  0  0  0  0  0  0  0  0  0  0  0
    0.2068   -0.9564    1.1389 H   0  0  0  0  0  0  0  0  0  0  0  0
    0.0730    0.4787    3.4818 H   0  0  0  0  0  0  0  0  0  0  0  0
    1.6560    2.0875    4.5551 H   0  0  0  0  0  0  0  0  0  0  0  0
    3.3123    1.2884   -0.4973 H   0  0  0  0  0  0  0  0  0  0  0  0
    3.9761    3.5540    3.9119 H   0  0  0  0  0  0  0  0  0  0  0  0
    5.2114    2.8401   -0.1518 H   0  0  0  0  0  0  0  0  0  0  0  0
    5.5444    3.9615    2.0212 H   0  0  0  0  0  0  0  0  0  0  0  0
    0.4340   -0.8417   -2.1647 N   0  0  0  0  0  0  0  0  0  0  0  0
    0.2654   -1.7212   -3.2991 C   0  0  2  0  0  0  0  0  0  0  0  0
   -0.7059   -2.8239   -2.8990 C   0  0  0  0  0  0  0  0  0  0  0  0
   -0.9128   -3.1440   -1.7303 O   0  0  0  0  0  0  0  0  0  0  0  0
    1.5956   -2.3053   -3.7489 C   0  0  0  0  0  0  0  0  0  0  0  0
    1.3781   -0.6073   -1.8723 H   0  0  0  0  0  0  0  0  0  0  0  0
   -0.1742   -1.1203   -4.1026 H   0  0  0  0  0  0  0  0  0  0  0  0
    2.0513   -2.9107   -2.9569 H   0  0  0  0  0  0  0  0  0  0  0  0
    1.4700   -2.9488   -4.6259 H   0  0  0  0  0  0  0  0  0  0  0  0
    2.3028   -1.5100   -4.0079 H   0  0  0  0  0  0  0  0  0  0  0  0
   -1.2820   -3.4376   -4.0025 N   0  0  0  0  0  0  0  0  0  0  0  0
   -2.2285   -4.5223   -3.8856 C   0  0  0  0  0  0  0  0  0  0  0  0
   -1.0668   -3.0947   -4.9340 H   0  0  0  0  0  0  0  0  0  0  0  0
   -1.6937   -5.4826   -3.9288 H   0  0  0  0  0  0  0  0  0  0  0  0
   -2.7611   -4.4422   -2.9265 H   0  0  0  0  0  0  0  0  0  0  0  0
   -2.9519   -4.4681   -4.7125 H   0  0  0  0  0  0  0  0  0  0  0  0
 29 30  2  0  0  0  0
 27 29  1  0  0  0  0
 28 30  1  0  0  0  0
 24 27  2  0  0  0  0
 26 28  2  0  0  0  0
 22 23  2  0  0  0  0
 23 25  1  0  0  0  0
 22 24  1  0  0  0  0
 24 26  1  0  0  0  0
 21 22  1  0  0  0  0
 25 26  1  0  0  0  0
  1  3  1  0  0  0  0
  1  7  1  0  0  0  0
  1  2  2  0  0  0  0
 42 43  1  0  0  0  0
 43 51  1  0  0  0  0
 43 44  2  0  0  0  0
  8  9  1  0  0  0  0
  9 17  1  0  0  0  0
  9 10  2  0  0  0  0
 18 19  1  0  0  0  0
 19 41  1  0  0  0  0
 19 20  2  0  0  0  0
 42 45  1  0  0  0  0
  8 11  1  0  0  0  0
 51 52  1  0  0  0  0
 18 21  1  0  0  0  0
 41 42  1  0  0  0  0
  7  8  1  0  0  0  0
 17 18  1  0  0  0  0
 29 39  1  0  0  0  0
 30 40  1  0  0  0  0
 27 37  1  0  0  0  0
 28 38  1  0  0  0  0
 23 35  1  0  0  0  0
  3  4  1  0  0  0  0
  3  5  1  0  0  0  0
  3  6  1  0  0  0  0
 45 48  1  0  0  0  0
 45 49  1  0  0  0  0
 45 50  1  0  0  0  0
 11 14  1  0  0  0  0
 11 15  1  0  0  0  0
 11 16  1  0  0  0  0
 52 54  1  0  0  0  0
 52 55  1  0  0  0  0
 52 56  1  0  0  0  0
 21 33  1  0  0  0  0
 21 34  1  0  0  0  0
 42 47  1  0  0  0  0
  8 13  1  0  0  0  0
 18 32  1  0  0  0  0
 25 36  1  0  0  0  0
 51 53  1  0  0  0  0
  7 12  1  0  0  0  0
 41 46  1  0  0  0  0
 17 31  1  0  0  0  0
M  END
$$$$

  -OEChem-05262214473D

 56 57  0     1  0  0  0  0  0999 V2000
   -2.2900    0.3401    4.1553 C   0  0  0  0  0  0  0  0  0  0  0  0
   -1.3426   -0.2746    3.6796 O   0  0  0  0  0  0  0  0  0  0  0  0
   -2.7219    0.0577    5.5560 C   0  0  0  0  0  0  0  0  0  0  0  0
   -3.4815   -0.7386    5.6094 H   0  0  0  0  0  0  0  0  0  0  0  0
   -1.8906   -0.2899    6.1903 H   0  0  0  0  0  0  0  0  0  0  0  0
   -3.1599    0.9126    6.0956 H   0  0  0  0  0  0  0  0  0  0  0  0
   -3.0397    1.3125    3.5142 N   0  0  0  0  0  0  0  0  0  0  0  0
   -2.7928    1.7385    2.1618 C   0  0  2  0  0  0  0  0  0  0  0  0
   -1.4579    1.1532    1.7206 C   0  0  0  0  0  0  0  0  0  0  0  0
   -0.5858    0.8004    2.5118 O   0  0  0  0  0  0  0  0  0  0  0  0
   -2.7841    3.2553    2.0523 C   0  0  0  0  0  0  0  0  0  0  0  0
   -3.8047    1.7484    4.0260 H   0  0  0  0  0  0  0  0  0  0  0  0
   -3.5969    1.3201    1.5466 H   0  0  0  0  0  0  0  0  0  0  0  0
   -1.9850    3.6926    2.6620 H   0  0  0  0  0  0  0  0  0  0  0  0
   -2.6246    3.5776    1.0180 H   0  0  0  0  0  0  0  0  0  0  0  0
   -3.7342    3.6765    2.3981 H   0  0  0  0  0  0  0  0  0  0  0  0
   -1.3352    1.1101    0.3372 N   0  0  0  0  0  0  0  0  0  0  0  0
   -0.1579    0.6093   -0.3265 C   0  0  2  0  0  0  0  0  0  0  0  0
   -0.6291   -0.3013   -1.4547 C   0  0  0  0  0  0  0  0  0  0  0  0
   -1.7780   -0.2859   -1.8914 O   0  0  0  0  0  0  0  0  0  0  0  0
    0.7628   -0.1587    0.6289 C   0  0  0  0  0  0  0  0  0  0  0  0
    1.3855    0.7289    1.6787 C   0  0  0  0  0  0  0  0  0  0  0  0
    0.9227    0.9007    2.9629 C   0  0  0  0  0  0  0  0  0  0  0  0
    2.5492    1.5336    1.5264 C   0  0  0  0  0  0  0  0  0  0  0  0
    1.7589    1.7791    3.5982 N   0  0  0  0  0  0  0  0  0  0  0  0
    2.7614    2.1819    2.7450 C   0  0  0  0  0  0  0  0  0  0  0  0
    3.4451    1.7734    0.4656 C   0  0  0  0  0  0  0  0  0  0  0  0
    3.8290    3.0616    2.9566 C   0  0  0  0  0  0  0  0  0  0  0  0
    4.5175    2.6509    0.6628 C   0  0  0  0  0  0  0  0  0  0  0  0
    4.7046    3.2839    1.8900 C   0  0  0  0  0  0  0  0  0  0  0  0
   -2.1183    1.4068   -0.2401 H   0  0  0  0  0  0  0  0  0  0  0  0
    0.3521    1.4793   -0.7567 H   0  0  0  0  0  0  0  0  0  0  0  0
    1.5523   -0.6734    0.0646 H   0  0  0  0  0  0  0  0  0  0  0  0
    0.2068   -0.9564    1.1389 H   0  0  0  0  0  0  0  0  0  0  0  0
    0.0730    0.4787    3.4818 H   0  0  0  0  0  0  0  0  0  0  0  0
    1.6560    2.0875    4.5551 H   0  0  0  0  0  0  0  0  0  0  0  0
    3.3123    1.2884   -0.4973 H   0  0  0  0  0  0  0  0  0  0  0  0
    3.9761    3.5540    3.9119 H   0  0  0  0  0  0  0  0  0  0  0  0
    5.2114    2.8401   -0.1518 H   0  0  0  0  0  0  0  0  0  0  0  0
    5.5444    3.9615    2.0212 H   0  0  0  0  0  0  0  0  0  0  0  0
    0.3986   -1.0943   -1.9460 N   0  0  0  0  0  0  0  0  0  0  0  0
    0.2277   -2.0311   -3.0332 C   0  0  2  0  0  0  0  0  0  0  0  0
   -0.9905   -2.8917   -2.7254 C   0  0  0  0  0  0  0  0  0  0  0  0
   -1.4260   -3.0553   -1.5875 O   0  0  0  0  0  0  0  0  0  0  0  0
    1.4673   -2.8916   -3.2222 C   0  0  0  0  0  0  0  0  0  0  0  0
    1.3170   -1.0121   -1.5200 H   0  0  0  0  0  0  0  0  0  0  0  0
    0.0384   -1.4383   -3.9347 H   0  0  0  0  0  0  0  0  0  0  0  0
    1.6730   -3.4928   -2.3290 H   0  0  0  0  0  0  0  0  0  0  0  0
    1.3471   -3.5811   -4.0643 H   0  0  0  0  0  0  0  0  0  0  0  0
    2.3481   -2.2693   -3.4140 H   0  0  0  0  0  0  0  0  0  0  0  0
   -1.5083   -3.4902   -3.8655 N   0  0  0  0  0  0  0  0  0  0  0  0
   -2.6574   -4.3646   -3.8337 C   0  0  0  0  0  0  0  0  0  0  0  0
   -1.0952   -3.2831   -4.7701 H   0  0  0  0  0  0  0  0  0  0  0  0
   -2.3227   -5.4070   -3.7271 H   0  0  0  0  0  0  0  0  0  0  0  0
   -3.2986   -4.0964   -2.9811 H   0  0  0  0  0  0  0  0  0  0  0  0
   -3.2265   -4.2562   -4.7688 H   0  0  0  0  0  0  0  0  0  0  0  0
 29 30  2  0  0  0  0
 27 29  1  0  0  0  0
 28 30  1  0  0  0  0
 24 27  2  0  0  0  0
 26 28  2  0  0  0  0
 22 23  2  0  0  0  0
 23 25  1  0  0  0  0
 22 24  1  0  0  0  0
 24 26  1  0  0  0  0
 21 22  1  0  0  0  0
 25 26  1  0  0  0  0
  1  3  1  0  0  0  0
  1  7  1  0  0  0  0
  1  2  2  0  0  0  0
 42 43  1  0  0  0  0
 43 51  1  0  0  0  0
 43 44  2  0  0  0  0
  8  9  1  0  0  0  0
  9 17  1  0  0  0  0
  9 10  2  0  0  0  0
 18 19  1  0  0  0  0
 19 41  1  0  0  0  0
 19 20  2  0  0  0  0
 42 45  1  0  0  0  0
  8 11  1  0  0  0  0
 51 52  1  0  0  0  0
 18 21  1  0  0  0  0
 41 42  1  0  0  0  0
  7  8  1  0  0  0  0
 17 18  1  0  0  0  0
 29 39  1  0  0  0  0
 30 40  1  0  0  0  0
 27 37  1  0  0  0  0
 28 38  1  0  0  0  0
 23 35  1  0  0  0  0
  3  4  1  0  0  0  0
  3  5  1  0  0  0  0
  3  6  1  0  0  0  0
 45 48  1  0  0  0  0
 45 49  1  0  0  0  0
 45 50  1  0  0  0  0
 11 14  1  0  0  0  0
 11 15  1  0  0  0  0
 11 16  1  0  0  0  0
 52 54  1  0  0  0  0
 52 55  1  0  0  0  0
 52 56  1  0  0  0  0
 21 33  1  0  0  0  0
 21 34  1  0  0  0  0
 42 47  1  0  0  0  0
  8 13  1  0  0  0  0
 18 32  1  0  0  0  0
 25 36  1  0  0  0  0
 51 53  1  0  0  0  0
  7 12  1  0  0  0  0
 41 46  1  0  0  0  0
 17 31  1  0  0  0  0
M  END
$$$$

  -OEChem-05262214473D

 56 57  0     1  0  0  0  0  0999 V2000
   -2.2900    0.3401    4.1553 C   0  0  0  0  0  0  0  0  0  0  0  0
   -1.3426   -0.2746    3.6796 O   0  0  0  0  0  0  0  0  0  0  0  0
   -2.7219    0.0577    5.5560 C   0  0  0  0  0  0  0  0  0  0  0  0
   -3.4815   -0.7386    5.6094 H   0  0  0  0  0  0  0  0  0  0  0  0
   -1.8906   -0.2899    6.1903 H   0  0  0  0  0  0  0  0  0  0  0  0
   -3.1599    0.9126    6.0956 H   0  0  0  0  0  0  0  0  0  0  0  0
   -3.0397    1.3125    3.5142 N   0  0  0  0  0  0  0  0  0  0  0  0
   -2.7928    1.7385    2.1618 C   0  0  2  0  0  0  0  0  0  0  0  0
   -1.4579    1.1532    1.7206 C   0  0  0  0  0  0  0  0  0  0  0  0
   -0.5858    0.8004    2.5118 O   0  0  0  0  0  0  0  0  0  0  0  0
   -2.7841    3.2553    2.0523 C   0  0  0  0  0  0  0  0  0  0  0  0
   -3.8047    1.7484    4.0260 H   0  0  0  0  0  0  0  0  0  0  0  0
   -3.5969    1.3201    1.5466 H   0  0  0  0  0  0  0  0  0  0  0  0
   -1.9850    3.6926    2.6620 H   0  0  0  0  0  0  0  0  0  0  0  0
   -2.6246    3.5776    1.0180 H   0  0  0  0  0  0  0  0  0  0  0  0
   -3.7342    3.6765    2.3981 H   0  0  0  0  0  0  0  0  0  0  0  0
   -1.3352    1.1101    0.3372 N   0  0  0  0  0  0  0  0  0  0  0  0
   -0.1579    0.6093   -0.3265 C   0  0  2  0  0  0  0  0  0  0  0  0
   -0.6291   -0.3013   -1.4547 C   0  0  0  0  0  0  0  0  0  0  0  0
   -1.6755   -0.1149   -2.0723 O   0  0  0  0  0  0  0  0  0  0  0  0
    0.7628   -0.1587    0.6289 C   0  0  0  0  0  0  0  0  0  0  0  0
    1.3855    0.7289    1.6787 C   0  0  0  0  0  0  0  0  0  0  0  0
    0.9227    0.9007    2.9629 C   0  0  0  0  0  0  0  0  0  0  0  0
    2.5492    1.5336    1.5264 C   0  0  0  0  0  0  0  0  0  0  0  0
    1.7589    1.7791    3.5982 N   0  0  0  0  0  0  0  0  0  0  0  0
    2.7614    2.1819    2.7450 C   0  0  0  0  0  0  0  0  0  0  0  0
    3.4451    1.7734    0.4656 C   0  0  0  0  0  0  0  0  0  0  0  0
    3.8290    3.0616    2.9566 C   0  0  0  0  0  0  0  0  0  0  0  0
    4.5175    2.6509    0.6628 C   0  0  0  0  0  0  0  0  0  0  0  0
    4.7046    3.2839    1.8900 C   0  0  0  0  0  0  0  0  0  0  0  0
   -2.1183    1.4068   -0.2401 H   0  0  0  0  0  0  0  0  0  0  0  0
    0.3521    1.4793   -0.7567 H   0  0  0  0  0  0  0  0  0  0  0  0
    1.5523   -0.6734    0.0646 H   0  0  0  0  0  0  0  0  0  0  0  0
    0.2068   -0.9564    1.1389 H   0  0  0  0  0  0  0  0  0  0  0  0
    0.0730    0.4787    3.4818 H   0  0  0  0  0  0  0  0  0  0  0  0
    1.6560    2.0875    4.5551 H   0  0  0  0  0  0  0  0  0  0  0  0
    3.3123    1.2884   -0.4973 H   0  0  0  0  0  0  0  0  0  0  0  0
    3.9761    3.5540    3.9119 H   0  0  0  0  0  0  0  0  0  0  0  0
    5.2114    2.8401   -0.1518 H   0  0  0  0  0  0  0  0  0  0  0  0
    5.5444    3.9615    2.0212 H   0  0  0  0  0  0  0  0  0  0  0  0
    0.2821   -1.3140   -1.7201 N   0  0  0  0  0  0  0  0  0  0  0  0
    0.0908   -2.3020   -2.7574 C   0  0  2  0  0  0  0  0  0  0  0  0
   -1.3054   -2.8888   -2.5963 C   0  0  0  0  0  0  0  0  0  0  0  0
   -1.9268   -2.8600   -1.5360 O   0  0  0  0  0  0  0  0  0  0  0  0
    1.1497   -3.3912   -2.6863 C   0  0  0  0  0  0  0  0  0  0  0  0
    1.1260   -1.3633   -1.1568 H   0  0  0  0  0  0  0  0  0  0  0  0
    0.1569   -1.7728   -3.7143 H   0  0  0  0  0  0  0  0  0  0  0  0
    1.0989   -3.9325   -1.7345 H   0  0  0  0  0  0  0  0  0  0  0  0
    1.0204   -4.1234   -3.4902 H   0  0  0  0  0  0  0  0  0  0  0  0
    2.1546   -2.9640   -2.7725 H   0  0  0  0  0  0  0  0  0  0  0  0
   -1.7582   -3.4866   -3.7640 N   0  0  0  0  0  0  0  0  0  0  0  0
   -3.0495   -4.1259   -3.8626 C   0  0  0  0  0  0  0  0  0  0  0  0
   -1.1841   -3.4466   -4.6010 H   0  0  0  0  0  0  0  0  0  0  0  0
   -2.9471   -5.1974   -3.6355 H   0  0  0  0  0  0  0  0  0  0  0  0
   -3.7431   -3.6638   -3.1446 H   0  0  0  0  0  0  0  0  0  0  0  0
   -3.4424   -4.0034   -4.8827 H   0  0  0  0  0  0  0  0  0  0  0  0
 29 30  2  0  0  0  0
 27 29  1  0  0  0  0
 28 30  1  0  0  0  0
 24 27  2  0  0  0  0
 26 28  2  0  0  0  0
 22 23  2  0  0  0  0
 23 25  1  0  0  0  0
 22 24  1  0  0  0  0
 24 26  1  0  0  0  0
 21 22  1  0  0  0  0
 25 26  1  0  0  0  0
  1  3  1  0  0  0  0
  1  7  1  0  0  0  0
  1  2  2  0  0  0  0
 42 43  1  0  0  0  0
 43 51  1  0  0  0  0
 43 44  2  0  0  0  0
  8  9  1  0  0  0  0
  9 17  1  0  0  0  0
  9 10  2  0  0  0  0
 18 19  1  0  0  0  0
 19 41  1  0  0  0  0
 19 20  2  0  0  0  0
 42 45  1  0  0  0  0
  8 11  1  0  0  0  0
 51 52  1  0  0  0  0
 18 21  1  0  0  0  0
 41 42  1  0  0  0  0
  7  8  1  0  0  0  0
 17 18  1  0  0  0  0
 29 39  1  0  0  0  0
 30 40  1  0  0  0  0
 27 37  1  0  0  0  0
 28 38  1  0  0  0  0
 23 35  1  0  0  0  0
  3  4  1  0  0  0  0
  3  5  1  0  0  0  0
  3  6  1  0  0  0  0
 45 48  1  0  0  0  0
 45 49  1  0  0  0  0
 45 50  1  0  0  0  0
 11 14  1  0  0  0  0
 11 15  1  0  0  0  0
 11 16  1  0  0  0  0
 52 54  1  0  0  0  0
 52 55  1  0  0  0  0
 52 56  1  0  0  0  0
 21 33  1  0  0  0  0
 21 34  1  0  0  0  0
 42 47  1  0  0  0  0
  8 13  1  0  0  0  0
 18 32  1  0  0  0  0
 25 36  1  0  0  0  0
 51 53  1  0  0  0  0
  7 12  1  0  0  0  0
 41 46  1  0  0  0  0
 17 31  1  0  0  0  0
M  END
$$$$

  -OEChem-05262214473D

 56 57  0     1  0  0  0  0  0999 V2000
   -2.2900    0.3401    4.1553 C   0  0  0  0  0  0  0  0  0  0  0  0
   -1.3426   -0.2746    3.6796 O   0  0  0  0  0  0  0  0  0  0  0  0
   -2.7219    0.0577    5.5560 C   0  0  0  0  0  0  0  0  0  0  0  0
   -3.4815   -0.7386    5.6094 H   0  0  0  0  0  0  0  0  0  0  0  0
   -1.8906   -0.2899    6.1903 H   0  0  0  0  0  0  0  0  0  0  0  0
   -3.1599    0.9126    6.0956 H   0  0  0  0  0  0  0  0  0  0  0  0
   -3.0397    1.3125    3.5142 N   0  0  0  0  0  0  0  0  0  0  0  0
   -2.7928    1.7385    2.1618 C   0  0  2  0  0  0  0  0  0  0  0  0
   -1.4579    1.1532    1.7206 C   0  0  0  0  0  0  0  0  0  0  0  0
   -0.5858    0.8004    2.5118 O   0  0  0  0  0  0  0  0  0  0  0  0
   -2.7841    3.2553    2.0523 C   0  0  0  0  0  0  0  0  0  0  0  0
   -3.8047    1.7484    4.0260 H   0  0  0  0  0  0  0  0  0  0  0  0
   -3.5969    1.3201    1.5466 H   0  0  0  0  0  0  0  0  0  0  0  0
   -1.9850    3.6926    2.6620 H   0  0  0  0  0  0  0  0  0  0  0  0
   -2.6246    3.5776    1.0180 H   0  0  0  0  0  0  0  0  0  0  0  0
   -3.7342    3.6765    2.3981 H   0  0  0  0  0  0  0  0  0  0  0  0
   -1.3352    1.1101    0.3372 N   0  0  0  0  0  0  0  0  0  0  0  0
   -0.1579    0.6093   -0.3265 C   0  0  2  0  0  0  0  0  0  0  0  0
   -0.6291   -0.3013   -1.4547 C   0  0  0  0  0  0  0  0  0  0  0  0
   -1.5157    0.0162   -2.2448 O   0  0  0  0  0  0  0  0  0  0  0  0
    0.7628   -0.1587    0.6289 C   0  0  0  0  0  0  0  0  0  0  0  0
    1.3855    0.7289    1.6787 C   0  0  0  0  0  0  0  0  0  0  0  0
    0.9227    0.9007    2.9629 C   0  0  0  0  0  0  0  0  0  0  0  0
    2.5492    1.5336    1.5264 C   0  0  0  0  0  0  0  0  0  0  0  0
    1.7589    1.7791    3.5982 N   0  0  0  0  0  0  0  0  0  0  0  0
    2.7614    2.1819    2.7450 C   0  0  0  0  0  0  0  0  0  0  0  0
    3.4451    1.7734    0.4656 C   0  0  0  0  0  0  0  0  0  0  0  0
    3.8290    3.0616    2.9566 C   0  0  0  0  0  0  0  0  0  0  0  0
    4.5175    2.6509    0.6628 C   0  0  0  0  0  0  0  0  0  0  0  0
    4.7046    3.2839    1.8900 C   0  0  0  0  0  0  0  0  0  0  0  0
   -2.1183    1.4068   -0.2401 H   0  0  0  0  0  0  0  0  0  0  0  0
    0.3521    1.4793   -0.7567 H   0  0  0  0  0  0  0  0  0  0  0  0
    1.5523   -0.6734    0.0646 H   0  0  0  0  0  0  0  0  0  0  0  0
    0.2068   -0.9564    1.1389 H   0  0  0  0  0  0  0  0  0  0  0  0
    0.0730    0.4787    3.4818 H   0  0  0  0  0  0  0  0  0  0  0  0
    1.6560    2.0875    4.5551 H   0  0  0  0  0  0  0  0  0  0  0  0
    3.3123    1.2884   -0.4973 H   0  0  0  0  0  0  0  0  0  0  0  0
    3.9761    3.5540    3.9119 H   0  0  0  0  0  0  0  0  0  0  0  0
    5.2114    2.8401   -0.1518 H   0  0  0  0  0  0  0  0  0  0  0  0
    5.5444    3.9615    2.0212 H   0  0  0  0  0  0  0  0  0  0  0  0
    0.0926   -1.4859   -1.5022 N   0  0  0  0  0  0  0  0  0  0  0  0
   -0.1360   -2.5154   -2.4905 C   0  0  2  0  0  0  0  0  0  0  0  0
   -1.6289   -2.8153   -2.5204 C   0  0  0  0  0  0  0  0  0  0  0  0
   -2.3811   -2.5712   -1.5793 O   0  0  0  0  0  0  0  0  0  0  0  0
    0.6644   -3.7701   -2.1778 C   0  0  0  0  0  0  0  0  0  0  0  0
    0.8181   -1.6368   -0.8075 H   0  0  0  0  0  0  0  0  0  0  0  0
    0.1733   -2.1010   -3.4562 H   0  0  0  0  0  0  0  0  0  0  0  0
    0.3684   -4.1996   -1.2137 H   0  0  0  0  0  0  0  0  0  0  0  0
    0.5122   -4.5387   -2.9427 H   0  0  0  0  0  0  0  0  0  0  0  0
    1.7355   -3.5466   -2.1272 H   0  0  0  0  0  0  0  0  0  0  0  0
   -2.0146   -3.4271   -3.7049 N   0  0  0  0  0  0  0  0  0  0  0  0
   -3.3781   -3.8226   -3.9701 C   0  0  0  0  0  0  0  0  0  0  0  0
   -1.3274   -3.5740   -4.4384 H   0  0  0  0  0  0  0  0  0  0  0  0
   -3.5241   -4.8679   -3.6603 H   0  0  0  0  0  0  0  0  0  0  0  0
   -4.0643   -3.1739   -3.4059 H   0  0  0  0  0  0  0  0  0  0  0  0
   -3.5849   -3.7270   -5.0463 H   0  0  0  0  0  0  0  0  0  0  0  0
 29 30  2  0  0  0  0
 27 29  1  0  0  0  0
 28 30  1  0  0  0  0
 24 27  2  0  0  0  0
 26 28  2  0  0  0  0
 22 23  2  0  0  0  0
 23 25  1  0  0  0  0
 22 24  1  0  0  0  0
 24 26  1  0  0  0  0
 21 22  1  0  0  0  0
 25 26  1  0  0  0  0
  1  3  1  0  0  0  0
  1  7  1  0  0  0  0
  1  2  2  0  0  0  0
 42 43  1  0  0  0  0
 43 51  1  0  0  0  0
 43 44  2  0  0  0  0
  8  9  1  0  0  0  0
  9 17  1  0  0  0  0
  9 10  2  0  0  0  0
 18 19  1  0  0  0  0
 19 41  1  0  0  0  0
 19 20  2  0  0  0  0
 42 45  1  0  0  0  0
  8 11  1  0  0  0  0
 51 52  1  0  0  0  0
 18 21  1  0  0  0  0
 41 42  1  0  0  0  0
  7  8  1  0  0  0  0
 17 18  1  0  0  0  0
 29 39  1  0  0  0  0
 30 40  1  0  0  0  0
 27 37  1  0  0  0  0
 28 38  1  0  0  0  0
 23 35  1  0  0  0  0
  3  4  1  0  0  0  0
  3  5  1  0  0  0  0
  3  6  1  0  0  0  0
 45 48  1  0  0  0  0
 45 49  1  0  0  0  0
 45 50  1  0  0  0  0
 11 14  1  0  0  0  0
 11 15  1  0  0  0  0
 11 16  1  0  0  0  0
 52 54  1  0  0  0  0
 52 55  1  0  0  0  0
 52 56  1  0  0  0  0
 21 33  1  0  0  0  0
 21 34  1  0  0  0  0
 42 47  1  0  0  0  0
  8 13  1  0  0  0  0
 18 32  1  0  0  0  0
 25 36  1  0  0  0  0
 51 53  1  0  0  0  0
  7 12  1  0  0  0  0
 41 46  1  0  0  0  0
 17 31  1  0  0  0  0
M  END
$$$$

  -OEChem-05262214473D

 56 57  0     1  0  0  0  0  0999 V2000
   -2.2900    0.3401    4.1553 C   0  0  0  0  0  0  0  0  0  0  0  0
   -1.3426   -0.2746    3.6796 O   0  0  0  0  0  0  0  0  0  0  0  0
   -2.7219    0.0577    5.5560 C   0  0  0  0  0  0  0  0  0  0  0  0
   -3.4815   -0.7386    5.6094 H   0  0  0  0  0  0  0  0  0  0  0  0
   -1.8906   -0.2899    6.1903 H   0  0  0  0  0  0  0  0  0  0  0  0
   -3.1599    0.9126    6.0956 H   0  0  0  0  0  0  0  0  0  0  0  0
   -3.0397    1.3125    3.5142 N   0  0  0  0  0  0  0  0  0  0  0  0
   -2.7928    1.7385    2.1618 C   0  0  2  0  0  0  0  0  0  0  0  0
   -1.4579    1.1532    1.7206 C   0  0  0  0  0  0  0  0  0  0  0  0
   -0.5858    0.8004    2.5118 O   0  0  0  0  0  0  0  0  0  0  0  0
   -2.7841    3.2553    2.0523 C   0  0  0  0  0  0  0  0  0  0  0  0
   -3.8047    1.7484    4.0260 H   0  0  0  0  0  0  0  0  0  0  0  0
   -3.5969    1.3201    1.5466 H   0  0  0  0  0  0  0  0  0  0  0  0
   -1.9850    3.6926    2.6620 H   0  0  0  0  0  0  0  0  0  0  0  0
   -2.6246    3.5776    1.0180 H   0  0  0  0  0  0  0  0  0  0  0  0
   -3.7342    3.6765    2.3981 H   0  0  0  0  0  0  0  0  0  0  0  0
   -1.3352    1.1101    0.3372 N   0  0  0  0  0  0  0  0  0  0  0  0
   -0.1579    0.6093   -0.3265 C   0  0  2  0  0  0  0  0  0  0  0  0
   -0.6291   -0.3013   -1.4547 C   0  0  0  0  0  0  0  0  0  0  0  0
   -1.3096    0.0983   -2.3972 O   0  0  0  0  0  0  0  0  0  0  0  0
    0.7628   -0.1587    0.6289 C   0  0  0  0  0  0  0  0  0  0  0  0
    1.3855    0.7289    1.6787 C   0  0  0  0  0  0  0  0  0  0  0  0
    0.9227    0.9007    2.9629 C   0  0  0  0  0  0  0  0  0  0  0  0
    2.5492    1.5336    1.5264 C   0  0  0  0  0  0  0  0  0  0  0  0
    1.7589    1.7791    3.5982 N   0  0  0  0  0  0  0  0  0  0  0  0
    2.7614    2.1819    2.7450 C   0  0  0  0  0  0  0  0  0  0  0  0
    3.4451    1.7734    0.4656 C   0  0  0  0  0  0  0  0  0  0  0  0
    3.8290    3.0616    2.9566 C   0  0  0  0  0  0  0  0  0  0  0  0
    4.5175    2.6509    0.6628 C   0  0  0  0  0  0  0  0  0  0  0  0
    4.7046    3.2839    1.8900 C   0  0  0  0  0  0  0  0  0  0  0  0
   -2.1183    1.4068   -0.2401 H   0  0  0  0  0  0  0  0  0  0  0  0
    0.3521    1.4793   -0.7567 H   0  0  0  0  0  0  0  0  0  0  0  0
    1.5523   -0.6734    0.0646 H   0  0  0  0  0  0  0  0  0  0  0  0
    0.2068   -0.9564    1.1389 H   0  0  0  0  0  0  0  0  0  0  0  0
    0.0730    0.4787    3.4818 H   0  0  0  0  0  0  0  0  0  0  0  0
    1.6560    2.0875    4.5551 H   0  0  0  0  0  0  0  0  0  0  0  0
    3.3123    1.2884   -0.4973 H   0  0  0  0  0  0  0  0  0  0  0  0
    3.9761    3.5540    3.9119 H   0  0  0  0  0  0  0  0  0  0  0  0
    5.2114    2.8401   -0.1518 H   0  0  0  0  0  0  0  0  0  0  0  0
    5.5444    3.9615    2.0212 H   0  0  0  0  0  0  0  0  0  0  0  0
   -0.1570   -1.5981   -1.3074 N   0  0  0  0  0  0  0  0  0  0  0  0
   -0.4372   -2.6567   -2.2507 C   0  0  2  0  0  0  0  0  0  0  0  0
   -1.9390   -2.6763   -2.5031 C   0  0  0  0  0  0  0  0  0  0  0  0
   -2.7579   -2.2088   -1.7145 O   0  0  0  0  0  0  0  0  0  0  0  0
    0.0444   -4.0024   -1.7313 C   0  0  0  0  0  0  0  0  0  0  0  0
    0.4142   -1.8141   -0.4957 H   0  0  0  0  0  0  0  0  0  0  0  0
    0.0863   -2.4005   -3.1782 H   0  0  0  0  0  0  0  0  0  0  0  0
   -0.4690   -4.2760   -0.8023 H   0  0  0  0  0  0  0  0  0  0  0  0
   -0.1429   -4.7987   -2.4593 H   0  0  0  0  0  0  0  0  0  0  0  0
    1.1193   -3.9775   -1.5221 H   0  0  0  0  0  0  0  0  0  0  0  0
   -2.2600   -3.3159   -3.6922 N   0  0  0  0  0  0  0  0  0  0  0  0
   -3.6208   -3.4753   -4.1490 C   0  0  0  0  0  0  0  0  0  0  0  0
   -1.5153   -3.6565   -4.2932 H   0  0  0  0  0  0  0  0  0  0  0  0
   -4.0146   -4.4412   -3.7998 H   0  0  0  0  0  0  0  0  0  0  0  0
   -4.2403   -2.6600   -3.7470 H   0  0  0  0  0  0  0  0  0  0  0  0
   -3.6443   -3.4458   -5.2484 H   0  0  0  0  0  0  0  0  0  0  0  0
 29 30  2  0  0  0  0
 27 29  1  0  0  0  0
 28 30  1  0  0  0  0
 24 27  2  0  0  0  0
 26 28  2  0  0  0  0
 22 23  2  0  0  0  0
 23 25  1  0  0  0  0
 22 24  1  0  0  0  0
 24 26  1  0  0  0  0
 21 22  1  0  0  0  0
 25 26  1  0  0  0  0
  1  3  1  0  0  0  0
  1  7  1  0  0  0  0
  1  2  2  0  0  0  0
 42 43  1  0  0  0  0
 43 51  1  0  0  0  0
 43 44  2  0  0  0  0
  8  9  1  0  0  0  0
  9 17  1  0  0  0  0
  9 10  2  0  0  0  0
 18 19  1  0  0  0  0
 19 41  1  0  0  0  0
 19 20  2  0  0  0  0
 42 45  1  0  0  0  0
  8 11  1  0  0  0  0
 51 52  1  0  0  0  0
 18 21  1  0  0  0  0
 41 42  1  0  0  0  0
  7  8  1  0  0  0  0
 17 18  1  0  0  0  0
 29 39  1  0  0  0  0
 30 40  1  0  0  0  0
 27 37  1  0  0  0  0
 28 38  1  0  0  0  0
 23 35  1  0  0  0  0
  3  4  1  0  0  0  0
  3  5  1  0  0  0  0
  3  6  1  0  0  0  0
 45 48  1  0  0  0  0
 45 49  1  0  0  0  0
 45 50  1  0  0  0  0
 11 14  1  0  0  0  0
 11 15  1  0  0  0  0
 11 16  1  0  0  0  0
 52 54  1  0  0  0  0
 52 55  1  0  0  0  0
 52 56  1  0  0  0  0
 21 33  1  0  0  0  0
 21 34  1  0  0  0  0
 42 47  1  0  0  0  0
  8 13  1  0  0  0  0
 18 32  1  0  0  0  0
 25 36  1  0  0  0  0
 51 53  1  0  0  0  0
  7 12  1  0  0  0  0
 41 46  1  0  0  0  0
 17 31  1  0  0  0  0
M  END
$$$$

  -OEChem-05262214473D

 56 57  0     1  0  0  0  0  0999 V2000
   -2.2900    0.3401    4.1553 C   0  0  0  0  0  0  0  0  0  0  0  0
   -1.3426   -0.2746    3.6796 O   0  0  0  0  0  0  0  0  0  0  0  0
   -2.7219    0.0577    5.5560 C   0  0  0  0  0  0  0  0  0  0  0  0
   -3.4815   -0.7386    5.6094 H   0  0  0  0  0  0  0  0  0  0  0  0
   -1.8906   -0.2899    6.1903 H   0  0  0  0  0  0  0  0  0  0  0  0
   -3.1599    0.9126    6.0956 H   0  0  0  0  0  0  0  0  0  0  0  0
   -3.0397    1.3125    3.5142 N   0  0  0  0  0  0  0  0  0  0  0  0
   -2.7928    1.7385    2.1618 C   0  0  2  0  0  0  0  0  0  0  0  0
   -1.4579    1.1532    1.7206 C   0  0  0  0  0  0  0  0  0  0  0  0
   -0.5858    0.8004    2.5118 O   0  0  0  0  0  0  0  0  0  0  0  0
   -2.7841    3.2553    2.0523 C   0  0  0  0  0  0  0  0  0  0  0  0
   -3.8047    1.7484    4.0260 H   0  0  0  0  0  0  0  0  0  0  0  0
   -3.5969    1.3201    1.5466 H   0  0  0  0  0  0  0  0  0  0  0  0
   -1.9850    3.6926    2.6620 H   0  0  0  0  0  0  0  0  0  0  0  0
   -2.6246    3.5776    1.0180 H   0  0  0  0  0  0  0  0  0  0  0  0
   -3.7342    3.6765    2.3981 H   0  0  0  0  0  0  0  0  0  0  0  0
   -1.3352    1.1101    0.3372 N   0  0  0  0  0  0  0  0  0  0  0  0
   -0.1579    0.6093   -0.3265 C   0  0  2  0  0  0  0  0  0  0  0  0
   -0.6291   -0.3013   -1.4547 C   0  0  0  0  0  0  0  0  0  0  0  0
   -1.0712    0.1260   -2.5191 O   0  0  0  0  0  0  0  0  0  0  0  0
    0.7628   -0.1587    0.6289 C   0  0  0  0  0  0  0  0  0  0  0  0
    1.3855    0.7289    1.6787 C   0  0  0  0  0  0  0  0  0  0  0  0
    0.9227    0.9007    2.9629 C   0  0  0  0  0  0  0  0  0  0  0  0
    2.5492    1.5336    1.5264 C   0  0  0  0  0  0  0  0  0  0  0  0
    1.7589    1.7791    3.5982 N   0  0  0  0  0  0  0  0  0  0  0  0
    2.7614    2.1819    2.7450 C   0  0  0  0  0  0  0  0  0  0  0  0
    3.4451    1.7734    0.4656 C   0  0  0  0  0  0  0  0  0  0  0  0
    3.8290    3.0616    2.9566 C   0  0  0  0  0  0  0  0  0  0  0  0
    4.5175    2.6509    0.6628 C   0  0  0  0  0  0  0  0  0  0  0  0
    4.7046    3.2839    1.8900 C   0  0  0  0  0  0  0  0  0  0  0  0
   -2.1183    1.4068   -0.2401 H   0  0  0  0  0  0  0  0  0  0  0  0
    0.3521    1.4793   -0.7567 H   0  0  0  0  0  0  0  0  0  0  0  0
    1.5523   -0.6734    0.0646 H   0  0  0  0  0  0  0  0  0  0  0  0
    0.2068   -0.9564    1.1389 H   0  0  0  0  0  0  0  0  0  0  0  0
    0.0730    0.4787    3.4818 H   0  0  0  0  0  0  0  0  0  0  0  0
    1.6560    2.0875    4.5551 H   0  0  0  0  0  0  0  0  0  0  0  0
    3.3123    1.2884   -0.4973 H   0  0  0  0  0  0  0  0  0  0  0  0
    3.9761    3.5540    3.9119 H   0  0  0  0  0  0  0  0  0  0  0  0
    5.2114    2.8401   -0.1518 H   0  0  0  0  0  0  0  0  0  0  0  0
    5.5444    3.9615    2.0212 H   0  0  0  0  0  0  0  0  0  0  0  0
   -0.4497   -1.6432   -1.1488 N   0  0  0  0  0  0  0  0  0  0  0  0
   -0.7922   -2.7163   -2.0543 C   0  0  2  0  0  0  0  0  0  0  0  0
   -2.2146   -2.4813   -2.5454 C   0  0  0  0  0  0  0  0  0  0  0  0
   -3.0315   -1.7973   -1.9323 O   0  0  0  0  0  0  0  0  0  0  0  0
   -0.6680   -4.0724   -1.3773 C   0  0  0  0  0  0  0  0  0  0  0  0
   -0.0580   -1.8831   -0.2428 H   0  0  0  0  0  0  0  0  0  0  0  0
   -0.0980   -2.6508   -2.8992 H   0  0  0  0  0  0  0  0  0  0  0  0
   -1.3560   -4.1566   -0.5282 H   0  0  0  0  0  0  0  0  0  0  0  0
   -0.9001   -4.8857   -2.0727 H   0  0  0  0  0  0  0  0  0  0  0  0
    0.3480   -4.2272   -0.9984 H   0  0  0  0  0  0  0  0  0  0  0  0
   -2.4777   -3.1604   -3.7268 N   0  0  0  0  0  0  0  0  0  0  0  0
   -3.7611   -3.1076   -4.3872 C   0  0  0  0  0  0  0  0  0  0  0  0
   -1.7351   -3.6887   -4.1755 H   0  0  0  0  0  0  0  0  0  0  0  0
   -4.3850   -3.9463   -4.0446 H   0  0  0  0  0  0  0  0  0  0  0  0
   -4.2591   -2.1573   -4.1449 H   0  0  0  0  0  0  0  0  0  0  0  0
   -3.6166   -3.1789   -5.4753 H   0  0  0  0  0  0  0  0  0  0  0  0
 29 30  2  0  0  0  0
 27 29  1  0  0  0  0
 28 30  1  0  0  0  0
 24 27  2  0  0  0  0
 26 28  2  0  0  0  0
 22 23  2  0  0  0  0
 23 25  1  0  0  0  0
 22 24  1  0  0  0  0
 24 26  1  0  0  0  0
 21 22  1  0  0  0  0
 25 26  1  0  0  0  0
  1  3  1  0  0  0  0
  1  7  1  0  0  0  0
  1  2  2  0  0  0  0
 42 43  1  0  0  0  0
 43 51  1  0  0  0  0
 43 44  2  0  0  0  0
  8  9  1  0  0  0  0
  9 17  1  0  0  0  0
  9 10  2  0  0  0  0
 18 19  1  0  0  0  0
 19 41  1  0  0  0  0
 19 20  2  0  0  0  0
 42 45  1  0  0  0  0
  8 11  1  0  0  0  0
 51 52  1  0  0  0  0
 18 21  1  0  0  0  0
 41 42  1  0  0  0  0
  7  8  1  0  0  0  0
 17 18  1  0  0  0  0
 29 39  1  0  0  0  0
 30 40  1  0  0  0  0
 27 37  1  0  0  0  0
 28 38  1  0  0  0  0
 23 35  1  0  0  0  0
  3  4  1  0  0  0  0
  3  5  1  0  0  0  0
  3  6  1  0  0  0  0
 45 48  1  0  0  0  0
 45 49  1  0  0  0  0
 45 50  1  0  0  0  0
 11 14  1  0  0  0  0
 11 15  1  0  0  0  0
 11 16  1  0  0  0  0
 52 54  1  0  0  0  0
 52 55  1  0  0  0  0
 52 56  1  0  0  0  0
 21 33  1  0  0  0  0
 21 34  1  0  0  0  0
 42 47  1  0  0  0  0
  8 13  1  0  0  0  0
 18 32  1  0  0  0  0
 25 36  1  0  0  0  0
 51 53  1  0  0  0  0
  7 12  1  0  0  0  0
 41 46  1  0  0  0  0
 17 31  1  0  0  0  0
M  END
$$$$

  -OEChem-05262214473D

 56 57  0     1  0  0  0  0  0999 V2000
   -2.2900    0.3401    4.1553 C   0  0  0  0  0  0  0  0  0  0  0  0
   -1.3426   -0.2746    3.6796 O   0  0  0  0  0  0  0  0  0  0  0  0
   -2.7219    0.0577    5.5560 C   0  0  0  0  0  0  0  0  0  0  0  0
   -3.4815   -0.7386    5.6094 H   0  0  0  0  0  0  0  0  0  0  0  0
   -1.8906   -0.2899    6.1903 H   0  0  0  0  0  0  0  0  0  0  0  0
   -3.1599    0.9126    6.0956 H   0  0  0  0  0  0  0  0  0  0  0  0
   -3.0397    1.3125    3.5142 N   0  0  0  0  0  0  0  0  0  0  0  0
   -2.7928    1.7385    2.1618 C   0  0  2  0  0  0  0  0  0  0  0  0
   -1.4579    1.1532    1.7206 C   0  0  0  0  0  0  0  0  0  0  0  0
   -0.5858    0.8004    2.5118 O   0  0  0  0  0  0  0  0  0  0  0  0
   -2.7841    3.2553    2.0523 C   0  0  0  0  0  0  0  0  0  0  0  0
   -3.8047    1.7484    4.0260 H   0  0  0  0  0  0  0  0  0  0  0  0
   -3.5969    1.3201    1.5466 H   0  0  0  0  0  0  0  0  0  0  0  0
   -1.9850    3.6926    2.6620 H   0  0  0  0  0  0  0  0  0  0  0  0
   -2.6246    3.5776    1.0180 H   0  0  0  0  0  0  0  0  0  0  0  0
   -3.7342    3.6765    2.3981 H   0  0  0  0  0  0  0  0  0  0  0  0
   -1.3352    1.1101    0.3372 N   0  0  0  0  0  0  0  0  0  0  0  0
   -0.1579    0.6093   -0.3265 C   0  0  2  0  0  0  0  0  0  0  0  0
   -0.6291   -0.3013   -1.4547 C   0  0  0  0  0  0  0  0  0  0  0  0
   -0.8168    0.0974   -2.6022 O   0  0  0  0  0  0  0  0  0  0  0  0
    0.7628   -0.1587    0.6289 C   0  0  0  0  0  0  0  0  0  0  0  0
    1.3855    0.7289    1.6787 C   0  0  0  0  0  0  0  0  0  0  0  0
    0.9227    0.9007    2.9629 C   0  0  0  0  0  0  0  0  0  0  0  0
    2.5492    1.5336    1.5264 C   0  0  0  0  0  0  0  0  0  0  0  0
    1.7589    1.7791    3.5982 N   0  0  0  0  0  0  0  0  0  0  0  0
    2.7614    2.1819    2.7450 C   0  0  0  0  0  0  0  0  0  0  0  0
    3.4451    1.7734    0.4656 C   0  0  0  0  0  0  0  0  0  0  0  0
    3.8290    3.0616    2.9566 C   0  0  0  0  0  0  0  0  0  0  0  0
    4.5175    2.6509    0.6628 C   0  0  0  0  0  0  0  0  0  0  0  0
    4.7046    3.2839    1.8900 C   0  0  0  0  0  0  0  0  0  0  0  0
   -2.1183    1.4068   -0.2401 H   0  0  0  0  0  0  0  0  0  0  0  0
    0.3521    1.4793   -0.7567 H   0  0  0  0  0  0  0  0  0  0  0  0
    1.5523   -0.6734    0.0646 H   0  0  0  0  0  0  0  0  0  0  0  0
    0.2068   -0.9564    1.1389 H   0  0  0  0  0  0  0  0  0  0  0  0
    0.0730    0.4787    3.4818 H   0  0  0  0  0  0  0  0  0  0  0  0
    1.6560    2.0875    4.5551 H   0  0  0  0  0  0  0  0  0  0  0  0
    3.3123    1.2884   -0.4973 H   0  0  0  0  0  0  0  0  0  0  0  0
    3.9761    3.5540    3.9119 H   0  0  0  0  0  0  0  0  0  0  0  0
    5.2114    2.8401   -0.1518 H   0  0  0  0  0  0  0  0  0  0  0  0
    5.5444    3.9615    2.0212 H   0  0  0  0  0  0  0  0  0  0  0  0
   -0.7656   -1.6179   -1.0372 N   0  0  0  0  0  0  0  0  0  0  0  0
   -1.1770   -2.6901   -1.9147 C   0  0  2  0  0  0  0  0  0  0  0  0
   -2.4369   -2.2435   -2.6444 C   0  0  0  0  0  0  0  0  0  0  0  0
   -3.1833   -1.3649   -2.2179 O   0  0  0  0  0  0  0  0  0  0  0  0
   -1.4242   -3.9752   -1.1399 C   0  0  0  0  0  0  0  0  0  0  0  0
   -0.5664   -1.8390   -0.0660 H   0  0  0  0  0  0  0  0  0  0  0  0
   -0.3672   -2.8350   -2.6381 H   0  0  0  0  0  0  0  0  0  0  0  0
   -2.2323   -3.8493   -0.4102 H   0  0  0  0  0  0  0  0  0  0  0  0
   -1.7080   -4.7938   -1.8095 H   0  0  0  0  0  0  0  0  0  0  0  0
   -0.5258   -4.2788   -0.5918 H   0  0  0  0  0  0  0  0  0  0  0  0
   -2.6528   -2.9713   -3.8063 N   0  0  0  0  0  0  0  0  0  0  0  0
   -3.7893   -2.7447   -4.6683 C   0  0  0  0  0  0  0  0  0  0  0  0
   -1.9718   -3.6682   -4.0932 H   0  0  0  0  0  0  0  0  0  0  0  0
   -4.6102   -3.4168   -4.3779 H   0  0  0  0  0  0  0  0  0  0  0  0
   -4.1196   -1.6999   -4.5724 H   0  0  0  0  0  0  0  0  0  0  0  0
   -3.5036   -2.9446   -5.7116 H   0  0  0  0  0  0  0  0  0  0  0  0
 29 30  2  0  0  0  0
 27 29  1  0  0  0  0
 28 30  1  0  0  0  0
 24 27  2  0  0  0  0
 26 28  2  0  0  0  0
 22 23  2  0  0  0  0
 23 25  1  0  0  0  0
 22 24  1  0  0  0  0
 24 26  1  0  0  0  0
 21 22  1  0  0  0  0
 25 26  1  0  0  0  0
  1  3  1  0  0  0  0
  1  7  1  0  0  0  0
  1  2  2  0  0  0  0
 42 43  1  0  0  0  0
 43 51  1  0  0  0  0
 43 44  2  0  0  0  0
  8  9  1  0  0  0  0
  9 17  1  0  0  0  0
  9 10  2  0  0  0  0
 18 19  1  0  0  0  0
 19 41  1  0  0  0  0
 19 20  2  0  0  0  0
 42 45  1  0  0  0  0
  8 11  1  0  0  0  0
 51 52  1  0  0  0  0
 18 21  1  0  0  0  0
 41 42  1  0  0  0  0
  7  8  1  0  0  0  0
 17 18  1  0  0  0  0
 29 39  1  0  0  0  0
 30 40  1  0  0  0  0
 27 37  1  0  0  0  0
 28 38  1  0  0  0  0
 23 35  1  0  0  0  0
  3  4  1  0  0  0  0
  3  5  1  0  0  0  0
  3  6  1  0  0  0  0
 45 48  1  0  0  0  0
 45 49  1  0  0  0  0
 45 50  1  0  0  0  0
 11 14  1  0  0  0  0
 11 15  1  0  0  0  0
 11 16  1  0  0  0  0
 52 54  1  0  0  0  0
 52 55  1  0  0  0  0
 52 56  1  0  0  0  0
 21 33  1  0  0  0  0
 21 34  1  0  0  0  0
 42 47  1  0  0  0  0
  8 13  1  0  0  0  0
 18 32  1  0  0  0  0
 25 36  1  0  0  0  0
 51 53  1  0  0  0  0
  7 12  1  0  0  0  0
 41 46  1  0  0  0  0
 17 31  1  0  0  0  0
M  END
$$$$

  -OEChem-05262214473D

 56 57  0     1  0  0  0  0  0999 V2000
   -2.2900    0.3401    4.1553 C   0  0  0  0  0  0  0  0  0  0  0  0
   -1.3426   -0.2746    3.6796 O   0  0  0  0  0  0  0  0  0  0  0  0
   -2.7219    0.0577    5.5560 C   0  0  0  0  0  0  0  0  0  0  0  0
   -3.4815   -0.7386    5.6094 H   0  0  0  0  0  0  0  0  0  0  0  0
   -1.8906   -0.2899    6.1903 H   0  0  0  0  0  0  0  0  0  0  0  0
   -3.1599    0.9126    6.0956 H   0  0  0  0  0  0  0  0  0  0  0  0
   -3.0397    1.3125    3.5142 N   0  0  0  0  0  0  0  0  0  0  0  0
   -2.7928    1.7385    2.1618 C   0  0  2  0  0  0  0  0  0  0  0  0
   -1.4579    1.1532    1.7206 C   0  0  0  0  0  0  0  0  0  0  0  0
   -0.5858    0.8004    2.5118 O   0  0  0  0  0  0  0  0  0  0  0  0
   -2.7841    3.2553    2.0523 C   0  0  0  0  0  0  0  0  0  0  0  0
   -3.8047    1.7484    4.0260 H   0  0  0  0  0  0  0  0  0  0  0  0
   -3.5969    1.3201    1.5466 H   0  0  0  0  0  0  0  0  0  0  0  0
   -1.9850    3.6926    2.6620 H   0  0  0  0  0  0  0  0  0  0  0  0
   -2.6246    3.5776    1.0180 H   0  0  0  0  0  0  0  0  0  0  0  0
   -3.7342    3.6765    2.3981 H   0  0  0  0  0  0  0  0  0  0  0  0
   -1.3352    1.1101    0.3372 N   0  0  0  0  0  0  0  0  0  0  0  0
   -0.1579    0.6093   -0.3265 C   0  0  2  0  0  0  0  0  0  0  0  0
   -0.6291   -0.3013   -1.4547 C   0  0  0  0  0  0  0  0  0  0  0  0
   -0.5637    0.0143   -2.6409 O   0  0  0  0  0  0  0  0  0  0  0  0
    0.7628   -0.1587    0.6289 C   0  0  0  0  0  0  0  0  0  0  0  0
    1.3855    0.7289    1.6787 C   0  0  0  0  0  0  0  0  0  0  0  0
    0.9227    0.9007    2.9629 C   0  0  0  0  0  0  0  0  0  0  0  0
    2.5492    1.5336    1.5264 C   0  0  0  0  0  0  0  0  0  0  0  0
    1.7589    1.7791    3.5982 N   0  0  0  0  0  0  0  0  0  0  0  0
    2.7614    2.1819    2.7450 C   0  0  0  0  0  0  0  0  0  0  0  0
    3.4451    1.7734    0.4656 C   0  0  0  0  0  0  0  0  0  0  0  0
    3.8290    3.0616    2.9566 C   0  0  0  0  0  0  0  0  0  0  0  0
    4.5175    2.6509    0.6628 C   0  0  0  0  0  0  0  0  0  0  0  0
    4.7046    3.2839    1.8900 C   0  0  0  0  0  0  0  0  0  0  0  0
   -2.1183    1.4068   -0.2401 H   0  0  0  0  0  0  0  0  0  0  0  0
    0.3521    1.4793   -0.7567 H   0  0  0  0  0  0  0  0  0  0  0  0
    1.5523   -0.6734    0.0646 H   0  0  0  0  0  0  0  0  0  0  0  0
    0.2068   -0.9564    1.1389 H   0  0  0  0  0  0  0  0  0  0  0  0
    0.0730    0.4787    3.4818 H   0  0  0  0  0  0  0  0  0  0  0  0
    1.6560    2.0875    4.5551 H   0  0  0  0  0  0  0  0  0  0  0  0
    3.3123    1.2884   -0.4973 H   0  0  0  0  0  0  0  0  0  0  0  0
    3.9761    3.5540    3.9119 H   0  0  0  0  0  0  0  0  0  0  0  0
    5.2114    2.8401   -0.1518 H   0  0  0  0  0  0  0  0  0  0  0  0
    5.5444    3.9615    2.0212 H   0  0  0  0  0  0  0  0  0  0  0  0
   -1.0832   -1.5241   -0.9803 N   0  0  0  0  0  0  0  0  0  0  0  0
   -1.5652   -2.5800   -1.8414 C   0  0  2  0  0  0  0  0  0  0  0  0
   -2.5908   -1.9791   -2.7935 C   0  0  0  0  0  0  0  0  0  0  0  0
   -3.2030   -0.9409   -2.5518 O   0  0  0  0  0  0  0  0  0  0  0  0
   -2.1727   -3.7174   -1.0353 C   0  0  0  0  0  0  0  0  0  0  0  0
   -1.0764   -1.6849    0.0226 H   0  0  0  0  0  0  0  0  0  0  0  0
   -0.7028   -2.9405   -2.4128 H   0  0  0  0  0  0  0  0  0  0  0  0
   -3.0382   -3.3753   -0.4562 H   0  0  0  0  0  0  0  0  0  0  0  0
   -2.5115   -4.5292   -1.6875 H   0  0  0  0  0  0  0  0  0  0  0  0
   -1.4425   -4.1287   -0.3301 H   0  0  0  0  0  0  0  0  0  0  0  0
   -2.7735   -2.7614   -3.9253 N   0  0  0  0  0  0  0  0  0  0  0  0
   -3.7035   -2.4112   -4.9733 C   0  0  0  0  0  0  0  0  0  0  0  0
   -2.2092   -3.5965   -4.0519 H   0  0  0  0  0  0  0  0  0  0  0  0
   -4.6748   -2.8889   -4.7770 H   0  0  0  0  0  0  0  0  0  0  0  0
   -3.8310   -1.3190   -5.0003 H   0  0  0  0  0  0  0  0  0  0  0  0
   -3.3131   -2.7589   -5.9411 H   0  0  0  0  0  0  0  0  0  0  0  0
 29 30  2  0  0  0  0
 27 29  1  0  0  0  0
 28 30  1  0  0  0  0
 24 27  2  0  0  0  0
 26 28  2  0  0  0  0
 22 23  2  0  0  0  0
 23 25  1  0  0  0  0
 22 24  1  0  0  0  0
 24 26  1  0  0  0  0
 21 22  1  0  0  0  0
 25 26  1  0  0  0  0
  1  3  1  0  0  0  0
  1  7  1  0  0  0  0
  1  2  2  0  0  0  0
 42 43  1  0  0  0  0
 43 51  1  0  0  0  0
 43 44  2  0  0  0  0
  8  9  1  0  0  0  0
  9 17  1  0  0  0  0
  9 10  2  0  0  0  0
 18 19  1  0  0  0  0
 19 41  1  0  0  0  0
 19 20  2  0  0  0  0
 42 45  1  0  0  0  0
  8 11  1  0  0  0  0
 51 52  1  0  0  0  0
 18 21  1  0  0  0  0
 41 42  1  0  0  0  0
  7  8  1  0  0  0  0
 17 18  1  0  0  0  0
 29 39  1  0  0  0  0
 30 40  1  0  0  0  0
 27 37  1  0  0  0  0
 28 38  1  0  0  0  0
 23 35  1  0  0  0  0
  3  4  1  0  0  0  0
  3  5  1  0  0  0  0
  3  6  1  0  0  0  0
 45 48  1  0  0  0  0
 45 49  1  0  0  0  0
 45 50  1  0  0  0  0
 11 14  1  0  0  0  0
 11 15  1  0  0  0  0
 11 16  1  0  0  0  0
 52 54  1  0  0  0  0
 52 55  1  0  0  0  0
 52 56  1  0  0  0  0
 21 33  1  0  0  0  0
 21 34  1  0  0  0  0
 42 47  1  0  0  0  0
  8 13  1  0  0  0  0
 18 32  1  0  0  0  0
 25 36  1  0  0  0  0
 51 53  1  0  0  0  0
  7 12  1  0  0  0  0
 41 46  1  0  0  0  0
 17 31  1  0  0  0  0
M  END
$$$$

  -OEChem-05262214473D

 56 57  0     1  0  0  0  0  0999 V2000
   -2.2900    0.3401    4.1553 C   0  0  0  0  0  0  0  0  0  0  0  0
   -1.3426   -0.2746    3.6796 O   0  0  0  0  0  0  0  0  0  0  0  0
   -2.7219    0.0577    5.5560 C   0  0  0  0  0  0  0  0  0  0  0  0
   -3.4815   -0.7386    5.6094 H   0  0  0  0  0  0  0  0  0  0  0  0
   -1.8906   -0.2899    6.1903 H   0  0  0  0  0  0  0  0  0  0  0  0
   -3.1599    0.9126    6.0956 H   0  0  0  0  0  0  0  0  0  0  0  0
   -3.0397    1.3125    3.5142 N   0  0  0  0  0  0  0  0  0  0  0  0
   -2.7928    1.7385    2.1618 C   0  0  2  0  0  0  0  0  0  0  0  0
   -1.4579    1.1532    1.7206 C   0  0  0  0  0  0  0  0  0  0  0  0
   -0.5858    0.8004    2.5118 O   0  0  0  0  0  0  0  0  0  0  0  0
   -2.7841    3.2553    2.0523 C   0  0  0  0  0  0  0  0  0  0  0  0
   -3.8047    1.7484    4.0260 H   0  0  0  0  0  0  0  0  0  0  0  0
   -3.5969    1.3201    1.5466 H   0  0  0  0  0  0  0  0  0  0  0  0
   -1.9850    3.6926    2.6620 H   0  0  0  0  0  0  0  0  0  0  0  0
   -2.6246    3.5776    1.0180 H   0  0  0  0  0  0  0  0  0  0  0  0
   -3.7342    3.6765    2.3981 H   0  0  0  0  0  0  0  0  0  0  0  0
   -1.3352    1.1101    0.3372 N   0  0  0  0  0  0  0  0  0  0  0  0
   -0.1579    0.6093   -0.3265 C   0  0  2  0  0  0  0  0  0  0  0  0
   -0.6291   -0.3013   -1.4547 C   0  0  0  0  0  0  0  0  0  0  0  0
   -0.3292   -0.1175   -2.6325 O   0  0  0  0  0  0  0  0  0  0  0  0
    0.7628   -0.1587    0.6289 C   0  0  0  0  0  0  0  0  0  0  0  0
    1.3855    0.7289    1.6787 C   0  0  0  0  0  0  0  0  0  0  0  0
    0.9227    0.9007    2.9629 C   0  0  0  0  0  0  0  0  0  0  0  0
    2.5492    1.5336    1.5264 C   0  0  0  0  0  0  0  0  0  0  0  0
    1.7589    1.7791    3.5982 N   0  0  0  0  0  0  0  0  0  0  0  0
    2.7614    2.1819    2.7450 C   0  0  0  0  0  0  0  0  0  0  0  0
    3.4451    1.7734    0.4656 C   0  0  0  0  0  0  0  0  0  0  0  0
    3.8290    3.0616    2.9566 C   0  0  0  0  0  0  0  0  0  0  0  0
    4.5175    2.6509    0.6628 C   0  0  0  0  0  0  0  0  0  0  0  0
    4.7046    3.2839    1.8900 C   0  0  0  0  0  0  0  0  0  0  0  0
   -2.1183    1.4068   -0.2401 H   0  0  0  0  0  0  0  0  0  0  0  0
    0.3521    1.4793   -0.7567 H   0  0  0  0  0  0  0  0  0  0  0  0
    1.5523   -0.6734    0.0646 H   0  0  0  0  0  0  0  0  0  0  0  0
    0.2068   -0.9564    1.1389 H   0  0  0  0  0  0  0  0  0  0  0  0
    0.0730    0.4787    3.4818 H   0  0  0  0  0  0  0  0  0  0  0  0
    1.6560    2.0875    4.5551 H   0  0  0  0  0  0  0  0  0  0  0  0
    3.3123    1.2884   -0.4973 H   0  0  0  0  0  0  0  0  0  0  0  0
    3.9761    3.5540    3.9119 H   0  0  0  0  0  0  0  0  0  0  0  0
    5.2114    2.8401   -0.1518 H   0  0  0  0  0  0  0  0  0  0  0  0
    5.5444    3.9615    2.0212 H   0  0  0  0  0  0  0  0  0  0  0  0
   -1.3808   -1.3680   -0.9819 N   0  0  0  0  0  0  0  0  0  0  0  0
   -1.9304   -2.3934   -1.8395 C   0  0  2  0  0  0  0  0  0  0  0  0
   -2.6657   -1.7062   -2.9825 C   0  0  0  0  0  0  0  0  0  0  0  0
   -3.0892   -0.5544   -2.9113 O   0  0  0  0  0  0  0  0  0  0  0  0
   -2.8626   -3.3167   -1.0706 C   0  0  0  0  0  0  0  0  0  0  0  0
   -1.5533   -1.4313    0.0171 H   0  0  0  0  0  0  0  0  0  0  0  0
   -1.0821   -2.9601   -2.2386 H   0  0  0  0  0  0  0  0  0  0  0  0
   -3.7187   -2.7667   -0.6631 H   0  0  0  0  0  0  0  0  0  0  0  0
   -3.2557   -4.1099   -1.7150 H   0  0  0  0  0  0  0  0  0  0  0  0
   -2.3397   -3.7872   -0.2309 H   0  0  0  0  0  0  0  0  0  0  0  0
   -2.8314   -2.5451   -4.0756 N   0  0  0  0  0  0  0  0  0  0  0  0
   -3.5097   -2.1299   -5.2813 C   0  0  0  0  0  0  0  0  0  0  0  0
   -2.4312   -3.4784   -4.0544 H   0  0  0  0  0  0  0  0  0  0  0  0
   -4.5743   -2.3985   -5.2147 H   0  0  0  0  0  0  0  0  0  0  0  0
   -3.4132   -1.0406   -5.3995 H   0  0  0  0  0  0  0  0  0  0  0  0
   -3.0580   -2.6343   -6.1482 H   0  0  0  0  0  0  0  0  0  0  0  0
 29 30  2  0  0  0  0
 27 29  1  0  0  0  0
 28 30  1  0  0  0  0
 24 27  2  0  0  0  0
 26 28  2  0  0  0  0
 22 23  2  0  0  0  0
 23 25  1  0  0  0  0
 22 24  1  0  0  0  0
 24 26  1  0  0  0  0
 21 22  1  0  0  0  0
 25 26  1  0  0  0  0
  1  3  1  0  0  0  0
  1  7  1  0  0  0  0
  1  2  2  0  0  0  0
 42 43  1  0  0  0  0
 43 51  1  0  0  0  0
 43 44  2  0  0  0  0
  8  9  1  0  0  0  0
  9 17  1  0  0  0  0
  9 10  2  0  0  0  0
 18 19  1  0  0  0  0
 19 41  1  0  0  0  0
 19 20  2  0  0  0  0
 42 45  1  0  0  0  0
  8 11  1  0  0  0  0
 51 52  1  0  0  0  0
 18 21  1  0  0  0  0
 41 42  1  0  0  0  0
  7  8  1  0  0  0  0
 17 18  1  0  0  0  0
 29 39  1  0  0  0  0
 30 40  1  0  0  0  0
 27 37  1  0  0  0  0
 28 38  1  0  0  0  0
 23 35  1  0  0  0  0
  3  4  1  0  0  0  0
  3  5  1  0  0  0  0
  3  6  1  0  0  0  0
 45 48  1  0  0  0  0
 45 49  1  0  0  0  0
 45 50  1  0  0  0  0
 11 14  1  0  0  0  0
 11 15  1  0  0  0  0
 11 16  1  0  0  0  0
 52 54  1  0  0  0  0
 52 55  1  0  0  0  0
 52 56  1  0  0  0  0
 21 33  1  0  0  0  0
 21 34  1  0  0  0  0
 42 47  1  0  0  0  0
  8 13  1  0  0  0  0
 18 32  1  0  0  0  0
 25 36  1  0  0  0  0
 51 53  1  0  0  0  0
  7 12  1  0  0  0  0
 41 46  1  0  0  0  0
 17 31  1  0  0  0  0
M  END
$$$$

  -OEChem-05262214473D

 56 57  0     1  0  0  0  0  0999 V2000
   -2.2900    0.3401    4.1553 C   0  0  0  0  0  0  0  0  0  0  0  0
   -1.3426   -0.2746    3.6796 O   0  0  0  0  0  0  0  0  0  0  0  0
   -2.7219    0.0577    5.5560 C   0  0  0  0  0  0  0  0  0  0  0  0
   -3.4815   -0.7386    5.6094 H   0  0  0  0  0  0  0  0  0  0  0  0
   -1.8906   -0.2899    6.1903 H   0  0  0  0  0  0  0  0  0  0  0  0
   -3.1599    0.9126    6.0956 H   0  0  0  0  0  0  0  0  0  0  0  0
   -3.0397    1.3125    3.5142 N   0  0  0  0  0  0  0  0  0  0  0  0
   -2.7928    1.7385    2.1618 C   0  0  2  0  0  0  0  0  0  0  0  0
   -1.4579    1.1532    1.7206 C   0  0  0  0  0  0  0  0  0  0  0  0
   -0.5858    0.8004    2.5118 O   0  0  0  0  0  0  0  0  0  0  0  0
   -2.7841    3.2553    2.0523 C   0  0  0  0  0  0  0  0  0  0  0  0
   -3.8047    1.7484    4.0260 H   0  0  0  0  0  0  0  0  0  0  0  0
   -3.5969    1.3201    1.5466 H   0  0  0  0  0  0  0  0  0  0  0  0
   -1.9850    3.6926    2.6620 H   0  0  0  0  0  0  0  0  0  0  0  0
   -2.6246    3.5776    1.0180 H   0  0  0  0  0  0  0  0  0  0  0  0
   -3.7342    3.6765    2.3981 H   0  0  0  0  0  0  0  0  0  0  0  0
   -1.3352    1.1101    0.3372 N   0  0  0  0  0  0  0  0  0  0  0  0
   -0.1579    0.6093   -0.3265 C   0  0  2  0  0  0  0  0  0  0  0  0
   -0.6291   -0.3013   -1.4547 C   0  0  0  0  0  0  0  0  0  0  0  0
   -0.1292   -0.2890   -2.5776 O   0  0  0  0  0  0  0  0  0  0  0  0
    0.7628   -0.1587    0.6289 C   0  0  0  0  0  0  0  0  0  0  0  0
    1.3855    0.7289    1.6787 C   0  0  0  0  0  0  0  0  0  0  0  0
    0.9227    0.9007    2.9629 C   0  0  0  0  0  0  0  0  0  0  0  0
    2.5492    1.5336    1.5264 C   0  0  0  0  0  0  0  0  0  0  0  0
    1.7589    1.7791    3.5982 N   0  0  0  0  0  0  0  0  0  0  0  0
    2.7614    2.1819    2.7450 C   0  0  0  0  0  0  0  0  0  0  0  0
    3.4451    1.7734    0.4656 C   0  0  0  0  0  0  0  0  0  0  0  0
    3.8290    3.0616    2.9566 C   0  0  0  0  0  0  0  0  0  0  0  0
    4.5175    2.6509    0.6628 C   0  0  0  0  0  0  0  0  0  0  0  0
    4.7046    3.2839    1.8900 C   0  0  0  0  0  0  0  0  0  0  0  0
   -2.1183    1.4068   -0.2401 H   0  0  0  0  0  0  0  0  0  0  0  0
    0.3521    1.4793   -0.7567 H   0  0  0  0  0  0  0  0  0  0  0  0
    1.5523   -0.6734    0.0646 H   0  0  0  0  0  0  0  0  0  0  0  0
    0.2068   -0.9564    1.1389 H   0  0  0  0  0  0  0  0  0  0  0  0
    0.0730    0.4787    3.4818 H   0  0  0  0  0  0  0  0  0  0  0  0
    1.6560    2.0875    4.5551 H   0  0  0  0  0  0  0  0  0  0  0  0
    3.3123    1.2884   -0.4973 H   0  0  0  0  0  0  0  0  0  0  0  0
    3.9761    3.5540    3.9119 H   0  0  0  0  0  0  0  0  0  0  0  0
    5.2114    2.8401   -0.1518 H   0  0  0  0  0  0  0  0  0  0  0  0
    5.5444    3.9615    2.0212 H   0  0  0  0  0  0  0  0  0  0  0  0
   -1.6380   -1.1605   -1.0420 N   0  0  0  0  0  0  0  0  0  0  0  0
   -2.2477   -2.1431   -1.9090 C   0  0  2  0  0  0  0  0  0  0  0  0
   -2.6566   -1.4434   -3.1984 C   0  0  0  0  0  0  0  0  0  0  0  0
   -2.8496   -0.2316   -3.2719 O   0  0  0  0  0  0  0  0  0  0  0  0
   -3.4467   -2.8003   -1.2433 C   0  0  0  0  0  0  0  0  0  0  0  0
   -1.9644   -1.0954   -0.0823 H   0  0  0  0  0  0  0  0  0  0  0  0
   -1.4790   -2.8924   -2.1274 H   0  0  0  0  0  0  0  0  0  0  0  0
   -4.2274   -2.0650   -1.0169 H   0  0  0  0  0  0  0  0  0  0  0  0
   -3.8901   -3.5646   -1.8902 H   0  0  0  0  0  0  0  0  0  0  0  0
   -3.1563   -3.2776   -0.3012 H   0  0  0  0  0  0  0  0  0  0  0  0
   -2.8227   -2.3371   -4.2471 N   0  0  0  0  0  0  0  0  0  0  0  0
   -3.2210   -1.9200   -5.5713 C   0  0  0  0  0  0  0  0  0  0  0  0
   -2.6226   -3.3221   -4.1007 H   0  0  0  0  0  0  0  0  0  0  0  0
   -4.3157   -1.9791   -5.6611 H   0  0  0  0  0  0  0  0  0  0  0  0
   -2.8946   -0.8836   -5.7428 H   0  0  0  0  0  0  0  0  0  0  0  0
   -2.7557   -2.5794   -6.3187 H   0  0  0  0  0  0  0  0  0  0  0  0
 29 30  2  0  0  0  0
 27 29  1  0  0  0  0
 28 30  1  0  0  0  0
 24 27  2  0  0  0  0
 26 28  2  0  0  0  0
 22 23  2  0  0  0  0
 23 25  1  0  0  0  0
 22 24  1  0  0  0  0
 24 26  1  0  0  0  0
 21 22  1  0  0  0  0
 25 26  1  0  0  0  0
  1  3  1  0  0  0  0
  1  7  1  0  0  0  0
  1  2  2  0  0  0  0
 42 43  1  0  0  0  0
 43 51  1  0  0  0  0
 43 44  2  0  0  0  0
  8  9  1  0  0  0  0
  9 17  1  0  0  0  0
  9 10  2  0  0  0  0
 18 19  1  0  0  0  0
 19 41  1  0  0  0  0
 19 20  2  0  0  0  0
 42 45  1  0  0  0  0
  8 11  1  0  0  0  0
 51 52  1  0  0  0  0
 18 21  1  0  0  0  0
 41 42  1  0  0  0  0
  7  8  1  0  0  0  0
 17 18  1  0  0  0  0
 29 39  1  0  0  0  0
 30 40  1  0  0  0  0
 27 37  1  0  0  0  0
 28 38  1  0  0  0  0
 23 35  1  0  0  0  0
  3  4  1  0  0  0  0
  3  5  1  0  0  0  0
  3  6  1  0  0  0  0
 45 48  1  0  0  0  0
 45 49  1  0  0  0  0
 45 50  1  0  0  0  0
 11 14  1  0  0  0  0
 11 15  1  0  0  0  0
 11 16  1  0  0  0  0
 52 54  1  0  0  0  0
 52 55  1  0  0  0  0
 52 56  1  0  0  0  0
 21 33  1  0  0  0  0
 21 34  1  0  0  0  0
 42 47  1  0  0  0  0
  8 13  1  0  0  0  0
 18 32  1  0  0  0  0
 25 36  1  0  0  0  0
 51 53  1  0  0  0  0
  7 12  1  0  0  0  0
 41 46  1  0  0  0  0
 17 31  1  0  0  0  0
M  END
$$$$

  -OEChem-05262214473D

 56 57  0     1  0  0  0  0  0999 V2000
   -2.2900    0.3401    4.1553 C   0  0  0  0  0  0  0  0  0  0  0  0
   -1.3426   -0.2746    3.6796 O   0  0  0  0  0  0  0  0  0  0  0  0
   -2.7219    0.0577    5.5560 C   0  0  0  0  0  0  0  0  0  0  0  0
   -3.4815   -0.7386    5.6094 H   0  0  0  0  0  0  0  0  0  0  0  0
   -1.8906   -0.2899    6.1903 H   0  0  0  0  0  0  0  0  0  0  0  0
   -3.1599    0.9126    6.0956 H   0  0  0  0  0  0  0  0  0  0  0  0
   -3.0397    1.3125    3.5142 N   0  0  0  0  0  0  0  0  0  0  0  0
   -2.7928    1.7385    2.1618 C   0  0  2  0  0  0  0  0  0  0  0  0
   -1.4579    1.1532    1.7206 C   0  0  0  0  0  0  0  0  0  0  0  0
   -0.5858    0.8004    2.5118 O   0  0  0  0  0  0  0  0  0  0  0  0
   -2.7841    3.2553    2.0523 C   0  0  0  0  0  0  0  0  0  0  0  0
   -3.8047    1.7484    4.0260 H   0  0  0  0  0  0  0  0  0  0  0  0
   -3.5969    1.3201    1.5466 H   0  0  0  0  0  0  0  0  0  0  0  0
   -1.9850    3.6926    2.6620 H   0  0  0  0  0  0  0  0  0  0  0  0
   -2.6246    3.5776    1.0180 H   0  0  0  0  0  0  0  0  0  0  0  0
   -3.7342    3.6765    2.3981 H   0  0  0  0  0  0  0  0  0  0  0  0
   -1.3352    1.1101    0.3372 N   0  0  0  0  0  0  0  0  0  0  0  0
   -0.1579    0.6093   -0.3265 C   0  0  2  0  0  0  0  0  0  0  0  0
   -0.6291   -0.3013   -1.4547 C   0  0  0  0  0  0  0  0  0  0  0  0
    0.0227   -0.4887   -2.4799 O   0  0  0  0  0  0  0  0  0  0  0  0
    0.7628   -0.1587    0.6289 C   0  0  0  0  0  0  0  0  0  0  0  0
    1.3855    0.7289    1.6787 C   0  0  0  0  0  0  0  0  0  0  0  0
    0.9227    0.9007    2.9629 C   0  0  0  0  0  0  0  0  0  0  0  0
    2.5492    1.5336    1.5264 C   0  0  0  0  0  0  0  0  0  0  0  0
    1.7589    1.7791    3.5982 N   0  0  0  0  0  0  0  0  0  0  0  0
    2.7614    2.1819    2.7450 C   0  0  0  0  0  0  0  0  0  0  0  0
    3.4451    1.7734    0.4656 C   0  0  0  0  0  0  0  0  0  0  0  0
    3.8290    3.0616    2.9566 C   0  0  0  0  0  0  0  0  0  0  0  0
    4.5175    2.6509    0.6628 C   0  0  0  0  0  0  0  0  0  0  0  0
    4.7046    3.2839    1.8900 C   0  0  0  0  0  0  0  0  0  0  0  0
   -2.1183    1.4068   -0.2401 H   0  0  0  0  0  0  0  0  0  0  0  0
    0.3521    1.4793   -0.7567 H   0  0  0  0  0  0  0  0  0  0  0  0
    1.5523   -0.6734    0.0646 H   0  0  0  0  0  0  0  0  0  0  0  0
    0.2068   -0.9564    1.1389 H   0  0  0  0  0  0  0  0  0  0  0  0
    0.0730    0.4787    3.4818 H   0  0  0  0  0  0  0  0  0  0  0  0
    1.6560    2.0875    4.5551 H   0  0  0  0  0  0  0  0  0  0  0  0
    3.3123    1.2884   -0.4973 H   0  0  0  0  0  0  0  0  0  0  0  0
    3.9761    3.5540    3.9119 H   0  0  0  0  0  0  0  0  0  0  0  0
    5.2114    2.8401   -0.1518 H   0  0  0  0  0  0  0  0  0  0  0  0
    5.5444    3.9615    2.0212 H   0  0  0  0  0  0  0  0  0  0  0  0
   -1.8375   -0.9155   -1.1564 N   0  0  0  0  0  0  0  0  0  0  0  0
   -2.4955   -1.8460   -2.0452 C   0  0  2  0  0  0  0  0  0  0  0  0
   -2.5641   -1.2085   -3.4266 C   0  0  0  0  0  0  0  0  0  0  0  0
   -2.5007    0.0055   -3.6090 O   0  0  0  0  0  0  0  0  0  0  0  0
   -3.8853   -2.2035   -1.5418 C   0  0  0  0  0  0  0  0  0  0  0  0
   -2.2818   -0.7001   -0.2687 H   0  0  0  0  0  0  0  0  0  0  0  0
   -1.8667   -2.7421   -2.0867 H   0  0  0  0  0  0  0  0  0  0  0  0
   -4.5297   -1.3182   -1.4934 H   0  0  0  0  0  0  0  0  0  0  0  0
   -4.3712   -2.9304   -2.2010 H   0  0  0  0  0  0  0  0  0  0  0  0
   -3.8366   -2.6345   -0.5360 H   0  0  0  0  0  0  0  0  0  0  0  0
   -2.7480   -2.1516   -4.4281 N   0  0  0  0  0  0  0  0  0  0  0  0
   -2.8571   -1.7957   -5.8236 C   0  0  0  0  0  0  0  0  0  0  0  0
   -2.7704   -3.1381   -4.1874 H   0  0  0  0  0  0  0  0  0  0  0  0
   -3.9166   -1.6593   -6.0860 H   0  0  0  0  0  0  0  0  0  0  0  0
   -2.3105   -0.8588   -6.0068 H   0  0  0  0  0  0  0  0  0  0  0  0
   -2.4269   -2.5979   -6.4411 H   0  0  0  0  0  0  0  0  0  0  0  0
 29 30  2  0  0  0  0
 27 29  1  0  0  0  0
 28 30  1  0  0  0  0
 24 27  2  0  0  0  0
 26 28  2  0  0  0  0
 22 23  2  0  0  0  0
 23 25  1  0  0  0  0
 22 24  1  0  0  0  0
 24 26  1  0  0  0  0
 21 22  1  0  0  0  0
 25 26  1  0  0  0  0
  1  3  1  0  0  0  0
  1  7  1  0  0  0  0
  1  2  2  0  0  0  0
 42 43  1  0  0  0  0
 43 51  1  0  0  0  0
 43 44  2  0  0  0  0
  8  9  1  0  0  0  0
  9 17  1  0  0  0  0
  9 10  2  0  0  0  0
 18 19  1  0  0  0  0
 19 41  1  0  0  0  0
 19 20  2  0  0  0  0
 42 45  1  0  0  0  0
  8 11  1  0  0  0  0
 51 52  1  0  0  0  0
 18 21  1  0  0  0  0
 41 42  1  0  0  0  0
  7  8  1  0  0  0  0
 17 18  1  0  0  0  0
 29 39  1  0  0  0  0
 30 40  1  0  0  0  0
 27 37  1  0  0  0  0
 28 38  1  0  0  0  0
 23 35  1  0  0  0  0
  3  4  1  0  0  0  0
  3  5  1  0  0  0  0
  3  6  1  0  0  0  0
 45 48  1  0  0  0  0
 45 49  1  0  0  0  0
 45 50  1  0  0  0  0
 11 14  1  0  0  0  0
 11 15  1  0  0  0  0
 11 16  1  0  0  0  0
 52 54  1  0  0  0  0
 52 55  1  0  0  0  0
 52 56  1  0  0  0  0
 21 33  1  0  0  0  0
 21 34  1  0  0  0  0
 42 47  1  0  0  0  0
  8 13  1  0  0  0  0
 18 32  1  0  0  0  0
 25 36  1  0  0  0  0
 51 53  1  0  0  0  0
  7 12  1  0  0  0  0
 41 46  1  0  0  0  0
 17 31  1  0  0  0  0
M  END
$$$$

  -OEChem-05262214473D

 56 57  0     1  0  0  0  0  0999 V2000
   -2.2900    0.3401    4.1553 C   0  0  0  0  0  0  0  0  0  0  0  0
   -1.3426   -0.2746    3.6796 O   0  0  0  0  0  0  0  0  0  0  0  0
   -2.7219    0.0577    5.5560 C   0  0  0  0  0  0  0  0  0  0  0  0
   -3.4815   -0.7386    5.6094 H   0  0  0  0  0  0  0  0  0  0  0  0
   -1.8906   -0.2899    6.1903 H   0  0  0  0  0  0  0  0  0  0  0  0
   -3.1599    0.9126    6.0956 H   0  0  0  0  0  0  0  0  0  0  0  0
   -3.0397    1.3125    3.5142 N   0  0  0  0  0  0  0  0  0  0  0  0
   -2.7928    1.7385    2.1618 C   0  0  2  0  0  0  0  0  0  0  0  0
   -1.4579    1.1532    1.7206 C   0  0  0  0  0  0  0  0  0  0  0  0
   -0.5858    0.8004    2.5118 O   0  0  0  0  0  0  0  0  0  0  0  0
   -2.7841    3.2553    2.0523 C   0  0  0  0  0  0  0  0  0  0  0  0
   -3.8047    1.7484    4.0260 H   0  0  0  0  0  0  0  0  0  0  0  0
   -3.5969    1.3201    1.5466 H   0  0  0  0  0  0  0  0  0  0  0  0
   -1.9850    3.6926    2.6620 H   0  0  0  0  0  0  0  0  0  0  0  0
   -2.6246    3.5776    1.0180 H   0  0  0  0  0  0  0  0  0  0  0  0
   -3.7342    3.6765    2.3981 H   0  0  0  0  0  0  0  0  0  0  0  0
   -1.3352    1.1101    0.3372 N   0  0  0  0  0  0  0  0  0  0  0  0
   -0.1579    0.6093   -0.3265 C   0  0  2  0  0  0  0  0  0  0  0  0
   -0.6291   -0.3013   -1.4547 C   0  0  0  0  0  0  0  0  0  0  0  0
    0.1160   -0.7028   -2.3461 O   0  0  0  0  0  0  0  0  0  0  0  0
    0.7628   -0.1587    0.6289 C   0  0  0  0  0  0  0  0  0  0  0  0
    1.3855    0.7289    1.6787 C   0  0  0  0  0  0  0  0  0  0  0  0
    0.9227    0.9007    2.9629 C   0  0  0  0  0  0  0  0  0  0  0  0
    2.5492    1.5336    1.5264 C   0  0  0  0  0  0  0  0  0  0  0  0
    1.7589    1.7791    3.5982 N   0  0  0  0  0  0  0  0  0  0  0  0
    2.7614    2.1819    2.7450 C   0  0  0  0  0  0  0  0  0  0  0  0
    3.4451    1.7734    0.4656 C   0  0  0  0  0  0  0  0  0  0  0  0
    3.8290    3.0616    2.9566 C   0  0  0  0  0  0  0  0  0  0  0  0
    4.5175    2.6509    0.6628 C   0  0  0  0  0  0  0  0  0  0  0  0
    4.7046    3.2839    1.8900 C   0  0  0  0  0  0  0  0  0  0  0  0
   -2.1183    1.4068   -0.2401 H   0  0  0  0  0  0  0  0  0  0  0  0
    0.3521    1.4793   -0.7567 H   0  0  0  0  0  0  0  0  0  0  0  0
    1.5523   -0.6734    0.0646 H   0  0  0  0  0  0  0  0  0  0  0  0
    0.2068   -0.9564    1.1389 H   0  0  0  0  0  0  0  0  0  0  0  0
    0.0730    0.4787    3.4818 H   0  0  0  0  0  0  0  0  0  0  0  0
    1.6560    2.0875    4.5551 H   0  0  0  0  0  0  0  0  0  0  0  0
    3.3123    1.2884   -0.4973 H   0  0  0  0  0  0  0  0  0  0  0  0
    3.9761    3.5540    3.9119 H   0  0  0  0  0  0  0  0  0  0  0  0
    5.2114    2.8401   -0.1518 H   0  0  0  0  0  0  0  0  0  0  0  0
    5.5444    3.9615    2.0212 H   0  0  0  0  0  0  0  0  0  0  0  0
   -1.9656   -0.6498   -1.3173 N   0  0  0  0  0  0  0  0  0  0  0  0
   -2.6569   -1.5226   -2.2388 C   0  0  2  0  0  0  0  0  0  0  0  0
   -2.3945   -1.0176   -3.6515 C   0  0  0  0  0  0  0  0  0  0  0  0
   -2.0661    0.1407   -3.8996 O   0  0  0  0  0  0  0  0  0  0  0  0
   -4.1485   -1.5669   -1.9457 C   0  0  0  0  0  0  0  0  0  0  0  0
   -2.4839   -0.2725   -0.5294 H   0  0  0  0  0  0  0  0  0  0  0  0
   -2.2187   -2.5194   -2.1194 H   0  0  0  0  0  0  0  0  0  0  0  0
   -4.6050   -0.5770   -2.0602 H   0  0  0  0  0  0  0  0  0  0  0  0
   -4.6665   -2.2505   -2.6265 H   0  0  0  0  0  0  0  0  0  0  0  0
   -4.3342   -1.9019   -0.9195 H   0  0  0  0  0  0  0  0  0  0  0  0
   -2.6123   -2.0012   -4.6062 N   0  0  0  0  0  0  0  0  0  0  0  0
   -2.4427   -1.7655   -6.0210 C   0  0  0  0  0  0  0  0  0  0  0  0
   -2.8645   -2.9391   -4.3088 H   0  0  0  0  0  0  0  0  0  0  0  0
   -3.4041   -1.4608   -6.4603 H   0  0  0  0  0  0  0  0  0  0  0  0
   -1.7008   -0.9679   -6.1734 H   0  0  0  0  0  0  0  0  0  0  0  0
   -2.0938   -2.6886   -6.5071 H   0  0  0  0  0  0  0  0  0  0  0  0
 29 30  2  0  0  0  0
 27 29  1  0  0  0  0
 28 30  1  0  0  0  0
 24 27  2  0  0  0  0
 26 28  2  0  0  0  0
 22 23  2  0  0  0  0
 23 25  1  0  0  0  0
 22 24  1  0  0  0  0
 24 26  1  0  0  0  0
 21 22  1  0  0  0  0
 25 26  1  0  0  0  0
  1  3  1  0  0  0  0
  1  7  1  0  0  0  0
  1  2  2  0  0  0  0
 42 43  1  0  0  0  0
 43 51  1  0  0  0  0
 43 44  2  0  0  0  0
  8  9  1  0  0  0  0
  9 17  1  0  0  0  0
  9 10  2  0  0  0  0
 18 19  1  0  0  0  0
 19 41  1  0  0  0  0
 19 20  2  0  0  0  0
 42 45  1  0  0  0  0
  8 11  1  0  0  0  0
 51 52  1  0  0  0  0
 18 21  1  0  0  0  0
 41 42  1  0  0  0  0
  7  8  1  0  0  0  0
 17 18  1  0  0  0  0
 29 39  1  0  0  0  0
 30 40  1  0  0  0  0
 27 37  1  0  0  0  0
 28 38  1  0  0  0  0
 23 35  1  0  0  0  0
  3  4  1  0  0  0  0
  3  5  1  0  0  0  0
  3  6  1  0  0  0  0
 45 48  1  0  0  0  0
 45 49  1  0  0  0  0
 45 50  1  0  0  0  0
 11 14  1  0  0  0  0
 11 15  1  0  0  0  0
 11 16  1  0  0  0  0
 52 54  1  0  0  0  0
 52 55  1  0  0  0  0
 52 56  1  0  0  0  0
 21 33  1  0  0  0  0
 21 34  1  0  0  0  0
 42 47  1  0  0  0  0
  8 13  1  0  0  0  0
 18 32  1  0  0  0  0
 25 36  1  0  0  0  0
 51 53  1  0  0  0  0
  7 12  1  0  0  0  0
 41 46  1  0  0  0  0
 17 31  1  0  0  0  0
M  END
$$$$

  -OEChem-05262214473D

 56 57  0     1  0  0  0  0  0999 V2000
   -2.2900    0.3401    4.1553 C   0  0  0  0  0  0  0  0  0  0  0  0
   -1.3426   -0.2746    3.6796 O   0  0  0  0  0  0  0  0  0  0  0  0
   -2.7219    0.0577    5.5560 C   0  0  0  0  0  0  0  0  0  0  0  0
   -3.4815   -0.7386    5.6094 H   0  0  0  0  0  0  0  0  0  0  0  0
   -1.8906   -0.2899    6.1903 H   0  0  0  0  0  0  0  0  0  0  0  0
   -3.1599    0.9126    6.0956 H   0  0  0  0  0  0  0  0  0  0  0  0
   -3.0397    1.3125    3.5142 N   0  0  0  0  0  0  0  0  0  0  0  0
   -2.7928    1.7385    2.1618 C   0  0  2  0  0  0  0  0  0  0  0  0
   -1.4579    1.1532    1.7206 C   0  0  0  0  0  0  0  0  0  0  0  0
   -0.5858    0.8004    2.5118 O   0  0  0  0  0  0  0  0  0  0  0  0
   -2.7841    3.2553    2.0523 C   0  0  0  0  0  0  0  0  0  0  0  0
   -3.8047    1.7484    4.0260 H   0  0  0  0  0  0  0  0  0  0  0  0
   -3.5969    1.3201    1.5466 H   0  0  0  0  0  0  0  0  0  0  0  0
   -1.9850    3.6926    2.6620 H   0  0  0  0  0  0  0  0  0  0  0  0
   -2.6246    3.5776    1.0180 H   0  0  0  0  0  0  0  0  0  0  0  0
   -3.7342    3.6765    2.3981 H   0  0  0  0  0  0  0  0  0  0  0  0
   -1.3352    1.1101    0.3372 N   0  0  0  0  0  0  0  0  0  0  0  0
   -0.1579    0.6093   -0.3265 C   0  0  2  0  0  0  0  0  0  0  0  0
   -0.6291   -0.3013   -1.4547 C   0  0  0  0  0  0  0  0  0  0  0  0
    0.1445   -0.9167   -2.1853 O   0  0  0  0  0  0  0  0  0  0  0  0
    0.7628   -0.1587    0.6289 C   0  0  0  0  0  0  0  0  0  0  0  0
    1.3855    0.7289    1.6787 C   0  0  0  0  0  0  0  0  0  0  0  0
    0.9227    0.9007    2.9629 C   0  0  0  0  0  0  0  0  0  0  0  0
    2.5492    1.5336    1.5264 C   0  0  0  0  0  0  0  0  0  0  0  0
    1.7589    1.7791    3.5982 N   0  0  0  0  0  0  0  0  0  0  0  0
    2.7614    2.1819    2.7450 C   0  0  0  0  0  0  0  0  0  0  0  0
    3.4451    1.7734    0.4656 C   0  0  0  0  0  0  0  0  0  0  0  0
    3.8290    3.0616    2.9566 C   0  0  0  0  0  0  0  0  0  0  0  0
    4.5175    2.6509    0.6628 C   0  0  0  0  0  0  0  0  0  0  0  0
    4.7046    3.2839    1.8900 C   0  0  0  0  0  0  0  0  0  0  0  0
   -2.1183    1.4068   -0.2401 H   0  0  0  0  0  0  0  0  0  0  0  0
    0.3521    1.4793   -0.7567 H   0  0  0  0  0  0  0  0  0  0  0  0
    1.5523   -0.6734    0.0646 H   0  0  0  0  0  0  0  0  0  0  0  0
    0.2068   -0.9564    1.1389 H   0  0  0  0  0  0  0  0  0  0  0  0
    0.0730    0.4787    3.4818 H   0  0  0  0  0  0  0  0  0  0  0  0
    1.6560    2.0875    4.5551 H   0  0  0  0  0  0  0  0  0  0  0  0
    3.3123    1.2884   -0.4973 H   0  0  0  0  0  0  0  0  0  0  0  0
    3.9761    3.5540    3.9119 H   0  0  0  0  0  0  0  0  0  0  0  0
    5.2114    2.8401   -0.1518 H   0  0  0  0  0  0  0  0  0  0  0  0
    5.5444    3.9615    2.0212 H   0  0  0  0  0  0  0  0  0  0  0  0
   -2.0135   -0.3815   -1.5138 N   0  0  0  0  0  0  0  0  0  0  0  0
   -2.7209   -1.1947   -2.4767 C   0  0  2  0  0  0  0  0  0  0  0  0
   -2.1594   -0.8837   -3.8578 C   0  0  0  0  0  0  0  0  0  0  0  0
   -1.5754    0.1648   -4.1240 O   0  0  0  0  0  0  0  0  0  0  0  0
   -4.2183   -0.9339   -2.4274 C   0  0  0  0  0  0  0  0  0  0  0  0
   -2.5568    0.1584   -0.8467 H   0  0  0  0  0  0  0  0  0  0  0  0
   -2.5110   -2.2395   -2.2233 H   0  0  0  0  0  0  0  0  0  0  0  0
   -4.4481    0.1081   -2.6786 H   0  0  0  0  0  0  0  0  0  0  0  0
   -4.7557   -1.5712   -3.1374 H   0  0  0  0  0  0  0  0  0  0  0  0
   -4.6152   -1.1295   -1.4254 H   0  0  0  0  0  0  0  0  0  0  0  0
   -2.4248   -1.8961   -4.7692 N   0  0  0  0  0  0  0  0  0  0  0  0
   -2.0062   -1.8316   -6.1500 C   0  0  0  0  0  0  0  0  0  0  0  0
   -2.8985   -2.7385   -4.4564 H   0  0  0  0  0  0  0  0  0  0  0  0
   -2.8132   -1.3972   -6.7584 H   0  0  0  0  0  0  0  0  0  0  0  0
   -1.1070   -1.2033   -6.2314 H   0  0  0  0  0  0  0  0  0  0  0  0
   -1.7793   -2.8452   -6.5120 H   0  0  0  0  0  0  0  0  0  0  0  0
 29 30  2  0  0  0  0
 27 29  1  0  0  0  0
 28 30  1  0  0  0  0
 24 27  2  0  0  0  0
 26 28  2  0  0  0  0
 22 23  2  0  0  0  0
 23 25  1  0  0  0  0
 22 24  1  0  0  0  0
 24 26  1  0  0  0  0
 21 22  1  0  0  0  0
 25 26  1  0  0  0  0
  1  3  1  0  0  0  0
  1  7  1  0  0  0  0
  1  2  2  0  0  0  0
 42 43  1  0  0  0  0
 43 51  1  0  0  0  0
 43 44  2  0  0  0  0
  8  9  1  0  0  0  0
  9 17  1  0  0  0  0
  9 10  2  0  0  0  0
 18 19  1  0  0  0  0
 19 41  1  0  0  0  0
 19 20  2  0  0  0  0
 42 45  1  0  0  0  0
  8 11  1  0  0  0  0
 51 52  1  0  0  0  0
 18 21  1  0  0  0  0
 41 42  1  0  0  0  0
  7  8  1  0  0  0  0
 17 18  1  0  0  0  0
 29 39  1  0  0  0  0
 30 40  1  0  0  0  0
 27 37  1  0  0  0  0
 28 38  1  0  0  0  0
 23 35  1  0  0  0  0
  3  4  1  0  0  0  0
  3  5  1  0  0  0  0
  3  6  1  0  0  0  0
 45 48  1  0  0  0  0
 45 49  1  0  0  0  0
 45 50  1  0  0  0  0
 11 14  1  0  0  0  0
 11 15  1  0  0  0  0
 11 16  1  0  0  0  0
 52 54  1  0  0  0  0
 52 55  1  0  0  0  0
 52 56  1  0  0  0  0
 21 33  1  0  0  0  0
 21 34  1  0  0  0  0
 42 47  1  0  0  0  0
  8 13  1  0  0  0  0
 18 32  1  0  0  0  0
 25 36  1  0  0  0  0
 51 53  1  0  0  0  0
  7 12  1  0  0  0  0
 41 46  1  0  0  0  0
 17 31  1  0  0  0  0
M  END
$$$$

  -OEChem-05262214473D

 56 57  0     1  0  0  0  0  0999 V2000
   -2.2900    0.3401    4.1553 C   0  0  0  0  0  0  0  0  0  0  0  0
   -1.3426   -0.2746    3.6796 O   0  0  0  0  0  0  0  0  0  0  0  0
   -2.7219    0.0577    5.5560 C   0  0  0  0  0  0  0  0  0  0  0  0
   -3.4815   -0.7386    5.6094 H   0  0  0  0  0  0  0  0  0  0  0  0
   -1.8906   -0.2899    6.1903 H   0  0  0  0  0  0  0  0  0  0  0  0
   -3.1599    0.9126    6.0956 H   0  0  0  0  0  0  0  0  0  0  0  0
   -3.0397    1.3125    3.5142 N   0  0  0  0  0  0  0  0  0  0  0  0
   -2.7928    1.7385    2.1618 C   0  0  2  0  0  0  0  0  0  0  0  0
   -1.4579    1.1532    1.7206 C   0  0  0  0  0  0  0  0  0  0  0  0
   -0.5858    0.8004    2.5118 O   0  0  0  0  0  0  0  0  0  0  0  0
   -2.7841    3.2553    2.0523 C   0  0  0  0  0  0  0  0  0  0  0  0
   -3.8047    1.7484    4.0260 H   0  0  0  0  0  0  0  0  0  0  0  0
   -3.5969    1.3201    1.5466 H   0  0  0  0  0  0  0  0  0  0  0  0
   -1.9850    3.6926    2.6620 H   0  0  0  0  0  0  0  0  0  0  0  0
   -2.6246    3.5776    1.0180 H   0  0  0  0  0  0  0  0  0  0  0  0
   -3.7342    3.6765    2.3981 H   0  0  0  0  0  0  0  0  0  0  0  0
   -1.3352    1.1101    0.3372 N   0  0  0  0  0  0  0  0  0  0  0  0
   -0.1579    0.6093   -0.3265 C   0  0  2  0  0  0  0  0  0  0  0  0
   -0.6291   -0.3013   -1.4547 C   0  0  0  0  0  0  0  0  0  0  0  0
    0.1061   -1.1160   -2.0084 O   0  0  0  0  0  0  0  0  0  0  0  0
    0.7628   -0.1587    0.6289 C   0  0  0  0  0  0  0  0  0  0  0  0
    1.3855    0.7289    1.6787 C   0  0  0  0  0  0  0  0  0  0  0  0
    0.9227    0.9007    2.9629 C   0  0  0  0  0  0  0  0  0  0  0  0
    2.5492    1.5336    1.5264 C   0  0  0  0  0  0  0  0  0  0  0  0
    1.7589    1.7791    3.5982 N   0  0  0  0  0  0  0  0  0  0  0  0
    2.7614    2.1819    2.7450 C   0  0  0  0  0  0  0  0  0  0  0  0
    3.4451    1.7734    0.4656 C   0  0  0  0  0  0  0  0  0  0  0  0
    3.8290    3.0616    2.9566 C   0  0  0  0  0  0  0  0  0  0  0  0
    4.5175    2.6509    0.6628 C   0  0  0  0  0  0  0  0  0  0  0  0
    4.7046    3.2839    1.8900 C   0  0  0  0  0  0  0  0  0  0  0  0
   -2.1183    1.4068   -0.2401 H   0  0  0  0  0  0  0  0  0  0  0  0
    0.3521    1.4793   -0.7567 H   0  0  0  0  0  0  0  0  0  0  0  0
    1.5523   -0.6734    0.0646 H   0  0  0  0  0  0  0  0  0  0  0  0
    0.2068   -0.9564    1.1389 H   0  0  0  0  0  0  0  0  0  0  0  0
    0.0730    0.4787    3.4818 H   0  0  0  0  0  0  0  0  0  0  0  0
    1.6560    2.0875    4.5551 H   0  0  0  0  0  0  0  0  0  0  0  0
    3.3123    1.2884   -0.4973 H   0  0  0  0  0  0  0  0  0  0  0  0
    3.9761    3.5540    3.9119 H   0  0  0  0  0  0  0  0  0  0  0  0
    5.2114    2.8401   -0.1518 H   0  0  0  0  0  0  0  0  0  0  0  0
    5.5444    3.9615    2.0212 H   0  0  0  0  0  0  0  0  0  0  0  0
   -1.9781   -0.1289   -1.7325 N   0  0  0  0  0  0  0  0  0  0  0  0
   -2.6832   -0.8848   -2.7426 C   0  0  2  0  0  0  0  0  0  0  0  0
   -1.8747   -0.8159   -4.0314 C   0  0  0  0  0  0  0  0  0  0  0  0
   -1.0622    0.0761   -4.2668 O   0  0  0  0  0  0  0  0  0  0  0  0
   -4.0901   -0.3475   -2.9542 C   0  0  0  0  0  0  0  0  0  0  0  0
   -2.4957    0.5633   -1.1990 H   0  0  0  0  0  0  0  0  0  0  0  0
   -2.7236   -1.9215   -2.3911 H   0  0  0  0  0  0  0  0  0  0  0  0
   -4.0698    0.6902   -3.3064 H   0  0  0  0  0  0  0  0  0  0  0  0
   -4.6327   -0.9389   -3.6991 H   0  0  0  0  0  0  0  0  0  0  0  0
   -4.6606   -0.3701   -2.0194 H   0  0  0  0  0  0  0  0  0  0  0  0
   -2.1985   -1.8436   -4.9062 N   0  0  0  0  0  0  0  0  0  0  0  0
   -1.5773   -1.9893   -6.2019 C   0  0  0  0  0  0  0  0  0  0  0  0
   -2.8701   -2.5500   -4.6204 H   0  0  0  0  0  0  0  0  0  0  0  0
   -2.1841   -1.4727   -6.9602 H   0  0  0  0  0  0  0  0  0  0  0  0
   -0.5695   -1.5491   -6.1768 H   0  0  0  0  0  0  0  0  0  0  0  0
   -1.5048   -3.0571   -6.4556 H   0  0  0  0  0  0  0  0  0  0  0  0
 29 30  2  0  0  0  0
 27 29  1  0  0  0  0
 28 30  1  0  0  0  0
 24 27  2  0  0  0  0
 26 28  2  0  0  0  0
 22 23  2  0  0  0  0
 23 25  1  0  0  0  0
 22 24  1  0  0  0  0
 24 26  1  0  0  0  0
 21 22  1  0  0  0  0
 25 26  1  0  0  0  0
  1  3  1  0  0  0  0
  1  7  1  0  0  0  0
  1  2  2  0  0  0  0
 42 43  1  0  0  0  0
 43 51  1  0  0  0  0
 43 44  2  0  0  0  0
  8  9  1  0  0  0  0
  9 17  1  0  0  0  0
  9 10  2  0  0  0  0
 18 19  1  0  0  0  0
 19 41  1  0  0  0  0
 19 20  2  0  0  0  0
 42 45  1  0  0  0  0
  8 11  1  0  0  0  0
 51 52  1  0  0  0  0
 18 21  1  0  0  0  0
 41 42  1  0  0  0  0
  7  8  1  0  0  0  0
 17 18  1  0  0  0  0
 29 39  1  0  0  0  0
 30 40  1  0  0  0  0
 27 37  1  0  0  0  0
 28 38  1  0  0  0  0
 23 35  1  0  0  0  0
  3  4  1  0  0  0  0
  3  5  1  0  0  0  0
  3  6  1  0  0  0  0
 45 48  1  0  0  0  0
 45 49  1  0  0  0  0
 45 50  1  0  0  0  0
 11 14  1  0  0  0  0
 11 15  1  0  0  0  0
 11 16  1  0  0  0  0
 52 54  1  0  0  0  0
 52 55  1  0  0  0  0
 52 56  1  0  0  0  0
 21 33  1  0  0  0  0
 21 34  1  0  0  0  0
 42 47  1  0  0  0  0
  8 13  1  0  0  0  0
 18 32  1  0  0  0  0
 25 36  1  0  0  0  0
 51 53  1  0  0  0  0
  7 12  1  0  0  0  0
 41 46  1  0  0  0  0
 17 31  1  0  0  0  0
M  END
$$$$

  -OEChem-05262214473D

 56 57  0     1  0  0  0  0  0999 V2000
   -2.2900    0.3401    4.1553 C   0  0  0  0  0  0  0  0  0  0  0  0
   -1.3426   -0.2746    3.6796 O   0  0  0  0  0  0  0  0  0  0  0  0
   -2.7219    0.0577    5.5560 C   0  0  0  0  0  0  0  0  0  0  0  0
   -3.4815   -0.7386    5.6094 H   0  0  0  0  0  0  0  0  0  0  0  0
   -1.8906   -0.2899    6.1903 H   0  0  0  0  0  0  0  0  0  0  0  0
   -3.1599    0.9126    6.0956 H   0  0  0  0  0  0  0  0  0  0  0  0
   -3.0397    1.3125    3.5142 N   0  0  0  0  0  0  0  0  0  0  0  0
   -2.7928    1.7385    2.1618 C   0  0  2  0  0  0  0  0  0  0  0  0
   -1.4579    1.1532    1.7206 C   0  0  0  0  0  0  0  0  0  0  0  0
   -0.5858    0.8004    2.5118 O   0  0  0  0  0  0  0  0  0  0  0  0
   -2.7841    3.2553    2.0523 C   0  0  0  0  0  0  0  0  0  0  0  0
   -3.8047    1.7484    4.0260 H   0  0  0  0  0  0  0  0  0  0  0  0
   -3.5969    1.3201    1.5466 H   0  0  0  0  0  0  0  0  0  0  0  0
   -1.9850    3.6926    2.6620 H   0  0  0  0  0  0  0  0  0  0  0  0
   -2.6246    3.5776    1.0180 H   0  0  0  0  0  0  0  0  0  0  0  0
   -3.7342    3.6765    2.3981 H   0  0  0  0  0  0  0  0  0  0  0  0
   -1.3352    1.1101    0.3372 N   0  0  0  0  0  0  0  0  0  0  0  0
   -0.1579    0.6093   -0.3265 C   0  0  2  0  0  0  0  0  0  0  0  0
   -0.6291   -0.3013   -1.4547 C   0  0  0  0  0  0  0  0  0  0  0  0
    0.0035   -1.2870   -1.8276 O   0  0  0  0  0  0  0  0  0  0  0  0
    0.7628   -0.1587    0.6289 C   0  0  0  0  0  0  0  0  0  0  0  0
    1.3855    0.7289    1.6787 C   0  0  0  0  0  0  0  0  0  0  0  0
    0.9227    0.9007    2.9629 C   0  0  0  0  0  0  0  0  0  0  0  0
    2.5492    1.5336    1.5264 C   0  0  0  0  0  0  0  0  0  0  0  0
    1.7589    1.7791    3.5982 N   0  0  0  0  0  0  0  0  0  0  0  0
    2.7614    2.1819    2.7450 C   0  0  0  0  0  0  0  0  0  0  0  0
    3.4451    1.7734    0.4656 C   0  0  0  0  0  0  0  0  0  0  0  0
    3.8290    3.0616    2.9566 C   0  0  0  0  0  0  0  0  0  0  0  0
    4.5175    2.6509    0.6628 C   0  0  0  0  0  0  0  0  0  0  0  0
    4.7046    3.2839    1.8900 C   0  0  0  0  0  0  0  0  0  0  0  0
   -2.1183    1.4068   -0.2401 H   0  0  0  0  0  0  0  0  0  0  0  0
    0.3521    1.4793   -0.7567 H   0  0  0  0  0  0  0  0  0  0  0  0
    1.5523   -0.6734    0.0646 H   0  0  0  0  0  0  0  0  0  0  0  0
    0.2068   -0.9564    1.1389 H   0  0  0  0  0  0  0  0  0  0  0  0
    0.0730    0.4787    3.4818 H   0  0  0  0  0  0  0  0  0  0  0  0
    1.6560    2.0875    4.5551 H   0  0  0  0  0  0  0  0  0  0  0  0
    3.3123    1.2884   -0.4973 H   0  0  0  0  0  0  0  0  0  0  0  0
    3.9761    3.5540    3.9119 H   0  0  0  0  0  0  0  0  0  0  0  0
    5.2114    2.8401   -0.1518 H   0  0  0  0  0  0  0  0  0  0  0  0
    5.5444    3.9615    2.0212 H   0  0  0  0  0  0  0  0  0  0  0  0
   -1.8616    0.0908   -1.9585 N   0  0  0  0  0  0  0  0  0  0  0  0
   -2.5463   -0.6139   -3.0184 C   0  0  2  0  0  0  0  0  0  0  0  0
   -1.5598   -0.8188   -4.1605 C   0  0  0  0  0  0  0  0  0  0  0  0
   -0.5615   -0.1193   -4.3183 O   0  0  0  0  0  0  0  0  0  0  0  0
   -3.7725    0.1521   -3.4901 C   0  0  0  0  0  0  0  0  0  0  0  0
   -2.3047    0.9144   -1.5622 H   0  0  0  0  0  0  0  0  0  0  0  0
   -2.8422   -1.5870   -2.6116 H   0  0  0  0  0  0  0  0  0  0  0  0
   -3.4958    1.1299   -3.9010 H   0  0  0  0  0  0  0  0  0  0  0  0
   -4.3060   -0.3966   -4.2732 H   0  0  0  0  0  0  0  0  0  0  0  0
   -4.4670    0.3245   -2.6608 H   0  0  0  0  0  0  0  0  0  0  0  0
   -1.9486   -1.8472   -5.0076 N   0  0  0  0  0  0  0  0  0  0  0  0
   -1.1852   -2.2279   -6.1731 C   0  0  0  0  0  0  0  0  0  0  0  0
   -2.7812   -2.3865   -4.7895 H   0  0  0  0  0  0  0  0  0  0  0  0
   -1.5598   -1.6824   -7.0517 H   0  0  0  0  0  0  0  0  0  0  0  0
   -0.1250   -1.9817   -6.0133 H   0  0  0  0  0  0  0  0  0  0  0  0
   -1.2889   -3.3099   -6.3418 H   0  0  0  0  0  0  0  0  0  0  0  0
 29 30  2  0  0  0  0
 27 29  1  0  0  0  0
 28 30  1  0  0  0  0
 24 27  2  0  0  0  0
 26 28  2  0  0  0  0
 22 23  2  0  0  0  0
 23 25  1  0  0  0  0
 22 24  1  0  0  0  0
 24 26  1  0  0  0  0
 21 22  1  0  0  0  0
 25 26  1  0  0  0  0
  1  3  1  0  0  0  0
  1  7  1  0  0  0  0
  1  2  2  0  0  0  0
 42 43  1  0  0  0  0
 43 51  1  0  0  0  0
 43 44  2  0  0  0  0
  8  9  1  0  0  0  0
  9 17  1  0  0  0  0
  9 10  2  0  0  0  0
 18 19  1  0  0  0  0
 19 41  1  0  0  0  0
 19 20  2  0  0  0  0
 42 45  1  0  0  0  0
  8 11  1  0  0  0  0
 51 52  1  0  0  0  0
 18 21  1  0  0  0  0
 41 42  1  0  0  0  0
  7  8  1  0  0  0  0
 17 18  1  0  0  0  0
 29 39  1  0  0  0  0
 30 40  1  0  0  0  0
 27 37  1  0  0  0  0
 28 38  1  0  0  0  0
 23 35  1  0  0  0  0
  3  4  1  0  0  0  0
  3  5  1  0  0  0  0
  3  6  1  0  0  0  0
 45 48  1  0  0  0  0
 45 49  1  0  0  0  0
 45 50  1  0  0  0  0
 11 14  1  0  0  0  0
 11 15  1  0  0  0  0
 11 16  1  0  0  0  0
 52 54  1  0  0  0  0
 52 55  1  0  0  0  0
 52 56  1  0  0  0  0
 21 33  1  0  0  0  0
 21 34  1  0  0  0  0
 42 47  1  0  0  0  0
  8 13  1  0  0  0  0
 18 32  1  0  0  0  0
 25 36  1  0  0  0  0
 51 53  1  0  0  0  0
  7 12  1  0  0  0  0
 41 46  1  0  0  0  0
 17 31  1  0  0  0  0
M  END
$$$$

  -OEChem-05262214473D

 56 57  0     1  0  0  0  0  0999 V2000
   -2.2900    0.3401    4.1553 C   0  0  0  0  0  0  0  0  0  0  0  0
   -1.3426   -0.2746    3.6796 O   0  0  0  0  0  0  0  0  0  0  0  0
   -2.7219    0.0577    5.5560 C   0  0  0  0  0  0  0  0  0  0  0  0
   -3.4815   -0.7386    5.6094 H   0  0  0  0  0  0  0  0  0  0  0  0
   -1.8906   -0.2899    6.1903 H   0  0  0  0  0  0  0  0  0  0  0  0
   -3.1599    0.9126    6.0956 H   0  0  0  0  0  0  0  0  0  0  0  0
   -3.0397    1.3125    3.5142 N   0  0  0  0  0  0  0  0  0  0  0  0
   -2.7928    1.7385    2.1618 C   0  0  2  0  0  0  0  0  0  0  0  0
   -1.4579    1.1532    1.7206 C   0  0  0  0  0  0  0  0  0  0  0  0
   -0.5858    0.8004    2.5118 O   0  0  0  0  0  0  0  0  0  0  0  0
   -2.7841    3.2553    2.0523 C   0  0  0  0  0  0  0  0  0  0  0  0
   -3.8047    1.7484    4.0260 H   0  0  0  0  0  0  0  0  0  0  0  0
   -3.5969    1.3201    1.5466 H   0  0  0  0  0  0  0  0  0  0  0  0
   -1.9850    3.6926    2.6620 H   0  0  0  0  0  0  0  0  0  0  0  0
   -2.6246    3.5776    1.0180 H   0  0  0  0  0  0  0  0  0  0  0  0
   -3.7342    3.6765    2.3981 H   0  0  0  0  0  0  0  0  0  0  0  0
   -1.3352    1.1101    0.3372 N   0  0  0  0  0  0  0  0  0  0  0  0
   -0.1579    0.6093   -0.3265 C   0  0  2  0  0  0  0  0  0  0  0  0
   -0.6291   -0.3013   -1.4547 C   0  0  0  0  0  0  0  0  0  0  0  0
   -0.1562   -1.4180   -1.6551 O   0  0  0  0  0  0  0  0  0  0  0  0
    0.7628   -0.1587    0.6289 C   0  0  0  0  0  0  0  0  0  0  0  0
    1.3855    0.7289    1.6787 C   0  0  0  0  0  0  0  0  0  0  0  0
    0.9227    0.9007    2.9629 C   0  0  0  0  0  0  0  0  0  0  0  0
    2.5492    1.5336    1.5264 C   0  0  0  0  0  0  0  0  0  0  0  0
    1.7589    1.7791    3.5982 N   0  0  0  0  0  0  0  0  0  0  0  0
    2.7614    2.1819    2.7450 C   0  0  0  0  0  0  0  0  0  0  0  0
    3.4451    1.7734    0.4656 C   0  0  0  0  0  0  0  0  0  0  0  0
    3.8290    3.0616    2.9566 C   0  0  0  0  0  0  0  0  0  0  0  0
    4.5175    2.6509    0.6628 C   0  0  0  0  0  0  0  0  0  0  0  0
    4.7046    3.2839    1.8900 C   0  0  0  0  0  0  0  0  0  0  0  0
   -2.1183    1.4068   -0.2401 H   0  0  0  0  0  0  0  0  0  0  0  0
    0.3521    1.4793   -0.7567 H   0  0  0  0  0  0  0  0  0  0  0  0
    1.5523   -0.6734    0.0646 H   0  0  0  0  0  0  0  0  0  0  0  0
    0.2068   -0.9564    1.1389 H   0  0  0  0  0  0  0  0  0  0  0  0
    0.0730    0.4787    3.4818 H   0  0  0  0  0  0  0  0  0  0  0  0
    1.6560    2.0875    4.5551 H   0  0  0  0  0  0  0  0  0  0  0  0
    3.3123    1.2884   -0.4973 H   0  0  0  0  0  0  0  0  0  0  0  0
    3.9761    3.5540    3.9119 H   0  0  0  0  0  0  0  0  0  0  0  0
    5.2114    2.8401   -0.1518 H   0  0  0  0  0  0  0  0  0  0  0  0
    5.5444    3.9615    2.0212 H   0  0  0  0  0  0  0  0  0  0  0  0
   -1.6721    0.2626   -2.1763 N   0  0  0  0  0  0  0  0  0  0  0  0
   -2.3195   -0.4005   -3.2853 C   0  0  2  0  0  0  0  0  0  0  0  0
   -1.2364   -0.8923   -4.2364 C   0  0  0  0  0  0  0  0  0  0  0  0
   -0.1072   -0.4080   -4.2750 O   0  0  0  0  0  0  0  0  0  0  0  0
   -3.2871    0.5310   -3.9986 C   0  0  0  0  0  0  0  0  0  0  0  0
   -1.9968    1.1880   -1.9116 H   0  0  0  0  0  0  0  0  0  0  0  0
   -2.8585   -1.2588   -2.8696 H   0  0  0  0  0  0  0  0  0  0  0  0
   -2.7652    1.3970   -4.4217 H   0  0  0  0  0  0  0  0  0  0  0  0
   -3.7978    0.0187   -4.8207 H   0  0  0  0  0  0  0  0  0  0  0  0
   -4.0479    0.9071   -3.3061 H   0  0  0  0  0  0  0  0  0  0  0  0
   -1.6922   -1.9066   -5.0667 N   0  0  0  0  0  0  0  0  0  0  0  0
   -0.8566   -2.5312   -6.0655 C   0  0  0  0  0  0  0  0  0  0  0  0
   -2.6379   -2.2592   -4.9521 H   0  0  0  0  0  0  0  0  0  0  0  0
   -0.9827   -2.0118   -7.0269 H   0  0  0  0  0  0  0  0  0  0  0  0
    0.1961   -2.4716   -5.7521 H   0  0  0  0  0  0  0  0  0  0  0  0
   -1.1464   -3.5864   -6.1782 H   0  0  0  0  0  0  0  0  0  0  0  0
 29 30  2  0  0  0  0
 27 29  1  0  0  0  0
 28 30  1  0  0  0  0
 24 27  2  0  0  0  0
 26 28  2  0  0  0  0
 22 23  2  0  0  0  0
 23 25  1  0  0  0  0
 22 24  1  0  0  0  0
 24 26  1  0  0  0  0
 21 22  1  0  0  0  0
 25 26  1  0  0  0  0
  1  3  1  0  0  0  0
  1  7  1  0  0  0  0
  1  2  2  0  0  0  0
 42 43  1  0  0  0  0
 43 51  1  0  0  0  0
 43 44  2  0  0  0  0
  8  9  1  0  0  0  0
  9 17  1  0  0  0  0
  9 10  2  0  0  0  0
 18 19  1  0  0  0  0
 19 41  1  0  0  0  0
 19 20  2  0  0  0  0
 42 45  1  0  0  0  0
  8 11  1  0  0  0  0
 51 52  1  0  0  0  0
 18 21  1  0  0  0  0
 41 42  1  0  0  0  0
  7  8  1  0  0  0  0
 17 18  1  0  0  0  0
 29 39  1  0  0  0  0
 30 40  1  0  0  0  0
 27 37  1  0  0  0  0
 28 38  1  0  0  0  0
 23 35  1  0  0  0  0
  3  4  1  0  0  0  0
  3  5  1  0  0  0  0
  3  6  1  0  0  0  0
 45 48  1  0  0  0  0
 45 49  1  0  0  0  0
 45 50  1  0  0  0  0
 11 14  1  0  0  0  0
 11 15  1  0  0  0  0
 11 16  1  0  0  0  0
 52 54  1  0  0  0  0
 52 55  1  0  0  0  0
 52 56  1  0  0  0  0
 21 33  1  0  0  0  0
 21 34  1  0  0  0  0
 42 47  1  0  0  0  0
  8 13  1  0  0  0  0
 18 32  1  0  0  0  0
 25 36  1  0  0  0  0
 51 53  1  0  0  0  0
  7 12  1  0  0  0  0
 41 46  1  0  0  0  0
 17 31  1  0  0  0  0
M  END
$$$$

  -OEChem-05262214473D

 56 57  0     1  0  0  0  0  0999 V2000
   -2.2900    0.3401    4.1553 C   0  0  0  0  0  0  0  0  0  0  0  0
   -1.3426   -0.2746    3.6796 O   0  0  0  0  0  0  0  0  0  0  0  0
   -2.7219    0.0577    5.5560 C   0  0  0  0  0  0  0  0  0  0  0  0
   -3.4815   -0.7386    5.6094 H   0  0  0  0  0  0  0  0  0  0  0  0
   -1.8906   -0.2899    6.1903 H   0  0  0  0  0  0  0  0  0  0  0  0
   -3.1599    0.9126    6.0956 H   0  0  0  0  0  0  0  0  0  0  0  0
   -3.0397    1.3125    3.5142 N   0  0  0  0  0  0  0  0  0  0  0  0
   -2.7928    1.7385    2.1618 C   0  0  2  0  0  0  0  0  0  0  0  0
   -1.4579    1.1532    1.7206 C   0  0  0  0  0  0  0  0  0  0  0  0
   -0.5858    0.8004    2.5118 O   0  0  0  0  0  0  0  0  0  0  0  0
   -2.7841    3.2553    2.0523 C   0  0  0  0  0  0  0  0  0  0  0  0
   -3.8047    1.7484    4.0260 H   0  0  0  0  0  0  0  0  0  0  0  0
   -3.5969    1.3201    1.5466 H   0  0  0  0  0  0  0  0  0  0  0  0
   -1.9850    3.6926    2.6620 H   0  0  0  0  0  0  0  0  0  0  0  0
   -2.6246    3.5776    1.0180 H   0  0  0  0  0  0  0  0  0  0  0  0
   -3.7342    3.6765    2.3981 H   0  0  0  0  0  0  0  0  0  0  0  0
   -1.3352    1.1101    0.3372 N   0  0  0  0  0  0  0  0  0  0  0  0
   -0.1579    0.6093   -0.3265 C   0  0  2  0  0  0  0  0  0  0  0  0
   -0.6291   -0.3013   -1.4547 C   0  0  0  0  0  0  0  0  0  0  0  0
   -0.3623   -1.5002   -1.5027 O   0  0  0  0  0  0  0  0  0  0  0  0
    0.7628   -0.1587    0.6289 C   0  0  0  0  0  0  0  0  0  0  0  0
    1.3855    0.7289    1.6787 C   0  0  0  0  0  0  0  0  0  0  0  0
    0.9227    0.9007    2.9629 C   0  0  0  0  0  0  0  0  0  0  0  0
    2.5492    1.5336    1.5264 C   0  0  0  0  0  0  0  0  0  0  0  0
    1.7589    1.7791    3.5982 N   0  0  0  0  0  0  0  0  0  0  0  0
    2.7614    2.1819    2.7450 C   0  0  0  0  0  0  0  0  0  0  0  0
    3.4451    1.7734    0.4656 C   0  0  0  0  0  0  0  0  0  0  0  0
    3.8290    3.0616    2.9566 C   0  0  0  0  0  0  0  0  0  0  0  0
    4.5175    2.6509    0.6628 C   0  0  0  0  0  0  0  0  0  0  0  0
    4.7046    3.2839    1.8900 C   0  0  0  0  0  0  0  0  0  0  0  0
   -2.1183    1.4068   -0.2401 H   0  0  0  0  0  0  0  0  0  0  0  0
    0.3521    1.4793   -0.7567 H   0  0  0  0  0  0  0  0  0  0  0  0
    1.5523   -0.6734    0.0646 H   0  0  0  0  0  0  0  0  0  0  0  0
    0.2068   -0.9564    1.1389 H   0  0  0  0  0  0  0  0  0  0  0  0
    0.0730    0.4787    3.4818 H   0  0  0  0  0  0  0  0  0  0  0  0
    1.6560    2.0875    4.5551 H   0  0  0  0  0  0  0  0  0  0  0  0
    3.3123    1.2884   -0.4973 H   0  0  0  0  0  0  0  0  0  0  0  0
    3.9761    3.5540    3.9119 H   0  0  0  0  0  0  0  0  0  0  0  0
    5.2114    2.8401   -0.1518 H   0  0  0  0  0  0  0  0  0  0  0  0
    5.5444    3.9615    2.0212 H   0  0  0  0  0  0  0  0  0  0  0  0
   -1.4225    0.3749   -2.3712 N   0  0  0  0  0  0  0  0  0  0  0  0
   -2.0183   -0.2592   -3.5252 C   0  0  2  0  0  0  0  0  0  0  0  0
   -0.9262   -1.0313   -4.2537 C   0  0  0  0  0  0  0  0  0  0  0  0
    0.2696   -0.7705   -4.1398 O   0  0  0  0  0  0  0  0  0  0  0  0
   -2.6671    0.7633   -4.4450 C   0  0  0  0  0  0  0  0  0  0  0  0
   -1.5930    1.3653   -2.2233 H   0  0  0  0  0  0  0  0  0  0  0  0
   -2.7715   -0.9594   -3.1476 H   0  0  0  0  0  0  0  0  0  0  0  0
   -1.9279    1.4734   -4.8332 H   0  0  0  0  0  0  0  0  0  0  0  0
   -3.1428    0.2787   -5.3041 H   0  0  0  0  0  0  0  0  0  0  0  0
   -3.4317    1.3380   -3.9112 H   0  0  0  0  0  0  0  0  0  0  0  0
   -1.4468   -2.0179   -5.0794 N   0  0  0  0  0  0  0  0  0  0  0  0
   -0.6139   -2.8786   -5.8866 C   0  0  0  0  0  0  0  0  0  0  0  0
   -2.4499   -2.1766   -5.0972 H   0  0  0  0  0  0  0  0  0  0  0  0
   -0.4923   -2.4385   -6.8874 H   0  0  0  0  0  0  0  0  0  0  0  0
    0.3722   -2.9855   -5.4109 H   0  0  0  0  0  0  0  0  0  0  0  0
   -1.0870   -3.8676   -5.9761 H   0  0  0  0  0  0  0  0  0  0  0  0
 29 30  2  0  0  0  0
 27 29  1  0  0  0  0
 28 30  1  0  0  0  0
 24 27  2  0  0  0  0
 26 28  2  0  0  0  0
 22 23  2  0  0  0  0
 23 25  1  0  0  0  0
 22 24  1  0  0  0  0
 24 26  1  0  0  0  0
 21 22  1  0  0  0  0
 25 26  1  0  0  0  0
  1  3  1  0  0  0  0
  1  7  1  0  0  0  0
  1  2  2  0  0  0  0
 42 43  1  0  0  0  0
 43 51  1  0  0  0  0
 43 44  2  0  0  0  0
  8  9  1  0  0  0  0
  9 17  1  0  0  0  0
  9 10  2  0  0  0  0
 18 19  1  0  0  0  0
 19 41  1  0  0  0  0
 19 20  2  0  0  0  0
 42 45  1  0  0  0  0
  8 11  1  0  0  0  0
 51 52  1  0  0  0  0
 18 21  1  0  0  0  0
 41 42  1  0  0  0  0
  7  8  1  0  0  0  0
 17 18  1  0  0  0  0
 29 39  1  0  0  0  0
 30 40  1  0  0  0  0
 27 37  1  0  0  0  0
 28 38  1  0  0  0  0
 23 35  1  0  0  0  0
  3  4  1  0  0  0  0
  3  5  1  0  0  0  0
  3  6  1  0  0  0  0
 45 48  1  0  0  0  0
 45 49  1  0  0  0  0
 45 50  1  0  0  0  0
 11 14  1  0  0  0  0
 11 15  1  0  0  0  0
 11 16  1  0  0  0  0
 52 54  1  0  0  0  0
 52 55  1  0  0  0  0
 52 56  1  0  0  0  0
 21 33  1  0  0  0  0
 21 34  1  0  0  0  0
 42 47  1  0  0  0  0
  8 13  1  0  0  0  0
 18 32  1  0  0  0  0
 25 36  1  0  0  0  0
 51 53  1  0  0  0  0
  7 12  1  0  0  0  0
 41 46  1  0  0  0  0
 17 31  1  0  0  0  0
M  END
$$$$

  -OEChem-05262214473D

 56 57  0     1  0  0  0  0  0999 V2000
   -2.2900    0.3401    4.1553 C   0  0  0  0  0  0  0  0  0  0  0  0
   -1.3426   -0.2746    3.6796 O   0  0  0  0  0  0  0  0  0  0  0  0
   -2.7219    0.0577    5.5560 C   0  0  0  0  0  0  0  0  0  0  0  0
   -3.4815   -0.7386    5.6094 H   0  0  0  0  0  0  0  0  0  0  0  0
   -1.8906   -0.2899    6.1903 H   0  0  0  0  0  0  0  0  0  0  0  0
   -3.1599    0.9126    6.0956 H   0  0  0  0  0  0  0  0  0  0  0  0
   -3.0397    1.3125    3.5142 N   0  0  0  0  0  0  0  0  0  0  0  0
   -2.7928    1.7385    2.1618 C   0  0  2  0  0  0  0  0  0  0  0  0
   -1.4579    1.1532    1.7206 C   0  0  0  0  0  0  0  0  0  0  0  0
   -0.5858    0.8004    2.5118 O   0  0  0  0  0  0  0  0  0  0  0  0
   -2.7841    3.2553    2.0523 C   0  0  0  0  0  0  0  0  0  0  0  0
   -3.8047    1.7484    4.0260 H   0  0  0  0  0  0  0  0  0  0  0  0
   -3.5969    1.3201    1.5466 H   0  0  0  0  0  0  0  0  0  0  0  0
   -1.9850    3.6926    2.6620 H   0  0  0  0  0  0  0  0  0  0  0  0
   -2.6246    3.5776    1.0180 H   0  0  0  0  0  0  0  0  0  0  0  0
   -3.7342    3.6765    2.3981 H   0  0  0  0  0  0  0  0  0  0  0  0
   -1.3352    1.1101    0.3372 N   0  0  0  0  0  0  0  0  0  0  0  0
   -0.1579    0.6093   -0.3265 C   0  0  2  0  0  0  0  0  0  0  0  0
   -0.6291   -0.3013   -1.4547 C   0  0  0  0  0  0  0  0  0  0  0  0
   -0.6007   -1.5279   -1.3808 O   0  0  0  0  0  0  0  0  0  0  0  0
    0.7628   -0.1587    0.6289 C   0  0  0  0  0  0  0  0  0  0  0  0
    1.3855    0.7289    1.6787 C   0  0  0  0  0  0  0  0  0  0  0  0
    0.9227    0.9007    2.9629 C   0  0  0  0  0  0  0  0  0  0  0  0
    2.5492    1.5336    1.5264 C   0  0  0  0  0  0  0  0  0  0  0  0
    1.7589    1.7791    3.5982 N   0  0  0  0  0  0  0  0  0  0  0  0
    2.7614    2.1819    2.7450 C   0  0  0  0  0  0  0  0  0  0  0  0
    3.4451    1.7734    0.4656 C   0  0  0  0  0  0  0  0  0  0  0  0
    3.8290    3.0616    2.9566 C   0  0  0  0  0  0  0  0  0  0  0  0
    4.5175    2.6509    0.6628 C   0  0  0  0  0  0  0  0  0  0  0  0
    4.7046    3.2839    1.8900 C   0  0  0  0  0  0  0  0  0  0  0  0
   -2.1183    1.4068   -0.2401 H   0  0  0  0  0  0  0  0  0  0  0  0
    0.3521    1.4793   -0.7567 H   0  0  0  0  0  0  0  0  0  0  0  0
    1.5523   -0.6734    0.0646 H   0  0  0  0  0  0  0  0  0  0  0  0
    0.2068   -0.9564    1.1389 H   0  0  0  0  0  0  0  0  0  0  0  0
    0.0730    0.4787    3.4818 H   0  0  0  0  0  0  0  0  0  0  0  0
    1.6560    2.0875    4.5551 H   0  0  0  0  0  0  0  0  0  0  0  0
    3.3123    1.2884   -0.4973 H   0  0  0  0  0  0  0  0  0  0  0  0
    3.9761    3.5540    3.9119 H   0  0  0  0  0  0  0  0  0  0  0  0
    5.2114    2.8401   -0.1518 H   0  0  0  0  0  0  0  0  0  0  0  0
    5.5444    3.9615    2.0212 H   0  0  0  0  0  0  0  0  0  0  0  0
   -1.1298    0.4199   -2.5298 N   0  0  0  0  0  0  0  0  0  0  0  0
   -1.6633   -0.1996   -3.7216 C   0  0  2  0  0  0  0  0  0  0  0  0
   -0.6506   -1.2263   -4.2114 C   0  0  0  0  0  0  0  0  0  0  0  0
    0.5432   -1.1819   -3.9220 O   0  0  0  0  0  0  0  0  0  0  0  0
   -1.9548    0.8332   -4.7990 C   0  0  0  0  0  0  0  0  0  0  0  0
   -1.1207    1.4342   -2.4762 H   0  0  0  0  0  0  0  0  0  0  0  0
   -2.5872   -0.7090   -3.4267 H   0  0  0  0  0  0  0  0  0  0  0  0
   -1.0408    1.3540   -5.1072 H   0  0  0  0  0  0  0  0  0  0  0  0
   -2.3855    0.3657   -5.6906 H   0  0  0  0  0  0  0  0  0  0  0  0
   -2.6604    1.5877   -4.4349 H   0  0  0  0  0  0  0  0  0  0  0  0
   -1.2291   -2.1734   -5.0449 N   0  0  0  0  0  0  0  0  0  0  0  0
   -0.4737   -3.2462   -5.6484 C   0  0  0  0  0  0  0  0  0  0  0  0
   -2.2301   -2.1445   -5.2150 H   0  0  0  0  0  0  0  0  0  0  0  0
   -0.1218   -2.9335   -6.6426 H   0  0  0  0  0  0  0  0  0  0  0  0
    0.3910   -3.4882   -5.0130 H   0  0  0  0  0  0  0  0  0  0  0  0
   -1.1147   -4.1344   -5.7492 H   0  0  0  0  0  0  0  0  0  0  0  0
 29 30  2  0  0  0  0
 27 29  1  0  0  0  0
 28 30  1  0  0  0  0
 24 27  2  0  0  0  0
 26 28  2  0  0  0  0
 22 23  2  0  0  0  0
 23 25  1  0  0  0  0
 22 24  1  0  0  0  0
 24 26  1  0  0  0  0
 21 22  1  0  0  0  0
 25 26  1  0  0  0  0
  1  3  1  0  0  0  0
  1  7  1  0  0  0  0
  1  2  2  0  0  0  0
 42 43  1  0  0  0  0
 43 51  1  0  0  0  0
 43 44  2  0  0  0  0
  8  9  1  0  0  0  0
  9 17  1  0  0  0  0
  9 10  2  0  0  0  0
 18 19  1  0  0  0  0
 19 41  1  0  0  0  0
 19 20  2  0  0  0  0
 42 45  1  0  0  0  0
  8 11  1  0  0  0  0
 51 52  1  0  0  0  0
 18 21  1  0  0  0  0
 41 42  1  0  0  0  0
  7  8  1  0  0  0  0
 17 18  1  0  0  0  0
 29 39  1  0  0  0  0
 30 40  1  0  0  0  0
 27 37  1  0  0  0  0
 28 38  1  0  0  0  0
 23 35  1  0  0  0  0
  3  4  1  0  0  0  0
  3  5  1  0  0  0  0
  3  6  1  0  0  0  0
 45 48  1  0  0  0  0
 45 49  1  0  0  0  0
 45 50  1  0  0  0  0
 11 14  1  0  0  0  0
 11 15  1  0  0  0  0
 11 16  1  0  0  0  0
 52 54  1  0  0  0  0
 52 55  1  0  0  0  0
 52 56  1  0  0  0  0
 21 33  1  0  0  0  0
 21 34  1  0  0  0  0
 42 47  1  0  0  0  0
  8 13  1  0  0  0  0
 18 32  1  0  0  0  0
 25 36  1  0  0  0  0
 51 53  1  0  0  0  0
  7 12  1  0  0  0  0
 41 46  1  0  0  0  0
 17 31  1  0  0  0  0
M  END
$$$$

  -OEChem-05262214473D

 56 57  0     1  0  0  0  0  0999 V2000
   -2.2900    0.3401    4.1553 C   0  0  0  0  0  0  0  0  0  0  0  0
   -1.3426   -0.2746    3.6796 O   0  0  0  0  0  0  0  0  0  0  0  0
   -2.7219    0.0577    5.5560 C   0  0  0  0  0  0  0  0  0  0  0  0
   -3.4815   -0.7386    5.6094 H   0  0  0  0  0  0  0  0  0  0  0  0
   -1.8906   -0.2899    6.1903 H   0  0  0  0  0  0  0  0  0  0  0  0
   -3.1599    0.9126    6.0956 H   0  0  0  0  0  0  0  0  0  0  0  0
   -3.0397    1.3125    3.5142 N   0  0  0  0  0  0  0  0  0  0  0  0
   -2.7928    1.7385    2.1618 C   0  0  2  0  0  0  0  0  0  0  0  0
   -1.4579    1.1532    1.7206 C   0  0  0  0  0  0  0  0  0  0  0  0
   -0.5858    0.8004    2.5118 O   0  0  0  0  0  0  0  0  0  0  0  0
   -2.7841    3.2553    2.0523 C   0  0  0  0  0  0  0  0  0  0  0  0
   -3.8047    1.7484    4.0260 H   0  0  0  0  0  0  0  0  0  0  0  0
   -3.5969    1.3201    1.5466 H   0  0  0  0  0  0  0  0  0  0  0  0
   -1.9850    3.6926    2.6620 H   0  0  0  0  0  0  0  0  0  0  0  0
   -2.6246    3.5776    1.0180 H   0  0  0  0  0  0  0  0  0  0  0  0
   -3.7342    3.6765    2.3981 H   0  0  0  0  0  0  0  0  0  0  0  0
   -1.3352    1.1101    0.3372 N   0  0  0  0  0  0  0  0  0  0  0  0
   -0.1579    0.6093   -0.3265 C   0  0  2  0  0  0  0  0  0  0  0  0
   -0.6291   -0.3013   -1.4547 C   0  0  0  0  0  0  0  0  0  0  0  0
   -0.8551   -1.4993   -1.2976 O   0  0  0  0  0  0  0  0  0  0  0  0
    0.7628   -0.1587    0.6289 C   0  0  0  0  0  0  0  0  0  0  0  0
    1.3855    0.7289    1.6787 C   0  0  0  0  0  0  0  0  0  0  0  0
    0.9227    0.9007    2.9629 C   0  0  0  0  0  0  0  0  0  0  0  0
    2.5492    1.5336    1.5264 C   0  0  0  0  0  0  0  0  0  0  0  0
    1.7589    1.7791    3.5982 N   0  0  0  0  0  0  0  0  0  0  0  0
    2.7614    2.1819    2.7450 C   0  0  0  0  0  0  0  0  0  0  0  0
    3.4451    1.7734    0.4656 C   0  0  0  0  0  0  0  0  0  0  0  0
    3.8290    3.0616    2.9566 C   0  0  0  0  0  0  0  0  0  0  0  0
    4.5175    2.6509    0.6628 C   0  0  0  0  0  0  0  0  0  0  0  0
    4.7046    3.2839    1.8900 C   0  0  0  0  0  0  0  0  0  0  0  0
   -2.1183    1.4068   -0.2401 H   0  0  0  0  0  0  0  0  0  0  0  0
    0.3521    1.4793   -0.7567 H   0  0  0  0  0  0  0  0  0  0  0  0
    1.5523   -0.6734    0.0646 H   0  0  0  0  0  0  0  0  0  0  0  0
    0.2068   -0.9564    1.1389 H   0  0  0  0  0  0  0  0  0  0  0  0
    0.0730    0.4787    3.4818 H   0  0  0  0  0  0  0  0  0  0  0  0
    1.6560    2.0875    4.5551 H   0  0  0  0  0  0  0  0  0  0  0  0
    3.3123    1.2884   -0.4973 H   0  0  0  0  0  0  0  0  0  0  0  0
    3.9761    3.5540    3.9119 H   0  0  0  0  0  0  0  0  0  0  0  0
    5.2114    2.8401   -0.1518 H   0  0  0  0  0  0  0  0  0  0  0  0
    5.5444    3.9615    2.0212 H   0  0  0  0  0  0  0  0  0  0  0  0
   -0.8138    0.3947   -2.6413 N   0  0  0  0  0  0  0  0  0  0  0  0
   -1.2785   -0.2258   -3.8611 C   0  0  2  0  0  0  0  0  0  0  0  0
   -0.4283   -1.4641   -4.1124 C   0  0  0  0  0  0  0  0  0  0  0  0
    0.6951   -1.6144   -3.6364 O   0  0  0  0  0  0  0  0  0  0  0  0
   -1.1986    0.7360   -5.0364 C   0  0  0  0  0  0  0  0  0  0  0  0
   -0.6123    1.3901   -2.6530 H   0  0  0  0  0  0  0  0  0  0  0  0
   -2.3180   -0.5248   -3.6878 H   0  0  0  0  0  0  0  0  0  0  0  0
   -0.1645    1.0467   -5.2253 H   0  0  0  0  0  0  0  0  0  0  0  0
   -1.5776    0.2738   -5.9539 H   0  0  0  0  0  0  0  0  0  0  0  0
   -1.7867    1.6393   -4.8415 H   0  0  0  0  0  0  0  0  0  0  0  0
   -1.0540   -2.3625   -4.9654 N   0  0  0  0  0  0  0  0  0  0  0  0
   -0.4454   -3.6091   -5.3673 C   0  0  0  0  0  0  0  0  0  0  0  0
   -1.9934   -2.1650   -5.2973 H   0  0  0  0  0  0  0  0  0  0  0  0
    0.1034   -3.4629   -6.3094 H   0  0  0  0  0  0  0  0  0  0  0  0
    0.2514   -3.9456   -4.5856 H   0  0  0  0  0  0  0  0  0  0  0  0
   -1.2277   -4.3687   -5.5129 H   0  0  0  0  0  0  0  0  0  0  0  0
 29 30  2  0  0  0  0
 27 29  1  0  0  0  0
 28 30  1  0  0  0  0
 24 27  2  0  0  0  0
 26 28  2  0  0  0  0
 22 23  2  0  0  0  0
 23 25  1  0  0  0  0
 22 24  1  0  0  0  0
 24 26  1  0  0  0  0
 21 22  1  0  0  0  0
 25 26  1  0  0  0  0
  1  3  1  0  0  0  0
  1  7  1  0  0  0  0
  1  2  2  0  0  0  0
 42 43  1  0  0  0  0
 43 51  1  0  0  0  0
 43 44  2  0  0  0  0
  8  9  1  0  0  0  0
  9 17  1  0  0  0  0
  9 10  2  0  0  0  0
 18 19  1  0  0  0  0
 19 41  1  0  0  0  0
 19 20  2  0  0  0  0
 42 45  1  0  0  0  0
  8 11  1  0  0  0  0
 51 52  1  0  0  0  0
 18 21  1  0  0  0  0
 41 42  1  0  0  0  0
  7  8  1  0  0  0  0
 17 18  1  0  0  0  0
 29 39  1  0  0  0  0
 30 40  1  0  0  0  0
 27 37  1  0  0  0  0
 28 38  1  0  0  0  0
 23 35  1  0  0  0  0
  3  4  1  0  0  0  0
  3  5  1  0  0  0  0
  3  6  1  0  0  0  0
 45 48  1  0  0  0  0
 45 49  1  0  0  0  0
 45 50  1  0  0  0  0
 11 14  1  0  0  0  0
 11 15  1  0  0  0  0
 11 16  1  0  0  0  0
 52 54  1  0  0  0  0
 52 55  1  0  0  0  0
 52 56  1  0  0  0  0
 21 33  1  0  0  0  0
 21 34  1  0  0  0  0
 42 47  1  0  0  0  0
  8 13  1  0  0  0  0
 18 32  1  0  0  0  0
 25 36  1  0  0  0  0
 51 53  1  0  0  0  0
  7 12  1  0  0  0  0
 41 46  1  0  0  0  0
 17 31  1  0  0  0  0
M  END
$$$$

  -OEChem-05262214473D

 56 57  0     1  0  0  0  0  0999 V2000
   -2.2900    0.3401    4.1553 C   0  0  0  0  0  0  0  0  0  0  0  0
   -1.3426   -0.2746    3.6796 O   0  0  0  0  0  0  0  0  0  0  0  0
   -2.7219    0.0577    5.5560 C   0  0  0  0  0  0  0  0  0  0  0  0
   -3.4815   -0.7386    5.6094 H   0  0  0  0  0  0  0  0  0  0  0  0
   -1.8906   -0.2899    6.1903 H   0  0  0  0  0  0  0  0  0  0  0  0
   -3.1599    0.9126    6.0956 H   0  0  0  0  0  0  0  0  0  0  0  0
   -3.0397    1.3125    3.5142 N   0  0  0  0  0  0  0  0  0  0  0  0
   -2.7928    1.7385    2.1618 C   0  0  2  0  0  0  0  0  0  0  0  0
   -1.4579    1.1532    1.7206 C   0  0  0  0  0  0  0  0  0  0  0  0
   -0.5858    0.8004    2.5118 O   0  0  0  0  0  0  0  0  0  0  0  0
   -2.7841    3.2553    2.0523 C   0  0  0  0  0  0  0  0  0  0  0  0
   -3.8047    1.7484    4.0260 H   0  0  0  0  0  0  0  0  0  0  0  0
   -3.5969    1.3201    1.5466 H   0  0  0  0  0  0  0  0  0  0  0  0
   -1.9850    3.6926    2.6620 H   0  0  0  0  0  0  0  0  0  0  0  0
   -2.6246    3.5776    1.0180 H   0  0  0  0  0  0  0  0  0  0  0  0
   -3.7342    3.6765    2.3981 H   0  0  0  0  0  0  0  0  0  0  0  0
   -1.3352    1.1101    0.3372 N   0  0  0  0  0  0  0  0  0  0  0  0
   -0.1579    0.6093   -0.3265 C   0  0  2  0  0  0  0  0  0  0  0  0
   -0.6291   -0.3013   -1.4547 C   0  0  0  0  0  0  0  0  0  0  0  0
   -1.1082   -1.4162   -1.2590 O   0  0  0  0  0  0  0  0  0  0  0  0
    0.7628   -0.1587    0.6289 C   0  0  0  0  0  0  0  0  0  0  0  0
    1.3855    0.7289    1.6787 C   0  0  0  0  0  0  0  0  0  0  0  0
    0.9227    0.9007    2.9629 C   0  0  0  0  0  0  0  0  0  0  0  0
    2.5492    1.5336    1.5264 C   0  0  0  0  0  0  0  0  0  0  0  0
    1.7589    1.7791    3.5982 N   0  0  0  0  0  0  0  0  0  0  0  0
    2.7614    2.1819    2.7450 C   0  0  0  0  0  0  0  0  0  0  0  0
    3.4451    1.7734    0.4656 C   0  0  0  0  0  0  0  0  0  0  0  0
    3.8290    3.0616    2.9566 C   0  0  0  0  0  0  0  0  0  0  0  0
    4.5175    2.6509    0.6628 C   0  0  0  0  0  0  0  0  0  0  0  0
    4.7046    3.2839    1.8900 C   0  0  0  0  0  0  0  0  0  0  0  0
   -2.1183    1.4068   -0.2401 H   0  0  0  0  0  0  0  0  0  0  0  0
    0.3521    1.4793   -0.7567 H   0  0  0  0  0  0  0  0  0  0  0  0
    1.5523   -0.6734    0.0646 H   0  0  0  0  0  0  0  0  0  0  0  0
    0.2068   -0.9564    1.1389 H   0  0  0  0  0  0  0  0  0  0  0  0
    0.0730    0.4787    3.4818 H   0  0  0  0  0  0  0  0  0  0  0  0
    1.6560    2.0875    4.5551 H   0  0  0  0  0  0  0  0  0  0  0  0
    3.3123    1.2884   -0.4973 H   0  0  0  0  0  0  0  0  0  0  0  0
    3.9761    3.5540    3.9119 H   0  0  0  0  0  0  0  0  0  0  0  0
    5.2114    2.8401   -0.1518 H   0  0  0  0  0  0  0  0  0  0  0  0
    5.5444    3.9615    2.0212 H   0  0  0  0  0  0  0  0  0  0  0  0
   -0.4963    0.3008   -2.6982 N   0  0  0  0  0  0  0  0  0  0  0  0
   -0.8903   -0.3359   -3.9344 C   0  0  2  0  0  0  0  0  0  0  0  0
   -0.2744   -1.7285   -3.9633 C   0  0  0  0  0  0  0  0  0  0  0  0
    0.7147   -2.0383   -3.3025 O   0  0  0  0  0  0  0  0  0  0  0  0
   -0.4500    0.4783   -5.1410 C   0  0  0  0  0  0  0  0  0  0  0  0
   -0.1023    1.2360   -2.7417 H   0  0  0  0  0  0  0  0  0  0  0  0
   -1.9824   -0.4193   -3.9131 H   0  0  0  0  0  0  0  0  0  0  0  0
    0.6413    0.5726   -5.1793 H   0  0  0  0  0  0  0  0  0  0  0  0
   -0.7742    0.0092   -6.0759 H   0  0  0  0  0  0  0  0  0  0  0  0
   -0.8699    1.4892   -5.1033 H   0  0  0  0  0  0  0  0  0  0  0  0
   -0.9333   -2.5723   -4.8464 N   0  0  0  0  0  0  0  0  0  0  0  0
   -0.5312   -3.9426   -5.0624 C   0  0  0  0  0  0  0  0  0  0  0  0
   -1.7560   -2.2367   -5.3386 H   0  0  0  0  0  0  0  0  0  0  0  0
    0.1679   -3.9909   -5.9103 H   0  0  0  0  0  0  0  0  0  0  0  0
   -0.0371   -4.3265   -4.1577 H   0  0  0  0  0  0  0  0  0  0  0  0
   -1.4182   -4.5544   -5.2834 H   0  0  0  0  0  0  0  0  0  0  0  0
 29 30  2  0  0  0  0
 27 29  1  0  0  0  0
 28 30  1  0  0  0  0
 24 27  2  0  0  0  0
 26 28  2  0  0  0  0
 22 23  2  0  0  0  0
 23 25  1  0  0  0  0
 22 24  1  0  0  0  0
 24 26  1  0  0  0  0
 21 22  1  0  0  0  0
 25 26  1  0  0  0  0
  1  3  1  0  0  0  0
  1  7  1  0  0  0  0
  1  2  2  0  0  0  0
 42 43  1  0  0  0  0
 43 51  1  0  0  0  0
 43 44  2  0  0  0  0
  8  9  1  0  0  0  0
  9 17  1  0  0  0  0
  9 10  2  0  0  0  0
 18 19  1  0  0  0  0
 19 41  1  0  0  0  0
 19 20  2  0  0  0  0
 42 45  1  0  0  0  0
  8 11  1  0  0  0  0
 51 52  1  0  0  0  0
 18 21  1  0  0  0  0
 41 42  1  0  0  0  0
  7  8  1  0  0  0  0
 17 18  1  0  0  0  0
 29 39  1  0  0  0  0
 30 40  1  0  0  0  0
 27 37  1  0  0  0  0
 28 38  1  0  0  0  0
 23 35  1  0  0  0  0
  3  4  1  0  0  0  0
  3  5  1  0  0  0  0
  3  6  1  0  0  0  0
 45 48  1  0  0  0  0
 45 49  1  0  0  0  0
 45 50  1  0  0  0  0
 11 14  1  0  0  0  0
 11 15  1  0  0  0  0
 11 16  1  0  0  0  0
 52 54  1  0  0  0  0
 52 55  1  0  0  0  0
 52 56  1  0  0  0  0
 21 33  1  0  0  0  0
 21 34  1  0  0  0  0
 42 47  1  0  0  0  0
  8 13  1  0  0  0  0
 18 32  1  0  0  0  0
 25 36  1  0  0  0  0
 51 53  1  0  0  0  0
  7 12  1  0  0  0  0
 41 46  1  0  0  0  0
 17 31  1  0  0  0  0
M  END
$$$$

  -OEChem-05262214473D

 56 57  0     1  0  0  0  0  0999 V2000
   -2.2900    0.3401    4.1553 C   0  0  0  0  0  0  0  0  0  0  0  0
   -1.3426   -0.2746    3.6796 O   0  0  0  0  0  0  0  0  0  0  0  0
   -2.7219    0.0577    5.5560 C   0  0  0  0  0  0  0  0  0  0  0  0
   -3.4815   -0.7386    5.6094 H   0  0  0  0  0  0  0  0  0  0  0  0
   -1.8906   -0.2899    6.1903 H   0  0  0  0  0  0  0  0  0  0  0  0
   -3.1599    0.9126    6.0956 H   0  0  0  0  0  0  0  0  0  0  0  0
   -3.0397    1.3125    3.5142 N   0  0  0  0  0  0  0  0  0  0  0  0
   -2.7928    1.7385    2.1618 C   0  0  2  0  0  0  0  0  0  0  0  0
   -1.4579    1.1532    1.7206 C   0  0  0  0  0  0  0  0  0  0  0  0
   -0.5858    0.8004    2.5118 O   0  0  0  0  0  0  0  0  0  0  0  0
   -2.7841    3.2553    2.0523 C   0  0  0  0  0  0  0  0  0  0  0  0
   -3.8047    1.7484    4.0260 H   0  0  0  0  0  0  0  0  0  0  0  0
   -3.5969    1.3201    1.5466 H   0  0  0  0  0  0  0  0  0  0  0  0
   -1.9850    3.6926    2.6620 H   0  0  0  0  0  0  0  0  0  0  0  0
   -2.6246    3.5776    1.0180 H   0  0  0  0  0  0  0  0  0  0  0  0
   -3.7342    3.6765    2.3981 H   0  0  0  0  0  0  0  0  0  0  0  0
   -1.3352    1.1101    0.3372 N   0  0  0  0  0  0  0  0  0  0  0  0
   -0.1579    0.6093   -0.3265 C   0  0  2  0  0  0  0  0  0  0  0  0
   -0.6291   -0.3013   -1.4547 C   0  0  0  0  0  0  0  0  0  0  0  0
   -1.3428   -1.2844   -1.2674 O   0  0  0  0  0  0  0  0  0  0  0  0
    0.7628   -0.1587    0.6289 C   0  0  0  0  0  0  0  0  0  0  0  0
    1.3855    0.7289    1.6787 C   0  0  0  0  0  0  0  0  0  0  0  0
    0.9227    0.9007    2.9629 C   0  0  0  0  0  0  0  0  0  0  0  0
    2.5492    1.5336    1.5264 C   0  0  0  0  0  0  0  0  0  0  0  0
    1.7589    1.7791    3.5982 N   0  0  0  0  0  0  0  0  0  0  0  0
    2.7614    2.1819    2.7450 C   0  0  0  0  0  0  0  0  0  0  0  0
    3.4451    1.7734    0.4656 C   0  0  0  0  0  0  0  0  0  0  0  0
    3.8290    3.0616    2.9566 C   0  0  0  0  0  0  0  0  0  0  0  0
    4.5175    2.6509    0.6628 C   0  0  0  0  0  0  0  0  0  0  0  0
    4.7046    3.2839    1.8900 C   0  0  0  0  0  0  0  0  0  0  0  0
   -2.1183    1.4068   -0.2401 H   0  0  0  0  0  0  0  0  0  0  0  0
    0.3521    1.4793   -0.7567 H   0  0  0  0  0  0  0  0  0  0  0  0
    1.5523   -0.6734    0.0646 H   0  0  0  0  0  0  0  0  0  0  0  0
    0.2068   -0.9564    1.1389 H   0  0  0  0  0  0  0  0  0  0  0  0
    0.0730    0.4787    3.4818 H   0  0  0  0  0  0  0  0  0  0  0  0
    1.6560    2.0875    4.5551 H   0  0  0  0  0  0  0  0  0  0  0  0
    3.3123    1.2884   -0.4973 H   0  0  0  0  0  0  0  0  0  0  0  0
    3.9761    3.5540    3.9119 H   0  0  0  0  0  0  0  0  0  0  0  0
    5.2114    2.8401   -0.1518 H   0  0  0  0  0  0  0  0  0  0  0  0
    5.5444    3.9615    2.0212 H   0  0  0  0  0  0  0  0  0  0  0  0
   -0.1987    0.1448   -2.6966 N   0  0  0  0  0  0  0  0  0  0  0  0
   -0.5251   -0.5225   -3.9364 C   0  0  2  0  0  0  0  0  0  0  0  0
   -0.1995   -2.0014   -3.7743 C   0  0  0  0  0  0  0  0  0  0  0  0
    0.6009   -2.4249   -2.9430 O   0  0  0  0  0  0  0  0  0  0  0  0
    0.2398    0.0776   -5.1058 C   0  0  0  0  0  0  0  0  0  0  0  0
    0.3745    0.9824   -2.7361 H   0  0  0  0  0  0  0  0  0  0  0  0
   -1.6032   -0.3997   -4.0873 H   0  0  0  0  0  0  0  0  0  0  0  0
    1.3218   -0.0359   -4.9723 H   0  0  0  0  0  0  0  0  0  0  0  0
   -0.0299   -0.4101   -6.0484 H   0  0  0  0  0  0  0  0  0  0  0  0
    0.0273    1.1478   -5.2024 H   0  0  0  0  0  0  0  0  0  0  0  0
   -0.8754   -2.7886   -4.6961 N   0  0  0  0  0  0  0  0  0  0  0  0
   -0.7250   -4.2239   -4.7544 C   0  0  0  0  0  0  0  0  0  0  0  0
   -1.5341   -2.3547   -5.3360 H   0  0  0  0  0  0  0  0  0  0  0  0
    0.0675   -4.4812   -5.4726 H   0  0  0  0  0  0  0  0  0  0  0  0
   -0.4549   -4.6049   -3.7585 H   0  0  0  0  0  0  0  0  0  0  0  0
   -1.6733   -4.6790   -5.0763 H   0  0  0  0  0  0  0  0  0  0  0  0
 29 30  2  0  0  0  0
 27 29  1  0  0  0  0
 28 30  1  0  0  0  0
 24 27  2  0  0  0  0
 26 28  2  0  0  0  0
 22 23  2  0  0  0  0
 23 25  1  0  0  0  0
 22 24  1  0  0  0  0
 24 26  1  0  0  0  0
 21 22  1  0  0  0  0
 25 26  1  0  0  0  0
  1  3  1  0  0  0  0
  1  7  1  0  0  0  0
  1  2  2  0  0  0  0
 42 43  1  0  0  0  0
 43 51  1  0  0  0  0
 43 44  2  0  0  0  0
  8  9  1  0  0  0  0
  9 17  1  0  0  0  0
  9 10  2  0  0  0  0
 18 19  1  0  0  0  0
 19 41  1  0  0  0  0
 19 20  2  0  0  0  0
 42 45  1  0  0  0  0
  8 11  1  0  0  0  0
 51 52  1  0  0  0  0
 18 21  1  0  0  0  0
 41 42  1  0  0  0  0
  7  8  1  0  0  0  0
 17 18  1  0  0  0  0
 29 39  1  0  0  0  0
 30 40  1  0  0  0  0
 27 37  1  0  0  0  0
 28 38  1  0  0  0  0
 23 35  1  0  0  0  0
  3  4  1  0  0  0  0
  3  5  1  0  0  0  0
  3  6  1  0  0  0  0
 45 48  1  0  0  0  0
 45 49  1  0  0  0  0
 45 50  1  0  0  0  0
 11 14  1  0  0  0  0
 11 15  1  0  0  0  0
 11 16  1  0  0  0  0
 52 54  1  0  0  0  0
 52 55  1  0  0  0  0
 52 56  1  0  0  0  0
 21 33  1  0  0  0  0
 21 34  1  0  0  0  0
 42 47  1  0  0  0  0
  8 13  1  0  0  0  0
 18 32  1  0  0  0  0
 25 36  1  0  0  0  0
 51 53  1  0  0  0  0
  7 12  1  0  0  0  0
 41 46  1  0  0  0  0
 17 31  1  0  0  0  0
M  END
$$$$

  -OEChem-05262214473D

 56 57  0     1  0  0  0  0  0999 V2000
   -2.2900    0.3401    4.1553 C   0  0  0  0  0  0  0  0  0  0  0  0
   -1.3426   -0.2746    3.6796 O   0  0  0  0  0  0  0  0  0  0  0  0
   -2.7219    0.0577    5.5560 C   0  0  0  0  0  0  0  0  0  0  0  0
   -3.4815   -0.7386    5.6094 H   0  0  0  0  0  0  0  0  0  0  0  0
   -1.8906   -0.2899    6.1903 H   0  0  0  0  0  0  0  0  0  0  0  0
   -3.1599    0.9126    6.0956 H   0  0  0  0  0  0  0  0  0  0  0  0
   -3.0397    1.3125    3.5142 N   0  0  0  0  0  0  0  0  0  0  0  0
   -2.7928    1.7385    2.1618 C   0  0  2  0  0  0  0  0  0  0  0  0
   -1.4579    1.1532    1.7206 C   0  0  0  0  0  0  0  0  0  0  0  0
   -0.5858    0.8004    2.5118 O   0  0  0  0  0  0  0  0  0  0  0  0
   -2.7841    3.2553    2.0523 C   0  0  0  0  0  0  0  0  0  0  0  0
   -3.8047    1.7484    4.0260 H   0  0  0  0  0  0  0  0  0  0  0  0
   -3.5969    1.3201    1.5466 H   0  0  0  0  0  0  0  0  0  0  0  0
   -1.9850    3.6926    2.6620 H   0  0  0  0  0  0  0  0  0  0  0  0
   -2.6246    3.5776    1.0180 H   0  0  0  0  0  0  0  0  0  0  0  0
   -3.7342    3.6765    2.3981 H   0  0  0  0  0  0  0  0  0  0  0  0
   -1.3352    1.1101    0.3372 N   0  0  0  0  0  0  0  0  0  0  0  0
   -0.1579    0.6093   -0.3265 C   0  0  2  0  0  0  0  0  0  0  0  0
   -0.6291   -0.3013   -1.4547 C   0  0  0  0  0  0  0  0  0  0  0  0
   -1.5428   -1.1128   -1.3223 O   0  0  0  0  0  0  0  0  0  0  0  0
    0.7628   -0.1587    0.6289 C   0  0  0  0  0  0  0  0  0  0  0  0
    1.3855    0.7289    1.6787 C   0  0  0  0  0  0  0  0  0  0  0  0
    0.9227    0.9007    2.9629 C   0  0  0  0  0  0  0  0  0  0  0  0
    2.5492    1.5336    1.5264 C   0  0  0  0  0  0  0  0  0  0  0  0
    1.7589    1.7791    3.5982 N   0  0  0  0  0  0  0  0  0  0  0  0
    2.7614    2.1819    2.7450 C   0  0  0  0  0  0  0  0  0  0  0  0
    3.4451    1.7734    0.4656 C   0  0  0  0  0  0  0  0  0  0  0  0
    3.8290    3.0616    2.9566 C   0  0  0  0  0  0  0  0  0  0  0  0
    4.5175    2.6509    0.6628 C   0  0  0  0  0  0  0  0  0  0  0  0
    4.7046    3.2839    1.8900 C   0  0  0  0  0  0  0  0  0  0  0  0
   -2.1183    1.4068   -0.2401 H   0  0  0  0  0  0  0  0  0  0  0  0
    0.3521    1.4793   -0.7567 H   0  0  0  0  0  0  0  0  0  0  0  0
    1.5523   -0.6734    0.0646 H   0  0  0  0  0  0  0  0  0  0  0  0
    0.2068   -0.9564    1.1389 H   0  0  0  0  0  0  0  0  0  0  0  0
    0.0730    0.4787    3.4818 H   0  0  0  0  0  0  0  0  0  0  0  0
    1.6560    2.0875    4.5551 H   0  0  0  0  0  0  0  0  0  0  0  0
    3.3123    1.2884   -0.4973 H   0  0  0  0  0  0  0  0  0  0  0  0
    3.9761    3.5540    3.9119 H   0  0  0  0  0  0  0  0  0  0  0  0
    5.2114    2.8401   -0.1518 H   0  0  0  0  0  0  0  0  0  0  0  0
    5.5444    3.9615    2.0212 H   0  0  0  0  0  0  0  0  0  0  0  0
    0.0586   -0.0628   -2.6365 N   0  0  0  0  0  0  0  0  0  0  0  0
   -0.2078   -0.7728   -3.8669 C   0  0  2  0  0  0  0  0  0  0  0  0
   -0.2086   -2.2642   -3.5584 C   0  0  0  0  0  0  0  0  0  0  0  0
    0.3614   -2.7477   -2.5824 O   0  0  0  0  0  0  0  0  0  0  0  0
    0.8239   -0.4388   -4.9330 C   0  0  0  0  0  0  0  0  0  0  0  0
    0.7856    0.6465   -2.6367 H   0  0  0  0  0  0  0  0  0  0  0  0
   -1.2062   -0.4674   -4.1985 H   0  0  0  0  0  0  0  0  0  0  0  0
    1.8306   -0.7376   -4.6185 H   0  0  0  0  0  0  0  0  0  0  0  0
    0.6044   -0.9554   -5.8732 H   0  0  0  0  0  0  0  0  0  0  0  0
    0.8439    0.6381   -5.1322 H   0  0  0  0  0  0  0  0  0  0  0  0
   -0.8841   -2.9967   -4.5246 N   0  0  0  0  0  0  0  0  0  0  0  0
   -1.0137   -4.4339   -4.4644 C   0  0  0  0  0  0  0  0  0  0  0  0
   -1.3427   -2.5110   -5.2898 H   0  0  0  0  0  0  0  0  0  0  0  0
   -0.1911   -4.9006   -5.0261 H   0  0  0  0  0  0  0  0  0  0  0  0
   -0.9735   -4.7619   -3.4152 H   0  0  0  0  0  0  0  0  0  0  0  0
   -1.9755   -4.7339   -4.9058 H   0  0  0  0  0  0  0  0  0  0  0  0
 29 30  2  0  0  0  0
 27 29  1  0  0  0  0
 28 30  1  0  0  0  0
 24 27  2  0  0  0  0
 26 28  2  0  0  0  0
 22 23  2  0  0  0  0
 23 25  1  0  0  0  0
 22 24  1  0  0  0  0
 24 26  1  0  0  0  0
 21 22  1  0  0  0  0
 25 26  1  0  0  0  0
  1  3  1  0  0  0  0
  1  7  1  0  0  0  0
  1  2  2  0  0  0  0
 42 43  1  0  0  0  0
 43 51  1  0  0  0  0
 43 44  2  0  0  0  0
  8  9  1  0  0  0  0
  9 17  1  0  0  0  0
  9 10  2  0  0  0  0
 18 19  1  0  0  0  0
 19 41  1  0  0  0  0
 19 20  2  0  0  0  0
 42 45  1  0  0  0  0
  8 11  1  0  0  0  0
 51 52  1  0  0  0  0
 18 21  1  0  0  0  0
 41 42  1  0  0  0  0
  7  8  1  0  0  0  0
 17 18  1  0  0  0  0
 29 39  1  0  0  0  0
 30 40  1  0  0  0  0
 27 37  1  0  0  0  0
 28 38  1  0  0  0  0
 23 35  1  0  0  0  0
  3  4  1  0  0  0  0
  3  5  1  0  0  0  0
  3  6  1  0  0  0  0
 45 48  1  0  0  0  0
 45 49  1  0  0  0  0
 45 50  1  0  0  0  0
 11 14  1  0  0  0  0
 11 15  1  0  0  0  0
 11 16  1  0  0  0  0
 52 54  1  0  0  0  0
 52 55  1  0  0  0  0
 52 56  1  0  0  0  0
 21 33  1  0  0  0  0
 21 34  1  0  0  0  0
 42 47  1  0  0  0  0
  8 13  1  0  0  0  0
 18 32  1  0  0  0  0
 25 36  1  0  0  0  0
 51 53  1  0  0  0  0
  7 12  1  0  0  0  0
 41 46  1  0  0  0  0
 17 31  1  0  0  0  0
M  END
$$$$

  -OEChem-05262214473D

 56 57  0     1  0  0  0  0  0999 V2000
   -2.2900    0.3401    4.1553 C   0  0  0  0  0  0  0  0  0  0  0  0
   -1.3426   -0.2746    3.6796 O   0  0  0  0  0  0  0  0  0  0  0  0
   -2.7219    0.0577    5.5560 C   0  0  0  0  0  0  0  0  0  0  0  0
   -3.4815   -0.7386    5.6094 H   0  0  0  0  0  0  0  0  0  0  0  0
   -1.8906   -0.2899    6.1903 H   0  0  0  0  0  0  0  0  0  0  0  0
   -3.1599    0.9126    6.0956 H   0  0  0  0  0  0  0  0  0  0  0  0
   -3.0397    1.3125    3.5142 N   0  0  0  0  0  0  0  0  0  0  0  0
   -2.7928    1.7385    2.1618 C   0  0  2  0  0  0  0  0  0  0  0  0
   -1.4579    1.1532    1.7206 C   0  0  0  0  0  0  0  0  0  0  0  0
   -0.5858    0.8004    2.5118 O   0  0  0  0  0  0  0  0  0  0  0  0
   -2.7841    3.2553    2.0523 C   0  0  0  0  0  0  0  0  0  0  0  0
   -3.8047    1.7484    4.0260 H   0  0  0  0  0  0  0  0  0  0  0  0
   -3.5969    1.3201    1.5466 H   0  0  0  0  0  0  0  0  0  0  0  0
   -1.9850    3.6926    2.6620 H   0  0  0  0  0  0  0  0  0  0  0  0
   -2.6246    3.5776    1.0180 H   0  0  0  0  0  0  0  0  0  0  0  0
   -3.7342    3.6765    2.3981 H   0  0  0  0  0  0  0  0  0  0  0  0
   -1.3352    1.1101    0.3372 N   0  0  0  0  0  0  0  0  0  0  0  0
   -0.1579    0.6093   -0.3265 C   0  0  2  0  0  0  0  0  0  0  0  0
   -0.6291   -0.3013   -1.4547 C   0  0  0  0  0  0  0  0  0  0  0  0
   -1.6946   -0.9132   -1.4200 O   0  0  0  0  0  0  0  0  0  0  0  0
    0.7628   -0.1587    0.6289 C   0  0  0  0  0  0  0  0  0  0  0  0
    1.3855    0.7289    1.6787 C   0  0  0  0  0  0  0  0  0  0  0  0
    0.9227    0.9007    2.9629 C   0  0  0  0  0  0  0  0  0  0  0  0
    2.5492    1.5336    1.5264 C   0  0  0  0  0  0  0  0  0  0  0  0
    1.7589    1.7791    3.5982 N   0  0  0  0  0  0  0  0  0  0  0  0
    2.7614    2.1819    2.7450 C   0  0  0  0  0  0  0  0  0  0  0  0
    3.4451    1.7734    0.4656 C   0  0  0  0  0  0  0  0  0  0  0  0
    3.8290    3.0616    2.9566 C   0  0  0  0  0  0  0  0  0  0  0  0
    4.5175    2.6509    0.6628 C   0  0  0  0  0  0  0  0  0  0  0  0
    4.7046    3.2839    1.8900 C   0  0  0  0  0  0  0  0  0  0  0  0
   -2.1183    1.4068   -0.2401 H   0  0  0  0  0  0  0  0  0  0  0  0
    0.3521    1.4793   -0.7567 H   0  0  0  0  0  0  0  0  0  0  0  0
    1.5523   -0.6734    0.0646 H   0  0  0  0  0  0  0  0  0  0  0  0
    0.2068   -0.9564    1.1389 H   0  0  0  0  0  0  0  0  0  0  0  0
    0.0730    0.4787    3.4818 H   0  0  0  0  0  0  0  0  0  0  0  0
    1.6560    2.0875    4.5551 H   0  0  0  0  0  0  0  0  0  0  0  0
    3.3123    1.2884   -0.4973 H   0  0  0  0  0  0  0  0  0  0  0  0
    3.9761    3.5540    3.9119 H   0  0  0  0  0  0  0  0  0  0  0  0
    5.2114    2.8401   -0.1518 H   0  0  0  0  0  0  0  0  0  0  0  0
    5.5444    3.9615    2.0212 H   0  0  0  0  0  0  0  0  0  0  0  0
    0.2580   -0.3077   -2.5221 N   0  0  0  0  0  0  0  0  0  0  0  0
    0.0400   -1.0698   -3.7306 C   0  0  2  0  0  0  0  0  0  0  0  0
   -0.3011   -2.4991   -3.3302 C   0  0  0  0  0  0  0  0  0  0  0  0
    0.0124   -2.9847   -2.2453 O   0  0  0  0  0  0  0  0  0  0  0  0
    1.2625   -1.0356   -4.6345 C   0  0  0  0  0  0  0  0  0  0  0  0
    1.1031    0.2513   -2.4503 H   0  0  0  0  0  0  0  0  0  0  0  0
   -0.8185   -0.6177   -4.2391 H   0  0  0  0  0  0  0  0  0  0  0  0
    2.1329   -1.4844   -4.1420 H   0  0  0  0  0  0  0  0  0  0  0  0
    1.0856   -1.5896   -5.5623 H   0  0  0  0  0  0  0  0  0  0  0  0
    1.5242   -0.0050   -4.8973 H   0  0  0  0  0  0  0  0  0  0  0  0
   -0.9588   -3.1822   -4.3436 N   0  0  0  0  0  0  0  0  0  0  0  0
   -1.3776   -4.5581   -4.2120 C   0  0  0  0  0  0  0  0  0  0  0  0
   -1.1949   -2.6950   -5.2031 H   0  0  0  0  0  0  0  0  0  0  0  0
   -0.5903   -5.2204   -4.6012 H   0  0  0  0  0  0  0  0  0  0  0  0
   -1.5576   -4.7867   -3.1512 H   0  0  0  0  0  0  0  0  0  0  0  0
   -2.3044   -4.7154   -4.7833 H   0  0  0  0  0  0  0  0  0  0  0  0
 29 30  2  0  0  0  0
 27 29  1  0  0  0  0
 28 30  1  0  0  0  0
 24 27  2  0  0  0  0
 26 28  2  0  0  0  0
 22 23  2  0  0  0  0
 23 25  1  0  0  0  0
 22 24  1  0  0  0  0
 24 26  1  0  0  0  0
 21 22  1  0  0  0  0
 25 26  1  0  0  0  0
  1  3  1  0  0  0  0
  1  7  1  0  0  0  0
  1  2  2  0  0  0  0
 42 43  1  0  0  0  0
 43 51  1  0  0  0  0
 43 44  2  0  0  0  0
  8  9  1  0  0  0  0
  9 17  1  0  0  0  0
  9 10  2  0  0  0  0
 18 19  1  0  0  0  0
 19 41  1  0  0  0  0
 19 20  2  0  0  0  0
 42 45  1  0  0  0  0
  8 11  1  0  0  0  0
 51 52  1  0  0  0  0
 18 21  1  0  0  0  0
 41 42  1  0  0  0  0
  7  8  1  0  0  0  0
 17 18  1  0  0  0  0
 29 39  1  0  0  0  0
 30 40  1  0  0  0  0
 27 37  1  0  0  0  0
 28 38  1  0  0  0  0
 23 35  1  0  0  0  0
  3  4  1  0  0  0  0
  3  5  1  0  0  0  0
  3  6  1  0  0  0  0
 45 48  1  0  0  0  0
 45 49  1  0  0  0  0
 45 50  1  0  0  0  0
 11 14  1  0  0  0  0
 11 15  1  0  0  0  0
 11 16  1  0  0  0  0
 52 54  1  0  0  0  0
 52 55  1  0  0  0  0
 52 56  1  0  0  0  0
 21 33  1  0  0  0  0
 21 34  1  0  0  0  0
 42 47  1  0  0  0  0
  8 13  1  0  0  0  0
 18 32  1  0  0  0  0
 25 36  1  0  0  0  0
 51 53  1  0  0  0  0
  7 12  1  0  0  0  0
 41 46  1  0  0  0  0
 17 31  1  0  0  0  0
M  END
$$$$

  -OEChem-05262214473D

 56 57  0     1  0  0  0  0  0999 V2000
   -2.2900    0.3401    4.1553 C   0  0  0  0  0  0  0  0  0  0  0  0
   -1.3426   -0.2746    3.6796 O   0  0  0  0  0  0  0  0  0  0  0  0
   -2.7219    0.0577    5.5560 C   0  0  0  0  0  0  0  0  0  0  0  0
   -3.4815   -0.7386    5.6094 H   0  0  0  0  0  0  0  0  0  0  0  0
   -1.8906   -0.2899    6.1903 H   0  0  0  0  0  0  0  0  0  0  0  0
   -3.1599    0.9126    6.0956 H   0  0  0  0  0  0  0  0  0  0  0  0
   -3.0397    1.3125    3.5142 N   0  0  0  0  0  0  0  0  0  0  0  0
   -2.7928    1.7385    2.1618 C   0  0  2  0  0  0  0  0  0  0  0  0
   -1.4579    1.1532    1.7206 C   0  0  0  0  0  0  0  0  0  0  0  0
   -0.5858    0.8004    2.5118 O   0  0  0  0  0  0  0  0  0  0  0  0
   -2.7841    3.2553    2.0523 C   0  0  0  0  0  0  0  0  0  0  0  0
   -3.8047    1.7484    4.0260 H   0  0  0  0  0  0  0  0  0  0  0  0
   -3.5969    1.3201    1.5466 H   0  0  0  0  0  0  0  0  0  0  0  0
   -1.9850    3.6926    2.6620 H   0  0  0  0  0  0  0  0  0  0  0  0
   -2.6246    3.5776    1.0180 H   0  0  0  0  0  0  0  0  0  0  0  0
   -3.7342    3.6765    2.3981 H   0  0  0  0  0  0  0  0  0  0  0  0
   -1.3352    1.1101    0.3372 N   0  0  0  0  0  0  0  0  0  0  0  0
   -0.1579    0.6093   -0.3265 C   0  0  2  0  0  0  0  0  0  0  0  0
   -0.6291   -0.3013   -1.4547 C   0  0  0  0  0  0  0  0  0  0  0  0
   -1.7879   -0.6991   -1.5538 O   0  0  0  0  0  0  0  0  0  0  0  0
    0.7628   -0.1587    0.6289 C   0  0  0  0  0  0  0  0  0  0  0  0
    1.3855    0.7289    1.6787 C   0  0  0  0  0  0  0  0  0  0  0  0
    0.9227    0.9007    2.9629 C   0  0  0  0  0  0  0  0  0  0  0  0
    2.5492    1.5336    1.5264 C   0  0  0  0  0  0  0  0  0  0  0  0
    1.7589    1.7791    3.5982 N   0  0  0  0  0  0  0  0  0  0  0  0
    2.7614    2.1819    2.7450 C   0  0  0  0  0  0  0  0  0  0  0  0
    3.4451    1.7734    0.4656 C   0  0  0  0  0  0  0  0  0  0  0  0
    3.8290    3.0616    2.9566 C   0  0  0  0  0  0  0  0  0  0  0  0
    4.5175    2.6509    0.6628 C   0  0  0  0  0  0  0  0  0  0  0  0
    4.7046    3.2839    1.8900 C   0  0  0  0  0  0  0  0  0  0  0  0
   -2.1183    1.4068   -0.2401 H   0  0  0  0  0  0  0  0  0  0  0  0
    0.3521    1.4793   -0.7567 H   0  0  0  0  0  0  0  0  0  0  0  0
    1.5523   -0.6734    0.0646 H   0  0  0  0  0  0  0  0  0  0  0  0
    0.2068   -0.9564    1.1389 H   0  0  0  0  0  0  0  0  0  0  0  0
    0.0730    0.4787    3.4818 H   0  0  0  0  0  0  0  0  0  0  0  0
    1.6560    2.0875    4.5551 H   0  0  0  0  0  0  0  0  0  0  0  0
    3.3123    1.2884   -0.4973 H   0  0  0  0  0  0  0  0  0  0  0  0
    3.9761    3.5540    3.9119 H   0  0  0  0  0  0  0  0  0  0  0  0
    5.2114    2.8401   -0.1518 H   0  0  0  0  0  0  0  0  0  0  0  0
    5.5444    3.9615    2.0212 H   0  0  0  0  0  0  0  0  0  0  0  0
    0.3861   -0.5734   -2.3612 N   0  0  0  0  0  0  0  0  0  0  0  0
    0.2014   -1.3933   -3.5370 C   0  0  2  0  0  0  0  0  0  0  0  0
   -0.4707   -2.6900   -3.1053 C   0  0  0  0  0  0  0  0  0  0  0  0
   -0.4222   -3.1199   -1.9547 O   0  0  0  0  0  0  0  0  0  0  0  0
    1.5257   -1.6723   -4.2306 C   0  0  0  0  0  0  0  0  0  0  0  0
    1.3051   -0.1764   -2.1896 H   0  0  0  0  0  0  0  0  0  0  0  0
   -0.4665   -0.8404   -4.2064 H   0  0  0  0  0  0  0  0  0  0  0  0
    2.2081   -2.2257   -3.5753 H   0  0  0  0  0  0  0  0  0  0  0  0
    1.3808   -2.2695   -5.1369 H   0  0  0  0  0  0  0  0  0  0  0  0
    2.0218   -0.7376   -4.5138 H   0  0  0  0  0  0  0  0  0  0  0  0
   -1.0945   -3.3326   -4.1655 N   0  0  0  0  0  0  0  0  0  0  0  0
   -1.7920   -4.5883   -4.0146 C   0  0  0  0  0  0  0  0  0  0  0  0
   -1.1008   -2.8941   -5.0817 H   0  0  0  0  0  0  0  0  0  0  0  0
   -1.1028   -5.4189   -4.2270 H   0  0  0  0  0  0  0  0  0  0  0  0
   -2.1673   -4.6776   -2.9845 H   0  0  0  0  0  0  0  0  0  0  0  0
   -2.6374   -4.6247   -4.7174 H   0  0  0  0  0  0  0  0  0  0  0  0
 29 30  2  0  0  0  0
 27 29  1  0  0  0  0
 28 30  1  0  0  0  0
 24 27  2  0  0  0  0
 26 28  2  0  0  0  0
 22 23  2  0  0  0  0
 23 25  1  0  0  0  0
 22 24  1  0  0  0  0
 24 26  1  0  0  0  0
 21 22  1  0  0  0  0
 25 26  1  0  0  0  0
  1  3  1  0  0  0  0
  1  7  1  0  0  0  0
  1  2  2  0  0  0  0
 42 43  1  0  0  0  0
 43 51  1  0  0  0  0
 43 44  2  0  0  0  0
  8  9  1  0  0  0  0
  9 17  1  0  0  0  0
  9 10  2  0  0  0  0
 18 19  1  0  0  0  0
 19 41  1  0  0  0  0
 19 20  2  0  0  0  0
 42 45  1  0  0  0  0
  8 11  1  0  0  0  0
 51 52  1  0  0  0  0
 18 21  1  0  0  0  0
 41 42  1  0  0  0  0
  7  8  1  0  0  0  0
 17 18  1  0  0  0  0
 29 39  1  0  0  0  0
 30 40  1  0  0  0  0
 27 37  1  0  0  0  0
 28 38  1  0  0  0  0
 23 35  1  0  0  0  0
  3  4  1  0  0  0  0
  3  5  1  0  0  0  0
  3  6  1  0  0  0  0
 45 48  1  0  0  0  0
 45 49  1  0  0  0  0
 45 50  1  0  0  0  0
 11 14  1  0  0  0  0
 11 15  1  0  0  0  0
 11 16  1  0  0  0  0
 52 54  1  0  0  0  0
 52 55  1  0  0  0  0
 52 56  1  0  0  0  0
 21 33  1  0  0  0  0
 21 34  1  0  0  0  0
 42 47  1  0  0  0  0
  8 13  1  0  0  0  0
 18 32  1  0  0  0  0
 25 36  1  0  0  0  0
 51 53  1  0  0  0  0
  7 12  1  0  0  0  0
 41 46  1  0  0  0  0
 17 31  1  0  0  0  0
M  END
$$$$

  -OEChem-05262214473D

 56 57  0     1  0  0  0  0  0999 V2000
   -2.2900    0.3401    4.1553 C   0  0  0  0  0  0  0  0  0  0  0  0
   -1.3426   -0.2746    3.6796 O   0  0  0  0  0  0  0  0  0  0  0  0
   -2.7219    0.0577    5.5560 C   0  0  0  0  0  0  0  0  0  0  0  0
   -3.4815   -0.7386    5.6094 H   0  0  0  0  0  0  0  0  0  0  0  0
   -1.8906   -0.2899    6.1903 H   0  0  0  0  0  0  0  0  0  0  0  0
   -3.1599    0.9126    6.0956 H   0  0  0  0  0  0  0  0  0  0  0  0
   -3.0397    1.3125    3.5142 N   0  0  0  0  0  0  0  0  0  0  0  0
   -2.7928    1.7385    2.1618 C   0  0  2  0  0  0  0  0  0  0  0  0
   -1.4579    1.1532    1.7206 C   0  0  0  0  0  0  0  0  0  0  0  0
   -0.5858    0.8004    2.5118 O   0  0  0  0  0  0  0  0  0  0  0  0
   -2.7841    3.2553    2.0523 C   0  0  0  0  0  0  0  0  0  0  0  0
   -3.8047    1.7484    4.0260 H   0  0  0  0  0  0  0  0  0  0  0  0
   -3.5969    1.3201    1.5466 H   0  0  0  0  0  0  0  0  0  0  0  0
   -1.9850    3.6926    2.6620 H   0  0  0  0  0  0  0  0  0  0  0  0
   -2.6246    3.5776    1.0180 H   0  0  0  0  0  0  0  0  0  0  0  0
   -3.7342    3.6765    2.3981 H   0  0  0  0  0  0  0  0  0  0  0  0
   -1.3352    1.1101    0.3372 N   0  0  0  0  0  0  0  0  0  0  0  0
   -0.1579    0.6093   -0.3265 C   0  0  2  0  0  0  0  0  0  0  0  0
   -0.6076    0.0191   -1.6583 C   0  0  0  0  0  0  0  0  0  0  0  0
   -1.7748    0.0472   -2.0426 O   0  0  0  0  0  0  0  0  0  0  0  0
    0.5701   -0.4511    0.5076 C   0  0  0  0  0  0  0  0  0  0  0  0
    1.1751    0.1134    1.7698 C   0  0  0  0  0  0  0  0  0  0  0  0
    0.6044    0.0753    3.0211 C   0  0  0  0  0  0  0  0  0  0  0  0
    2.4294    0.7755    1.8859 C   0  0  0  0  0  0  0  0  0  0  0  0
    1.4620    0.6887    3.8943 N   0  0  0  0  0  0  0  0  0  0  0  0
    2.5850    1.1260    3.2287 C   0  0  0  0  0  0  0  0  0  0  0  0
    3.4503    1.1112    0.9746 C   0  0  0  0  0  0  0  0  0  0  0  0
    3.7150    1.7982    3.7078 C   0  0  0  0  0  0  0  0  0  0  0  0
    4.5864    1.7835    1.4395 C   0  0  0  0  0  0  0  0  0  0  0  0
    4.7147    2.1207    2.7855 C   0  0  0  0  0  0  0  0  0  0  0  0
   -2.1183    1.4068   -0.2401 H   0  0  0  0  0  0  0  0  0  0  0  0
    0.4858    1.4761   -0.5172 H   0  0  0  0  0  0  0  0  0  0  0  0
    1.3523   -0.9359   -0.0922 H   0  0  0  0  0  0  0  0  0  0  0  0
   -0.1194   -1.2583    0.7881 H   0  0  0  0  0  0  0  0  0  0  0  0
   -0.3352   -0.3315    3.3690 H   0  0  0  0  0  0  0  0  0  0  0  0
    1.2957    0.8041    4.8845 H   0  0  0  0  0  0  0  0  0  0  0  0
    3.3649    0.8561   -0.0779 H   0  0  0  0  0  0  0  0  0  0  0  0
    3.8162    2.0602    4.7555 H   0  0  0  0  0  0  0  0  0  0  0  0
    5.3769    2.0455    0.7413 H   0  0  0  0  0  0  0  0  0  0  0  0
    5.6056    2.6428    3.1249 H   0  0  0  0  0  0  0  0  0  0  0  0
    0.4573   -0.4959   -2.3844 N   0  0  0  0  0  0  0  0  0  0  0  0
    0.3109   -1.0937   -3.6921 C   0  0  2  0  0  0  0  0  0  0  0  0
   -0.8113   -2.1206   -3.6167 C   0  0  0  0  0  0  0  0  0  0  0  0
   -1.1710   -2.6451   -2.5648 O   0  0  0  0  0  0  0  0  0  0  0  0
    1.6082   -1.7390   -4.1539 C   0  0  0  0  0  0  0  0  0  0  0  0
    1.3863   -0.4504   -1.9762 H   0  0  0  0  0  0  0  0  0  0  0  0
    0.0245   -0.2886   -4.3776 H   0  0  0  0  0  0  0  0  0  0  0  0
    1.9110   -2.5481   -3.4793 H   0  0  0  0  0  0  0  0  0  0  0  0
    1.5037   -2.1664   -5.1566 H   0  0  0  0  0  0  0  0  0  0  0  0
    2.4211   -1.0053   -4.1789 H   0  0  0  0  0  0  0  0  0  0  0  0
   -1.3347   -2.4144   -4.8681 N   0  0  0  0  0  0  0  0  0  0  0  0
   -2.4013   -3.3687   -5.0626 C   0  0  0  0  0  0  0  0  0  0  0  0
   -0.9887   -1.9176   -5.6837 H   0  0  0  0  0  0  0  0  0  0  0  0
   -1.9733   -4.3602   -5.2716 H   0  0  0  0  0  0  0  0  0  0  0  0
   -3.0177   -3.4199   -4.1530 H   0  0  0  0  0  0  0  0  0  0  0  0
   -3.0256   -3.0526   -5.9113 H   0  0  0  0  0  0  0  0  0  0  0  0
 29 30  2  0  0  0  0
 27 29  1  0  0  0  0
 28 30  1  0  0  0  0
 24 27  2  0  0  0  0
 26 28  2  0  0  0  0
 22 23  2  0  0  0  0
 23 25  1  0  0  0  0
 22 24  1  0  0  0  0
 24 26  1  0  0  0  0
 21 22  1  0  0  0  0
 25 26  1  0  0  0  0
  1  3  1  0  0  0  0
  1  7  1  0  0  0  0
  1  2  2  0  0  0  0
 42 43  1  0  0  0  0
 43 51  1  0  0  0  0
 43 44  2  0  0  0  0
  8  9  1  0  0  0  0
  9 17  1  0  0  0  0
  9 10  2  0  0  0  0
 18 19  1  0  0  0  0
 19 41  1  0  0  0  0
 19 20  2  0  0  0  0
 42 45  1  0  0  0  0
  8 11  1  0  0  0  0
 51 52  1  0  0  0  0
 18 21  1  0  0  0  0
 41 42  1  0  0  0  0
  7  8  1  0  0  0  0
 17 18  1  0  0  0  0
 29 39  1  0  0  0  0
 30 40  1  0  0  0  0
 27 37  1  0  0  0  0
 28 38  1  0  0  0  0
 23 35  1  0  0  0  0
  3  4  1  0  0  0  0
  3  5  1  0  0  0  0
  3  6  1  0  0  0  0
 45 48  1  0  0  0  0
 45 49  1  0  0  0  0
 45 50  1  0  0  0  0
 11 14  1  0  0  0  0
 11 15  1  0  0  0  0
 11 16  1  0  0  0  0
 52 54  1  0  0  0  0
 52 55  1  0  0  0  0
 52 56  1  0  0  0  0
 21 33  1  0  0  0  0
 21 34  1  0  0  0  0
 42 47  1  0  0  0  0
  8 13  1  0  0  0  0
 18 32  1  0  0  0  0
 25 36  1  0  0  0  0
 51 53  1  0  0  0  0
  7 12  1  0  0  0  0
 41 46  1  0  0  0  0
 17 31  1  0  0  0  0
M  END
$$$$

  -OEChem-05262214473D

 56 57  0     1  0  0  0  0  0999 V2000
   -2.2900    0.3401    4.1553 C   0  0  0  0  0  0  0  0  0  0  0  0
   -1.3426   -0.2746    3.6796 O   0  0  0  0  0  0  0  0  0  0  0  0
   -2.7219    0.0577    5.5560 C   0  0  0  0  0  0  0  0  0  0  0  0
   -3.4815   -0.7386    5.6094 H   0  0  0  0  0  0  0  0  0  0  0  0
   -1.8906   -0.2899    6.1903 H   0  0  0  0  0  0  0  0  0  0  0  0
   -3.1599    0.9126    6.0956 H   0  0  0  0  0  0  0  0  0  0  0  0
   -3.0397    1.3125    3.5142 N   0  0  0  0  0  0  0  0  0  0  0  0
   -2.7928    1.7385    2.1618 C   0  0  2  0  0  0  0  0  0  0  0  0
   -1.4579    1.1532    1.7206 C   0  0  0  0  0  0  0  0  0  0  0  0
   -0.5858    0.8004    2.5118 O   0  0  0  0  0  0  0  0  0  0  0  0
   -2.7841    3.2553    2.0523 C   0  0  0  0  0  0  0  0  0  0  0  0
   -3.8047    1.7484    4.0260 H   0  0  0  0  0  0  0  0  0  0  0  0
   -3.5969    1.3201    1.5466 H   0  0  0  0  0  0  0  0  0  0  0  0
   -1.9850    3.6926    2.6620 H   0  0  0  0  0  0  0  0  0  0  0  0
   -2.6246    3.5776    1.0180 H   0  0  0  0  0  0  0  0  0  0  0  0
   -3.7342    3.6765    2.3981 H   0  0  0  0  0  0  0  0  0  0  0  0
   -1.3352    1.1101    0.3372 N   0  0  0  0  0  0  0  0  0  0  0  0
   -0.1579    0.6093   -0.3265 C   0  0  2  0  0  0  0  0  0  0  0  0
   -0.6076    0.0191   -1.6583 C   0  0  0  0  0  0  0  0  0  0  0  0
   -1.6969    0.2720   -2.1685 O   0  0  0  0  0  0  0  0  0  0  0  0
    0.5701   -0.4511    0.5076 C   0  0  0  0  0  0  0  0  0  0  0  0
    1.1751    0.1134    1.7698 C   0  0  0  0  0  0  0  0  0  0  0  0
    0.6044    0.0753    3.0211 C   0  0  0  0  0  0  0  0  0  0  0  0
    2.4294    0.7755    1.8859 C   0  0  0  0  0  0  0  0  0  0  0  0
    1.4620    0.6887    3.8943 N   0  0  0  0  0  0  0  0  0  0  0  0
    2.5850    1.1260    3.2287 C   0  0  0  0  0  0  0  0  0  0  0  0
    3.4503    1.1112    0.9746 C   0  0  0  0  0  0  0  0  0  0  0  0
    3.7150    1.7982    3.7078 C   0  0  0  0  0  0  0  0  0  0  0  0
    4.5864    1.7835    1.4395 C   0  0  0  0  0  0  0  0  0  0  0  0
    4.7147    2.1207    2.7855 C   0  0  0  0  0  0  0  0  0  0  0  0
   -2.1183    1.4068   -0.2401 H   0  0  0  0  0  0  0  0  0  0  0  0
    0.4858    1.4761   -0.5172 H   0  0  0  0  0  0  0  0  0  0  0  0
    1.3523   -0.9359   -0.0922 H   0  0  0  0  0  0  0  0  0  0  0  0
   -0.1194   -1.2583    0.7881 H   0  0  0  0  0  0  0  0  0  0  0  0
   -0.3352   -0.3315    3.3690 H   0  0  0  0  0  0  0  0  0  0  0  0
    1.2957    0.8041    4.8845 H   0  0  0  0  0  0  0  0  0  0  0  0
    3.3649    0.8561   -0.0779 H   0  0  0  0  0  0  0  0  0  0  0  0
    3.8162    2.0602    4.7555 H   0  0  0  0  0  0  0  0  0  0  0  0
    5.3769    2.0455    0.7413 H   0  0  0  0  0  0  0  0  0  0  0  0
    5.6056    2.6428    3.1249 H   0  0  0  0  0  0  0  0  0  0  0  0
    0.3721   -0.7814   -2.2291 N   0  0  0  0  0  0  0  0  0  0  0  0
    0.2123   -1.4442   -3.5034 C   0  0  2  0  0  0  0  0  0  0  0  0
   -1.1180   -2.1855   -3.4844 C   0  0  0  0  0  0  0  0  0  0  0  0
   -1.6834   -2.5224   -2.4462 O   0  0  0  0  0  0  0  0  0  0  0  0
    1.3630   -2.3997   -3.7783 C   0  0  0  0  0  0  0  0  0  0  0  0
    1.2454   -0.9078   -1.7259 H   0  0  0  0  0  0  0  0  0  0  0  0
    0.1827   -0.6591   -4.2668 H   0  0  0  0  0  0  0  0  0  0  0  0
    1.4087   -3.1934   -3.0237 H   0  0  0  0  0  0  0  0  0  0  0  0
    1.2552   -2.8796   -4.7566 H   0  0  0  0  0  0  0  0  0  0  0  0
    2.3217   -1.8701   -3.7621 H   0  0  0  0  0  0  0  0  0  0  0  0
   -1.5783   -2.4644   -4.7637 N   0  0  0  0  0  0  0  0  0  0  0  0
   -2.8134   -3.1711   -5.0110 C   0  0  0  0  0  0  0  0  0  0  0  0
   -1.0542   -2.1305   -5.5672 H   0  0  0  0  0  0  0  0  0  0  0  0
   -2.6076   -4.2474   -5.1074 H   0  0  0  0  0  0  0  0  0  0  0  0
   -3.5055   -3.0040   -4.1725 H   0  0  0  0  0  0  0  0  0  0  0  0
   -3.2680   -2.8001   -5.9414 H   0  0  0  0  0  0  0  0  0  0  0  0
 29 30  2  0  0  0  0
 27 29  1  0  0  0  0
 28 30  1  0  0  0  0
 24 27  2  0  0  0  0
 26 28  2  0  0  0  0
 22 23  2  0  0  0  0
 23 25  1  0  0  0  0
 22 24  1  0  0  0  0
 24 26  1  0  0  0  0
 21 22  1  0  0  0  0
 25 26  1  0  0  0  0
  1  3  1  0  0  0  0
  1  7  1  0  0  0  0
  1  2  2  0  0  0  0
 42 43  1  0  0  0  0
 43 51  1  0  0  0  0
 43 44  2  0  0  0  0
  8  9  1  0  0  0  0
  9 17  1  0  0  0  0
  9 10  2  0  0  0  0
 18 19  1  0  0  0  0
 19 41  1  0  0  0  0
 19 20  2  0  0  0  0
 42 45  1  0  0  0  0
  8 11  1  0  0  0  0
 51 52  1  0  0  0  0
 18 21  1  0  0  0  0
 41 42  1  0  0  0  0
  7  8  1  0  0  0  0
 17 18  1  0  0  0  0
 29 39  1  0  0  0  0
 30 40  1  0  0  0  0
 27 37  1  0  0  0  0
 28 38  1  0  0  0  0
 23 35  1  0  0  0  0
  3  4  1  0  0  0  0
  3  5  1  0  0  0  0
  3  6  1  0  0  0  0
 45 48  1  0  0  0  0
 45 49  1  0  0  0  0
 45 50  1  0  0  0  0
 11 14  1  0  0  0  0
 11 15  1  0  0  0  0
 11 16  1  0  0  0  0
 52 54  1  0  0  0  0
 52 55  1  0  0  0  0
 52 56  1  0  0  0  0
 21 33  1  0  0  0  0
 21 34  1  0  0  0  0
 42 47  1  0  0  0  0
  8 13  1  0  0  0  0
 18 32  1  0  0  0  0
 25 36  1  0  0  0  0
 51 53  1  0  0  0  0
  7 12  1  0  0  0  0
 41 46  1  0  0  0  0
 17 31  1  0  0  0  0
M  END
$$$$

  -OEChem-05262214473D

 56 57  0     1  0  0  0  0  0999 V2000
   -2.2900    0.3401    4.1553 C   0  0  0  0  0  0  0  0  0  0  0  0
   -1.3426   -0.2746    3.6796 O   0  0  0  0  0  0  0  0  0  0  0  0
   -2.7219    0.0577    5.5560 C   0  0  0  0  0  0  0  0  0  0  0  0
   -3.4815   -0.7386    5.6094 H   0  0  0  0  0  0  0  0  0  0  0  0
   -1.8906   -0.2899    6.1903 H   0  0  0  0  0  0  0  0  0  0  0  0
   -3.1599    0.9126    6.0956 H   0  0  0  0  0  0  0  0  0  0  0  0
   -3.0397    1.3125    3.5142 N   0  0  0  0  0  0  0  0  0  0  0  0
   -2.7928    1.7385    2.1618 C   0  0  2  0  0  0  0  0  0  0  0  0
   -1.4579    1.1532    1.7206 C   0  0  0  0  0  0  0  0  0  0  0  0
   -0.5858    0.8004    2.5118 O   0  0  0  0  0  0  0  0  0  0  0  0
   -2.7841    3.2553    2.0523 C   0  0  0  0  0  0  0  0  0  0  0  0
   -3.8047    1.7484    4.0260 H   0  0  0  0  0  0  0  0  0  0  0  0
   -3.5969    1.3201    1.5466 H   0  0  0  0  0  0  0  0  0  0  0  0
   -1.9850    3.6926    2.6620 H   0  0  0  0  0  0  0  0  0  0  0  0
   -2.6246    3.5776    1.0180 H   0  0  0  0  0  0  0  0  0  0  0  0
   -3.7342    3.6765    2.3981 H   0  0  0  0  0  0  0  0  0  0  0  0
   -1.3352    1.1101    0.3372 N   0  0  0  0  0  0  0  0  0  0  0  0
   -0.1579    0.6093   -0.3265 C   0  0  2  0  0  0  0  0  0  0  0  0
   -0.6076    0.0191   -1.6583 C   0  0  0  0  0  0  0  0  0  0  0  0
   -1.5582    0.4619   -2.2995 O   0  0  0  0  0  0  0  0  0  0  0  0
    0.5701   -0.4511    0.5076 C   0  0  0  0  0  0  0  0  0  0  0  0
    1.1751    0.1134    1.7698 C   0  0  0  0  0  0  0  0  0  0  0  0
    0.6044    0.0753    3.0211 C   0  0  0  0  0  0  0  0  0  0  0  0
    2.4294    0.7755    1.8859 C   0  0  0  0  0  0  0  0  0  0  0  0
    1.4620    0.6887    3.8943 N   0  0  0  0  0  0  0  0  0  0  0  0
    2.5850    1.1260    3.2287 C   0  0  0  0  0  0  0  0  0  0  0  0
    3.4503    1.1112    0.9746 C   0  0  0  0  0  0  0  0  0  0  0  0
    3.7150    1.7982    3.7078 C   0  0  0  0  0  0  0  0  0  0  0  0
    4.5864    1.7835    1.4395 C   0  0  0  0  0  0  0  0  0  0  0  0
    4.7147    2.1207    2.7855 C   0  0  0  0  0  0  0  0  0  0  0  0
   -2.1183    1.4068   -0.2401 H   0  0  0  0  0  0  0  0  0  0  0  0
    0.4858    1.4761   -0.5172 H   0  0  0  0  0  0  0  0  0  0  0  0
    1.3523   -0.9359   -0.0922 H   0  0  0  0  0  0  0  0  0  0  0  0
   -0.1194   -1.2583    0.7881 H   0  0  0  0  0  0  0  0  0  0  0  0
   -0.3352   -0.3315    3.3690 H   0  0  0  0  0  0  0  0  0  0  0  0
    1.2957    0.8041    4.8845 H   0  0  0  0  0  0  0  0  0  0  0  0
    3.3649    0.8561   -0.0779 H   0  0  0  0  0  0  0  0  0  0  0  0
    3.8162    2.0602    4.7555 H   0  0  0  0  0  0  0  0  0  0  0  0
    5.3769    2.0455    0.7413 H   0  0  0  0  0  0  0  0  0  0  0  0
    5.6056    2.6428    3.1249 H   0  0  0  0  0  0  0  0  0  0  0  0
    0.2097   -1.0261   -2.0658 N   0  0  0  0  0  0  0  0  0  0  0  0
    0.0189   -1.7461   -3.3043 C   0  0  2  0  0  0  0  0  0  0  0  0
   -1.4422   -2.1686   -3.3824 C   0  0  0  0  0  0  0  0  0  0  0  0
   -2.1624   -2.2790   -2.3923 O   0  0  0  0  0  0  0  0  0  0  0  0
    0.9392   -2.9538   -3.3897 C   0  0  0  0  0  0  0  0  0  0  0  0
    0.9807   -1.2986   -1.4633 H   0  0  0  0  0  0  0  0  0  0  0  0
    0.2406   -1.0442   -4.1156 H   0  0  0  0  0  0  0  0  0  0  0  0
    0.7320   -3.6684   -2.5847 H   0  0  0  0  0  0  0  0  0  0  0  0
    0.8138   -3.4818   -4.3407 H   0  0  0  0  0  0  0  0  0  0  0  0
    1.9884   -2.6511   -3.3034 H   0  0  0  0  0  0  0  0  0  0  0  0
   -1.8354   -2.4497   -4.6834 N   0  0  0  0  0  0  0  0  0  0  0  0
   -3.1720   -2.8832   -5.0175 C   0  0  0  0  0  0  0  0  0  0  0  0
   -1.1774   -2.3125   -5.4450 H   0  0  0  0  0  0  0  0  0  0  0  0
   -3.2113   -3.9825   -5.0210 H   0  0  0  0  0  0  0  0  0  0  0  0
   -3.8808   -2.4934   -4.2721 H   0  0  0  0  0  0  0  0  0  0  0  0
   -3.4421   -2.5036   -6.0140 H   0  0  0  0  0  0  0  0  0  0  0  0
 29 30  2  0  0  0  0
 27 29  1  0  0  0  0
 28 30  1  0  0  0  0
 24 27  2  0  0  0  0
 26 28  2  0  0  0  0
 22 23  2  0  0  0  0
 23 25  1  0  0  0  0
 22 24  1  0  0  0  0
 24 26  1  0  0  0  0
 21 22  1  0  0  0  0
 25 26  1  0  0  0  0
  1  3  1  0  0  0  0
  1  7  1  0  0  0  0
  1  2  2  0  0  0  0
 42 43  1  0  0  0  0
 43 51  1  0  0  0  0
 43 44  2  0  0  0  0
  8  9  1  0  0  0  0
  9 17  1  0  0  0  0
  9 10  2  0  0  0  0
 18 19  1  0  0  0  0
 19 41  1  0  0  0  0
 19 20  2  0  0  0  0
 42 45  1  0  0  0  0
  8 11  1  0  0  0  0
 51 52  1  0  0  0  0
 18 21  1  0  0  0  0
 41 42  1  0  0  0  0
  7  8  1  0  0  0  0
 17 18  1  0  0  0  0
 29 39  1  0  0  0  0
 30 40  1  0  0  0  0
 27 37  1  0  0  0  0
 28 38  1  0  0  0  0
 23 35  1  0  0  0  0
  3  4  1  0  0  0  0
  3  5  1  0  0  0  0
  3  6  1  0  0  0  0
 45 48  1  0  0  0  0
 45 49  1  0  0  0  0
 45 50  1  0  0  0  0
 11 14  1  0  0  0  0
 11 15  1  0  0  0  0
 11 16  1  0  0  0  0
 52 54  1  0  0  0  0
 52 55  1  0  0  0  0
 52 56  1  0  0  0  0
 21 33  1  0  0  0  0
 21 34  1  0  0  0  0
 42 47  1  0  0  0  0
  8 13  1  0  0  0  0
 18 32  1  0  0  0  0
 25 36  1  0  0  0  0
 51 53  1  0  0  0  0
  7 12  1  0  0  0  0
 41 46  1  0  0  0  0
 17 31  1  0  0  0  0
M  END
$$$$

  -OEChem-05262214473D

 56 57  0     1  0  0  0  0  0999 V2000
   -2.2900    0.3401    4.1553 C   0  0  0  0  0  0  0  0  0  0  0  0
   -1.3426   -0.2746    3.6796 O   0  0  0  0  0  0  0  0  0  0  0  0
   -2.7219    0.0577    5.5560 C   0  0  0  0  0  0  0  0  0  0  0  0
   -3.4815   -0.7386    5.6094 H   0  0  0  0  0  0  0  0  0  0  0  0
   -1.8906   -0.2899    6.1903 H   0  0  0  0  0  0  0  0  0  0  0  0
   -3.1599    0.9126    6.0956 H   0  0  0  0  0  0  0  0  0  0  0  0
   -3.0397    1.3125    3.5142 N   0  0  0  0  0  0  0  0  0  0  0  0
   -2.7928    1.7385    2.1618 C   0  0  2  0  0  0  0  0  0  0  0  0
   -1.4579    1.1532    1.7206 C   0  0  0  0  0  0  0  0  0  0  0  0
   -0.5858    0.8004    2.5118 O   0  0  0  0  0  0  0  0  0  0  0  0
   -2.7841    3.2553    2.0523 C   0  0  0  0  0  0  0  0  0  0  0  0
   -3.8047    1.7484    4.0260 H   0  0  0  0  0  0  0  0  0  0  0  0
   -3.5969    1.3201    1.5466 H   0  0  0  0  0  0  0  0  0  0  0  0
   -1.9850    3.6926    2.6620 H   0  0  0  0  0  0  0  0  0  0  0  0
   -2.6246    3.5776    1.0180 H   0  0  0  0  0  0  0  0  0  0  0  0
   -3.7342    3.6765    2.3981 H   0  0  0  0  0  0  0  0  0  0  0  0
   -1.3352    1.1101    0.3372 N   0  0  0  0  0  0  0  0  0  0  0  0
   -0.1579    0.6093   -0.3265 C   0  0  2  0  0  0  0  0  0  0  0  0
   -0.6076    0.0191   -1.6583 C   0  0  0  0  0  0  0  0  0  0  0  0
   -1.3682    0.6040   -2.4266 O   0  0  0  0  0  0  0  0  0  0  0  0
    0.5701   -0.4511    0.5076 C   0  0  0  0  0  0  0  0  0  0  0  0
    1.1751    0.1134    1.7698 C   0  0  0  0  0  0  0  0  0  0  0  0
    0.6044    0.0753    3.0211 C   0  0  0  0  0  0  0  0  0  0  0  0
    2.4294    0.7755    1.8859 C   0  0  0  0  0  0  0  0  0  0  0  0
    1.4620    0.6887    3.8943 N   0  0  0  0  0  0  0  0  0  0  0  0
    2.5850    1.1260    3.2287 C   0  0  0  0  0  0  0  0  0  0  0  0
    3.4503    1.1112    0.9746 C   0  0  0  0  0  0  0  0  0  0  0  0
    3.7150    1.7982    3.7078 C   0  0  0  0  0  0  0  0  0  0  0  0
    4.5864    1.7835    1.4395 C   0  0  0  0  0  0  0  0  0  0  0  0
    4.7147    2.1207    2.7855 C   0  0  0  0  0  0  0  0  0  0  0  0
   -2.1183    1.4068   -0.2401 H   0  0  0  0  0  0  0  0  0  0  0  0
    0.4858    1.4761   -0.5172 H   0  0  0  0  0  0  0  0  0  0  0  0
    1.3523   -0.9359   -0.0922 H   0  0  0  0  0  0  0  0  0  0  0  0
   -0.1194   -1.2583    0.7881 H   0  0  0  0  0  0  0  0  0  0  0  0
   -0.3352   -0.3315    3.3690 H   0  0  0  0  0  0  0  0  0  0  0  0
    1.2957    0.8041    4.8845 H   0  0  0  0  0  0  0  0  0  0  0  0
    3.3649    0.8561   -0.0779 H   0  0  0  0  0  0  0  0  0  0  0  0
    3.8162    2.0602    4.7555 H   0  0  0  0  0  0  0  0  0  0  0  0
    5.3769    2.0455    0.7413 H   0  0  0  0  0  0  0  0  0  0  0  0
    5.6056    2.6428    3.1249 H   0  0  0  0  0  0  0  0  0  0  0  0
   -0.0188   -1.2132   -1.9057 N   0  0  0  0  0  0  0  0  0  0  0  0
   -0.2561   -1.9789   -3.1083 C   0  0  2  0  0  0  0  0  0  0  0  0
   -1.7618   -2.0713   -3.3176 C   0  0  0  0  0  0  0  0  0  0  0  0
   -2.5754   -1.9314   -2.4069 O   0  0  0  0  0  0  0  0  0  0  0  0
    0.3657   -3.3635   -3.0144 C   0  0  0  0  0  0  0  0  0  0  0  0
    0.6104   -1.5962   -1.2064 H   0  0  0  0  0  0  0  0  0  0  0  0
    0.1943   -1.4178   -3.9344 H   0  0  0  0  0  0  0  0  0  0  0  0
   -0.0730   -3.9406   -2.1922 H   0  0  0  0  0  0  0  0  0  0  0  0
    0.2096   -3.9320   -3.9372 H   0  0  0  0  0  0  0  0  0  0  0  0
    1.4439   -3.2952   -2.8342 H   0  0  0  0  0  0  0  0  0  0  0  0
   -2.0884   -2.3711   -4.6328 N   0  0  0  0  0  0  0  0  0  0  0  0
   -3.4526   -2.5245   -5.0817 C   0  0  0  0  0  0  0  0  0  0  0  0
   -1.3497   -2.4511   -5.3253 H   0  0  0  0  0  0  0  0  0  0  0  0
   -3.7432   -3.5835   -5.0182 H   0  0  0  0  0  0  0  0  0  0  0  0
   -4.1179   -1.9230   -4.4449 H   0  0  0  0  0  0  0  0  0  0  0  0
   -3.5359   -2.1834   -6.1242 H   0  0  0  0  0  0  0  0  0  0  0  0
 29 30  2  0  0  0  0
 27 29  1  0  0  0  0
 28 30  1  0  0  0  0
 24 27  2  0  0  0  0
 26 28  2  0  0  0  0
 22 23  2  0  0  0  0
 23 25  1  0  0  0  0
 22 24  1  0  0  0  0
 24 26  1  0  0  0  0
 21 22  1  0  0  0  0
 25 26  1  0  0  0  0
  1  3  1  0  0  0  0
  1  7  1  0  0  0  0
  1  2  2  0  0  0  0
 42 43  1  0  0  0  0
 43 51  1  0  0  0  0
 43 44  2  0  0  0  0
  8  9  1  0  0  0  0
  9 17  1  0  0  0  0
  9 10  2  0  0  0  0
 18 19  1  0  0  0  0
 19 41  1  0  0  0  0
 19 20  2  0  0  0  0
 42 45  1  0  0  0  0
  8 11  1  0  0  0  0
 51 52  1  0  0  0  0
 18 21  1  0  0  0  0
 41 42  1  0  0  0  0
  7  8  1  0  0  0  0
 17 18  1  0  0  0  0
 29 39  1  0  0  0  0
 30 40  1  0  0  0  0
 27 37  1  0  0  0  0
 28 38  1  0  0  0  0
 23 35  1  0  0  0  0
  3  4  1  0  0  0  0
  3  5  1  0  0  0  0
  3  6  1  0  0  0  0
 45 48  1  0  0  0  0
 45 49  1  0  0  0  0
 45 50  1  0  0  0  0
 11 14  1  0  0  0  0
 11 15  1  0  0  0  0
 11 16  1  0  0  0  0
 52 54  1  0  0  0  0
 52 55  1  0  0  0  0
 52 56  1  0  0  0  0
 21 33  1  0  0  0  0
 21 34  1  0  0  0  0
 42 47  1  0  0  0  0
  8 13  1  0  0  0  0
 18 32  1  0  0  0  0
 25 36  1  0  0  0  0
 51 53  1  0  0  0  0
  7 12  1  0  0  0  0
 41 46  1  0  0  0  0
 17 31  1  0  0  0  0
M  END
$$$$

  -OEChem-05262214473D

 56 57  0     1  0  0  0  0  0999 V2000
   -2.2900    0.3401    4.1553 C   0  0  0  0  0  0  0  0  0  0  0  0
   -1.3426   -0.2746    3.6796 O   0  0  0  0  0  0  0  0  0  0  0  0
   -2.7219    0.0577    5.5560 C   0  0  0  0  0  0  0  0  0  0  0  0
   -3.4815   -0.7386    5.6094 H   0  0  0  0  0  0  0  0  0  0  0  0
   -1.8906   -0.2899    6.1903 H   0  0  0  0  0  0  0  0  0  0  0  0
   -3.1599    0.9126    6.0956 H   0  0  0  0  0  0  0  0  0  0  0  0
   -3.0397    1.3125    3.5142 N   0  0  0  0  0  0  0  0  0  0  0  0
   -2.7928    1.7385    2.1618 C   0  0  2  0  0  0  0  0  0  0  0  0
   -1.4579    1.1532    1.7206 C   0  0  0  0  0  0  0  0  0  0  0  0
   -0.5858    0.8004    2.5118 O   0  0  0  0  0  0  0  0  0  0  0  0
   -2.7841    3.2553    2.0523 C   0  0  0  0  0  0  0  0  0  0  0  0
   -3.8047    1.7484    4.0260 H   0  0  0  0  0  0  0  0  0  0  0  0
   -3.5969    1.3201    1.5466 H   0  0  0  0  0  0  0  0  0  0  0  0
   -1.9850    3.6926    2.6620 H   0  0  0  0  0  0  0  0  0  0  0  0
   -2.6246    3.5776    1.0180 H   0  0  0  0  0  0  0  0  0  0  0  0
   -3.7342    3.6765    2.3981 H   0  0  0  0  0  0  0  0  0  0  0  0
   -1.3352    1.1101    0.3372 N   0  0  0  0  0  0  0  0  0  0  0  0
   -0.1579    0.6093   -0.3265 C   0  0  2  0  0  0  0  0  0  0  0  0
   -0.6076    0.0191   -1.6583 C   0  0  0  0  0  0  0  0  0  0  0  0
   -1.1397    0.6885   -2.5412 O   0  0  0  0  0  0  0  0  0  0  0  0
    0.5701   -0.4511    0.5076 C   0  0  0  0  0  0  0  0  0  0  0  0
    1.1751    0.1134    1.7698 C   0  0  0  0  0  0  0  0  0  0  0  0
    0.6044    0.0753    3.0211 C   0  0  0  0  0  0  0  0  0  0  0  0
    2.4294    0.7755    1.8859 C   0  0  0  0  0  0  0  0  0  0  0  0
    1.4620    0.6887    3.8943 N   0  0  0  0  0  0  0  0  0  0  0  0
    2.5850    1.1260    3.2287 C   0  0  0  0  0  0  0  0  0  0  0  0
    3.4503    1.1112    0.9746 C   0  0  0  0  0  0  0  0  0  0  0  0
    3.7150    1.7982    3.7078 C   0  0  0  0  0  0  0  0  0  0  0  0
    4.5864    1.7835    1.4395 C   0  0  0  0  0  0  0  0  0  0  0  0
    4.7147    2.1207    2.7855 C   0  0  0  0  0  0  0  0  0  0  0  0
   -2.1183    1.4068   -0.2401 H   0  0  0  0  0  0  0  0  0  0  0  0
    0.4858    1.4761   -0.5172 H   0  0  0  0  0  0  0  0  0  0  0  0
    1.3523   -0.9359   -0.0922 H   0  0  0  0  0  0  0  0  0  0  0  0
   -0.1194   -1.2583    0.7881 H   0  0  0  0  0  0  0  0  0  0  0  0
   -0.3352   -0.3315    3.3690 H   0  0  0  0  0  0  0  0  0  0  0  0
    1.2957    0.8041    4.8845 H   0  0  0  0  0  0  0  0  0  0  0  0
    3.3649    0.8561   -0.0779 H   0  0  0  0  0  0  0  0  0  0  0  0
    3.8162    2.0602    4.7555 H   0  0  0  0  0  0  0  0  0  0  0  0
    5.3769    2.0455    0.7413 H   0  0  0  0  0  0  0  0  0  0  0  0
    5.6056    2.6428    3.1249 H   0  0  0  0  0  0  0  0  0  0  0  0
   -0.2979   -1.3301   -1.7597 N   0  0  0  0  0  0  0  0  0  0  0  0
   -0.5940   -2.1265   -2.9288 C   0  0  2  0  0  0  0  0  0  0  0  0
   -2.0549   -1.9001   -3.2945 C   0  0  0  0  0  0  0  0  0  0  0  0
   -2.8944   -1.5035   -2.4889 O   0  0  0  0  0  0  0  0  0  0  0  0
   -0.3186   -3.6010   -2.6781 C   0  0  0  0  0  0  0  0  0  0  0  0
    0.1597   -1.7804   -0.9726 H   0  0  0  0  0  0  0  0  0  0  0  0
    0.0470   -1.7544   -3.7355 H   0  0  0  0  0  0  0  0  0  0  0  0
   -0.9515   -3.9916   -1.8730 H   0  0  0  0  0  0  0  0  0  0  0  0
   -0.5161   -4.1993   -3.5737 H   0  0  0  0  0  0  0  0  0  0  0  0
    0.7254   -3.7584   -2.3863 H   0  0  0  0  0  0  0  0  0  0  0  0
   -2.3202   -2.2342   -4.6152 N   0  0  0  0  0  0  0  0  0  0  0  0
   -3.6361   -2.1194   -5.1993 C   0  0  0  0  0  0  0  0  0  0  0  0
   -1.5595   -2.5368   -5.2165 H   0  0  0  0  0  0  0  0  0  0  0  0
   -4.1671   -3.0776   -5.0993 H   0  0  0  0  0  0  0  0  0  0  0  0
   -4.2006   -1.3316   -4.6790 H   0  0  0  0  0  0  0  0  0  0  0  0
   -3.5431   -1.8613   -6.2645 H   0  0  0  0  0  0  0  0  0  0  0  0
 29 30  2  0  0  0  0
 27 29  1  0  0  0  0
 28 30  1  0  0  0  0
 24 27  2  0  0  0  0
 26 28  2  0  0  0  0
 22 23  2  0  0  0  0
 23 25  1  0  0  0  0
 22 24  1  0  0  0  0
 24 26  1  0  0  0  0
 21 22  1  0  0  0  0
 25 26  1  0  0  0  0
  1  3  1  0  0  0  0
  1  7  1  0  0  0  0
  1  2  2  0  0  0  0
 42 43  1  0  0  0  0
 43 51  1  0  0  0  0
 43 44  2  0  0  0  0
  8  9  1  0  0  0  0
  9 17  1  0  0  0  0
  9 10  2  0  0  0  0
 18 19  1  0  0  0  0
 19 41  1  0  0  0  0
 19 20  2  0  0  0  0
 42 45  1  0  0  0  0
  8 11  1  0  0  0  0
 51 52  1  0  0  0  0
 18 21  1  0  0  0  0
 41 42  1  0  0  0  0
  7  8  1  0  0  0  0
 17 18  1  0  0  0  0
 29 39  1  0  0  0  0
 30 40  1  0  0  0  0
 27 37  1  0  0  0  0
 28 38  1  0  0  0  0
 23 35  1  0  0  0  0
  3  4  1  0  0  0  0
  3  5  1  0  0  0  0
  3  6  1  0  0  0  0
 45 48  1  0  0  0  0
 45 49  1  0  0  0  0
 45 50  1  0  0  0  0
 11 14  1  0  0  0  0
 11 15  1  0  0  0  0
 11 16  1  0  0  0  0
 52 54  1  0  0  0  0
 52 55  1  0  0  0  0
 52 56  1  0  0  0  0
 21 33  1  0  0  0  0
 21 34  1  0  0  0  0
 42 47  1  0  0  0  0
  8 13  1  0  0  0  0
 18 32  1  0  0  0  0
 25 36  1  0  0  0  0
 51 53  1  0  0  0  0
  7 12  1  0  0  0  0
 41 46  1  0  0  0  0
 17 31  1  0  0  0  0
M  END
$$$$

  -OEChem-05262214473D

 56 57  0     1  0  0  0  0  0999 V2000
   -2.2900    0.3401    4.1553 C   0  0  0  0  0  0  0  0  0  0  0  0
   -1.3426   -0.2746    3.6796 O   0  0  0  0  0  0  0  0  0  0  0  0
   -2.7219    0.0577    5.5560 C   0  0  0  0  0  0  0  0  0  0  0  0
   -3.4815   -0.7386    5.6094 H   0  0  0  0  0  0  0  0  0  0  0  0
   -1.8906   -0.2899    6.1903 H   0  0  0  0  0  0  0  0  0  0  0  0
   -3.1599    0.9126    6.0956 H   0  0  0  0  0  0  0  0  0  0  0  0
   -3.0397    1.3125    3.5142 N   0  0  0  0  0  0  0  0  0  0  0  0
   -2.7928    1.7385    2.1618 C   0  0  2  0  0  0  0  0  0  0  0  0
   -1.4579    1.1532    1.7206 C   0  0  0  0  0  0  0  0  0  0  0  0
   -0.5858    0.8004    2.5118 O   0  0  0  0  0  0  0  0  0  0  0  0
   -2.7841    3.2553    2.0523 C   0  0  0  0  0  0  0  0  0  0  0  0
   -3.8047    1.7484    4.0260 H   0  0  0  0  0  0  0  0  0  0  0  0
   -3.5969    1.3201    1.5466 H   0  0  0  0  0  0  0  0  0  0  0  0
   -1.9850    3.6926    2.6620 H   0  0  0  0  0  0  0  0  0  0  0  0
   -2.6246    3.5776    1.0180 H   0  0  0  0  0  0  0  0  0  0  0  0
   -3.7342    3.6765    2.3981 H   0  0  0  0  0  0  0  0  0  0  0  0
   -1.3352    1.1101    0.3372 N   0  0  0  0  0  0  0  0  0  0  0  0
   -0.1579    0.6093   -0.3265 C   0  0  2  0  0  0  0  0  0  0  0  0
   -0.6076    0.0191   -1.6583 C   0  0  0  0  0  0  0  0  0  0  0  0
   -0.8885    0.7098   -2.6355 O   0  0  0  0  0  0  0  0  0  0  0  0
    0.5701   -0.4511    0.5076 C   0  0  0  0  0  0  0  0  0  0  0  0
    1.1751    0.1134    1.7698 C   0  0  0  0  0  0  0  0  0  0  0  0
    0.6044    0.0753    3.0211 C   0  0  0  0  0  0  0  0  0  0  0  0
    2.4294    0.7755    1.8859 C   0  0  0  0  0  0  0  0  0  0  0  0
    1.4620    0.6887    3.8943 N   0  0  0  0  0  0  0  0  0  0  0  0
    2.5850    1.1260    3.2287 C   0  0  0  0  0  0  0  0  0  0  0  0
    3.4503    1.1112    0.9746 C   0  0  0  0  0  0  0  0  0  0  0  0
    3.7150    1.7982    3.7078 C   0  0  0  0  0  0  0  0  0  0  0  0
    4.5864    1.7835    1.4395 C   0  0  0  0  0  0  0  0  0  0  0  0
    4.7147    2.1207    2.7855 C   0  0  0  0  0  0  0  0  0  0  0  0
   -2.1183    1.4068   -0.2401 H   0  0  0  0  0  0  0  0  0  0  0  0
    0.4858    1.4761   -0.5172 H   0  0  0  0  0  0  0  0  0  0  0  0
    1.3523   -0.9359   -0.0922 H   0  0  0  0  0  0  0  0  0  0  0  0
   -0.1194   -1.2583    0.7881 H   0  0  0  0  0  0  0  0  0  0  0  0
   -0.3352   -0.3315    3.3690 H   0  0  0  0  0  0  0  0  0  0  0  0
    1.2957    0.8041    4.8845 H   0  0  0  0  0  0  0  0  0  0  0  0
    3.3649    0.8561   -0.0779 H   0  0  0  0  0  0  0  0  0  0  0  0
    3.8162    2.0602    4.7555 H   0  0  0  0  0  0  0  0  0  0  0  0
    5.3769    2.0455    0.7413 H   0  0  0  0  0  0  0  0  0  0  0  0
    5.6056    2.6428    3.1249 H   0  0  0  0  0  0  0  0  0  0  0  0
   -0.6086   -1.3687   -1.6377 N   0  0  0  0  0  0  0  0  0  0  0  0
   -0.9717   -2.1790   -2.7780 C   0  0  2  0  0  0  0  0  0  0  0  0
   -2.3017   -1.6667   -3.3146 C   0  0  0  0  0  0  0  0  0  0  0  0
   -3.0975   -1.0242   -2.6327 O   0  0  0  0  0  0  0  0  0  0  0  0
   -1.0669   -3.6499   -2.4038 C   0  0  0  0  0  0  0  0  0  0  0  0
   -0.3407   -1.8385   -0.7779 H   0  0  0  0  0  0  0  0  0  0  0  0
   -0.1914   -2.0310   -3.5325 H   0  0  0  0  0  0  0  0  0  0  0  0
   -1.8436   -3.8179   -1.6488 H   0  0  0  0  0  0  0  0  0  0  0  0
   -1.3141   -4.2658   -3.2748 H   0  0  0  0  0  0  0  0  0  0  0  0
   -0.1183   -4.0091   -1.9903 H   0  0  0  0  0  0  0  0  0  0  0  0
   -2.5148   -2.0482   -4.6319 N   0  0  0  0  0  0  0  0  0  0  0  0
   -3.7100   -1.6957   -5.3621 C   0  0  0  0  0  0  0  0  0  0  0  0
   -1.7924   -2.5639   -5.1258 H   0  0  0  0  0  0  0  0  0  0  0  0
   -4.4540   -2.4993   -5.2587 H   0  0  0  0  0  0  0  0  0  0  0  0
   -4.1233   -0.7595   -4.9586 H   0  0  0  0  0  0  0  0  0  0  0  0
   -3.4631   -1.5593   -6.4253 H   0  0  0  0  0  0  0  0  0  0  0  0
 29 30  2  0  0  0  0
 27 29  1  0  0  0  0
 28 30  1  0  0  0  0
 24 27  2  0  0  0  0
 26 28  2  0  0  0  0
 22 23  2  0  0  0  0
 23 25  1  0  0  0  0
 22 24  1  0  0  0  0
 24 26  1  0  0  0  0
 21 22  1  0  0  0  0
 25 26  1  0  0  0  0
  1  3  1  0  0  0  0
  1  7  1  0  0  0  0
  1  2  2  0  0  0  0
 42 43  1  0  0  0  0
 43 51  1  0  0  0  0
 43 44  2  0  0  0  0
  8  9  1  0  0  0  0
  9 17  1  0  0  0  0
  9 10  2  0  0  0  0
 18 19  1  0  0  0  0
 19 41  1  0  0  0  0
 19 20  2  0  0  0  0
 42 45  1  0  0  0  0
  8 11  1  0  0  0  0
 51 52  1  0  0  0  0
 18 21  1  0  0  0  0
 41 42  1  0  0  0  0
  7  8  1  0  0  0  0
 17 18  1  0  0  0  0
 29 39  1  0  0  0  0
 30 40  1  0  0  0  0
 27 37  1  0  0  0  0
 28 38  1  0  0  0  0
 23 35  1  0  0  0  0
  3  4  1  0  0  0  0
  3  5  1  0  0  0  0
  3  6  1  0  0  0  0
 45 48  1  0  0  0  0
 45 49  1  0  0  0  0
 45 50  1  0  0  0  0
 11 14  1  0  0  0  0
 11 15  1  0  0  0  0
 11 16  1  0  0  0  0
 52 54  1  0  0  0  0
 52 55  1  0  0  0  0
 52 56  1  0  0  0  0
 21 33  1  0  0  0  0
 21 34  1  0  0  0  0
 42 47  1  0  0  0  0
  8 13  1  0  0  0  0
 18 32  1  0  0  0  0
 25 36  1  0  0  0  0
 51 53  1  0  0  0  0
  7 12  1  0  0  0  0
 41 46  1  0  0  0  0
 17 31  1  0  0  0  0
M  END
$$$$

  -OEChem-05262214473D

 56 57  0     1  0  0  0  0  0999 V2000
   -2.2900    0.3401    4.1553 C   0  0  0  0  0  0  0  0  0  0  0  0
   -1.3426   -0.2746    3.6796 O   0  0  0  0  0  0  0  0  0  0  0  0
   -2.7219    0.0577    5.5560 C   0  0  0  0  0  0  0  0  0  0  0  0
   -3.4815   -0.7386    5.6094 H   0  0  0  0  0  0  0  0  0  0  0  0
   -1.8906   -0.2899    6.1903 H   0  0  0  0  0  0  0  0  0  0  0  0
   -3.1599    0.9126    6.0956 H   0  0  0  0  0  0  0  0  0  0  0  0
   -3.0397    1.3125    3.5142 N   0  0  0  0  0  0  0  0  0  0  0  0
   -2.7928    1.7385    2.1618 C   0  0  2  0  0  0  0  0  0  0  0  0
   -1.4579    1.1532    1.7206 C   0  0  0  0  0  0  0  0  0  0  0  0
   -0.5858    0.8004    2.5118 O   0  0  0  0  0  0  0  0  0  0  0  0
   -2.7841    3.2553    2.0523 C   0  0  0  0  0  0  0  0  0  0  0  0
   -3.8047    1.7484    4.0260 H   0  0  0  0  0  0  0  0  0  0  0  0
   -3.5969    1.3201    1.5466 H   0  0  0  0  0  0  0  0  0  0  0  0
   -1.9850    3.6926    2.6620 H   0  0  0  0  0  0  0  0  0  0  0  0
   -2.6246    3.5776    1.0180 H   0  0  0  0  0  0  0  0  0  0  0  0
   -3.7342    3.6765    2.3981 H   0  0  0  0  0  0  0  0  0  0  0  0
   -1.3352    1.1101    0.3372 N   0  0  0  0  0  0  0  0  0  0  0  0
   -0.1579    0.6093   -0.3265 C   0  0  2  0  0  0  0  0  0  0  0  0
   -0.6076    0.0191   -1.6583 C   0  0  0  0  0  0  0  0  0  0  0  0
   -0.6316    0.6663   -2.7030 O   0  0  0  0  0  0  0  0  0  0  0  0
    0.5701   -0.4511    0.5076 C   0  0  0  0  0  0  0  0  0  0  0  0
    1.1751    0.1134    1.7698 C   0  0  0  0  0  0  0  0  0  0  0  0
    0.6044    0.0753    3.0211 C   0  0  0  0  0  0  0  0  0  0  0  0
    2.4294    0.7755    1.8859 C   0  0  0  0  0  0  0  0  0  0  0  0
    1.4620    0.6887    3.8943 N   0  0  0  0  0  0  0  0  0  0  0  0
    2.5850    1.1260    3.2287 C   0  0  0  0  0  0  0  0  0  0  0  0
    3.4503    1.1112    0.9746 C   0  0  0  0  0  0  0  0  0  0  0  0
    3.7150    1.7982    3.7078 C   0  0  0  0  0  0  0  0  0  0  0  0
    4.5864    1.7835    1.4395 C   0  0  0  0  0  0  0  0  0  0  0  0
    4.7147    2.1207    2.7855 C   0  0  0  0  0  0  0  0  0  0  0  0
   -2.1183    1.4068   -0.2401 H   0  0  0  0  0  0  0  0  0  0  0  0
    0.4858    1.4761   -0.5172 H   0  0  0  0  0  0  0  0  0  0  0  0
    1.3523   -0.9359   -0.0922 H   0  0  0  0  0  0  0  0  0  0  0  0
   -0.1194   -1.2583    0.7881 H   0  0  0  0  0  0  0  0  0  0  0  0
   -0.3352   -0.3315    3.3690 H   0  0  0  0  0  0  0  0  0  0  0  0
    1.2957    0.8041    4.8845 H   0  0  0  0  0  0  0  0  0  0  0  0
    3.3649    0.8561   -0.0779 H   0  0  0  0  0  0  0  0  0  0  0  0
    3.8162    2.0602    4.7555 H   0  0  0  0  0  0  0  0  0  0  0  0
    5.3769    2.0455    0.7413 H   0  0  0  0  0  0  0  0  0  0  0  0
    5.6056    2.6428    3.1249 H   0  0  0  0  0  0  0  0  0  0  0  0
   -0.9296   -1.3265   -1.5480 N   0  0  0  0  0  0  0  0  0  0  0  0
   -1.3635   -2.1328   -2.6662 C   0  0  2  0  0  0  0  0  0  0  0  0
   -2.4853   -1.3869   -3.3766 C   0  0  0  0  0  0  0  0  0  0  0  0
   -3.1709   -0.5263   -2.8285 O   0  0  0  0  0  0  0  0  0  0  0  0
   -1.8283   -3.5071   -2.2100 C   0  0  0  0  0  0  0  0  0  0  0  0
   -0.8567   -1.7667   -0.6355 H   0  0  0  0  0  0  0  0  0  0  0  0
   -0.5045   -2.2288   -3.3391 H   0  0  0  0  0  0  0  0  0  0  0  0
   -2.6885   -3.4312   -1.5348 H   0  0  0  0  0  0  0  0  0  0  0  0
   -2.1298   -4.1267   -3.0610 H   0  0  0  0  0  0  0  0  0  0  0  0
   -1.0296   -4.0303   -1.6732 H   0  0  0  0  0  0  0  0  0  0  0  0
   -2.6591   -1.8258   -4.6817 N   0  0  0  0  0  0  0  0  0  0  0  0
   -3.6693   -1.2821   -5.5592 C   0  0  0  0  0  0  0  0  0  0  0  0
   -2.0326   -2.5305   -5.0595 H   0  0  0  0  0  0  0  0  0  0  0  0
   -4.5844   -1.8880   -5.4855 H   0  0  0  0  0  0  0  0  0  0  0  0
   -3.8913   -0.2457   -5.2647 H   0  0  0  0  0  0  0  0  0  0  0  0
   -3.3015   -1.2979   -6.5957 H   0  0  0  0  0  0  0  0  0  0  0  0
 29 30  2  0  0  0  0
 27 29  1  0  0  0  0
 28 30  1  0  0  0  0
 24 27  2  0  0  0  0
 26 28  2  0  0  0  0
 22 23  2  0  0  0  0
 23 25  1  0  0  0  0
 22 24  1  0  0  0  0
 24 26  1  0  0  0  0
 21 22  1  0  0  0  0
 25 26  1  0  0  0  0
  1  3  1  0  0  0  0
  1  7  1  0  0  0  0
  1  2  2  0  0  0  0
 42 43  1  0  0  0  0
 43 51  1  0  0  0  0
 43 44  2  0  0  0  0
  8  9  1  0  0  0  0
  9 17  1  0  0  0  0
  9 10  2  0  0  0  0
 18 19  1  0  0  0  0
 19 41  1  0  0  0  0
 19 20  2  0  0  0  0
 42 45  1  0  0  0  0
  8 11  1  0  0  0  0
 51 52  1  0  0  0  0
 18 21  1  0  0  0  0
 41 42  1  0  0  0  0
  7  8  1  0  0  0  0
 17 18  1  0  0  0  0
 29 39  1  0  0  0  0
 30 40  1  0  0  0  0
 27 37  1  0  0  0  0
 28 38  1  0  0  0  0
 23 35  1  0  0  0  0
  3  4  1  0  0  0  0
  3  5  1  0  0  0  0
  3  6  1  0  0  0  0
 45 48  1  0  0  0  0
 45 49  1  0  0  0  0
 45 50  1  0  0  0  0
 11 14  1  0  0  0  0
 11 15  1  0  0  0  0
 11 16  1  0  0  0  0
 52 54  1  0  0  0  0
 52 55  1  0  0  0  0
 52 56  1  0  0  0  0
 21 33  1  0  0  0  0
 21 34  1  0  0  0  0
 42 47  1  0  0  0  0
  8 13  1  0  0  0  0
 18 32  1  0  0  0  0
 25 36  1  0  0  0  0
 51 53  1  0  0  0  0
  7 12  1  0  0  0  0
 41 46  1  0  0  0  0
 17 31  1  0  0  0  0
M  END
$$$$

  -OEChem-05262214473D

 56 57  0     1  0  0  0  0  0999 V2000
   -2.2900    0.3401    4.1553 C   0  0  0  0  0  0  0  0  0  0  0  0
   -1.3426   -0.2746    3.6796 O   0  0  0  0  0  0  0  0  0  0  0  0
   -2.7219    0.0577    5.5560 C   0  0  0  0  0  0  0  0  0  0  0  0
   -3.4815   -0.7386    5.6094 H   0  0  0  0  0  0  0  0  0  0  0  0
   -1.8906   -0.2899    6.1903 H   0  0  0  0  0  0  0  0  0  0  0  0
   -3.1599    0.9126    6.0956 H   0  0  0  0  0  0  0  0  0  0  0  0
   -3.0397    1.3125    3.5142 N   0  0  0  0  0  0  0  0  0  0  0  0
   -2.7928    1.7385    2.1618 C   0  0  2  0  0  0  0  0  0  0  0  0
   -1.4579    1.1532    1.7206 C   0  0  0  0  0  0  0  0  0  0  0  0
   -0.5858    0.8004    2.5118 O   0  0  0  0  0  0  0  0  0  0  0  0
   -2.7841    3.2553    2.0523 C   0  0  0  0  0  0  0  0  0  0  0  0
   -3.8047    1.7484    4.0260 H   0  0  0  0  0  0  0  0  0  0  0  0
   -3.5969    1.3201    1.5466 H   0  0  0  0  0  0  0  0  0  0  0  0
   -1.9850    3.6926    2.6620 H   0  0  0  0  0  0  0  0  0  0  0  0
   -2.6246    3.5776    1.0180 H   0  0  0  0  0  0  0  0  0  0  0  0
   -3.7342    3.6765    2.3981 H   0  0  0  0  0  0  0  0  0  0  0  0
   -1.3352    1.1101    0.3372 N   0  0  0  0  0  0  0  0  0  0  0  0
   -0.1579    0.6093   -0.3265 C   0  0  2  0  0  0  0  0  0  0  0  0
   -0.6076    0.0191   -1.6583 C   0  0  0  0  0  0  0  0  0  0  0  0
   -0.3865    0.5611   -2.7391 O   0  0  0  0  0  0  0  0  0  0  0  0
    0.5701   -0.4511    0.5076 C   0  0  0  0  0  0  0  0  0  0  0  0
    1.1751    0.1134    1.7698 C   0  0  0  0  0  0  0  0  0  0  0  0
    0.6044    0.0753    3.0211 C   0  0  0  0  0  0  0  0  0  0  0  0
    2.4294    0.7755    1.8859 C   0  0  0  0  0  0  0  0  0  0  0  0
    1.4620    0.6887    3.8943 N   0  0  0  0  0  0  0  0  0  0  0  0
    2.5850    1.1260    3.2287 C   0  0  0  0  0  0  0  0  0  0  0  0
    3.4503    1.1112    0.9746 C   0  0  0  0  0  0  0  0  0  0  0  0
    3.7150    1.7982    3.7078 C   0  0  0  0  0  0  0  0  0  0  0  0
    4.5864    1.7835    1.4395 C   0  0  0  0  0  0  0  0  0  0  0  0
    4.7147    2.1207    2.7855 C   0  0  0  0  0  0  0  0  0  0  0  0
   -2.1183    1.4068   -0.2401 H   0  0  0  0  0  0  0  0  0  0  0  0
    0.4858    1.4761   -0.5172 H   0  0  0  0  0  0  0  0  0  0  0  0
    1.3523   -0.9359   -0.0922 H   0  0  0  0  0  0  0  0  0  0  0  0
   -0.1194   -1.2583    0.7881 H   0  0  0  0  0  0  0  0  0  0  0  0
   -0.3352   -0.3315    3.3690 H   0  0  0  0  0  0  0  0  0  0  0  0
    1.2957    0.8041    4.8845 H   0  0  0  0  0  0  0  0  0  0  0  0
    3.3649    0.8561   -0.0779 H   0  0  0  0  0  0  0  0  0  0  0  0
    3.8162    2.0602    4.7555 H   0  0  0  0  0  0  0  0  0  0  0  0
    5.3769    2.0455    0.7413 H   0  0  0  0  0  0  0  0  0  0  0  0
    5.6056    2.6428    3.1249 H   0  0  0  0  0  0  0  0  0  0  0  0
   -1.2392   -1.2063   -1.4968 N   0  0  0  0  0  0  0  0  0  0  0  0
   -1.7428   -1.9911   -2.6009 C   0  0  2  0  0  0  0  0  0  0  0  0
   -2.5932   -1.0800   -3.4762 C   0  0  0  0  0  0  0  0  0  0  0  0
   -3.1096   -0.0438   -3.0631 O   0  0  0  0  0  0  0  0  0  0  0  0
   -2.5509   -3.1822   -2.1100 C   0  0  0  0  0  0  0  0  0  0  0  0
   -1.3531   -1.5697   -0.5551 H   0  0  0  0  0  0  0  0  0  0  0  0
   -0.8710   -2.3343   -3.1686 H   0  0  0  0  0  0  0  0  0  0  0  0
   -3.4286   -2.8580   -1.5389 H   0  0  0  0  0  0  0  0  0  0  0  0
   -2.9077   -3.7916   -2.9468 H   0  0  0  0  0  0  0  0  0  0  0  0
   -1.9464   -3.8205   -1.4565 H   0  0  0  0  0  0  0  0  0  0  0  0
   -2.7432   -1.5822   -4.7613 N   0  0  0  0  0  0  0  0  0  0  0  0
   -3.5167   -0.9068   -5.7770 C   0  0  0  0  0  0  0  0  0  0  0  0
   -2.2637   -2.4389   -5.0221 H   0  0  0  0  0  0  0  0  0  0  0  0
   -4.5494   -1.2854   -5.7644 H   0  0  0  0  0  0  0  0  0  0  0  0
   -3.5203    0.1747   -5.5762 H   0  0  0  0  0  0  0  0  0  0  0  0
   -3.0692   -1.0950   -6.7641 H   0  0  0  0  0  0  0  0  0  0  0  0
 29 30  2  0  0  0  0
 27 29  1  0  0  0  0
 28 30  1  0  0  0  0
 24 27  2  0  0  0  0
 26 28  2  0  0  0  0
 22 23  2  0  0  0  0
 23 25  1  0  0  0  0
 22 24  1  0  0  0  0
 24 26  1  0  0  0  0
 21 22  1  0  0  0  0
 25 26  1  0  0  0  0
  1  3  1  0  0  0  0
  1  7  1  0  0  0  0
  1  2  2  0  0  0  0
 42 43  1  0  0  0  0
 43 51  1  0  0  0  0
 43 44  2  0  0  0  0
  8  9  1  0  0  0  0
  9 17  1  0  0  0  0
  9 10  2  0  0  0  0
 18 19  1  0  0  0  0
 19 41  1  0  0  0  0
 19 20  2  0  0  0  0
 42 45  1  0  0  0  0
  8 11  1  0  0  0  0
 51 52  1  0  0  0  0
 18 21  1  0  0  0  0
 41 42  1  0  0  0  0
  7  8  1  0  0  0  0
 17 18  1  0  0  0  0
 29 39  1  0  0  0  0
 30 40  1  0  0  0  0
 27 37  1  0  0  0  0
 28 38  1  0  0  0  0
 23 35  1  0  0  0  0
  3  4  1  0  0  0  0
  3  5  1  0  0  0  0
  3  6  1  0  0  0  0
 45 48  1  0  0  0  0
 45 49  1  0  0  0  0
 45 50  1  0  0  0  0
 11 14  1  0  0  0  0
 11 15  1  0  0  0  0
 11 16  1  0  0  0  0
 52 54  1  0  0  0  0
 52 55  1  0  0  0  0
 52 56  1  0  0  0  0
 21 33  1  0  0  0  0
 21 34  1  0  0  0  0
 42 47  1  0  0  0  0
  8 13  1  0  0  0  0
 18 32  1  0  0  0  0
 25 36  1  0  0  0  0
 51 53  1  0  0  0  0
  7 12  1  0  0  0  0
 41 46  1  0  0  0  0
 17 31  1  0  0  0  0
M  END
$$$$

  -OEChem-05262214473D

 56 57  0     1  0  0  0  0  0999 V2000
   -2.2900    0.3401    4.1553 C   0  0  0  0  0  0  0  0  0  0  0  0
   -1.3426   -0.2746    3.6796 O   0  0  0  0  0  0  0  0  0  0  0  0
   -2.7219    0.0577    5.5560 C   0  0  0  0  0  0  0  0  0  0  0  0
   -3.4815   -0.7386    5.6094 H   0  0  0  0  0  0  0  0  0  0  0  0
   -1.8906   -0.2899    6.1903 H   0  0  0  0  0  0  0  0  0  0  0  0
   -3.1599    0.9126    6.0956 H   0  0  0  0  0  0  0  0  0  0  0  0
   -3.0397    1.3125    3.5142 N   0  0  0  0  0  0  0  0  0  0  0  0
   -2.7928    1.7385    2.1618 C   0  0  2  0  0  0  0  0  0  0  0  0
   -1.4579    1.1532    1.7206 C   0  0  0  0  0  0  0  0  0  0  0  0
   -0.5858    0.8004    2.5118 O   0  0  0  0  0  0  0  0  0  0  0  0
   -2.7841    3.2553    2.0523 C   0  0  0  0  0  0  0  0  0  0  0  0
   -3.8047    1.7484    4.0260 H   0  0  0  0  0  0  0  0  0  0  0  0
   -3.5969    1.3201    1.5466 H   0  0  0  0  0  0  0  0  0  0  0  0
   -1.9850    3.6926    2.6620 H   0  0  0  0  0  0  0  0  0  0  0  0
   -2.6246    3.5776    1.0180 H   0  0  0  0  0  0  0  0  0  0  0  0
   -3.7342    3.6765    2.3981 H   0  0  0  0  0  0  0  0  0  0  0  0
   -1.3352    1.1101    0.3372 N   0  0  0  0  0  0  0  0  0  0  0  0
   -0.1579    0.6093   -0.3265 C   0  0  2  0  0  0  0  0  0  0  0  0
   -0.6076    0.0191   -1.6583 C   0  0  0  0  0  0  0  0  0  0  0  0
   -0.1699    0.4013   -2.7414 O   0  0  0  0  0  0  0  0  0  0  0  0
    0.5701   -0.4511    0.5076 C   0  0  0  0  0  0  0  0  0  0  0  0
    1.1751    0.1134    1.7698 C   0  0  0  0  0  0  0  0  0  0  0  0
    0.6044    0.0753    3.0211 C   0  0  0  0  0  0  0  0  0  0  0  0
    2.4294    0.7755    1.8859 C   0  0  0  0  0  0  0  0  0  0  0  0
    1.4620    0.6887    3.8943 N   0  0  0  0  0  0  0  0  0  0  0  0
    2.5850    1.1260    3.2287 C   0  0  0  0  0  0  0  0  0  0  0  0
    3.4503    1.1112    0.9746 C   0  0  0  0  0  0  0  0  0  0  0  0
    3.7150    1.7982    3.7078 C   0  0  0  0  0  0  0  0  0  0  0  0
    4.5864    1.7835    1.4395 C   0  0  0  0  0  0  0  0  0  0  0  0
    4.7147    2.1207    2.7855 C   0  0  0  0  0  0  0  0  0  0  0  0
   -2.1183    1.4068   -0.2401 H   0  0  0  0  0  0  0  0  0  0  0  0
    0.4858    1.4761   -0.5172 H   0  0  0  0  0  0  0  0  0  0  0  0
    1.3523   -0.9359   -0.0922 H   0  0  0  0  0  0  0  0  0  0  0  0
   -0.1194   -1.2583    0.7881 H   0  0  0  0  0  0  0  0  0  0  0  0
   -0.3352   -0.3315    3.3690 H   0  0  0  0  0  0  0  0  0  0  0  0
    1.2957    0.8041    4.8845 H   0  0  0  0  0  0  0  0  0  0  0  0
    3.3649    0.8561   -0.0779 H   0  0  0  0  0  0  0  0  0  0  0  0
    3.8162    2.0602    4.7555 H   0  0  0  0  0  0  0  0  0  0  0  0
    5.3769    2.0455    0.7413 H   0  0  0  0  0  0  0  0  0  0  0  0
    5.6056    2.6428    3.1249 H   0  0  0  0  0  0  0  0  0  0  0  0
   -1.5161   -1.0162   -1.4875 N   0  0  0  0  0  0  0  0  0  0  0  0
   -2.0836   -1.7634   -2.5867 C   0  0  2  0  0  0  0  0  0  0  0  0
   -2.6180   -0.7667   -3.6067 C   0  0  0  0  0  0  0  0  0  0  0  0
   -2.9178    0.3906   -3.3203 O   0  0  0  0  0  0  0  0  0  0  0  0
   -3.1854   -2.6973   -2.1106 C   0  0  0  0  0  0  0  0  0  0  0  0
   -1.7962   -1.2611   -0.5423 H   0  0  0  0  0  0  0  0  0  0  0  0
   -1.2660   -2.3403   -3.0326 H   0  0  0  0  0  0  0  0  0  0  0  0
   -4.0134   -2.1374   -1.6608 H   0  0  0  0  0  0  0  0  0  0  0  0
   -3.5947   -3.2834   -2.9400 H   0  0  0  0  0  0  0  0  0  0  0  0
   -2.8063   -3.3941   -1.3552 H   0  0  0  0  0  0  0  0  0  0  0  0
   -2.7613   -1.3339   -4.8652 N   0  0  0  0  0  0  0  0  0  0  0  0
   -3.2626   -0.5955   -6.0007 C   0  0  0  0  0  0  0  0  0  0  0  0
   -2.4700   -2.2952   -5.0161 H   0  0  0  0  0  0  0  0  0  0  0  0
   -4.3514   -0.7326   -6.0763 H   0  0  0  0  0  0  0  0  0  0  0  0
   -3.0357    0.4732   -5.8721 H   0  0  0  0  0  0  0  0  0  0  0  0
   -2.7821   -0.9644   -6.9189 H   0  0  0  0  0  0  0  0  0  0  0  0
 29 30  2  0  0  0  0
 27 29  1  0  0  0  0
 28 30  1  0  0  0  0
 24 27  2  0  0  0  0
 26 28  2  0  0  0  0
 22 23  2  0  0  0  0
 23 25  1  0  0  0  0
 22 24  1  0  0  0  0
 24 26  1  0  0  0  0
 21 22  1  0  0  0  0
 25 26  1  0  0  0  0
  1  3  1  0  0  0  0
  1  7  1  0  0  0  0
  1  2  2  0  0  0  0
 42 43  1  0  0  0  0
 43 51  1  0  0  0  0
 43 44  2  0  0  0  0
  8  9  1  0  0  0  0
  9 17  1  0  0  0  0
  9 10  2  0  0  0  0
 18 19  1  0  0  0  0
 19 41  1  0  0  0  0
 19 20  2  0  0  0  0
 42 45  1  0  0  0  0
  8 11  1  0  0  0  0
 51 52  1  0  0  0  0
 18 21  1  0  0  0  0
 41 42  1  0  0  0  0
  7  8  1  0  0  0  0
 17 18  1  0  0  0  0
 29 39  1  0  0  0  0
 30 40  1  0  0  0  0
 27 37  1  0  0  0  0
 28 38  1  0  0  0  0
 23 35  1  0  0  0  0
  3  4  1  0  0  0  0
  3  5  1  0  0  0  0
  3  6  1  0  0  0  0
 45 48  1  0  0  0  0
 45 49  1  0  0  0  0
 45 50  1  0  0  0  0
 11 14  1  0  0  0  0
 11 15  1  0  0  0  0
 11 16  1  0  0  0  0
 52 54  1  0  0  0  0
 52 55  1  0  0  0  0
 52 56  1  0  0  0  0
 21 33  1  0  0  0  0
 21 34  1  0  0  0  0
 42 47  1  0  0  0  0
  8 13  1  0  0  0  0
 18 32  1  0  0  0  0
 25 36  1  0  0  0  0
 51 53  1  0  0  0  0
  7 12  1  0  0  0  0
 41 46  1  0  0  0  0
 17 31  1  0  0  0  0
M  END
$$$$

  -OEChem-05262214473D

 56 57  0     1  0  0  0  0  0999 V2000
   -2.2900    0.3401    4.1553 C   0  0  0  0  0  0  0  0  0  0  0  0
   -1.3426   -0.2746    3.6796 O   0  0  0  0  0  0  0  0  0  0  0  0
   -2.7219    0.0577    5.5560 C   0  0  0  0  0  0  0  0  0  0  0  0
   -3.4815   -0.7386    5.6094 H   0  0  0  0  0  0  0  0  0  0  0  0
   -1.8906   -0.2899    6.1903 H   0  0  0  0  0  0  0  0  0  0  0  0
   -3.1599    0.9126    6.0956 H   0  0  0  0  0  0  0  0  0  0  0  0
   -3.0397    1.3125    3.5142 N   0  0  0  0  0  0  0  0  0  0  0  0
   -2.7928    1.7385    2.1618 C   0  0  2  0  0  0  0  0  0  0  0  0
   -1.4579    1.1532    1.7206 C   0  0  0  0  0  0  0  0  0  0  0  0
   -0.5858    0.8004    2.5118 O   0  0  0  0  0  0  0  0  0  0  0  0
   -2.7841    3.2553    2.0523 C   0  0  0  0  0  0  0  0  0  0  0  0
   -3.8047    1.7484    4.0260 H   0  0  0  0  0  0  0  0  0  0  0  0
   -3.5969    1.3201    1.5466 H   0  0  0  0  0  0  0  0  0  0  0  0
   -1.9850    3.6926    2.6620 H   0  0  0  0  0  0  0  0  0  0  0  0
   -2.6246    3.5776    1.0180 H   0  0  0  0  0  0  0  0  0  0  0  0
   -3.7342    3.6765    2.3981 H   0  0  0  0  0  0  0  0  0  0  0  0
   -1.3352    1.1101    0.3372 N   0  0  0  0  0  0  0  0  0  0  0  0
   -0.1579    0.6093   -0.3265 C   0  0  2  0  0  0  0  0  0  0  0  0
   -0.6076    0.0191   -1.6583 C   0  0  0  0  0  0  0  0  0  0  0  0
    0.0034    0.1978   -2.7098 O   0  0  0  0  0  0  0  0  0  0  0  0
    0.5701   -0.4511    0.5076 C   0  0  0  0  0  0  0  0  0  0  0  0
    1.1751    0.1134    1.7698 C   0  0  0  0  0  0  0  0  0  0  0  0
    0.6044    0.0753    3.0211 C   0  0  0  0  0  0  0  0  0  0  0  0
    2.4294    0.7755    1.8859 C   0  0  0  0  0  0  0  0  0  0  0  0
    1.4620    0.6887    3.8943 N   0  0  0  0  0  0  0  0  0  0  0  0
    2.5850    1.1260    3.2287 C   0  0  0  0  0  0  0  0  0  0  0  0
    3.4503    1.1112    0.9746 C   0  0  0  0  0  0  0  0  0  0  0  0
    3.7150    1.7982    3.7078 C   0  0  0  0  0  0  0  0  0  0  0  0
    4.5864    1.7835    1.4395 C   0  0  0  0  0  0  0  0  0  0  0  0
    4.7147    2.1207    2.7855 C   0  0  0  0  0  0  0  0  0  0  0  0
   -2.1183    1.4068   -0.2401 H   0  0  0  0  0  0  0  0  0  0  0  0
    0.4858    1.4761   -0.5172 H   0  0  0  0  0  0  0  0  0  0  0  0
    1.3523   -0.9359   -0.0922 H   0  0  0  0  0  0  0  0  0  0  0  0
   -0.1194   -1.2583    0.7881 H   0  0  0  0  0  0  0  0  0  0  0  0
   -0.3352   -0.3315    3.3690 H   0  0  0  0  0  0  0  0  0  0  0  0
    1.2957    0.8041    4.8845 H   0  0  0  0  0  0  0  0  0  0  0  0
    3.3649    0.8561   -0.0779 H   0  0  0  0  0  0  0  0  0  0  0  0
    3.8162    2.0602    4.7555 H   0  0  0  0  0  0  0  0  0  0  0  0
    5.3769    2.0455    0.7413 H   0  0  0  0  0  0  0  0  0  0  0  0
    5.6056    2.6428    3.1249 H   0  0  0  0  0  0  0  0  0  0  0  0
   -1.7416   -0.7694   -1.5207 N   0  0  0  0  0  0  0  0  0  0  0  0
   -2.3628   -1.4654   -2.6245 C   0  0  2  0  0  0  0  0  0  0  0  0
   -2.5580   -0.4684   -3.7591 C   0  0  0  0  0  0  0  0  0  0  0  0
   -2.6086    0.7471   -3.5828 O   0  0  0  0  0  0  0  0  0  0  0  0
   -3.6886   -2.0856   -2.2118 C   0  0  0  0  0  0  0  0  0  0  0  0
   -2.1557   -0.8618   -0.5978 H   0  0  0  0  0  0  0  0  0  0  0  0
   -1.6625   -2.2464   -2.9403 H   0  0  0  0  0  0  0  0  0  0  0  0
   -4.4032   -1.3184   -1.8922 H   0  0  0  0  0  0  0  0  0  0  0  0
   -4.1441   -2.6366   -3.0412 H   0  0  0  0  0  0  0  0  0  0  0  0
   -3.5506   -2.7800   -1.3760 H   0  0  0  0  0  0  0  0  0  0  0  0
   -2.7123   -1.0980   -4.9863 N   0  0  0  0  0  0  0  0  0  0  0  0
   -2.9244   -0.3693   -6.2152 C   0  0  0  0  0  0  0  0  0  0  0  0
   -2.6374   -2.1094   -5.0420 H   0  0  0  0  0  0  0  0  0  0  0  0
   -4.0039   -0.2671   -6.3999 H   0  0  0  0  0  0  0  0  0  0  0  0
   -2.4706    0.6293   -6.1322 H   0  0  0  0  0  0  0  0  0  0  0  0
   -2.4598   -0.9150   -7.0497 H   0  0  0  0  0  0  0  0  0  0  0  0
 29 30  2  0  0  0  0
 27 29  1  0  0  0  0
 28 30  1  0  0  0  0
 24 27  2  0  0  0  0
 26 28  2  0  0  0  0
 22 23  2  0  0  0  0
 23 25  1  0  0  0  0
 22 24  1  0  0  0  0
 24 26  1  0  0  0  0
 21 22  1  0  0  0  0
 25 26  1  0  0  0  0
  1  3  1  0  0  0  0
  1  7  1  0  0  0  0
  1  2  2  0  0  0  0
 42 43  1  0  0  0  0
 43 51  1  0  0  0  0
 43 44  2  0  0  0  0
  8  9  1  0  0  0  0
  9 17  1  0  0  0  0
  9 10  2  0  0  0  0
 18 19  1  0  0  0  0
 19 41  1  0  0  0  0
 19 20  2  0  0  0  0
 42 45  1  0  0  0  0
  8 11  1  0  0  0  0
 51 52  1  0  0  0  0
 18 21  1  0  0  0  0
 41 42  1  0  0  0  0
  7  8  1  0  0  0  0
 17 18  1  0  0  0  0
 29 39  1  0  0  0  0
 30 40  1  0  0  0  0
 27 37  1  0  0  0  0
 28 38  1  0  0  0  0
 23 35  1  0  0  0  0
  3  4  1  0  0  0  0
  3  5  1  0  0  0  0
  3  6  1  0  0  0  0
 45 48  1  0  0  0  0
 45 49  1  0  0  0  0
 45 50  1  0  0  0  0
 11 14  1  0  0  0  0
 11 15  1  0  0  0  0
 11 16  1  0  0  0  0
 52 54  1  0  0  0  0
 52 55  1  0  0  0  0
 52 56  1  0  0  0  0
 21 33  1  0  0  0  0
 21 34  1  0  0  0  0
 42 47  1  0  0  0  0
  8 13  1  0  0  0  0
 18 32  1  0  0  0  0
 25 36  1  0  0  0  0
 51 53  1  0  0  0  0
  7 12  1  0  0  0  0
 41 46  1  0  0  0  0
 17 31  1  0  0  0  0
M  END
$$$$

  -OEChem-05262214473D

 56 57  0     1  0  0  0  0  0999 V2000
   -2.2900    0.3401    4.1553 C   0  0  0  0  0  0  0  0  0  0  0  0
   -1.3426   -0.2746    3.6796 O   0  0  0  0  0  0  0  0  0  0  0  0
   -2.7219    0.0577    5.5560 C   0  0  0  0  0  0  0  0  0  0  0  0
   -3.4815   -0.7386    5.6094 H   0  0  0  0  0  0  0  0  0  0  0  0
   -1.8906   -0.2899    6.1903 H   0  0  0  0  0  0  0  0  0  0  0  0
   -3.1599    0.9126    6.0956 H   0  0  0  0  0  0  0  0  0  0  0  0
   -3.0397    1.3125    3.5142 N   0  0  0  0  0  0  0  0  0  0  0  0
   -2.7928    1.7385    2.1618 C   0  0  2  0  0  0  0  0  0  0  0  0
   -1.4579    1.1532    1.7206 C   0  0  0  0  0  0  0  0  0  0  0  0
   -0.5858    0.8004    2.5118 O   0  0  0  0  0  0  0  0  0  0  0  0
   -2.7841    3.2553    2.0523 C   0  0  0  0  0  0  0  0  0  0  0  0
   -3.8047    1.7484    4.0260 H   0  0  0  0  0  0  0  0  0  0  0  0
   -3.5969    1.3201    1.5466 H   0  0  0  0  0  0  0  0  0  0  0  0
   -1.9850    3.6926    2.6620 H   0  0  0  0  0  0  0  0  0  0  0  0
   -2.6246    3.5776    1.0180 H   0  0  0  0  0  0  0  0  0  0  0  0
   -3.7342    3.6765    2.3981 H   0  0  0  0  0  0  0  0  0  0  0  0
   -1.3352    1.1101    0.3372 N   0  0  0  0  0  0  0  0  0  0  0  0
   -0.1579    0.6093   -0.3265 C   0  0  2  0  0  0  0  0  0  0  0  0
   -0.6076    0.0191   -1.6583 C   0  0  0  0  0  0  0  0  0  0  0  0
    0.1216   -0.0355   -2.6463 O   0  0  0  0  0  0  0  0  0  0  0  0
    0.5701   -0.4511    0.5076 C   0  0  0  0  0  0  0  0  0  0  0  0
    1.1751    0.1134    1.7698 C   0  0  0  0  0  0  0  0  0  0  0  0
    0.6044    0.0753    3.0211 C   0  0  0  0  0  0  0  0  0  0  0  0
    2.4294    0.7755    1.8859 C   0  0  0  0  0  0  0  0  0  0  0  0
    1.4620    0.6887    3.8943 N   0  0  0  0  0  0  0  0  0  0  0  0
    2.5850    1.1260    3.2287 C   0  0  0  0  0  0  0  0  0  0  0  0
    3.4503    1.1112    0.9746 C   0  0  0  0  0  0  0  0  0  0  0  0
    3.7150    1.7982    3.7078 C   0  0  0  0  0  0  0  0  0  0  0  0
    4.5864    1.7835    1.4395 C   0  0  0  0  0  0  0  0  0  0  0  0
    4.7147    2.1207    2.7855 C   0  0  0  0  0  0  0  0  0  0  0  0
   -2.1183    1.4068   -0.2401 H   0  0  0  0  0  0  0  0  0  0  0  0
    0.4858    1.4761   -0.5172 H   0  0  0  0  0  0  0  0  0  0  0  0
    1.3523   -0.9359   -0.0922 H   0  0  0  0  0  0  0  0  0  0  0  0
   -0.1194   -1.2583    0.7881 H   0  0  0  0  0  0  0  0  0  0  0  0
   -0.3352   -0.3315    3.3690 H   0  0  0  0  0  0  0  0  0  0  0  0
    1.2957    0.8041    4.8845 H   0  0  0  0  0  0  0  0  0  0  0  0
    3.3649    0.8561   -0.0779 H   0  0  0  0  0  0  0  0  0  0  0  0
    3.8162    2.0602    4.7555 H   0  0  0  0  0  0  0  0  0  0  0  0
    5.3769    2.0455    0.7413 H   0  0  0  0  0  0  0  0  0  0  0  0
    5.6056    2.6428    3.1249 H   0  0  0  0  0  0  0  0  0  0  0  0
   -1.9002   -0.4825   -1.5943 N   0  0  0  0  0  0  0  0  0  0  0  0
   -2.5613   -1.1173   -2.7118 C   0  0  2  0  0  0  0  0  0  0  0  0
   -2.4174   -0.2055   -3.9231 C   0  0  0  0  0  0  0  0  0  0  0  0
   -2.2029    1.0015   -3.8325 O   0  0  0  0  0  0  0  0  0  0  0  0
   -4.0262   -1.3886   -2.4066 C   0  0  0  0  0  0  0  0  0  0  0  0
   -2.4070   -0.3992   -0.7180 H   0  0  0  0  0  0  0  0  0  0  0  0
   -2.0335   -2.0590   -2.8981 H   0  0  0  0  0  0  0  0  0  0  0  0
   -4.5713   -0.4568   -2.2172 H   0  0  0  0  0  0  0  0  0  0  0  0
   -4.5185   -1.8953   -3.2433 H   0  0  0  0  0  0  0  0  0  0  0  0
   -4.1286   -2.0202   -1.5175 H   0  0  0  0  0  0  0  0  0  0  0  0
   -2.5995   -0.8903   -5.1164 N   0  0  0  0  0  0  0  0  0  0  0  0
   -2.5250   -0.2437   -6.4057 C   0  0  0  0  0  0  0  0  0  0  0  0
   -2.7544   -1.8940   -5.0979 H   0  0  0  0  0  0  0  0  0  0  0  0
   -3.5306    0.0792   -6.7132 H   0  0  0  0  0  0  0  0  0  0  0  0
   -1.8633    0.6325   -6.3386 H   0  0  0  0  0  0  0  0  0  0  0  0
   -2.1241   -0.9501   -7.1475 H   0  0  0  0  0  0  0  0  0  0  0  0
 29 30  2  0  0  0  0
 27 29  1  0  0  0  0
 28 30  1  0  0  0  0
 24 27  2  0  0  0  0
 26 28  2  0  0  0  0
 22 23  2  0  0  0  0
 23 25  1  0  0  0  0
 22 24  1  0  0  0  0
 24 26  1  0  0  0  0
 21 22  1  0  0  0  0
 25 26  1  0  0  0  0
  1  3  1  0  0  0  0
  1  7  1  0  0  0  0
  1  2  2  0  0  0  0
 42 43  1  0  0  0  0
 43 51  1  0  0  0  0
 43 44  2  0  0  0  0
  8  9  1  0  0  0  0
  9 17  1  0  0  0  0
  9 10  2  0  0  0  0
 18 19  1  0  0  0  0
 19 41  1  0  0  0  0
 19 20  2  0  0  0  0
 42 45  1  0  0  0  0
  8 11  1  0  0  0  0
 51 52  1  0  0  0  0
 18 21  1  0  0  0  0
 41 42  1  0  0  0  0
  7  8  1  0  0  0  0
 17 18  1  0  0  0  0
 29 39  1  0  0  0  0
 30 40  1  0  0  0  0
 27 37  1  0  0  0  0
 28 38  1  0  0  0  0
 23 35  1  0  0  0  0
  3  4  1  0  0  0  0
  3  5  1  0  0  0  0
  3  6  1  0  0  0  0
 45 48  1  0  0  0  0
 45 49  1  0  0  0  0
 45 50  1  0  0  0  0
 11 14  1  0  0  0  0
 11 15  1  0  0  0  0
 11 16  1  0  0  0  0
 52 54  1  0  0  0  0
 52 55  1  0  0  0  0
 52 56  1  0  0  0  0
 21 33  1  0  0  0  0
 21 34  1  0  0  0  0
 42 47  1  0  0  0  0
  8 13  1  0  0  0  0
 18 32  1  0  0  0  0
 25 36  1  0  0  0  0
 51 53  1  0  0  0  0
  7 12  1  0  0  0  0
 41 46  1  0  0  0  0
 17 31  1  0  0  0  0
M  END
$$$$

  -OEChem-05262214473D

 56 57  0     1  0  0  0  0  0999 V2000
   -2.2900    0.3401    4.1553 C   0  0  0  0  0  0  0  0  0  0  0  0
   -1.3426   -0.2746    3.6796 O   0  0  0  0  0  0  0  0  0  0  0  0
   -2.7219    0.0577    5.5560 C   0  0  0  0  0  0  0  0  0  0  0  0
   -3.4815   -0.7386    5.6094 H   0  0  0  0  0  0  0  0  0  0  0  0
   -1.8906   -0.2899    6.1903 H   0  0  0  0  0  0  0  0  0  0  0  0
   -3.1599    0.9126    6.0956 H   0  0  0  0  0  0  0  0  0  0  0  0
   -3.0397    1.3125    3.5142 N   0  0  0  0  0  0  0  0  0  0  0  0
   -2.7928    1.7385    2.1618 C   0  0  2  0  0  0  0  0  0  0  0  0
   -1.4579    1.1532    1.7206 C   0  0  0  0  0  0  0  0  0  0  0  0
   -0.5858    0.8004    2.5118 O   0  0  0  0  0  0  0  0  0  0  0  0
   -2.7841    3.2553    2.0523 C   0  0  0  0  0  0  0  0  0  0  0  0
   -3.8047    1.7484    4.0260 H   0  0  0  0  0  0  0  0  0  0  0  0
   -3.5969    1.3201    1.5466 H   0  0  0  0  0  0  0  0  0  0  0  0
   -1.9850    3.6926    2.6620 H   0  0  0  0  0  0  0  0  0  0  0  0
   -2.6246    3.5776    1.0180 H   0  0  0  0  0  0  0  0  0  0  0  0
   -3.7342    3.6765    2.3981 H   0  0  0  0  0  0  0  0  0  0  0  0
   -1.3352    1.1101    0.3372 N   0  0  0  0  0  0  0  0  0  0  0  0
   -0.1579    0.6093   -0.3265 C   0  0  2  0  0  0  0  0  0  0  0  0
   -0.6076    0.0191   -1.6583 C   0  0  0  0  0  0  0  0  0  0  0  0
    0.1767   -0.2828   -2.5553 O   0  0  0  0  0  0  0  0  0  0  0  0
    0.5701   -0.4511    0.5076 C   0  0  0  0  0  0  0  0  0  0  0  0
    1.1751    0.1134    1.7698 C   0  0  0  0  0  0  0  0  0  0  0  0
    0.6044    0.0753    3.0211 C   0  0  0  0  0  0  0  0  0  0  0  0
    2.4294    0.7755    1.8859 C   0  0  0  0  0  0  0  0  0  0  0  0
    1.4620    0.6887    3.8943 N   0  0  0  0  0  0  0  0  0  0  0  0
    2.5850    1.1260    3.2287 C   0  0  0  0  0  0  0  0  0  0  0  0
    3.4503    1.1112    0.9746 C   0  0  0  0  0  0  0  0  0  0  0  0
    3.7150    1.7982    3.7078 C   0  0  0  0  0  0  0  0  0  0  0  0
    4.5864    1.7835    1.4395 C   0  0  0  0  0  0  0  0  0  0  0  0
    4.7147    2.1207    2.7855 C   0  0  0  0  0  0  0  0  0  0  0  0
   -2.1183    1.4068   -0.2401 H   0  0  0  0  0  0  0  0  0  0  0  0
    0.4858    1.4761   -0.5172 H   0  0  0  0  0  0  0  0  0  0  0  0
    1.3523   -0.9359   -0.0922 H   0  0  0  0  0  0  0  0  0  0  0  0
   -0.1194   -1.2583    0.7881 H   0  0  0  0  0  0  0  0  0  0  0  0
   -0.3352   -0.3315    3.3690 H   0  0  0  0  0  0  0  0  0  0  0  0
    1.2957    0.8041    4.8845 H   0  0  0  0  0  0  0  0  0  0  0  0
    3.3649    0.8561   -0.0779 H   0  0  0  0  0  0  0  0  0  0  0  0
    3.8162    2.0602    4.7555 H   0  0  0  0  0  0  0  0  0  0  0  0
    5.3769    2.0455    0.7413 H   0  0  0  0  0  0  0  0  0  0  0  0
    5.6056    2.6428    3.1249 H   0  0  0  0  0  0  0  0  0  0  0  0
   -1.9812   -0.1751   -1.7032 N   0  0  0  0  0  0  0  0  0  0  0  0
   -2.6655   -0.7428   -2.8425 C   0  0  2  0  0  0  0  0  0  0  0  0
   -2.2057    0.0042   -4.0875 C   0  0  0  0  0  0  0  0  0  0  0  0
   -1.7286    1.1365   -4.0525 O   0  0  0  0  0  0  0  0  0  0  0  0
   -4.1752   -0.6540   -2.6819 C   0  0  0  0  0  0  0  0  0  0  0  0
   -2.5332    0.0954   -0.8946 H   0  0  0  0  0  0  0  0  0  0  0  0
   -2.3537   -1.7909   -2.9087 H   0  0  0  0  0  0  0  0  0  0  0  0
   -4.5064    0.3887   -2.6138 H   0  0  0  0  0  0  0  0  0  0  0  0
   -4.6922   -1.1101   -3.5326 H   0  0  0  0  0  0  0  0  0  0  0  0
   -4.5009   -1.1664   -1.7702 H   0  0  0  0  0  0  0  0  0  0  0  0
   -2.4306   -0.7252   -5.2466 N   0  0  0  0  0  0  0  0  0  0  0  0
   -2.0918   -0.2271   -6.5593 C   0  0  0  0  0  0  0  0  0  0  0  0
   -2.8132   -1.6638   -5.1801 H   0  0  0  0  0  0  0  0  0  0  0  0
   -2.9637    0.2828   -6.9948 H   0  0  0  0  0  0  0  0  0  0  0  0
   -1.2553    0.4825   -6.4775 H   0  0  0  0  0  0  0  0  0  0  0  0
   -1.7980   -1.0674   -7.2056 H   0  0  0  0  0  0  0  0  0  0  0  0
 29 30  2  0  0  0  0
 27 29  1  0  0  0  0
 28 30  1  0  0  0  0
 24 27  2  0  0  0  0
 26 28  2  0  0  0  0
 22 23  2  0  0  0  0
 23 25  1  0  0  0  0
 22 24  1  0  0  0  0
 24 26  1  0  0  0  0
 21 22  1  0  0  0  0
 25 26  1  0  0  0  0
  1  3  1  0  0  0  0
  1  7  1  0  0  0  0
  1  2  2  0  0  0  0
 42 43  1  0  0  0  0
 43 51  1  0  0  0  0
 43 44  2  0  0  0  0
  8  9  1  0  0  0  0
  9 17  1  0  0  0  0
  9 10  2  0  0  0  0
 18 19  1  0  0  0  0
 19 41  1  0  0  0  0
 19 20  2  0  0  0  0
 42 45  1  0  0  0  0
  8 11  1  0  0  0  0
 51 52  1  0  0  0  0
 18 21  1  0  0  0  0
 41 42  1  0  0  0  0
  7  8  1  0  0  0  0
 17 18  1  0  0  0  0
 29 39  1  0  0  0  0
 30 40  1  0  0  0  0
 27 37  1  0  0  0  0
 28 38  1  0  0  0  0
 23 35  1  0  0  0  0
  3  4  1  0  0  0  0
  3  5  1  0  0  0  0
  3  6  1  0  0  0  0
 45 48  1  0  0  0  0
 45 49  1  0  0  0  0
 45 50  1  0  0  0  0
 11 14  1  0  0  0  0
 11 15  1  0  0  0  0
 11 16  1  0  0  0  0
 52 54  1  0  0  0  0
 52 55  1  0  0  0  0
 52 56  1  0  0  0  0
 21 33  1  0  0  0  0
 21 34  1  0  0  0  0
 42 47  1  0  0  0  0
  8 13  1  0  0  0  0
 18 32  1  0  0  0  0
 25 36  1  0  0  0  0
 51 53  1  0  0  0  0
  7 12  1  0  0  0  0
 41 46  1  0  0  0  0
 17 31  1  0  0  0  0
M  END
$$$$

  -OEChem-05262214473D

 56 57  0     1  0  0  0  0  0999 V2000
   -2.2900    0.3401    4.1553 C   0  0  0  0  0  0  0  0  0  0  0  0
   -1.3426   -0.2746    3.6796 O   0  0  0  0  0  0  0  0  0  0  0  0
   -2.7219    0.0577    5.5560 C   0  0  0  0  0  0  0  0  0  0  0  0
   -3.4815   -0.7386    5.6094 H   0  0  0  0  0  0  0  0  0  0  0  0
   -1.8906   -0.2899    6.1903 H   0  0  0  0  0  0  0  0  0  0  0  0
   -3.1599    0.9126    6.0956 H   0  0  0  0  0  0  0  0  0  0  0  0
   -3.0397    1.3125    3.5142 N   0  0  0  0  0  0  0  0  0  0  0  0
   -2.7928    1.7385    2.1618 C   0  0  2  0  0  0  0  0  0  0  0  0
   -1.4579    1.1532    1.7206 C   0  0  0  0  0  0  0  0  0  0  0  0
   -0.5858    0.8004    2.5118 O   0  0  0  0  0  0  0  0  0  0  0  0
   -2.7841    3.2553    2.0523 C   0  0  0  0  0  0  0  0  0  0  0  0
   -3.8047    1.7484    4.0260 H   0  0  0  0  0  0  0  0  0  0  0  0
   -3.5969    1.3201    1.5466 H   0  0  0  0  0  0  0  0  0  0  0  0
   -1.9850    3.6926    2.6620 H   0  0  0  0  0  0  0  0  0  0  0  0
   -2.6246    3.5776    1.0180 H   0  0  0  0  0  0  0  0  0  0  0  0
   -3.7342    3.6765    2.3981 H   0  0  0  0  0  0  0  0  0  0  0  0
   -1.3352    1.1101    0.3372 N   0  0  0  0  0  0  0  0  0  0  0  0
   -0.1579    0.6093   -0.3265 C   0  0  2  0  0  0  0  0  0  0  0  0
   -0.6076    0.0191   -1.6583 C   0  0  0  0  0  0  0  0  0  0  0  0
    0.1649   -0.5271   -2.4430 O   0  0  0  0  0  0  0  0  0  0  0  0
    0.5701   -0.4511    0.5076 C   0  0  0  0  0  0  0  0  0  0  0  0
    1.1751    0.1134    1.7698 C   0  0  0  0  0  0  0  0  0  0  0  0
    0.6044    0.0753    3.0211 C   0  0  0  0  0  0  0  0  0  0  0  0
    2.4294    0.7755    1.8859 C   0  0  0  0  0  0  0  0  0  0  0  0
    1.4620    0.6887    3.8943 N   0  0  0  0  0  0  0  0  0  0  0  0
    2.5850    1.1260    3.2287 C   0  0  0  0  0  0  0  0  0  0  0  0
    3.4503    1.1112    0.9746 C   0  0  0  0  0  0  0  0  0  0  0  0
    3.7150    1.7982    3.7078 C   0  0  0  0  0  0  0  0  0  0  0  0
    4.5864    1.7835    1.4395 C   0  0  0  0  0  0  0  0  0  0  0  0
    4.7147    2.1207    2.7855 C   0  0  0  0  0  0  0  0  0  0  0  0
   -2.1183    1.4068   -0.2401 H   0  0  0  0  0  0  0  0  0  0  0  0
    0.4858    1.4761   -0.5172 H   0  0  0  0  0  0  0  0  0  0  0  0
    1.3523   -0.9359   -0.0922 H   0  0  0  0  0  0  0  0  0  0  0  0
   -0.1194   -1.2583    0.7881 H   0  0  0  0  0  0  0  0  0  0  0  0
   -0.3352   -0.3315    3.3690 H   0  0  0  0  0  0  0  0  0  0  0  0
    1.2957    0.8041    4.8845 H   0  0  0  0  0  0  0  0  0  0  0  0
    3.3649    0.8561   -0.0779 H   0  0  0  0  0  0  0  0  0  0  0  0
    3.8162    2.0602    4.7555 H   0  0  0  0  0  0  0  0  0  0  0  0
    5.3769    2.0455    0.7413 H   0  0  0  0  0  0  0  0  0  0  0  0
    5.6056    2.6428    3.1249 H   0  0  0  0  0  0  0  0  0  0  0  0
   -1.9790    0.1318   -1.8399 N   0  0  0  0  0  0  0  0  0  0  0  0
   -2.6685   -0.3675   -3.0078 C   0  0  2  0  0  0  0  0  0  0  0  0
   -1.9373    0.1463   -4.2411 C   0  0  0  0  0  0  0  0  0  0  0  0
   -1.2179    1.1429   -4.2277 O   0  0  0  0  0  0  0  0  0  0  0  0
   -4.1254    0.0683   -3.0188 C   0  0  0  0  0  0  0  0  0  0  0  0
   -2.5256    0.5882   -1.1155 H   0  0  0  0  0  0  0  0  0  0  0  0
   -2.6014   -1.4603   -2.9716 H   0  0  0  0  0  0  0  0  0  0  0  0
   -4.2127    1.1603   -3.0550 H   0  0  0  0  0  0  0  0  0  0  0  0
   -4.6535   -0.3345   -3.8894 H   0  0  0  0  0  0  0  0  0  0  0  0
   -4.6422   -0.2767   -2.1167 H   0  0  0  0  0  0  0  0  0  0  0  0
   -2.2170   -0.6139   -5.3681 N   0  0  0  0  0  0  0  0  0  0  0  0
   -1.6542   -0.3208   -6.6655 C   0  0  0  0  0  0  0  0  0  0  0  0
   -2.8097   -1.4344   -5.2829 H   0  0  0  0  0  0  0  0  0  0  0  0
   -2.3419    0.3298   -7.2256 H   0  0  0  0  0  0  0  0  0  0  0  0
   -0.6880    0.1895   -6.5392 H   0  0  0  0  0  0  0  0  0  0  0  0
   -1.5037   -1.2588   -7.2201 H   0  0  0  0  0  0  0  0  0  0  0  0
 29 30  2  0  0  0  0
 27 29  1  0  0  0  0
 28 30  1  0  0  0  0
 24 27  2  0  0  0  0
 26 28  2  0  0  0  0
 22 23  2  0  0  0  0
 23 25  1  0  0  0  0
 22 24  1  0  0  0  0
 24 26  1  0  0  0  0
 21 22  1  0  0  0  0
 25 26  1  0  0  0  0
  1  3  1  0  0  0  0
  1  7  1  0  0  0  0
  1  2  2  0  0  0  0
 42 43  1  0  0  0  0
 43 51  1  0  0  0  0
 43 44  2  0  0  0  0
  8  9  1  0  0  0  0
  9 17  1  0  0  0  0
  9 10  2  0  0  0  0
 18 19  1  0  0  0  0
 19 41  1  0  0  0  0
 19 20  2  0  0  0  0
 42 45  1  0  0  0  0
  8 11  1  0  0  0  0
 51 52  1  0  0  0  0
 18 21  1  0  0  0  0
 41 42  1  0  0  0  0
  7  8  1  0  0  0  0
 17 18  1  0  0  0  0
 29 39  1  0  0  0  0
 30 40  1  0  0  0  0
 27 37  1  0  0  0  0
 28 38  1  0  0  0  0
 23 35  1  0  0  0  0
  3  4  1  0  0  0  0
  3  5  1  0  0  0  0
  3  6  1  0  0  0  0
 45 48  1  0  0  0  0
 45 49  1  0  0  0  0
 45 50  1  0  0  0  0
 11 14  1  0  0  0  0
 11 15  1  0  0  0  0
 11 16  1  0  0  0  0
 52 54  1  0  0  0  0
 52 55  1  0  0  0  0
 52 56  1  0  0  0  0
 21 33  1  0  0  0  0
 21 34  1  0  0  0  0
 42 47  1  0  0  0  0
  8 13  1  0  0  0  0
 18 32  1  0  0  0  0
 25 36  1  0  0  0  0
 51 53  1  0  0  0  0
  7 12  1  0  0  0  0
 41 46  1  0  0  0  0
 17 31  1  0  0  0  0
M  END
$$$$

  -OEChem-05262214473D

 56 57  0     1  0  0  0  0  0999 V2000
   -2.2900    0.3401    4.1553 C   0  0  0  0  0  0  0  0  0  0  0  0
   -1.3426   -0.2746    3.6796 O   0  0  0  0  0  0  0  0  0  0  0  0
   -2.7219    0.0577    5.5560 C   0  0  0  0  0  0  0  0  0  0  0  0
   -3.4815   -0.7386    5.6094 H   0  0  0  0  0  0  0  0  0  0  0  0
   -1.8906   -0.2899    6.1903 H   0  0  0  0  0  0  0  0  0  0  0  0
   -3.1599    0.9126    6.0956 H   0  0  0  0  0  0  0  0  0  0  0  0
   -3.0397    1.3125    3.5142 N   0  0  0  0  0  0  0  0  0  0  0  0
   -2.7928    1.7385    2.1618 C   0  0  2  0  0  0  0  0  0  0  0  0
   -1.4579    1.1532    1.7206 C   0  0  0  0  0  0  0  0  0  0  0  0
   -0.5858    0.8004    2.5118 O   0  0  0  0  0  0  0  0  0  0  0  0
   -2.7841    3.2553    2.0523 C   0  0  0  0  0  0  0  0  0  0  0  0
   -3.8047    1.7484    4.0260 H   0  0  0  0  0  0  0  0  0  0  0  0
   -3.5969    1.3201    1.5466 H   0  0  0  0  0  0  0  0  0  0  0  0
   -1.9850    3.6926    2.6620 H   0  0  0  0  0  0  0  0  0  0  0  0
   -2.6246    3.5776    1.0180 H   0  0  0  0  0  0  0  0  0  0  0  0
   -3.7342    3.6765    2.3981 H   0  0  0  0  0  0  0  0  0  0  0  0
   -1.3352    1.1101    0.3372 N   0  0  0  0  0  0  0  0  0  0  0  0
   -0.1579    0.6093   -0.3265 C   0  0  2  0  0  0  0  0  0  0  0  0
   -0.6076    0.0191   -1.6583 C   0  0  0  0  0  0  0  0  0  0  0  0
    0.0870   -0.7519   -2.3171 O   0  0  0  0  0  0  0  0  0  0  0  0
    0.5701   -0.4511    0.5076 C   0  0  0  0  0  0  0  0  0  0  0  0
    1.1751    0.1134    1.7698 C   0  0  0  0  0  0  0  0  0  0  0  0
    0.6044    0.0753    3.0211 C   0  0  0  0  0  0  0  0  0  0  0  0
    2.4294    0.7755    1.8859 C   0  0  0  0  0  0  0  0  0  0  0  0
    1.4620    0.6887    3.8943 N   0  0  0  0  0  0  0  0  0  0  0  0
    2.5850    1.1260    3.2287 C   0  0  0  0  0  0  0  0  0  0  0  0
    3.4503    1.1112    0.9746 C   0  0  0  0  0  0  0  0  0  0  0  0
    3.7150    1.7982    3.7078 C   0  0  0  0  0  0  0  0  0  0  0  0
    4.5864    1.7835    1.4395 C   0  0  0  0  0  0  0  0  0  0  0  0
    4.7147    2.1207    2.7855 C   0  0  0  0  0  0  0  0  0  0  0  0
   -2.1183    1.4068   -0.2401 H   0  0  0  0  0  0  0  0  0  0  0  0
    0.4858    1.4761   -0.5172 H   0  0  0  0  0  0  0  0  0  0  0  0
    1.3523   -0.9359   -0.0922 H   0  0  0  0  0  0  0  0  0  0  0  0
   -0.1194   -1.2583    0.7881 H   0  0  0  0  0  0  0  0  0  0  0  0
   -0.3352   -0.3315    3.3690 H   0  0  0  0  0  0  0  0  0  0  0  0
    1.2957    0.8041    4.8845 H   0  0  0  0  0  0  0  0  0  0  0  0
    3.3649    0.8561   -0.0779 H   0  0  0  0  0  0  0  0  0  0  0  0
    3.8162    2.0602    4.7555 H   0  0  0  0  0  0  0  0  0  0  0  0
    5.3769    2.0455    0.7413 H   0  0  0  0  0  0  0  0  0  0  0  0
    5.6056    2.6428    3.1249 H   0  0  0  0  0  0  0  0  0  0  0  0
   -1.8938    0.4173   -1.9952 N   0  0  0  0  0  0  0  0  0  0  0  0
   -2.5699   -0.0170   -3.1965 C   0  0  2  0  0  0  0  0  0  0  0  0
   -1.6306    0.2111   -4.3734 C   0  0  0  0  0  0  0  0  0  0  0  0
   -0.7055    1.0202   -4.3464 O   0  0  0  0  0  0  0  0  0  0  0  0
   -3.8803    0.7290   -3.3944 C   0  0  0  0  0  0  0  0  0  0  0  0
   -2.3846    1.0456   -1.3658 H   0  0  0  0  0  0  0  0  0  0  0  0
   -2.7595   -1.0898   -3.0824 H   0  0  0  0  0  0  0  0  0  0  0  0
   -3.7104    1.8056   -3.5105 H   0  0  0  0  0  0  0  0  0  0  0  0
   -4.4050    0.3787   -4.2894 H   0  0  0  0  0  0  0  0  0  0  0  0
   -4.5428    0.5880   -2.5336 H   0  0  0  0  0  0  0  0  0  0  0  0
   -1.9734   -0.5639   -5.4725 N   0  0  0  0  0  0  0  0  0  0  0  0
   -1.2421   -0.5184   -6.7171 C   0  0  0  0  0  0  0  0  0  0  0  0
   -2.7441   -1.2215   -5.3994 H   0  0  0  0  0  0  0  0  0  0  0  0
   -1.7076    0.2170   -7.3898 H   0  0  0  0  0  0  0  0  0  0  0  0
   -0.2001   -0.2264   -6.5196 H   0  0  0  0  0  0  0  0  0  0  0  0
   -1.2613   -1.5114   -7.1901 H   0  0  0  0  0  0  0  0  0  0  0  0
 29 30  2  0  0  0  0
 27 29  1  0  0  0  0
 28 30  1  0  0  0  0
 24 27  2  0  0  0  0
 26 28  2  0  0  0  0
 22 23  2  0  0  0  0
 23 25  1  0  0  0  0
 22 24  1  0  0  0  0
 24 26  1  0  0  0  0
 21 22  1  0  0  0  0
 25 26  1  0  0  0  0
  1  3  1  0  0  0  0
  1  7  1  0  0  0  0
  1  2  2  0  0  0  0
 42 43  1  0  0  0  0
 43 51  1  0  0  0  0
 43 44  2  0  0  0  0
  8  9  1  0  0  0  0
  9 17  1  0  0  0  0
  9 10  2  0  0  0  0
 18 19  1  0  0  0  0
 19 41  1  0  0  0  0
 19 20  2  0  0  0  0
 42 45  1  0  0  0  0
  8 11  1  0  0  0  0
 51 52  1  0  0  0  0
 18 21  1  0  0  0  0
 41 42  1  0  0  0  0
  7  8  1  0  0  0  0
 17 18  1  0  0  0  0
 29 39  1  0  0  0  0
 30 40  1  0  0  0  0
 27 37  1  0  0  0  0
 28 38  1  0  0  0  0
 23 35  1  0  0  0  0
  3  4  1  0  0  0  0
  3  5  1  0  0  0  0
  3  6  1  0  0  0  0
 45 48  1  0  0  0  0
 45 49  1  0  0  0  0
 45 50  1  0  0  0  0
 11 14  1  0  0  0  0
 11 15  1  0  0  0  0
 11 16  1  0  0  0  0
 52 54  1  0  0  0  0
 52 55  1  0  0  0  0
 52 56  1  0  0  0  0
 21 33  1  0  0  0  0
 21 34  1  0  0  0  0
 42 47  1  0  0  0  0
  8 13  1  0  0  0  0
 18 32  1  0  0  0  0
 25 36  1  0  0  0  0
 51 53  1  0  0  0  0
  7 12  1  0  0  0  0
 41 46  1  0  0  0  0
 17 31  1  0  0  0  0
M  END
$$$$

  -OEChem-05262214473D

 56 57  0     1  0  0  0  0  0999 V2000
   -2.2900    0.3401    4.1553 C   0  0  0  0  0  0  0  0  0  0  0  0
   -1.3426   -0.2746    3.6796 O   0  0  0  0  0  0  0  0  0  0  0  0
   -2.7219    0.0577    5.5560 C   0  0  0  0  0  0  0  0  0  0  0  0
   -3.4815   -0.7386    5.6094 H   0  0  0  0  0  0  0  0  0  0  0  0
   -1.8906   -0.2899    6.1903 H   0  0  0  0  0  0  0  0  0  0  0  0
   -3.1599    0.9126    6.0956 H   0  0  0  0  0  0  0  0  0  0  0  0
   -3.0397    1.3125    3.5142 N   0  0  0  0  0  0  0  0  0  0  0  0
   -2.7928    1.7385    2.1618 C   0  0  2  0  0  0  0  0  0  0  0  0
   -1.4579    1.1532    1.7206 C   0  0  0  0  0  0  0  0  0  0  0  0
   -0.5858    0.8004    2.5118 O   0  0  0  0  0  0  0  0  0  0  0  0
   -2.7841    3.2553    2.0523 C   0  0  0  0  0  0  0  0  0  0  0  0
   -3.8047    1.7484    4.0260 H   0  0  0  0  0  0  0  0  0  0  0  0
   -3.5969    1.3201    1.5466 H   0  0  0  0  0  0  0  0  0  0  0  0
   -1.9850    3.6926    2.6620 H   0  0  0  0  0  0  0  0  0  0  0  0
   -2.6246    3.5776    1.0180 H   0  0  0  0  0  0  0  0  0  0  0  0
   -3.7342    3.6765    2.3981 H   0  0  0  0  0  0  0  0  0  0  0  0
   -1.3352    1.1101    0.3372 N   0  0  0  0  0  0  0  0  0  0  0  0
   -0.1579    0.6093   -0.3265 C   0  0  2  0  0  0  0  0  0  0  0  0
   -0.6076    0.0191   -1.6583 C   0  0  0  0  0  0  0  0  0  0  0  0
   -0.0517   -0.9418   -2.1861 O   0  0  0  0  0  0  0  0  0  0  0  0
    0.5701   -0.4511    0.5076 C   0  0  0  0  0  0  0  0  0  0  0  0
    1.1751    0.1134    1.7698 C   0  0  0  0  0  0  0  0  0  0  0  0
    0.6044    0.0753    3.0211 C   0  0  0  0  0  0  0  0  0  0  0  0
    2.4294    0.7755    1.8859 C   0  0  0  0  0  0  0  0  0  0  0  0
    1.4620    0.6887    3.8943 N   0  0  0  0  0  0  0  0  0  0  0  0
    2.5850    1.1260    3.2287 C   0  0  0  0  0  0  0  0  0  0  0  0
    3.4503    1.1112    0.9746 C   0  0  0  0  0  0  0  0  0  0  0  0
    3.7150    1.7982    3.7078 C   0  0  0  0  0  0  0  0  0  0  0  0
    4.5864    1.7835    1.4395 C   0  0  0  0  0  0  0  0  0  0  0  0
    4.7147    2.1207    2.7855 C   0  0  0  0  0  0  0  0  0  0  0  0
   -2.1183    1.4068   -0.2401 H   0  0  0  0  0  0  0  0  0  0  0  0
    0.4858    1.4761   -0.5172 H   0  0  0  0  0  0  0  0  0  0  0  0
    1.3523   -0.9359   -0.0922 H   0  0  0  0  0  0  0  0  0  0  0  0
   -0.1194   -1.2583    0.7881 H   0  0  0  0  0  0  0  0  0  0  0  0
   -0.3352   -0.3315    3.3690 H   0  0  0  0  0  0  0  0  0  0  0  0
    1.2957    0.8041    4.8845 H   0  0  0  0  0  0  0  0  0  0  0  0
    3.3649    0.8561   -0.0779 H   0  0  0  0  0  0  0  0  0  0  0  0
    3.8162    2.0602    4.7555 H   0  0  0  0  0  0  0  0  0  0  0  0
    5.3769    2.0455    0.7413 H   0  0  0  0  0  0  0  0  0  0  0  0
    5.6056    2.6428    3.1249 H   0  0  0  0  0  0  0  0  0  0  0  0
   -1.7314    0.6620   -2.1585 N   0  0  0  0  0  0  0  0  0  0  0  0
   -2.3765    0.2849   -3.3956 C   0  0  2  0  0  0  0  0  0  0  0  0
   -1.3064    0.1943   -4.4754 C   0  0  0  0  0  0  0  0  0  0  0  0
   -0.2265    0.7767   -4.4002 O   0  0  0  0  0  0  0  0  0  0  0  0
   -3.4565    1.2831   -3.7830 C   0  0  0  0  0  0  0  0  0  0  0  0
   -2.1200    1.4364   -1.6284 H   0  0  0  0  0  0  0  0  0  0  0  0
   -2.8174   -0.7047   -3.2335 H   0  0  0  0  0  0  0  0  0  0  0  0
   -3.0337    2.2806   -3.9495 H   0  0  0  0  0  0  0  0  0  0  0  0
   -3.9636    0.9809   -4.7053 H   0  0  0  0  0  0  0  0  0  0  0  0
   -4.2095    1.3691   -2.9922 H   0  0  0  0  0  0  0  0  0  0  0  0
   -1.7163   -0.5787   -5.5528 N   0  0  0  0  0  0  0  0  0  0  0  0
   -0.8835   -0.8064   -6.7106 C   0  0  0  0  0  0  0  0  0  0  0  0
   -2.6209   -1.0396   -5.5216 H   0  0  0  0  0  0  0  0  0  0  0  0
   -1.1039   -0.0479   -7.4763 H   0  0  0  0  0  0  0  0  0  0  0  0
    0.1752   -0.7370   -6.4200 H   0  0  0  0  0  0  0  0  0  0  0  0
   -1.0872   -1.8079   -7.1175 H   0  0  0  0  0  0  0  0  0  0  0  0
 29 30  2  0  0  0  0
 27 29  1  0  0  0  0
 28 30  1  0  0  0  0
 24 27  2  0  0  0  0
 26 28  2  0  0  0  0
 22 23  2  0  0  0  0
 23 25  1  0  0  0  0
 22 24  1  0  0  0  0
 24 26  1  0  0  0  0
 21 22  1  0  0  0  0
 25 26  1  0  0  0  0
  1  3  1  0  0  0  0
  1  7  1  0  0  0  0
  1  2  2  0  0  0  0
 42 43  1  0  0  0  0
 43 51  1  0  0  0  0
 43 44  2  0  0  0  0
  8  9  1  0  0  0  0
  9 17  1  0  0  0  0
  9 10  2  0  0  0  0
 18 19  1  0  0  0  0
 19 41  1  0  0  0  0
 19 20  2  0  0  0  0
 42 45  1  0  0  0  0
  8 11  1  0  0  0  0
 51 52  1  0  0  0  0
 18 21  1  0  0  0  0
 41 42  1  0  0  0  0
  7  8  1  0  0  0  0
 17 18  1  0  0  0  0
 29 39  1  0  0  0  0
 30 40  1  0  0  0  0
 27 37  1  0  0  0  0
 28 38  1  0  0  0  0
 23 35  1  0  0  0  0
  3  4  1  0  0  0  0
  3  5  1  0  0  0  0
  3  6  1  0  0  0  0
 45 48  1  0  0  0  0
 45 49  1  0  0  0  0
 45 50  1  0  0  0  0
 11 14  1  0  0  0  0
 11 15  1  0  0  0  0
 11 16  1  0  0  0  0
 52 54  1  0  0  0  0
 52 55  1  0  0  0  0
 52 56  1  0  0  0  0
 21 33  1  0  0  0  0
 21 34  1  0  0  0  0
 42 47  1  0  0  0  0
  8 13  1  0  0  0  0
 18 32  1  0  0  0  0
 25 36  1  0  0  0  0
 51 53  1  0  0  0  0
  7 12  1  0  0  0  0
 41 46  1  0  0  0  0
 17 31  1  0  0  0  0
M  END
$$$$

  -OEChem-05262214473D

 56 57  0     1  0  0  0  0  0999 V2000
   -2.2900    0.3401    4.1553 C   0  0  0  0  0  0  0  0  0  0  0  0
   -1.3426   -0.2746    3.6796 O   0  0  0  0  0  0  0  0  0  0  0  0
   -2.7219    0.0577    5.5560 C   0  0  0  0  0  0  0  0  0  0  0  0
   -3.4815   -0.7386    5.6094 H   0  0  0  0  0  0  0  0  0  0  0  0
   -1.8906   -0.2899    6.1903 H   0  0  0  0  0  0  0  0  0  0  0  0
   -3.1599    0.9126    6.0956 H   0  0  0  0  0  0  0  0  0  0  0  0
   -3.0397    1.3125    3.5142 N   0  0  0  0  0  0  0  0  0  0  0  0
   -2.7928    1.7385    2.1618 C   0  0  2  0  0  0  0  0  0  0  0  0
   -1.4579    1.1532    1.7206 C   0  0  0  0  0  0  0  0  0  0  0  0
   -0.5858    0.8004    2.5118 O   0  0  0  0  0  0  0  0  0  0  0  0
   -2.7841    3.2553    2.0523 C   0  0  0  0  0  0  0  0  0  0  0  0
   -3.8047    1.7484    4.0260 H   0  0  0  0  0  0  0  0  0  0  0  0
   -3.5969    1.3201    1.5466 H   0  0  0  0  0  0  0  0  0  0  0  0
   -1.9850    3.6926    2.6620 H   0  0  0  0  0  0  0  0  0  0  0  0
   -2.6246    3.5776    1.0180 H   0  0  0  0  0  0  0  0  0  0  0  0
   -3.7342    3.6765    2.3981 H   0  0  0  0  0  0  0  0  0  0  0  0
   -1.3352    1.1101    0.3372 N   0  0  0  0  0  0  0  0  0  0  0  0
   -0.1579    0.6093   -0.3265 C   0  0  2  0  0  0  0  0  0  0  0  0
   -0.6076    0.0191   -1.6583 C   0  0  0  0  0  0  0  0  0  0  0  0
   -0.2418   -1.0839   -2.0590 O   0  0  0  0  0  0  0  0  0  0  0  0
    0.5701   -0.4511    0.5076 C   0  0  0  0  0  0  0  0  0  0  0  0
    1.1751    0.1134    1.7698 C   0  0  0  0  0  0  0  0  0  0  0  0
    0.6044    0.0753    3.0211 C   0  0  0  0  0  0  0  0  0  0  0  0
    2.4294    0.7755    1.8859 C   0  0  0  0  0  0  0  0  0  0  0  0
    1.4620    0.6887    3.8943 N   0  0  0  0  0  0  0  0  0  0  0  0
    2.5850    1.1260    3.2287 C   0  0  0  0  0  0  0  0  0  0  0  0
    3.4503    1.1112    0.9746 C   0  0  0  0  0  0  0  0  0  0  0  0
    3.7150    1.7982    3.7078 C   0  0  0  0  0  0  0  0  0  0  0  0
    4.5864    1.7835    1.4395 C   0  0  0  0  0  0  0  0  0  0  0  0
    4.7147    2.1207    2.7855 C   0  0  0  0  0  0  0  0  0  0  0  0
   -2.1183    1.4068   -0.2401 H   0  0  0  0  0  0  0  0  0  0  0  0
    0.4858    1.4761   -0.5172 H   0  0  0  0  0  0  0  0  0  0  0  0
    1.3523   -0.9359   -0.0922 H   0  0  0  0  0  0  0  0  0  0  0  0
   -0.1194   -1.2583    0.7881 H   0  0  0  0  0  0  0  0  0  0  0  0
   -0.3352   -0.3315    3.3690 H   0  0  0  0  0  0  0  0  0  0  0  0
    1.2957    0.8041    4.8845 H   0  0  0  0  0  0  0  0  0  0  0  0
    3.3649    0.8561   -0.0779 H   0  0  0  0  0  0  0  0  0  0  0  0
    3.8162    2.0602    4.7555 H   0  0  0  0  0  0  0  0  0  0  0  0
    5.3769    2.0455    0.7413 H   0  0  0  0  0  0  0  0  0  0  0  0
    5.6056    2.6428    3.1249 H   0  0  0  0  0  0  0  0  0  0  0  0
   -1.5029    0.8491   -2.3186 N   0  0  0  0  0  0  0  0  0  0  0  0
   -2.1015    0.5177   -3.5916 C   0  0  2  0  0  0  0  0  0  0  0  0
   -0.9868    0.0969   -4.5402 C   0  0  0  0  0  0  0  0  0  0  0  0
    0.1865    0.4292   -4.3857 O   0  0  0  0  0  0  0  0  0  0  0  0
   -2.8829    1.6928   -4.1583 C   0  0  0  0  0  0  0  0  0  0  0  0
   -1.7497    1.7341   -1.8853 H   0  0  0  0  0  0  0  0  0  0  0  0
   -2.7712   -0.3311   -3.4147 H   0  0  0  0  0  0  0  0  0  0  0  0
   -2.2286    2.5528   -4.3420 H   0  0  0  0  0  0  0  0  0  0  0  0
   -3.3595    1.4311   -5.1088 H   0  0  0  0  0  0  0  0  0  0  0  0
   -3.6650    2.0131   -3.4615 H   0  0  0  0  0  0  0  0  0  0  0  0
   -1.4633   -0.6572   -5.6034 N   0  0  0  0  0  0  0  0  0  0  0  0
   -0.6029   -1.1651   -6.6464 C   0  0  0  0  0  0  0  0  0  0  0  0
   -2.4486   -0.9010   -5.6412 H   0  0  0  0  0  0  0  0  0  0  0  0
   -0.5720   -0.4469   -7.4790 H   0  0  0  0  0  0  0  0  0  0  0  0
    0.4122   -1.3075   -6.2473 H   0  0  0  0  0  0  0  0  0  0  0  0
   -0.9934   -2.1280   -7.0072 H   0  0  0  0  0  0  0  0  0  0  0  0
 29 30  2  0  0  0  0
 27 29  1  0  0  0  0
 28 30  1  0  0  0  0
 24 27  2  0  0  0  0
 26 28  2  0  0  0  0
 22 23  2  0  0  0  0
 23 25  1  0  0  0  0
 22 24  1  0  0  0  0
 24 26  1  0  0  0  0
 21 22  1  0  0  0  0
 25 26  1  0  0  0  0
  1  3  1  0  0  0  0
  1  7  1  0  0  0  0
  1  2  2  0  0  0  0
 42 43  1  0  0  0  0
 43 51  1  0  0  0  0
 43 44  2  0  0  0  0
  8  9  1  0  0  0  0
  9 17  1  0  0  0  0
  9 10  2  0  0  0  0
 18 19  1  0  0  0  0
 19 41  1  0  0  0  0
 19 20  2  0  0  0  0
 42 45  1  0  0  0  0
  8 11  1  0  0  0  0
 51 52  1  0  0  0  0
 18 21  1  0  0  0  0
 41 42  1  0  0  0  0
  7  8  1  0  0  0  0
 17 18  1  0  0  0  0
 29 39  1  0  0  0  0
 30 40  1  0  0  0  0
 27 37  1  0  0  0  0
 28 38  1  0  0  0  0
 23 35  1  0  0  0  0
  3  4  1  0  0  0  0
  3  5  1  0  0  0  0
  3  6  1  0  0  0  0
 45 48  1  0  0  0  0
 45 49  1  0  0  0  0
 45 50  1  0  0  0  0
 11 14  1  0  0  0  0
 11 15  1  0  0  0  0
 11 16  1  0  0  0  0
 52 54  1  0  0  0  0
 52 55  1  0  0  0  0
 52 56  1  0  0  0  0
 21 33  1  0  0  0  0
 21 34  1  0  0  0  0
 42 47  1  0  0  0  0
  8 13  1  0  0  0  0
 18 32  1  0  0  0  0
 25 36  1  0  0  0  0
 51 53  1  0  0  0  0
  7 12  1  0  0  0  0
 41 46  1  0  0  0  0
 17 31  1  0  0  0  0
M  END
$$$$

  -OEChem-05262214473D

 56 57  0     1  0  0  0  0  0999 V2000
   -2.2900    0.3401    4.1553 C   0  0  0  0  0  0  0  0  0  0  0  0
   -1.3426   -0.2746    3.6796 O   0  0  0  0  0  0  0  0  0  0  0  0
   -2.7219    0.0577    5.5560 C   0  0  0  0  0  0  0  0  0  0  0  0
   -3.4815   -0.7386    5.6094 H   0  0  0  0  0  0  0  0  0  0  0  0
   -1.8906   -0.2899    6.1903 H   0  0  0  0  0  0  0  0  0  0  0  0
   -3.1599    0.9126    6.0956 H   0  0  0  0  0  0  0  0  0  0  0  0
   -3.0397    1.3125    3.5142 N   0  0  0  0  0  0  0  0  0  0  0  0
   -2.7928    1.7385    2.1618 C   0  0  2  0  0  0  0  0  0  0  0  0
   -1.4579    1.1532    1.7206 C   0  0  0  0  0  0  0  0  0  0  0  0
   -0.5858    0.8004    2.5118 O   0  0  0  0  0  0  0  0  0  0  0  0
   -2.7841    3.2553    2.0523 C   0  0  0  0  0  0  0  0  0  0  0  0
   -3.8047    1.7484    4.0260 H   0  0  0  0  0  0  0  0  0  0  0  0
   -3.5969    1.3201    1.5466 H   0  0  0  0  0  0  0  0  0  0  0  0
   -1.9850    3.6926    2.6620 H   0  0  0  0  0  0  0  0  0  0  0  0
   -2.6246    3.5776    1.0180 H   0  0  0  0  0  0  0  0  0  0  0  0
   -3.7342    3.6765    2.3981 H   0  0  0  0  0  0  0  0  0  0  0  0
   -1.3352    1.1101    0.3372 N   0  0  0  0  0  0  0  0  0  0  0  0
   -0.1579    0.6093   -0.3265 C   0  0  2  0  0  0  0  0  0  0  0  0
   -0.6076    0.0191   -1.6583 C   0  0  0  0  0  0  0  0  0  0  0  0
   -0.4702   -1.1684   -1.9444 O   0  0  0  0  0  0  0  0  0  0  0  0
    0.5701   -0.4511    0.5076 C   0  0  0  0  0  0  0  0  0  0  0  0
    1.1751    0.1134    1.7698 C   0  0  0  0  0  0  0  0  0  0  0  0
    0.6044    0.0753    3.0211 C   0  0  0  0  0  0  0  0  0  0  0  0
    2.4294    0.7755    1.8859 C   0  0  0  0  0  0  0  0  0  0  0  0
    1.4620    0.6887    3.8943 N   0  0  0  0  0  0  0  0  0  0  0  0
    2.5850    1.1260    3.2287 C   0  0  0  0  0  0  0  0  0  0  0  0
    3.4503    1.1112    0.9746 C   0  0  0  0  0  0  0  0  0  0  0  0
    3.7150    1.7982    3.7078 C   0  0  0  0  0  0  0  0  0  0  0  0
    4.5864    1.7835    1.4395 C   0  0  0  0  0  0  0  0  0  0  0  0
    4.7147    2.1207    2.7855 C   0  0  0  0  0  0  0  0  0  0  0  0
   -2.1183    1.4068   -0.2401 H   0  0  0  0  0  0  0  0  0  0  0  0
    0.4858    1.4761   -0.5172 H   0  0  0  0  0  0  0  0  0  0  0  0
    1.3523   -0.9359   -0.0922 H   0  0  0  0  0  0  0  0  0  0  0  0
   -0.1194   -1.2583    0.7881 H   0  0  0  0  0  0  0  0  0  0  0  0
   -0.3352   -0.3315    3.3690 H   0  0  0  0  0  0  0  0  0  0  0  0
    1.2957    0.8041    4.8845 H   0  0  0  0  0  0  0  0  0  0  0  0
    3.3649    0.8561   -0.0779 H   0  0  0  0  0  0  0  0  0  0  0  0
    3.8162    2.0602    4.7555 H   0  0  0  0  0  0  0  0  0  0  0  0
    5.3769    2.0455    0.7413 H   0  0  0  0  0  0  0  0  0  0  0  0
    5.6056    2.6428    3.1249 H   0  0  0  0  0  0  0  0  0  0  0  0
   -1.2238    0.9660   -2.4646 N   0  0  0  0  0  0  0  0  0  0  0  0
   -1.7637    0.6653   -3.7711 C   0  0  2  0  0  0  0  0  0  0  0  0
   -0.6937   -0.0743   -4.5633 C   0  0  0  0  0  0  0  0  0  0  0  0
    0.5055    0.0012   -4.3037 O   0  0  0  0  0  0  0  0  0  0  0  0
   -2.1987    1.9303   -4.4946 C   0  0  0  0  0  0  0  0  0  0  0  0
   -1.2990    1.9182   -2.1191 H   0  0  0  0  0  0  0  0  0  0  0  0
   -2.6238    0.0055   -3.6136 H   0  0  0  0  0  0  0  0  0  0  0  0
   -1.3501    2.6038   -4.6613 H   0  0  0  0  0  0  0  0  0  0  0  0
   -2.6337    1.6984   -5.4723 H   0  0  0  0  0  0  0  0  0  0  0  0
   -2.9465    2.4763   -3.9094 H   0  0  0  0  0  0  0  0  0  0  0  0
   -1.2315   -0.7942   -5.6210 N   0  0  0  0  0  0  0  0  0  0  0  0
   -0.4194   -1.5701   -6.5289 C   0  0  0  0  0  0  0  0  0  0  0  0
   -2.2388   -0.8152   -5.7501 H   0  0  0  0  0  0  0  0  0  0  0  0
   -0.1481   -0.9528   -7.3980 H   0  0  0  0  0  0  0  0  0  0  0  0
    0.4949   -1.8989   -6.0131 H   0  0  0  0  0  0  0  0  0  0  0  0
   -0.9862   -2.4501   -6.8669 H   0  0  0  0  0  0  0  0  0  0  0  0
 29 30  2  0  0  0  0
 27 29  1  0  0  0  0
 28 30  1  0  0  0  0
 24 27  2  0  0  0  0
 26 28  2  0  0  0  0
 22 23  2  0  0  0  0
 23 25  1  0  0  0  0
 22 24  1  0  0  0  0
 24 26  1  0  0  0  0
 21 22  1  0  0  0  0
 25 26  1  0  0  0  0
  1  3  1  0  0  0  0
  1  7  1  0  0  0  0
  1  2  2  0  0  0  0
 42 43  1  0  0  0  0
 43 51  1  0  0  0  0
 43 44  2  0  0  0  0
  8  9  1  0  0  0  0
  9 17  1  0  0  0  0
  9 10  2  0  0  0  0
 18 19  1  0  0  0  0
 19 41  1  0  0  0  0
 19 20  2  0  0  0  0
 42 45  1  0  0  0  0
  8 11  1  0  0  0  0
 51 52  1  0  0  0  0
 18 21  1  0  0  0  0
 41 42  1  0  0  0  0
  7  8  1  0  0  0  0
 17 18  1  0  0  0  0
 29 39  1  0  0  0  0
 30 40  1  0  0  0  0
 27 37  1  0  0  0  0
 28 38  1  0  0  0  0
 23 35  1  0  0  0  0
  3  4  1  0  0  0  0
  3  5  1  0  0  0  0
  3  6  1  0  0  0  0
 45 48  1  0  0  0  0
 45 49  1  0  0  0  0
 45 50  1  0  0  0  0
 11 14  1  0  0  0  0
 11 15  1  0  0  0  0
 11 16  1  0  0  0  0
 52 54  1  0  0  0  0
 52 55  1  0  0  0  0
 52 56  1  0  0  0  0
 21 33  1  0  0  0  0
 21 34  1  0  0  0  0
 42 47  1  0  0  0  0
  8 13  1  0  0  0  0
 18 32  1  0  0  0  0
 25 36  1  0  0  0  0
 51 53  1  0  0  0  0
  7 12  1  0  0  0  0
 41 46  1  0  0  0  0
 17 31  1  0  0  0  0
M  END
$$$$

  -OEChem-05262214473D

 56 57  0     1  0  0  0  0  0999 V2000
   -2.2900    0.3401    4.1553 C   0  0  0  0  0  0  0  0  0  0  0  0
   -1.3426   -0.2746    3.6796 O   0  0  0  0  0  0  0  0  0  0  0  0
   -2.7219    0.0577    5.5560 C   0  0  0  0  0  0  0  0  0  0  0  0
   -3.4815   -0.7386    5.6094 H   0  0  0  0  0  0  0  0  0  0  0  0
   -1.8906   -0.2899    6.1903 H   0  0  0  0  0  0  0  0  0  0  0  0
   -3.1599    0.9126    6.0956 H   0  0  0  0  0  0  0  0  0  0  0  0
   -3.0397    1.3125    3.5142 N   0  0  0  0  0  0  0  0  0  0  0  0
   -2.7928    1.7385    2.1618 C   0  0  2  0  0  0  0  0  0  0  0  0
   -1.4579    1.1532    1.7206 C   0  0  0  0  0  0  0  0  0  0  0  0
   -0.5858    0.8004    2.5118 O   0  0  0  0  0  0  0  0  0  0  0  0
   -2.7841    3.2553    2.0523 C   0  0  0  0  0  0  0  0  0  0  0  0
   -3.8047    1.7484    4.0260 H   0  0  0  0  0  0  0  0  0  0  0  0
   -3.5969    1.3201    1.5466 H   0  0  0  0  0  0  0  0  0  0  0  0
   -1.9850    3.6926    2.6620 H   0  0  0  0  0  0  0  0  0  0  0  0
   -2.6246    3.5776    1.0180 H   0  0  0  0  0  0  0  0  0  0  0  0
   -3.7342    3.6765    2.3981 H   0  0  0  0  0  0  0  0  0  0  0  0
   -1.3352    1.1101    0.3372 N   0  0  0  0  0  0  0  0  0  0  0  0
   -0.1579    0.6093   -0.3265 C   0  0  2  0  0  0  0  0  0  0  0  0
   -0.6076    0.0191   -1.6583 C   0  0  0  0  0  0  0  0  0  0  0  0
   -0.7214   -1.1897   -1.8501 O   0  0  0  0  0  0  0  0  0  0  0  0
    0.5701   -0.4511    0.5076 C   0  0  0  0  0  0  0  0  0  0  0  0
    1.1751    0.1134    1.7698 C   0  0  0  0  0  0  0  0  0  0  0  0
    0.6044    0.0753    3.0211 C   0  0  0  0  0  0  0  0  0  0  0  0
    2.4294    0.7755    1.8859 C   0  0  0  0  0  0  0  0  0  0  0  0
    1.4620    0.6887    3.8943 N   0  0  0  0  0  0  0  0  0  0  0  0
    2.5850    1.1260    3.2287 C   0  0  0  0  0  0  0  0  0  0  0  0
    3.4503    1.1112    0.9746 C   0  0  0  0  0  0  0  0  0  0  0  0
    3.7150    1.7982    3.7078 C   0  0  0  0  0  0  0  0  0  0  0  0
    4.5864    1.7835    1.4395 C   0  0  0  0  0  0  0  0  0  0  0  0
    4.7147    2.1207    2.7855 C   0  0  0  0  0  0  0  0  0  0  0  0
   -2.1183    1.4068   -0.2401 H   0  0  0  0  0  0  0  0  0  0  0  0
    0.4858    1.4761   -0.5172 H   0  0  0  0  0  0  0  0  0  0  0  0
    1.3523   -0.9359   -0.0922 H   0  0  0  0  0  0  0  0  0  0  0  0
   -0.1194   -1.2583    0.7881 H   0  0  0  0  0  0  0  0  0  0  0  0
   -0.3352   -0.3315    3.3690 H   0  0  0  0  0  0  0  0  0  0  0  0
    1.2957    0.8041    4.8845 H   0  0  0  0  0  0  0  0  0  0  0  0
    3.3649    0.8561   -0.0779 H   0  0  0  0  0  0  0  0  0  0  0  0
    3.8162    2.0602    4.7555 H   0  0  0  0  0  0  0  0  0  0  0  0
    5.3769    2.0455    0.7413 H   0  0  0  0  0  0  0  0  0  0  0  0
    5.6056    2.6428    3.1249 H   0  0  0  0  0  0  0  0  0  0  0  0
   -0.9131    1.0046   -2.5866 N   0  0  0  0  0  0  0  0  0  0  0  0
   -1.3859    0.7178   -3.9219 C   0  0  2  0  0  0  0  0  0  0  0  0
   -0.4469   -0.3077   -4.5432 C   0  0  0  0  0  0  0  0  0  0  0  0
    0.7086   -0.4781   -4.1599 O   0  0  0  0  0  0  0  0  0  0  0  0
   -1.4503    1.9792   -4.7689 C   0  0  0  0  0  0  0  0  0  0  0  0
   -0.7986    1.9763   -2.3139 H   0  0  0  0  0  0  0  0  0  0  0  0
   -2.3855    0.2821   -3.8167 H   0  0  0  0  0  0  0  0  0  0  0  0
   -0.4581    2.4301   -4.8855 H   0  0  0  0  0  0  0  0  0  0  0  0
   -1.8358    1.7649   -5.7712 H   0  0  0  0  0  0  0  0  0  0  0  0
   -2.1028    2.7270   -4.3054 H   0  0  0  0  0  0  0  0  0  0  0  0
   -1.0369   -0.9802   -5.6043 N   0  0  0  0  0  0  0  0  0  0  0  0
   -0.3455   -1.9939   -6.3660 C   0  0  0  0  0  0  0  0  0  0  0  0
   -2.0059   -0.7881   -5.8407 H   0  0  0  0  0  0  0  0  0  0  0  0
    0.1388   -1.5311   -7.2386 H   0  0  0  0  0  0  0  0  0  0  0  0
    0.4176   -2.4709   -5.7335 H   0  0  0  0  0  0  0  0  0  0  0  0
   -1.0662   -2.7521   -6.7061 H   0  0  0  0  0  0  0  0  0  0  0  0
 29 30  2  0  0  0  0
 27 29  1  0  0  0  0
 28 30  1  0  0  0  0
 24 27  2  0  0  0  0
 26 28  2  0  0  0  0
 22 23  2  0  0  0  0
 23 25  1  0  0  0  0
 22 24  1  0  0  0  0
 24 26  1  0  0  0  0
 21 22  1  0  0  0  0
 25 26  1  0  0  0  0
  1  3  1  0  0  0  0
  1  7  1  0  0  0  0
  1  2  2  0  0  0  0
 42 43  1  0  0  0  0
 43 51  1  0  0  0  0
 43 44  2  0  0  0  0
  8  9  1  0  0  0  0
  9 17  1  0  0  0  0
  9 10  2  0  0  0  0
 18 19  1  0  0  0  0
 19 41  1  0  0  0  0
 19 20  2  0  0  0  0
 42 45  1  0  0  0  0
  8 11  1  0  0  0  0
 51 52  1  0  0  0  0
 18 21  1  0  0  0  0
 41 42  1  0  0  0  0
  7  8  1  0  0  0  0
 17 18  1  0  0  0  0
 29 39  1  0  0  0  0
 30 40  1  0  0  0  0
 27 37  1  0  0  0  0
 28 38  1  0  0  0  0
 23 35  1  0  0  0  0
  3  4  1  0  0  0  0
  3  5  1  0  0  0  0
  3  6  1  0  0  0  0
 45 48  1  0  0  0  0
 45 49  1  0  0  0  0
 45 50  1  0  0  0  0
 11 14  1  0  0  0  0
 11 15  1  0  0  0  0
 11 16  1  0  0  0  0
 52 54  1  0  0  0  0
 52 55  1  0  0  0  0
 52 56  1  0  0  0  0
 21 33  1  0  0  0  0
 21 34  1  0  0  0  0
 42 47  1  0  0  0  0
  8 13  1  0  0  0  0
 18 32  1  0  0  0  0
 25 36  1  0  0  0  0
 51 53  1  0  0  0  0
  7 12  1  0  0  0  0
 41 46  1  0  0  0  0
 17 31  1  0  0  0  0
M  END
$$$$

  -OEChem-05262214473D

 56 57  0     1  0  0  0  0  0999 V2000
   -2.2900    0.3401    4.1553 C   0  0  0  0  0  0  0  0  0  0  0  0
   -1.3426   -0.2746    3.6796 O   0  0  0  0  0  0  0  0  0  0  0  0
   -2.7219    0.0577    5.5560 C   0  0  0  0  0  0  0  0  0  0  0  0
   -3.4815   -0.7386    5.6094 H   0  0  0  0  0  0  0  0  0  0  0  0
   -1.8906   -0.2899    6.1903 H   0  0  0  0  0  0  0  0  0  0  0  0
   -3.1599    0.9126    6.0956 H   0  0  0  0  0  0  0  0  0  0  0  0
   -3.0397    1.3125    3.5142 N   0  0  0  0  0  0  0  0  0  0  0  0
   -2.7928    1.7385    2.1618 C   0  0  2  0  0  0  0  0  0  0  0  0
   -1.4579    1.1532    1.7206 C   0  0  0  0  0  0  0  0  0  0  0  0
   -0.5858    0.8004    2.5118 O   0  0  0  0  0  0  0  0  0  0  0  0
   -2.7841    3.2553    2.0523 C   0  0  0  0  0  0  0  0  0  0  0  0
   -3.8047    1.7484    4.0260 H   0  0  0  0  0  0  0  0  0  0  0  0
   -3.5969    1.3201    1.5466 H   0  0  0  0  0  0  0  0  0  0  0  0
   -1.9850    3.6926    2.6620 H   0  0  0  0  0  0  0  0  0  0  0  0
   -2.6246    3.5776    1.0180 H   0  0  0  0  0  0  0  0  0  0  0  0
   -3.7342    3.6765    2.3981 H   0  0  0  0  0  0  0  0  0  0  0  0
   -1.3352    1.1101    0.3372 N   0  0  0  0  0  0  0  0  0  0  0  0
   -0.1579    0.6093   -0.3265 C   0  0  2  0  0  0  0  0  0  0  0  0
   -0.6076    0.0191   -1.6583 C   0  0  0  0  0  0  0  0  0  0  0  0
   -0.9783   -1.1462   -1.7826 O   0  0  0  0  0  0  0  0  0  0  0  0
    0.5701   -0.4511    0.5076 C   0  0  0  0  0  0  0  0  0  0  0  0
    1.1751    0.1134    1.7698 C   0  0  0  0  0  0  0  0  0  0  0  0
    0.6044    0.0753    3.0211 C   0  0  0  0  0  0  0  0  0  0  0  0
    2.4294    0.7755    1.8859 C   0  0  0  0  0  0  0  0  0  0  0  0
    1.4620    0.6887    3.8943 N   0  0  0  0  0  0  0  0  0  0  0  0
    2.5850    1.1260    3.2287 C   0  0  0  0  0  0  0  0  0  0  0  0
    3.4503    1.1112    0.9746 C   0  0  0  0  0  0  0  0  0  0  0  0
    3.7150    1.7982    3.7078 C   0  0  0  0  0  0  0  0  0  0  0  0
    4.5864    1.7835    1.4395 C   0  0  0  0  0  0  0  0  0  0  0  0
    4.7147    2.1207    2.7855 C   0  0  0  0  0  0  0  0  0  0  0  0
   -2.1183    1.4068   -0.2401 H   0  0  0  0  0  0  0  0  0  0  0  0
    0.4858    1.4761   -0.5172 H   0  0  0  0  0  0  0  0  0  0  0  0
    1.3523   -0.9359   -0.0922 H   0  0  0  0  0  0  0  0  0  0  0  0
   -0.1194   -1.2583    0.7881 H   0  0  0  0  0  0  0  0  0  0  0  0
   -0.3352   -0.3315    3.3690 H   0  0  0  0  0  0  0  0  0  0  0  0
    1.2957    0.8041    4.8845 H   0  0  0  0  0  0  0  0  0  0  0  0
    3.3649    0.8561   -0.0779 H   0  0  0  0  0  0  0  0  0  0  0  0
    3.8162    2.0602    4.7555 H   0  0  0  0  0  0  0  0  0  0  0  0
    5.3769    2.0455    0.7413 H   0  0  0  0  0  0  0  0  0  0  0  0
    5.6056    2.6428    3.1249 H   0  0  0  0  0  0  0  0  0  0  0  0
   -0.5921    0.9624   -2.6763 N   0  0  0  0  0  0  0  0  0  0  0  0
   -0.9941    0.6716   -4.0338 C   0  0  2  0  0  0  0  0  0  0  0  0
   -0.2633   -0.5874   -4.4812 C   0  0  0  0  0  0  0  0  0  0  0  0
    0.7820   -0.9759   -3.9640 O   0  0  0  0  0  0  0  0  0  0  0  0
   -0.6890    1.8364   -4.9627 C   0  0  0  0  0  0  0  0  0  0  0  0
   -0.2826    1.9045   -2.4562 H   0  0  0  0  0  0  0  0  0  0  0  0
   -2.0724    0.4798   -4.0101 H   0  0  0  0  0  0  0  0  0  0  0  0
    0.3868    2.0434   -4.9994 H   0  0  0  0  0  0  0  0  0  0  0  0
   -1.0200    1.6258   -5.9850 H   0  0  0  0  0  0  0  0  0  0  0  0
   -1.1915    2.7482   -4.6225 H   0  0  0  0  0  0  0  0  0  0  0  0
   -0.8926   -1.2025   -5.5544 N   0  0  0  0  0  0  0  0  0  0  0  0
   -0.3862   -2.4075   -6.1690 C   0  0  0  0  0  0  0  0  0  0  0  0
   -1.7657   -0.8215   -5.9070 H   0  0  0  0  0  0  0  0  0  0  0  0
    0.2692   -2.1424   -7.0117 H   0  0  0  0  0  0  0  0  0  0  0  0
    0.1856   -2.9847   -5.4275 H   0  0  0  0  0  0  0  0  0  0  0  0
   -1.2278   -3.0135   -6.5357 H   0  0  0  0  0  0  0  0  0  0  0  0
 29 30  2  0  0  0  0
 27 29  1  0  0  0  0
 28 30  1  0  0  0  0
 24 27  2  0  0  0  0
 26 28  2  0  0  0  0
 22 23  2  0  0  0  0
 23 25  1  0  0  0  0
 22 24  1  0  0  0  0
 24 26  1  0  0  0  0
 21 22  1  0  0  0  0
 25 26  1  0  0  0  0
  1  3  1  0  0  0  0
  1  7  1  0  0  0  0
  1  2  2  0  0  0  0
 42 43  1  0  0  0  0
 43 51  1  0  0  0  0
 43 44  2  0  0  0  0
  8  9  1  0  0  0  0
  9 17  1  0  0  0  0
  9 10  2  0  0  0  0
 18 19  1  0  0  0  0
 19 41  1  0  0  0  0
 19 20  2  0  0  0  0
 42 45  1  0  0  0  0
  8 11  1  0  0  0  0
 51 52  1  0  0  0  0
 18 21  1  0  0  0  0
 41 42  1  0  0  0  0
  7  8  1  0  0  0  0
 17 18  1  0  0  0  0
 29 39  1  0  0  0  0
 30 40  1  0  0  0  0
 27 37  1  0  0  0  0
 28 38  1  0  0  0  0
 23 35  1  0  0  0  0
  3  4  1  0  0  0  0
  3  5  1  0  0  0  0
  3  6  1  0  0  0  0
 45 48  1  0  0  0  0
 45 49  1  0  0  0  0
 45 50  1  0  0  0  0
 11 14  1  0  0  0  0
 11 15  1  0  0  0  0
 11 16  1  0  0  0  0
 52 54  1  0  0  0  0
 52 55  1  0  0  0  0
 52 56  1  0  0  0  0
 21 33  1  0  0  0  0
 21 34  1  0  0  0  0
 42 47  1  0  0  0  0
  8 13  1  0  0  0  0
 18 32  1  0  0  0  0
 25 36  1  0  0  0  0
 51 53  1  0  0  0  0
  7 12  1  0  0  0  0
 41 46  1  0  0  0  0
 17 31  1  0  0  0  0
M  END
$$$$

  -OEChem-05262214473D

 56 57  0     1  0  0  0  0  0999 V2000
   -2.2900    0.3401    4.1553 C   0  0  0  0  0  0  0  0  0  0  0  0
   -1.3426   -0.2746    3.6796 O   0  0  0  0  0  0  0  0  0  0  0  0
   -2.7219    0.0577    5.5560 C   0  0  0  0  0  0  0  0  0  0  0  0
   -3.4815   -0.7386    5.6094 H   0  0  0  0  0  0  0  0  0  0  0  0
   -1.8906   -0.2899    6.1903 H   0  0  0  0  0  0  0  0  0  0  0  0
   -3.1599    0.9126    6.0956 H   0  0  0  0  0  0  0  0  0  0  0  0
   -3.0397    1.3125    3.5142 N   0  0  0  0  0  0  0  0  0  0  0  0
   -2.7928    1.7385    2.1618 C   0  0  2  0  0  0  0  0  0  0  0  0
   -1.4579    1.1532    1.7206 C   0  0  0  0  0  0  0  0  0  0  0  0
   -0.5858    0.8004    2.5118 O   0  0  0  0  0  0  0  0  0  0  0  0
   -2.7841    3.2553    2.0523 C   0  0  0  0  0  0  0  0  0  0  0  0
   -3.8047    1.7484    4.0260 H   0  0  0  0  0  0  0  0  0  0  0  0
   -3.5969    1.3201    1.5466 H   0  0  0  0  0  0  0  0  0  0  0  0
   -1.9850    3.6926    2.6620 H   0  0  0  0  0  0  0  0  0  0  0  0
   -2.6246    3.5776    1.0180 H   0  0  0  0  0  0  0  0  0  0  0  0
   -3.7342    3.6765    2.3981 H   0  0  0  0  0  0  0  0  0  0  0  0
   -1.3352    1.1101    0.3372 N   0  0  0  0  0  0  0  0  0  0  0  0
   -0.1579    0.6093   -0.3265 C   0  0  2  0  0  0  0  0  0  0  0  0
   -0.6076    0.0191   -1.6583 C   0  0  0  0  0  0  0  0  0  0  0  0
   -1.2234   -1.0410   -1.7465 O   0  0  0  0  0  0  0  0  0  0  0  0
    0.5701   -0.4511    0.5076 C   0  0  0  0  0  0  0  0  0  0  0  0
    1.1751    0.1134    1.7698 C   0  0  0  0  0  0  0  0  0  0  0  0
    0.6044    0.0753    3.0211 C   0  0  0  0  0  0  0  0  0  0  0  0
    2.4294    0.7755    1.8859 C   0  0  0  0  0  0  0  0  0  0  0  0
    1.4620    0.6887    3.8943 N   0  0  0  0  0  0  0  0  0  0  0  0
    2.5850    1.1260    3.2287 C   0  0  0  0  0  0  0  0  0  0  0  0
    3.4503    1.1112    0.9746 C   0  0  0  0  0  0  0  0  0  0  0  0
    3.7150    1.7982    3.7078 C   0  0  0  0  0  0  0  0  0  0  0  0
    4.5864    1.7835    1.4395 C   0  0  0  0  0  0  0  0  0  0  0  0
    4.7147    2.1207    2.7855 C   0  0  0  0  0  0  0  0  0  0  0  0
   -2.1183    1.4068   -0.2401 H   0  0  0  0  0  0  0  0  0  0  0  0
    0.4858    1.4761   -0.5172 H   0  0  0  0  0  0  0  0  0  0  0  0
    1.3523   -0.9359   -0.0922 H   0  0  0  0  0  0  0  0  0  0  0  0
   -0.1194   -1.2583    0.7881 H   0  0  0  0  0  0  0  0  0  0  0  0
   -0.3352   -0.3315    3.3690 H   0  0  0  0  0  0  0  0  0  0  0  0
    1.2957    0.8041    4.8845 H   0  0  0  0  0  0  0  0  0  0  0  0
    3.3649    0.8561   -0.0779 H   0  0  0  0  0  0  0  0  0  0  0  0
    3.8162    2.0602    4.7555 H   0  0  0  0  0  0  0  0  0  0  0  0
    5.3769    2.0455    0.7413 H   0  0  0  0  0  0  0  0  0  0  0  0
    5.6056    2.6428    3.1249 H   0  0  0  0  0  0  0  0  0  0  0  0
   -0.2825    0.8422   -2.7276 N   0  0  0  0  0  0  0  0  0  0  0  0
   -0.6148    0.5299   -4.0990 C   0  0  2  0  0  0  0  0  0  0  0  0
   -0.1555   -0.8944   -4.3816 C   0  0  0  0  0  0  0  0  0  0  0  0
    0.7207   -1.4585   -3.7295 O   0  0  0  0  0  0  0  0  0  0  0  0
    0.0336    1.5115   -5.0627 C   0  0  0  0  0  0  0  0  0  0  0  0
    0.2139    1.7075   -2.5366 H   0  0  0  0  0  0  0  0  0  0  0  0
   -1.7058    0.5853   -4.1806 H   0  0  0  0  0  0  0  0  0  0  0  0
    1.1269    1.4703   -4.9953 H   0  0  0  0  0  0  0  0  0  0  0  0
   -0.2422    1.2907   -6.0992 H   0  0  0  0  0  0  0  0  0  0  0  0
   -0.2747    2.5385   -4.8391 H   0  0  0  0  0  0  0  0  0  0  0  0
   -0.8085   -1.4462   -5.4749 N   0  0  0  0  0  0  0  0  0  0  0  0
   -0.5388   -2.7827   -5.9512 C   0  0  0  0  0  0  0  0  0  0  0  0
   -1.5346   -0.9132   -5.9445 H   0  0  0  0  0  0  0  0  0  0  0  0
    0.2342   -2.7450   -6.7328 H   0  0  0  0  0  0  0  0  0  0  0  0
   -0.1853   -3.4051   -5.1159 H   0  0  0  0  0  0  0  0  0  0  0  0
   -1.4601   -3.2164   -6.3673 H   0  0  0  0  0  0  0  0  0  0  0  0
 29 30  2  0  0  0  0
 27 29  1  0  0  0  0
 28 30  1  0  0  0  0
 24 27  2  0  0  0  0
 26 28  2  0  0  0  0
 22 23  2  0  0  0  0
 23 25  1  0  0  0  0
 22 24  1  0  0  0  0
 24 26  1  0  0  0  0
 21 22  1  0  0  0  0
 25 26  1  0  0  0  0
  1  3  1  0  0  0  0
  1  7  1  0  0  0  0
  1  2  2  0  0  0  0
 42 43  1  0  0  0  0
 43 51  1  0  0  0  0
 43 44  2  0  0  0  0
  8  9  1  0  0  0  0
  9 17  1  0  0  0  0
  9 10  2  0  0  0  0
 18 19  1  0  0  0  0
 19 41  1  0  0  0  0
 19 20  2  0  0  0  0
 42 45  1  0  0  0  0
  8 11  1  0  0  0  0
 51 52  1  0  0  0  0
 18 21  1  0  0  0  0
 41 42  1  0  0  0  0
  7  8  1  0  0  0  0
 17 18  1  0  0  0  0
 29 39  1  0  0  0  0
 30 40  1  0  0  0  0
 27 37  1  0  0  0  0
 28 38  1  0  0  0  0
 23 35  1  0  0  0  0
  3  4  1  0  0  0  0
  3  5  1  0  0  0  0
  3  6  1  0  0  0  0
 45 48  1  0  0  0  0
 45 49  1  0  0  0  0
 45 50  1  0  0  0  0
 11 14  1  0  0  0  0
 11 15  1  0  0  0  0
 11 16  1  0  0  0  0
 52 54  1  0  0  0  0
 52 55  1  0  0  0  0
 52 56  1  0  0  0  0
 21 33  1  0  0  0  0
 21 34  1  0  0  0  0
 42 47  1  0  0  0  0
  8 13  1  0  0  0  0
 18 32  1  0  0  0  0
 25 36  1  0  0  0  0
 51 53  1  0  0  0  0
  7 12  1  0  0  0  0
 41 46  1  0  0  0  0
 17 31  1  0  0  0  0
M  END
$$$$

  -OEChem-05262214473D

 56 57  0     1  0  0  0  0  0999 V2000
   -2.2900    0.3401    4.1553 C   0  0  0  0  0  0  0  0  0  0  0  0
   -1.3426   -0.2746    3.6796 O   0  0  0  0  0  0  0  0  0  0  0  0
   -2.7219    0.0577    5.5560 C   0  0  0  0  0  0  0  0  0  0  0  0
   -3.4815   -0.7386    5.6094 H   0  0  0  0  0  0  0  0  0  0  0  0
   -1.8906   -0.2899    6.1903 H   0  0  0  0  0  0  0  0  0  0  0  0
   -3.1599    0.9126    6.0956 H   0  0  0  0  0  0  0  0  0  0  0  0
   -3.0397    1.3125    3.5142 N   0  0  0  0  0  0  0  0  0  0  0  0
   -2.7928    1.7385    2.1618 C   0  0  2  0  0  0  0  0  0  0  0  0
   -1.4579    1.1532    1.7206 C   0  0  0  0  0  0  0  0  0  0  0  0
   -0.5858    0.8004    2.5118 O   0  0  0  0  0  0  0  0  0  0  0  0
   -2.7841    3.2553    2.0523 C   0  0  0  0  0  0  0  0  0  0  0  0
   -3.8047    1.7484    4.0260 H   0  0  0  0  0  0  0  0  0  0  0  0
   -3.5969    1.3201    1.5466 H   0  0  0  0  0  0  0  0  0  0  0  0
   -1.9850    3.6926    2.6620 H   0  0  0  0  0  0  0  0  0  0  0  0
   -2.6246    3.5776    1.0180 H   0  0  0  0  0  0  0  0  0  0  0  0
   -3.7342    3.6765    2.3981 H   0  0  0  0  0  0  0  0  0  0  0  0
   -1.3352    1.1101    0.3372 N   0  0  0  0  0  0  0  0  0  0  0  0
   -0.1579    0.6093   -0.3265 C   0  0  2  0  0  0  0  0  0  0  0  0
   -0.6076    0.0191   -1.6583 C   0  0  0  0  0  0  0  0  0  0  0  0
   -1.4400   -0.8812   -1.7442 O   0  0  0  0  0  0  0  0  0  0  0  0
    0.5701   -0.4511    0.5076 C   0  0  0  0  0  0  0  0  0  0  0  0
    1.1751    0.1134    1.7698 C   0  0  0  0  0  0  0  0  0  0  0  0
    0.6044    0.0753    3.0211 C   0  0  0  0  0  0  0  0  0  0  0  0
    2.4294    0.7755    1.8859 C   0  0  0  0  0  0  0  0  0  0  0  0
    1.4620    0.6887    3.8943 N   0  0  0  0  0  0  0  0  0  0  0  0
    2.5850    1.1260    3.2287 C   0  0  0  0  0  0  0  0  0  0  0  0
    3.4503    1.1112    0.9746 C   0  0  0  0  0  0  0  0  0  0  0  0
    3.7150    1.7982    3.7078 C   0  0  0  0  0  0  0  0  0  0  0  0
    4.5864    1.7835    1.4395 C   0  0  0  0  0  0  0  0  0  0  0  0
    4.7147    2.1207    2.7855 C   0  0  0  0  0  0  0  0  0  0  0  0
   -2.1183    1.4068   -0.2401 H   0  0  0  0  0  0  0  0  0  0  0  0
    0.4858    1.4761   -0.5172 H   0  0  0  0  0  0  0  0  0  0  0  0
    1.3523   -0.9359   -0.0922 H   0  0  0  0  0  0  0  0  0  0  0  0
   -0.1194   -1.2583    0.7881 H   0  0  0  0  0  0  0  0  0  0  0  0
   -0.3352   -0.3315    3.3690 H   0  0  0  0  0  0  0  0  0  0  0  0
    1.2957    0.8041    4.8845 H   0  0  0  0  0  0  0  0  0  0  0  0
    3.3649    0.8561   -0.0779 H   0  0  0  0  0  0  0  0  0  0  0  0
    3.8162    2.0602    4.7555 H   0  0  0  0  0  0  0  0  0  0  0  0
    5.3769    2.0455    0.7413 H   0  0  0  0  0  0  0  0  0  0  0  0
    5.6056    2.6428    3.1249 H   0  0  0  0  0  0  0  0  0  0  0  0
   -0.0056    0.6521   -2.7369 N   0  0  0  0  0  0  0  0  0  0  0  0
   -0.2740    0.3022   -4.1132 C   0  0  2  0  0  0  0  0  0  0  0  0
   -0.1307   -1.2077   -4.2511 C   0  0  0  0  0  0  0  0  0  0  0  0
    0.5289   -1.8928   -3.4722 O   0  0  0  0  0  0  0  0  0  0  0  0
    0.6681    1.0266   -5.0621 C   0  0  0  0  0  0  0  0  0  0  0  0
    0.6569    1.3989   -2.5494 H   0  0  0  0  0  0  0  0  0  0  0  0
   -1.3109    0.5913   -4.3166 H   0  0  0  0  0  0  0  0  0  0  0  0
    1.7117    0.7496   -4.8734 H   0  0  0  0  0  0  0  0  0  0  0  0
    0.4449    0.7825   -6.1059 H   0  0  0  0  0  0  0  0  0  0  0  0
    0.5852    2.1120   -4.9405 H   0  0  0  0  0  0  0  0  0  0  0  0
   -0.7904   -1.6944   -5.3710 N   0  0  0  0  0  0  0  0  0  0  0  0
   -0.7929   -3.0940   -5.7274 C   0  0  0  0  0  0  0  0  0  0  0  0
   -1.3283   -1.0568   -5.9505 H   0  0  0  0  0  0  0  0  0  0  0  0
    0.0362   -3.2978   -6.4210 H   0  0  0  0  0  0  0  0  0  0  0  0
   -0.6699   -3.7036   -4.8200 H   0  0  0  0  0  0  0  0  0  0  0  0
   -1.7472   -3.3470   -6.2125 H   0  0  0  0  0  0  0  0  0  0  0  0
 29 30  2  0  0  0  0
 27 29  1  0  0  0  0
 28 30  1  0  0  0  0
 24 27  2  0  0  0  0
 26 28  2  0  0  0  0
 22 23  2  0  0  0  0
 23 25  1  0  0  0  0
 22 24  1  0  0  0  0
 24 26  1  0  0  0  0
 21 22  1  0  0  0  0
 25 26  1  0  0  0  0
  1  3  1  0  0  0  0
  1  7  1  0  0  0  0
  1  2  2  0  0  0  0
 42 43  1  0  0  0  0
 43 51  1  0  0  0  0
 43 44  2  0  0  0  0
  8  9  1  0  0  0  0
  9 17  1  0  0  0  0
  9 10  2  0  0  0  0
 18 19  1  0  0  0  0
 19 41  1  0  0  0  0
 19 20  2  0  0  0  0
 42 45  1  0  0  0  0
  8 11  1  0  0  0  0
 51 52  1  0  0  0  0
 18 21  1  0  0  0  0
 41 42  1  0  0  0  0
  7  8  1  0  0  0  0
 17 18  1  0  0  0  0
 29 39  1  0  0  0  0
 30 40  1  0  0  0  0
 27 37  1  0  0  0  0
 28 38  1  0  0  0  0
 23 35  1  0  0  0  0
  3  4  1  0  0  0  0
  3  5  1  0  0  0  0
  3  6  1  0  0  0  0
 45 48  1  0  0  0  0
 45 49  1  0  0  0  0
 45 50  1  0  0  0  0
 11 14  1  0  0  0  0
 11 15  1  0  0  0  0
 11 16  1  0  0  0  0
 52 54  1  0  0  0  0
 52 55  1  0  0  0  0
 52 56  1  0  0  0  0
 21 33  1  0  0  0  0
 21 34  1  0  0  0  0
 42 47  1  0  0  0  0
  8 13  1  0  0  0  0
 18 32  1  0  0  0  0
 25 36  1  0  0  0  0
 51 53  1  0  0  0  0
  7 12  1  0  0  0  0
 41 46  1  0  0  0  0
 17 31  1  0  0  0  0
M  END
$$$$

  -OEChem-05262214473D

 56 57  0     1  0  0  0  0  0999 V2000
   -2.2900    0.3401    4.1553 C   0  0  0  0  0  0  0  0  0  0  0  0
   -1.3426   -0.2746    3.6796 O   0  0  0  0  0  0  0  0  0  0  0  0
   -2.7219    0.0577    5.5560 C   0  0  0  0  0  0  0  0  0  0  0  0
   -3.4815   -0.7386    5.6094 H   0  0  0  0  0  0  0  0  0  0  0  0
   -1.8906   -0.2899    6.1903 H   0  0  0  0  0  0  0  0  0  0  0  0
   -3.1599    0.9126    6.0956 H   0  0  0  0  0  0  0  0  0  0  0  0
   -3.0397    1.3125    3.5142 N   0  0  0  0  0  0  0  0  0  0  0  0
   -2.7928    1.7385    2.1618 C   0  0  2  0  0  0  0  0  0  0  0  0
   -1.4579    1.1532    1.7206 C   0  0  0  0  0  0  0  0  0  0  0  0
   -0.5858    0.8004    2.5118 O   0  0  0  0  0  0  0  0  0  0  0  0
   -2.7841    3.2553    2.0523 C   0  0  0  0  0  0  0  0  0  0  0  0
   -3.8047    1.7484    4.0260 H   0  0  0  0  0  0  0  0  0  0  0  0
   -3.5969    1.3201    1.5466 H   0  0  0  0  0  0  0  0  0  0  0  0
   -1.9850    3.6926    2.6620 H   0  0  0  0  0  0  0  0  0  0  0  0
   -2.6246    3.5776    1.0180 H   0  0  0  0  0  0  0  0  0  0  0  0
   -3.7342    3.6765    2.3981 H   0  0  0  0  0  0  0  0  0  0  0  0
   -1.3352    1.1101    0.3372 N   0  0  0  0  0  0  0  0  0  0  0  0
   -0.1579    0.6093   -0.3265 C   0  0  2  0  0  0  0  0  0  0  0  0
   -0.6076    0.0191   -1.6583 C   0  0  0  0  0  0  0  0  0  0  0  0
   -1.6133   -0.6777   -1.7758 O   0  0  0  0  0  0  0  0  0  0  0  0
    0.5701   -0.4511    0.5076 C   0  0  0  0  0  0  0  0  0  0  0  0
    1.1751    0.1134    1.7698 C   0  0  0  0  0  0  0  0  0  0  0  0
    0.6044    0.0753    3.0211 C   0  0  0  0  0  0  0  0  0  0  0  0
    2.4294    0.7755    1.8859 C   0  0  0  0  0  0  0  0  0  0  0  0
    1.4620    0.6887    3.8943 N   0  0  0  0  0  0  0  0  0  0  0  0
    2.5850    1.1260    3.2287 C   0  0  0  0  0  0  0  0  0  0  0  0
    3.4503    1.1112    0.9746 C   0  0  0  0  0  0  0  0  0  0  0  0
    3.7150    1.7982    3.7078 C   0  0  0  0  0  0  0  0  0  0  0  0
    4.5864    1.7835    1.4395 C   0  0  0  0  0  0  0  0  0  0  0  0
    4.7147    2.1207    2.7855 C   0  0  0  0  0  0  0  0  0  0  0  0
   -2.1183    1.4068   -0.2401 H   0  0  0  0  0  0  0  0  0  0  0  0
    0.4858    1.4761   -0.5172 H   0  0  0  0  0  0  0  0  0  0  0  0
    1.3523   -0.9359   -0.0922 H   0  0  0  0  0  0  0  0  0  0  0  0
   -0.1194   -1.2583    0.7881 H   0  0  0  0  0  0  0  0  0  0  0  0
   -0.3352   -0.3315    3.3690 H   0  0  0  0  0  0  0  0  0  0  0  0
    1.2957    0.8041    4.8845 H   0  0  0  0  0  0  0  0  0  0  0  0
    3.3649    0.8561   -0.0779 H   0  0  0  0  0  0  0  0  0  0  0  0
    3.8162    2.0602    4.7555 H   0  0  0  0  0  0  0  0  0  0  0  0
    5.3769    2.0455    0.7413 H   0  0  0  0  0  0  0  0  0  0  0  0
    5.6056    2.6428    3.1249 H   0  0  0  0  0  0  0  0  0  0  0  0
    0.2199    0.4053   -2.7036 N   0  0  0  0  0  0  0  0  0  0  0  0
    0.0052    0.0042   -4.0754 C   0  0  2  0  0  0  0  0  0  0  0  0
   -0.1906   -1.5060   -4.0987 C   0  0  0  0  0  0  0  0  0  0  0  0
    0.2196   -2.2494   -3.2098 O   0  0  0  0  0  0  0  0  0  0  0  0
    1.1713    0.4149   -4.9609 C   0  0  0  0  0  0  0  0  0  0  0  0
    1.0164    0.9997   -2.4939 H   0  0  0  0  0  0  0  0  0  0  0  0
   -0.9144    0.4974   -4.4089 H   0  0  0  0  0  0  0  0  0  0  0  0
    2.1015   -0.0694   -4.6421 H   0  0  0  0  0  0  0  0  0  0  0  0
    0.9943    0.1357   -6.0048 H   0  0  0  0  0  0  0  0  0  0  0  0
    1.3295    1.4980   -4.9197 H   0  0  0  0  0  0  0  0  0  0  0  0
   -0.8394   -1.9304   -5.2499 N   0  0  0  0  0  0  0  0  0  0  0  0
   -1.1311   -3.3202   -5.5129 C   0  0  0  0  0  0  0  0  0  0  0  0
   -1.1610   -1.2426   -5.9246 H   0  0  0  0  0  0  0  0  0  0  0  0
   -0.3113   -3.7633   -6.0974 H   0  0  0  0  0  0  0  0  0  0  0  0
   -1.2351   -3.8597   -4.5600 H   0  0  0  0  0  0  0  0  0  0  0  0
   -2.0696   -3.3965   -6.0817 H   0  0  0  0  0  0  0  0  0  0  0  0
 29 30  2  0  0  0  0
 27 29  1  0  0  0  0
 28 30  1  0  0  0  0
 24 27  2  0  0  0  0
 26 28  2  0  0  0  0
 22 23  2  0  0  0  0
 23 25  1  0  0  0  0
 22 24  1  0  0  0  0
 24 26  1  0  0  0  0
 21 22  1  0  0  0  0
 25 26  1  0  0  0  0
  1  3  1  0  0  0  0
  1  7  1  0  0  0  0
  1  2  2  0  0  0  0
 42 43  1  0  0  0  0
 43 51  1  0  0  0  0
 43 44  2  0  0  0  0
  8  9  1  0  0  0  0
  9 17  1  0  0  0  0
  9 10  2  0  0  0  0
 18 19  1  0  0  0  0
 19 41  1  0  0  0  0
 19 20  2  0  0  0  0
 42 45  1  0  0  0  0
  8 11  1  0  0  0  0
 51 52  1  0  0  0  0
 18 21  1  0  0  0  0
 41 42  1  0  0  0  0
  7  8  1  0  0  0  0
 17 18  1  0  0  0  0
 29 39  1  0  0  0  0
 30 40  1  0  0  0  0
 27 37  1  0  0  0  0
 28 38  1  0  0  0  0
 23 35  1  0  0  0  0
  3  4  1  0  0  0  0
  3  5  1  0  0  0  0
  3  6  1  0  0  0  0
 45 48  1  0  0  0  0
 45 49  1  0  0  0  0
 45 50  1  0  0  0  0
 11 14  1  0  0  0  0
 11 15  1  0  0  0  0
 11 16  1  0  0  0  0
 52 54  1  0  0  0  0
 52 55  1  0  0  0  0
 52 56  1  0  0  0  0
 21 33  1  0  0  0  0
 21 34  1  0  0  0  0
 42 47  1  0  0  0  0
  8 13  1  0  0  0  0
 18 32  1  0  0  0  0
 25 36  1  0  0  0  0
 51 53  1  0  0  0  0
  7 12  1  0  0  0  0
 41 46  1  0  0  0  0
 17 31  1  0  0  0  0
M  END
$$$$

  -OEChem-05262214473D

 56 57  0     1  0  0  0  0  0999 V2000
   -2.2900    0.3401    4.1553 C   0  0  0  0  0  0  0  0  0  0  0  0
   -1.3426   -0.2746    3.6796 O   0  0  0  0  0  0  0  0  0  0  0  0
   -2.7219    0.0577    5.5560 C   0  0  0  0  0  0  0  0  0  0  0  0
   -3.4815   -0.7386    5.6094 H   0  0  0  0  0  0  0  0  0  0  0  0
   -1.8906   -0.2899    6.1903 H   0  0  0  0  0  0  0  0  0  0  0  0
   -3.1599    0.9126    6.0956 H   0  0  0  0  0  0  0  0  0  0  0  0
   -3.0397    1.3125    3.5142 N   0  0  0  0  0  0  0  0  0  0  0  0
   -2.7928    1.7385    2.1618 C   0  0  2  0  0  0  0  0  0  0  0  0
   -1.4579    1.1532    1.7206 C   0  0  0  0  0  0  0  0  0  0  0  0
   -0.5858    0.8004    2.5118 O   0  0  0  0  0  0  0  0  0  0  0  0
   -2.7841    3.2553    2.0523 C   0  0  0  0  0  0  0  0  0  0  0  0
   -3.8047    1.7484    4.0260 H   0  0  0  0  0  0  0  0  0  0  0  0
   -3.5969    1.3201    1.5466 H   0  0  0  0  0  0  0  0  0  0  0  0
   -1.9850    3.6926    2.6620 H   0  0  0  0  0  0  0  0  0  0  0  0
   -2.6246    3.5776    1.0180 H   0  0  0  0  0  0  0  0  0  0  0  0
   -3.7342    3.6765    2.3981 H   0  0  0  0  0  0  0  0  0  0  0  0
   -1.3352    1.1101    0.3372 N   0  0  0  0  0  0  0  0  0  0  0  0
   -0.1579    0.6093   -0.3265 C   0  0  2  0  0  0  0  0  0  0  0  0
   -0.6076    0.0191   -1.6583 C   0  0  0  0  0  0  0  0  0  0  0  0
   -1.7316   -0.4444   -1.8393 O   0  0  0  0  0  0  0  0  0  0  0  0
    0.5701   -0.4511    0.5076 C   0  0  0  0  0  0  0  0  0  0  0  0
    1.1751    0.1134    1.7698 C   0  0  0  0  0  0  0  0  0  0  0  0
    0.6044    0.0753    3.0211 C   0  0  0  0  0  0  0  0  0  0  0  0
    2.4294    0.7755    1.8859 C   0  0  0  0  0  0  0  0  0  0  0  0
    1.4620    0.6887    3.8943 N   0  0  0  0  0  0  0  0  0  0  0  0
    2.5850    1.1260    3.2287 C   0  0  0  0  0  0  0  0  0  0  0  0
    3.4503    1.1112    0.9746 C   0  0  0  0  0  0  0  0  0  0  0  0
    3.7150    1.7982    3.7078 C   0  0  0  0  0  0  0  0  0  0  0  0
    4.5864    1.7835    1.4395 C   0  0  0  0  0  0  0  0  0  0  0  0
    4.7147    2.1207    2.7855 C   0  0  0  0  0  0  0  0  0  0  0  0
   -2.1183    1.4068   -0.2401 H   0  0  0  0  0  0  0  0  0  0  0  0
    0.4858    1.4761   -0.5172 H   0  0  0  0  0  0  0  0  0  0  0  0
    1.3523   -0.9359   -0.0922 H   0  0  0  0  0  0  0  0  0  0  0  0
   -0.1194   -1.2583    0.7881 H   0  0  0  0  0  0  0  0  0  0  0  0
   -0.3352   -0.3315    3.3690 H   0  0  0  0  0  0  0  0  0  0  0  0
    1.2957    0.8041    4.8845 H   0  0  0  0  0  0  0  0  0  0  0  0
    3.3649    0.8561   -0.0779 H   0  0  0  0  0  0  0  0  0  0  0  0
    3.8162    2.0602    4.7555 H   0  0  0  0  0  0  0  0  0  0  0  0
    5.3769    2.0455    0.7413 H   0  0  0  0  0  0  0  0  0  0  0  0
    5.6056    2.6428    3.1249 H   0  0  0  0  0  0  0  0  0  0  0  0
    0.3785    0.1184   -2.6300 N   0  0  0  0  0  0  0  0  0  0  0  0
    0.2036   -0.3439   -3.9881 C   0  0  2  0  0  0  0  0  0  0  0  0
   -0.3312   -1.7689   -3.9347 C   0  0  0  0  0  0  0  0  0  0  0  0
   -0.1860   -2.5038   -2.9601 O   0  0  0  0  0  0  0  0  0  0  0  0
    1.5089   -0.2821   -4.7660 C   0  0  0  0  0  0  0  0  0  0  0  0
    1.2678    0.5370   -2.3737 H   0  0  0  0  0  0  0  0  0  0  0  0
   -0.5433    0.3101   -4.4511 H   0  0  0  0  0  0  0  0  0  0  0  0
    2.2696   -0.9310   -4.3170 H   0  0  0  0  0  0  0  0  0  0  0  0
    1.3687   -0.6056   -5.8027 H   0  0  0  0  0  0  0  0  0  0  0  0
    1.9075    0.7381   -4.7781 H   0  0  0  0  0  0  0  0  0  0  0  0
   -0.9522   -2.1380   -5.1198 N   0  0  0  0  0  0  0  0  0  0  0  0
   -1.5305   -3.4459   -5.3224 C   0  0  0  0  0  0  0  0  0  0  0  0
   -1.0439   -1.4580   -5.8687 H   0  0  0  0  0  0  0  0  0  0  0  0
   -0.7846   -4.1096   -5.7841 H   0  0  0  0  0  0  0  0  0  0  0  0
   -1.8424   -3.8629   -4.3535 H   0  0  0  0  0  0  0  0  0  0  0  0
   -2.4052   -3.3614   -5.9840 H   0  0  0  0  0  0  0  0  0  0  0  0
 29 30  2  0  0  0  0
 27 29  1  0  0  0  0
 28 30  1  0  0  0  0
 24 27  2  0  0  0  0
 26 28  2  0  0  0  0
 22 23  2  0  0  0  0
 23 25  1  0  0  0  0
 22 24  1  0  0  0  0
 24 26  1  0  0  0  0
 21 22  1  0  0  0  0
 25 26  1  0  0  0  0
  1  3  1  0  0  0  0
  1  7  1  0  0  0  0
  1  2  2  0  0  0  0
 42 43  1  0  0  0  0
 43 51  1  0  0  0  0
 43 44  2  0  0  0  0
  8  9  1  0  0  0  0
  9 17  1  0  0  0  0
  9 10  2  0  0  0  0
 18 19  1  0  0  0  0
 19 41  1  0  0  0  0
 19 20  2  0  0  0  0
 42 45  1  0  0  0  0
  8 11  1  0  0  0  0
 51 52  1  0  0  0  0
 18 21  1  0  0  0  0
 41 42  1  0  0  0  0
  7  8  1  0  0  0  0
 17 18  1  0  0  0  0
 29 39  1  0  0  0  0
 30 40  1  0  0  0  0
 27 37  1  0  0  0  0
 28 38  1  0  0  0  0
 23 35  1  0  0  0  0
  3  4  1  0  0  0  0
  3  5  1  0  0  0  0
  3  6  1  0  0  0  0
 45 48  1  0  0  0  0
 45 49  1  0  0  0  0
 45 50  1  0  0  0  0
 11 14  1  0  0  0  0
 11 15  1  0  0  0  0
 11 16  1  0  0  0  0
 52 54  1  0  0  0  0
 52 55  1  0  0  0  0
 52 56  1  0  0  0  0
 21 33  1  0  0  0  0
 21 34  1  0  0  0  0
 42 47  1  0  0  0  0
  8 13  1  0  0  0  0
 18 32  1  0  0  0  0
 25 36  1  0  0  0  0
 51 53  1  0  0  0  0
  7 12  1  0  0  0  0
 41 46  1  0  0  0  0
 17 31  1  0  0  0  0
M  END
$$$$

  -OEChem-05262214473D

 56 57  0     1  0  0  0  0  0999 V2000
   -2.2900    0.3401    4.1553 C   0  0  0  0  0  0  0  0  0  0  0  0
   -1.3426   -0.2746    3.6796 O   0  0  0  0  0  0  0  0  0  0  0  0
   -2.7219    0.0577    5.5560 C   0  0  0  0  0  0  0  0  0  0  0  0
   -3.4815   -0.7386    5.6094 H   0  0  0  0  0  0  0  0  0  0  0  0
   -1.8906   -0.2899    6.1903 H   0  0  0  0  0  0  0  0  0  0  0  0
   -3.1599    0.9126    6.0956 H   0  0  0  0  0  0  0  0  0  0  0  0
   -3.0397    1.3125    3.5142 N   0  0  0  0  0  0  0  0  0  0  0  0
   -2.7928    1.7385    2.1618 C   0  0  2  0  0  0  0  0  0  0  0  0
   -1.4579    1.1532    1.7206 C   0  0  0  0  0  0  0  0  0  0  0  0
   -0.5858    0.8004    2.5118 O   0  0  0  0  0  0  0  0  0  0  0  0
   -2.7841    3.2553    2.0523 C   0  0  0  0  0  0  0  0  0  0  0  0
   -3.8047    1.7484    4.0260 H   0  0  0  0  0  0  0  0  0  0  0  0
   -3.5969    1.3201    1.5466 H   0  0  0  0  0  0  0  0  0  0  0  0
   -1.9850    3.6926    2.6620 H   0  0  0  0  0  0  0  0  0  0  0  0
   -2.6246    3.5776    1.0180 H   0  0  0  0  0  0  0  0  0  0  0  0
   -3.7342    3.6765    2.3981 H   0  0  0  0  0  0  0  0  0  0  0  0
   -1.3352    1.1101    0.3372 N   0  0  0  0  0  0  0  0  0  0  0  0
   -0.1579    0.6093   -0.3265 C   0  0  2  0  0  0  0  0  0  0  0  0
   -0.6076    0.0191   -1.6583 C   0  0  0  0  0  0  0  0  0  0  0  0
   -1.7866   -0.1971   -1.9303 O   0  0  0  0  0  0  0  0  0  0  0  0
    0.5701   -0.4511    0.5076 C   0  0  0  0  0  0  0  0  0  0  0  0
    1.1751    0.1134    1.7698 C   0  0  0  0  0  0  0  0  0  0  0  0
    0.6044    0.0753    3.0211 C   0  0  0  0  0  0  0  0  0  0  0  0
    2.4294    0.7755    1.8859 C   0  0  0  0  0  0  0  0  0  0  0  0
    1.4620    0.6887    3.8943 N   0  0  0  0  0  0  0  0  0  0  0  0
    2.5850    1.1260    3.2287 C   0  0  0  0  0  0  0  0  0  0  0  0
    3.4503    1.1112    0.9746 C   0  0  0  0  0  0  0  0  0  0  0  0
    3.7150    1.7982    3.7078 C   0  0  0  0  0  0  0  0  0  0  0  0
    4.5864    1.7835    1.4395 C   0  0  0  0  0  0  0  0  0  0  0  0
    4.7147    2.1207    2.7855 C   0  0  0  0  0  0  0  0  0  0  0  0
   -2.1183    1.4068   -0.2401 H   0  0  0  0  0  0  0  0  0  0  0  0
    0.4858    1.4761   -0.5172 H   0  0  0  0  0  0  0  0  0  0  0  0
    1.3523   -0.9359   -0.0922 H   0  0  0  0  0  0  0  0  0  0  0  0
   -0.1194   -1.2583    0.7881 H   0  0  0  0  0  0  0  0  0  0  0  0
   -0.3352   -0.3315    3.3690 H   0  0  0  0  0  0  0  0  0  0  0  0
    1.2957    0.8041    4.8845 H   0  0  0  0  0  0  0  0  0  0  0  0
    3.3649    0.8561   -0.0779 H   0  0  0  0  0  0  0  0  0  0  0  0
    3.8162    2.0602    4.7555 H   0  0  0  0  0  0  0  0  0  0  0  0
    5.3769    2.0455    0.7413 H   0  0  0  0  0  0  0  0  0  0  0  0
    5.6056    2.6428    3.1249 H   0  0  0  0  0  0  0  0  0  0  0  0
    0.4595   -0.1890   -2.5211 N   0  0  0  0  0  0  0  0  0  0  0  0
    0.3079   -0.7184   -3.8574 C   0  0  2  0  0  0  0  0  0  0  0  0
   -0.5429   -1.9785   -3.7703 C   0  0  0  0  0  0  0  0  0  0  0  0
   -0.6603   -2.6388   -2.7401 O   0  0  0  0  0  0  0  0  0  0  0  0
    1.6579   -1.0167   -4.4908 C   0  0  0  0  0  0  0  0  0  0  0  0
    1.3939    0.0424   -2.1971 H   0  0  0  0  0  0  0  0  0  0  0  0
   -0.2231    0.0420   -4.4404 H   0  0  0  0  0  0  0  0  0  0  0  0
    2.2047   -1.7764   -3.9204 H   0  0  0  0  0  0  0  0  0  0  0  0
    1.5424   -1.3908   -5.5134 H   0  0  0  0  0  0  0  0  0  0  0  0
    2.2798   -0.1157   -4.5254 H   0  0  0  0  0  0  0  0  0  0  0  0
   -1.1211   -2.3031   -4.9895 N   0  0  0  0  0  0  0  0  0  0  0  0
   -1.9637   -3.4624   -5.1688 C   0  0  0  0  0  0  0  0  0  0  0  0
   -0.9851   -1.6882   -5.7865 H   0  0  0  0  0  0  0  0  0  0  0  0
   -1.3514   -4.3132   -5.5024 H   0  0  0  0  0  0  0  0  0  0  0  0
   -2.4504   -3.7129   -4.2147 H   0  0  0  0  0  0  0  0  0  0  0  0
   -2.7313   -3.2441   -5.9258 H   0  0  0  0  0  0  0  0  0  0  0  0
 29 30  2  0  0  0  0
 27 29  1  0  0  0  0
 28 30  1  0  0  0  0
 24 27  2  0  0  0  0
 26 28  2  0  0  0  0
 22 23  2  0  0  0  0
 23 25  1  0  0  0  0
 22 24  1  0  0  0  0
 24 26  1  0  0  0  0
 21 22  1  0  0  0  0
 25 26  1  0  0  0  0
  1  3  1  0  0  0  0
  1  7  1  0  0  0  0
  1  2  2  0  0  0  0
 42 43  1  0  0  0  0
 43 51  1  0  0  0  0
 43 44  2  0  0  0  0
  8  9  1  0  0  0  0
  9 17  1  0  0  0  0
  9 10  2  0  0  0  0
 18 19  1  0  0  0  0
 19 41  1  0  0  0  0
 19 20  2  0  0  0  0
 42 45  1  0  0  0  0
  8 11  1  0  0  0  0
 51 52  1  0  0  0  0
 18 21  1  0  0  0  0
 41 42  1  0  0  0  0
  7  8  1  0  0  0  0
 17 18  1  0  0  0  0
 29 39  1  0  0  0  0
 30 40  1  0  0  0  0
 27 37  1  0  0  0  0
 28 38  1  0  0  0  0
 23 35  1  0  0  0  0
  3  4  1  0  0  0  0
  3  5  1  0  0  0  0
  3  6  1  0  0  0  0
 45 48  1  0  0  0  0
 45 49  1  0  0  0  0
 45 50  1  0  0  0  0
 11 14  1  0  0  0  0
 11 15  1  0  0  0  0
 11 16  1  0  0  0  0
 52 54  1  0  0  0  0
 52 55  1  0  0  0  0
 52 56  1  0  0  0  0
 21 33  1  0  0  0  0
 21 34  1  0  0  0  0
 42 47  1  0  0  0  0
  8 13  1  0  0  0  0
 18 32  1  0  0  0  0
 25 36  1  0  0  0  0
 51 53  1  0  0  0  0
  7 12  1  0  0  0  0
 41 46  1  0  0  0  0
 17 31  1  0  0  0  0
M  END
$$$$

  -OEChem-05262214473D

 56 57  0     1  0  0  0  0  0999 V2000
   -2.2900    0.3401    4.1553 C   0  0  0  0  0  0  0  0  0  0  0  0
   -1.3426   -0.2746    3.6796 O   0  0  0  0  0  0  0  0  0  0  0  0
   -2.7219    0.0577    5.5560 C   0  0  0  0  0  0  0  0  0  0  0  0
   -3.4815   -0.7386    5.6094 H   0  0  0  0  0  0  0  0  0  0  0  0
   -1.8906   -0.2899    6.1903 H   0  0  0  0  0  0  0  0  0  0  0  0
   -3.1599    0.9126    6.0956 H   0  0  0  0  0  0  0  0  0  0  0  0
   -3.0397    1.3125    3.5142 N   0  0  0  0  0  0  0  0  0  0  0  0
   -2.7928    1.7385    2.1618 C   0  0  2  0  0  0  0  0  0  0  0  0
   -1.4579    1.1532    1.7206 C   0  0  0  0  0  0  0  0  0  0  0  0
   -0.5858    0.8004    2.5118 O   0  0  0  0  0  0  0  0  0  0  0  0
   -2.7841    3.2553    2.0523 C   0  0  0  0  0  0  0  0  0  0  0  0
   -3.8047    1.7484    4.0260 H   0  0  0  0  0  0  0  0  0  0  0  0
   -3.5969    1.3201    1.5466 H   0  0  0  0  0  0  0  0  0  0  0  0
   -1.9850    3.6926    2.6620 H   0  0  0  0  0  0  0  0  0  0  0  0
   -2.6246    3.5776    1.0180 H   0  0  0  0  0  0  0  0  0  0  0  0
   -3.7342    3.6765    2.3981 H   0  0  0  0  0  0  0  0  0  0  0  0
   -1.3352    1.1101    0.3372 N   0  0  0  0  0  0  0  0  0  0  0  0
   -0.1579    0.6093   -0.3265 C   0  0  2  0  0  0  0  0  0  0  0  0
   -0.5303    0.3690   -1.7852 C   0  0  0  0  0  0  0  0  0  0  0  0
   -1.6417    0.6259   -2.2431 O   0  0  0  0  0  0  0  0  0  0  0  0
    0.3600   -0.6849    0.3114 C   0  0  0  0  0  0  0  0  0  0  0  0
    0.8903   -0.4752    1.7088 C   0  0  0  0  0  0  0  0  0  0  0  0
    0.1933   -0.6964    2.8742 C   0  0  0  0  0  0  0  0  0  0  0  0
    2.1909   -0.0185    2.0621 C   0  0  0  0  0  0  0  0  0  0  0  0
    1.0187   -0.3917    3.9231 N   0  0  0  0  0  0  0  0  0  0  0  0
    2.2452    0.0249    3.4568 C   0  0  0  0  0  0  0  0  0  0  0  0
    3.3307    0.3632    1.3268 C   0  0  0  0  0  0  0  0  0  0  0  0
    3.3868    0.4327    4.1559 C   0  0  0  0  0  0  0  0  0  0  0  0
    4.4798    0.7733    2.0126 C   0  0  0  0  0  0  0  0  0  0  0  0
    4.5052    0.8067    3.4054 C   0  0  0  0  0  0  0  0  0  0  0  0
   -2.1183    1.4068   -0.2401 H   0  0  0  0  0  0  0  0  0  0  0  0
    0.5930    1.4065   -0.2744 H   0  0  0  0  0  0  0  0  0  0  0  0
    1.1418   -1.1324   -0.3171 H   0  0  0  0  0  0  0  0  0  0  0  0
   -0.4389   -1.4369    0.3561 H   0  0  0  0  0  0  0  0  0  0  0  0
   -0.8159   -1.0416    3.0521 H   0  0  0  0  0  0  0  0  0  0  0  0
    0.7651   -0.4623    4.8989 H   0  0  0  0  0  0  0  0  0  0  0  0
    3.3264    0.3436    0.2406 H   0  0  0  0  0  0  0  0  0  0  0  0
    3.4079    0.4579    5.2401 H   0  0  0  0  0  0  0  0  0  0  0  0
    5.3617    1.0694    1.4509 H   0  0  0  0  0  0  0  0  0  0  0  0
    5.4083    1.1284    3.9176 H   0  0  0  0  0  0  0  0  0  0  0  0
    0.5407   -0.1182   -2.5214 N   0  0  0  0  0  0  0  0  0  0  0  0
    0.4649   -0.4099   -3.9349 C   0  0  2  0  0  0  0  0  0  0  0  0
   -0.7648   -1.2770   -4.1708 C   0  0  0  0  0  0  0  0  0  0  0  0
   -1.2860   -1.9561   -3.2886 O   0  0  0  0  0  0  0  0  0  0  0  0
    1.7242   -1.1079   -4.4242 C   0  0  0  0  0  0  0  0  0  0  0  0
    1.4222   -0.2778   -2.0426 H   0  0  0  0  0  0  0  0  0  0  0  0
    0.3404    0.5492   -4.4494 H   0  0  0  0  0  0  0  0  0  0  0  0
    1.8658   -2.0707   -3.9198 H   0  0  0  0  0  0  0  0  0  0  0  0
    1.6772   -1.3025   -5.5007 H   0  0  0  0  0  0  0  0  0  0  0  0
    2.6109   -0.4958   -4.2267 H   0  0  0  0  0  0  0  0  0  0  0  0
   -1.1858   -1.2368   -5.4926 N   0  0  0  0  0  0  0  0  0  0  0  0
   -2.3248   -1.9850   -5.9711 C   0  0  0  0  0  0  0  0  0  0  0  0
   -0.7055   -0.6315   -6.1519 H   0  0  0  0  0  0  0  0  0  0  0  0
   -1.9888   -2.9589   -6.3566 H   0  0  0  0  0  0  0  0  0  0  0  0
   -3.0333   -2.1426   -5.1446 H   0  0  0  0  0  0  0  0  0  0  0  0
   -2.8203   -1.4232   -6.7766 H   0  0  0  0  0  0  0  0  0  0  0  0
 29 30  2  0  0  0  0
 27 29  1  0  0  0  0
 28 30  1  0  0  0  0
 24 27  2  0  0  0  0
 26 28  2  0  0  0  0
 22 23  2  0  0  0  0
 23 25  1  0  0  0  0
 22 24  1  0  0  0  0
 24 26  1  0  0  0  0
 21 22  1  0  0  0  0
 25 26  1  0  0  0  0
  1  3  1  0  0  0  0
  1  7  1  0  0  0  0
  1  2  2  0  0  0  0
 42 43  1  0  0  0  0
 43 51  1  0  0  0  0
 43 44  2  0  0  0  0
  8  9  1  0  0  0  0
  9 17  1  0  0  0  0
  9 10  2  0  0  0  0
 18 19  1  0  0  0  0
 19 41  1  0  0  0  0
 19 20  2  0  0  0  0
 42 45  1  0  0  0  0
  8 11  1  0  0  0  0
 51 52  1  0  0  0  0
 18 21  1  0  0  0  0
 41 42  1  0  0  0  0
  7  8  1  0  0  0  0
 17 18  1  0  0  0  0
 29 39  1  0  0  0  0
 30 40  1  0  0  0  0
 27 37  1  0  0  0  0
 28 38  1  0  0  0  0
 23 35  1  0  0  0  0
  3  4  1  0  0  0  0
  3  5  1  0  0  0  0
  3  6  1  0  0  0  0
 45 48  1  0  0  0  0
 45 49  1  0  0  0  0
 45 50  1  0  0  0  0
 11 14  1  0  0  0  0
 11 15  1  0  0  0  0
 11 16  1  0  0  0  0
 52 54  1  0  0  0  0
 52 55  1  0  0  0  0
 52 56  1  0  0  0  0
 21 33  1  0  0  0  0
 21 34  1  0  0  0  0
 42 47  1  0  0  0  0
  8 13  1  0  0  0  0
 18 32  1  0  0  0  0
 25 36  1  0  0  0  0
 51 53  1  0  0  0  0
  7 12  1  0  0  0  0
 41 46  1  0  0  0  0
 17 31  1  0  0  0  0
M  END
$$$$

  -OEChem-05262214473D

 56 57  0     1  0  0  0  0  0999 V2000
   -2.2900    0.3401    4.1553 C   0  0  0  0  0  0  0  0  0  0  0  0
   -1.3426   -0.2746    3.6796 O   0  0  0  0  0  0  0  0  0  0  0  0
   -2.7219    0.0577    5.5560 C   0  0  0  0  0  0  0  0  0  0  0  0
   -3.4815   -0.7386    5.6094 H   0  0  0  0  0  0  0  0  0  0  0  0
   -1.8906   -0.2899    6.1903 H   0  0  0  0  0  0  0  0  0  0  0  0
   -3.1599    0.9126    6.0956 H   0  0  0  0  0  0  0  0  0  0  0  0
   -3.0397    1.3125    3.5142 N   0  0  0  0  0  0  0  0  0  0  0  0
   -2.7928    1.7385    2.1618 C   0  0  2  0  0  0  0  0  0  0  0  0
   -1.4579    1.1532    1.7206 C   0  0  0  0  0  0  0  0  0  0  0  0
   -0.5858    0.8004    2.5118 O   0  0  0  0  0  0  0  0  0  0  0  0
   -2.7841    3.2553    2.0523 C   0  0  0  0  0  0  0  0  0  0  0  0
   -3.8047    1.7484    4.0260 H   0  0  0  0  0  0  0  0  0  0  0  0
   -3.5969    1.3201    1.5466 H   0  0  0  0  0  0  0  0  0  0  0  0
   -1.9850    3.6926    2.6620 H   0  0  0  0  0  0  0  0  0  0  0  0
   -2.6246    3.5776    1.0180 H   0  0  0  0  0  0  0  0  0  0  0  0
   -3.7342    3.6765    2.3981 H   0  0  0  0  0  0  0  0  0  0  0  0
   -1.3352    1.1101    0.3372 N   0  0  0  0  0  0  0  0  0  0  0  0
   -0.1579    0.6093   -0.3265 C   0  0  2  0  0  0  0  0  0  0  0  0
   -0.5303    0.3690   -1.7852 C   0  0  0  0  0  0  0  0  0  0  0  0
   -1.5271    0.8598   -2.3109 O   0  0  0  0  0  0  0  0  0  0  0  0
    0.3600   -0.6849    0.3114 C   0  0  0  0  0  0  0  0  0  0  0  0
    0.8903   -0.4752    1.7088 C   0  0  0  0  0  0  0  0  0  0  0  0
    0.1933   -0.6964    2.8742 C   0  0  0  0  0  0  0  0  0  0  0  0
    2.1909   -0.0185    2.0621 C   0  0  0  0  0  0  0  0  0  0  0  0
    1.0187   -0.3917    3.9231 N   0  0  0  0  0  0  0  0  0  0  0  0
    2.2452    0.0249    3.4568 C   0  0  0  0  0  0  0  0  0  0  0  0
    3.3307    0.3632    1.3268 C   0  0  0  0  0  0  0  0  0  0  0  0
    3.3868    0.4327    4.1559 C   0  0  0  0  0  0  0  0  0  0  0  0
    4.4798    0.7733    2.0126 C   0  0  0  0  0  0  0  0  0  0  0  0
    4.5052    0.8067    3.4054 C   0  0  0  0  0  0  0  0  0  0  0  0
   -2.1183    1.4068   -0.2401 H   0  0  0  0  0  0  0  0  0  0  0  0
    0.5930    1.4065   -0.2744 H   0  0  0  0  0  0  0  0  0  0  0  0
    1.1418   -1.1324   -0.3171 H   0  0  0  0  0  0  0  0  0  0  0  0
   -0.4389   -1.4369    0.3561 H   0  0  0  0  0  0  0  0  0  0  0  0
   -0.8159   -1.0416    3.0521 H   0  0  0  0  0  0  0  0  0  0  0  0
    0.7651   -0.4623    4.8989 H   0  0  0  0  0  0  0  0  0  0  0  0
    3.3264    0.3436    0.2406 H   0  0  0  0  0  0  0  0  0  0  0  0
    3.4079    0.4579    5.2401 H   0  0  0  0  0  0  0  0  0  0  0  0
    5.3617    1.0694    1.4509 H   0  0  0  0  0  0  0  0  0  0  0  0
    5.4083    1.1284    3.9176 H   0  0  0  0  0  0  0  0  0  0  0  0
    0.4093   -0.4162   -2.4387 N   0  0  0  0  0  0  0  0  0  0  0  0
    0.3096   -0.7761   -3.8349 C   0  0  2  0  0  0  0  0  0  0  0  0
   -1.0887   -1.3276   -4.0798 C   0  0  0  0  0  0  0  0  0  0  0  0
   -1.7912   -1.7955   -3.1861 O   0  0  0  0  0  0  0  0  0  0  0  0
    1.3709   -1.7946   -4.2209 C   0  0  0  0  0  0  0  0  0  0  0  0
    1.2071   -0.7549   -1.9091 H   0  0  0  0  0  0  0  0  0  0  0  0
    0.4448    0.1466   -4.4098 H   0  0  0  0  0  0  0  0  0  0  0  0
    1.2517   -2.7258   -3.6552 H   0  0  0  0  0  0  0  0  0  0  0  0
    1.3123   -2.0447   -5.2853 H   0  0  0  0  0  0  0  0  0  0  0  0
    2.3751   -1.4077   -4.0163 H   0  0  0  0  0  0  0  0  0  0  0  0
   -1.4429   -1.2754   -5.4207 N   0  0  0  0  0  0  0  0  0  0  0  0
   -2.7159   -1.7509   -5.9098 C   0  0  0  0  0  0  0  0  0  0  0  0
   -0.8056   -0.8536   -6.0898 H   0  0  0  0  0  0  0  0  0  0  0  0
   -2.6205   -2.8016   -6.2212 H   0  0  0  0  0  0  0  0  0  0  0  0
   -3.4681   -1.6722   -5.1110 H   0  0  0  0  0  0  0  0  0  0  0  0
   -3.0292   -1.1407   -6.7698 H   0  0  0  0  0  0  0  0  0  0  0  0
 29 30  2  0  0  0  0
 27 29  1  0  0  0  0
 28 30  1  0  0  0  0
 24 27  2  0  0  0  0
 26 28  2  0  0  0  0
 22 23  2  0  0  0  0
 23 25  1  0  0  0  0
 22 24  1  0  0  0  0
 24 26  1  0  0  0  0
 21 22  1  0  0  0  0
 25 26  1  0  0  0  0
  1  3  1  0  0  0  0
  1  7  1  0  0  0  0
  1  2  2  0  0  0  0
 42 43  1  0  0  0  0
 43 51  1  0  0  0  0
 43 44  2  0  0  0  0
  8  9  1  0  0  0  0
  9 17  1  0  0  0  0
  9 10  2  0  0  0  0
 18 19  1  0  0  0  0
 19 41  1  0  0  0  0
 19 20  2  0  0  0  0
 42 45  1  0  0  0  0
  8 11  1  0  0  0  0
 51 52  1  0  0  0  0
 18 21  1  0  0  0  0
 41 42  1  0  0  0  0
  7  8  1  0  0  0  0
 17 18  1  0  0  0  0
 29 39  1  0  0  0  0
 30 40  1  0  0  0  0
 27 37  1  0  0  0  0
 28 38  1  0  0  0  0
 23 35  1  0  0  0  0
  3  4  1  0  0  0  0
  3  5  1  0  0  0  0
  3  6  1  0  0  0  0
 45 48  1  0  0  0  0
 45 49  1  0  0  0  0
 45 50  1  0  0  0  0
 11 14  1  0  0  0  0
 11 15  1  0  0  0  0
 11 16  1  0  0  0  0
 52 54  1  0  0  0  0
 52 55  1  0  0  0  0
 52 56  1  0  0  0  0
 21 33  1  0  0  0  0
 21 34  1  0  0  0  0
 42 47  1  0  0  0  0
  8 13  1  0  0  0  0
 18 32  1  0  0  0  0
 25 36  1  0  0  0  0
 51 53  1  0  0  0  0
  7 12  1  0  0  0  0
 41 46  1  0  0  0  0
 17 31  1  0  0  0  0
M  END
$$$$

  -OEChem-05262214473D

 56 57  0     1  0  0  0  0  0999 V2000
   -2.2900    0.3401    4.1553 C   0  0  0  0  0  0  0  0  0  0  0  0
   -1.3426   -0.2746    3.6796 O   0  0  0  0  0  0  0  0  0  0  0  0
   -2.7219    0.0577    5.5560 C   0  0  0  0  0  0  0  0  0  0  0  0
   -3.4815   -0.7386    5.6094 H   0  0  0  0  0  0  0  0  0  0  0  0
   -1.8906   -0.2899    6.1903 H   0  0  0  0  0  0  0  0  0  0  0  0
   -3.1599    0.9126    6.0956 H   0  0  0  0  0  0  0  0  0  0  0  0
   -3.0397    1.3125    3.5142 N   0  0  0  0  0  0  0  0  0  0  0  0
   -2.7928    1.7385    2.1618 C   0  0  2  0  0  0  0  0  0  0  0  0
   -1.4579    1.1532    1.7206 C   0  0  0  0  0  0  0  0  0  0  0  0
   -0.5858    0.8004    2.5118 O   0  0  0  0  0  0  0  0  0  0  0  0
   -2.7841    3.2553    2.0523 C   0  0  0  0  0  0  0  0  0  0  0  0
   -3.8047    1.7484    4.0260 H   0  0  0  0  0  0  0  0  0  0  0  0
   -3.5969    1.3201    1.5466 H   0  0  0  0  0  0  0  0  0  0  0  0
   -1.9850    3.6926    2.6620 H   0  0  0  0  0  0  0  0  0  0  0  0
   -2.6246    3.5776    1.0180 H   0  0  0  0  0  0  0  0  0  0  0  0
   -3.7342    3.6765    2.3981 H   0  0  0  0  0  0  0  0  0  0  0  0
   -1.3352    1.1101    0.3372 N   0  0  0  0  0  0  0  0  0  0  0  0
   -0.1579    0.6093   -0.3265 C   0  0  2  0  0  0  0  0  0  0  0  0
   -0.5303    0.3690   -1.7852 C   0  0  0  0  0  0  0  0  0  0  0  0
   -1.3557    1.0531   -2.3865 O   0  0  0  0  0  0  0  0  0  0  0  0
    0.3600   -0.6849    0.3114 C   0  0  0  0  0  0  0  0  0  0  0  0
    0.8903   -0.4752    1.7088 C   0  0  0  0  0  0  0  0  0  0  0  0
    0.1933   -0.6964    2.8742 C   0  0  0  0  0  0  0  0  0  0  0  0
    2.1909   -0.0185    2.0621 C   0  0  0  0  0  0  0  0  0  0  0  0
    1.0187   -0.3917    3.9231 N   0  0  0  0  0  0  0  0  0  0  0  0
    2.2452    0.0249    3.4568 C   0  0  0  0  0  0  0  0  0  0  0  0
    3.3307    0.3632    1.3268 C   0  0  0  0  0  0  0  0  0  0  0  0
    3.3868    0.4327    4.1559 C   0  0  0  0  0  0  0  0  0  0  0  0
    4.4798    0.7733    2.0126 C   0  0  0  0  0  0  0  0  0  0  0  0
    4.5052    0.8067    3.4054 C   0  0  0  0  0  0  0  0  0  0  0  0
   -2.1183    1.4068   -0.2401 H   0  0  0  0  0  0  0  0  0  0  0  0
    0.5930    1.4065   -0.2744 H   0  0  0  0  0  0  0  0  0  0  0  0
    1.1418   -1.1324   -0.3171 H   0  0  0  0  0  0  0  0  0  0  0  0
   -0.4389   -1.4369    0.3561 H   0  0  0  0  0  0  0  0  0  0  0  0
   -0.8159   -1.0416    3.0521 H   0  0  0  0  0  0  0  0  0  0  0  0
    0.7651   -0.4623    4.8989 H   0  0  0  0  0  0  0  0  0  0  0  0
    3.3264    0.3436    0.2406 H   0  0  0  0  0  0  0  0  0  0  0  0
    3.4079    0.4579    5.2401 H   0  0  0  0  0  0  0  0  0  0  0  0
    5.3617    1.0694    1.4509 H   0  0  0  0  0  0  0  0  0  0  0  0
    5.4083    1.1284    3.9176 H   0  0  0  0  0  0  0  0  0  0  0  0
    0.2052   -0.6662   -2.3454 N   0  0  0  0  0  0  0  0  0  0  0  0
    0.0649   -1.0850   -3.7216 C   0  0  2  0  0  0  0  0  0  0  0  0
   -1.4179   -1.2905   -4.0018 C   0  0  0  0  0  0  0  0  0  0  0  0
   -2.2437   -1.5087   -3.1178 O   0  0  0  0  0  0  0  0  0  0  0  0
    0.8513   -2.3575   -3.9955 C   0  0  0  0  0  0  0  0  0  0  0  0
    0.8757   -1.1540   -1.7588 H   0  0  0  0  0  0  0  0  0  0  0  0
    0.4443   -0.2656   -4.3418 H   0  0  0  0  0  0  0  0  0  0  0  0
    0.4855   -3.1897   -3.3831 H   0  0  0  0  0  0  0  0  0  0  0  0
    0.7672   -2.6577   -5.0452 H   0  0  0  0  0  0  0  0  0  0  0  0
    1.9129   -2.2169   -3.7651 H   0  0  0  0  0  0  0  0  0  0  0  0
   -1.7037   -1.2445   -5.3592 N   0  0  0  0  0  0  0  0  0  0  0  0
   -3.0383   -1.4240   -5.8814 C   0  0  0  0  0  0  0  0  0  0  0  0
   -0.9599   -1.0394   -6.0198 H   0  0  0  0  0  0  0  0  0  0  0  0
   -3.1972   -2.4846   -6.1262 H   0  0  0  0  0  0  0  0  0  0  0  0
   -3.7730   -1.1081   -5.1261 H   0  0  0  0  0  0  0  0  0  0  0  0
   -3.1614   -0.8157   -6.7896 H   0  0  0  0  0  0  0  0  0  0  0  0
 29 30  2  0  0  0  0
 27 29  1  0  0  0  0
 28 30  1  0  0  0  0
 24 27  2  0  0  0  0
 26 28  2  0  0  0  0
 22 23  2  0  0  0  0
 23 25  1  0  0  0  0
 22 24  1  0  0  0  0
 24 26  1  0  0  0  0
 21 22  1  0  0  0  0
 25 26  1  0  0  0  0
  1  3  1  0  0  0  0
  1  7  1  0  0  0  0
  1  2  2  0  0  0  0
 42 43  1  0  0  0  0
 43 51  1  0  0  0  0
 43 44  2  0  0  0  0
  8  9  1  0  0  0  0
  9 17  1  0  0  0  0
  9 10  2  0  0  0  0
 18 19  1  0  0  0  0
 19 41  1  0  0  0  0
 19 20  2  0  0  0  0
 42 45  1  0  0  0  0
  8 11  1  0  0  0  0
 51 52  1  0  0  0  0
 18 21  1  0  0  0  0
 41 42  1  0  0  0  0
  7  8  1  0  0  0  0
 17 18  1  0  0  0  0
 29 39  1  0  0  0  0
 30 40  1  0  0  0  0
 27 37  1  0  0  0  0
 28 38  1  0  0  0  0
 23 35  1  0  0  0  0
  3  4  1  0  0  0  0
  3  5  1  0  0  0  0
  3  6  1  0  0  0  0
 45 48  1  0  0  0  0
 45 49  1  0  0  0  0
 45 50  1  0  0  0  0
 11 14  1  0  0  0  0
 11 15  1  0  0  0  0
 11 16  1  0  0  0  0
 52 54  1  0  0  0  0
 52 55  1  0  0  0  0
 52 56  1  0  0  0  0
 21 33  1  0  0  0  0
 21 34  1  0  0  0  0
 42 47  1  0  0  0  0
  8 13  1  0  0  0  0
 18 32  1  0  0  0  0
 25 36  1  0  0  0  0
 51 53  1  0  0  0  0
  7 12  1  0  0  0  0
 41 46  1  0  0  0  0
 17 31  1  0  0  0  0
M  END
$$$$

  -OEChem-05262214473D

 56 57  0     1  0  0  0  0  0999 V2000
   -2.2900    0.3401    4.1553 C   0  0  0  0  0  0  0  0  0  0  0  0
   -1.3426   -0.2746    3.6796 O   0  0  0  0  0  0  0  0  0  0  0  0
   -2.7219    0.0577    5.5560 C   0  0  0  0  0  0  0  0  0  0  0  0
   -3.4815   -0.7386    5.6094 H   0  0  0  0  0  0  0  0  0  0  0  0
   -1.8906   -0.2899    6.1903 H   0  0  0  0  0  0  0  0  0  0  0  0
   -3.1599    0.9126    6.0956 H   0  0  0  0  0  0  0  0  0  0  0  0
   -3.0397    1.3125    3.5142 N   0  0  0  0  0  0  0  0  0  0  0  0
   -2.7928    1.7385    2.1618 C   0  0  2  0  0  0  0  0  0  0  0  0
   -1.4579    1.1532    1.7206 C   0  0  0  0  0  0  0  0  0  0  0  0
   -0.5858    0.8004    2.5118 O   0  0  0  0  0  0  0  0  0  0  0  0
   -2.7841    3.2553    2.0523 C   0  0  0  0  0  0  0  0  0  0  0  0
   -3.8047    1.7484    4.0260 H   0  0  0  0  0  0  0  0  0  0  0  0
   -3.5969    1.3201    1.5466 H   0  0  0  0  0  0  0  0  0  0  0  0
   -1.9850    3.6926    2.6620 H   0  0  0  0  0  0  0  0  0  0  0  0
   -2.6246    3.5776    1.0180 H   0  0  0  0  0  0  0  0  0  0  0  0
   -3.7342    3.6765    2.3981 H   0  0  0  0  0  0  0  0  0  0  0  0
   -1.3352    1.1101    0.3372 N   0  0  0  0  0  0  0  0  0  0  0  0
   -0.1579    0.6093   -0.3265 C   0  0  2  0  0  0  0  0  0  0  0  0
   -0.5303    0.3690   -1.7852 C   0  0  0  0  0  0  0  0  0  0  0  0
   -1.1392    1.1926   -2.4647 O   0  0  0  0  0  0  0  0  0  0  0  0
    0.3600   -0.6849    0.3114 C   0  0  0  0  0  0  0  0  0  0  0  0
    0.8903   -0.4752    1.7088 C   0  0  0  0  0  0  0  0  0  0  0  0
    0.1933   -0.6964    2.8742 C   0  0  0  0  0  0  0  0  0  0  0  0
    2.1909   -0.0185    2.0621 C   0  0  0  0  0  0  0  0  0  0  0  0
    1.0187   -0.3917    3.9231 N   0  0  0  0  0  0  0  0  0  0  0  0
    2.2452    0.0249    3.4568 C   0  0  0  0  0  0  0  0  0  0  0  0
    3.3307    0.3632    1.3268 C   0  0  0  0  0  0  0  0  0  0  0  0
    3.3868    0.4327    4.1559 C   0  0  0  0  0  0  0  0  0  0  0  0
    4.4798    0.7733    2.0126 C   0  0  0  0  0  0  0  0  0  0  0  0
    4.5052    0.8067    3.4054 C   0  0  0  0  0  0  0  0  0  0  0  0
   -2.1183    1.4068   -0.2401 H   0  0  0  0  0  0  0  0  0  0  0  0
    0.5930    1.4065   -0.2744 H   0  0  0  0  0  0  0  0  0  0  0  0
    1.1418   -1.1324   -0.3171 H   0  0  0  0  0  0  0  0  0  0  0  0
   -0.4389   -1.4369    0.3561 H   0  0  0  0  0  0  0  0  0  0  0  0
   -0.8159   -1.0416    3.0521 H   0  0  0  0  0  0  0  0  0  0  0  0
    0.7651   -0.4623    4.8989 H   0  0  0  0  0  0  0  0  0  0  0  0
    3.3264    0.3436    0.2406 H   0  0  0  0  0  0  0  0  0  0  0  0
    3.4079    0.4579    5.2401 H   0  0  0  0  0  0  0  0  0  0  0  0
    5.3617    1.0694    1.4509 H   0  0  0  0  0  0  0  0  0  0  0  0
    5.4083    1.1284    3.9176 H   0  0  0  0  0  0  0  0  0  0  0  0
   -0.0577   -0.8513   -2.2478 N   0  0  0  0  0  0  0  0  0  0  0  0
   -0.2526   -1.3157   -3.6025 C   0  0  2  0  0  0  0  0  0  0  0  0
   -1.7298   -1.1683   -3.9423 C   0  0  0  0  0  0  0  0  0  0  0  0
   -2.6125   -1.1153   -3.0885 O   0  0  0  0  0  0  0  0  0  0  0  0
    0.2009   -2.7584   -3.7634 C   0  0  0  0  0  0  0  0  0  0  0  0
    0.4506   -1.4479   -1.6018 H   0  0  0  0  0  0  0  0  0  0  0  0
    0.3390   -0.6594   -4.2500 H   0  0  0  0  0  0  0  0  0  0  0  0
   -0.3806   -3.4309   -3.1223 H   0  0  0  0  0  0  0  0  0  0  0  0
    0.0792   -3.0996   -4.7968 H   0  0  0  0  0  0  0  0  0  0  0  0
    1.2558   -2.8681   -3.4901 H   0  0  0  0  0  0  0  0  0  0  0  0
   -1.9505   -1.1461   -5.3124 N   0  0  0  0  0  0  0  0  0  0  0  0
   -3.2698   -1.0266   -5.8877 C   0  0  0  0  0  0  0  0  0  0  0  0
   -1.1577   -1.1762   -5.9467 H   0  0  0  0  0  0  0  0  0  0  0  0
   -3.6797   -2.0296   -6.0780 H   0  0  0  0  0  0  0  0  0  0  0  0
   -3.9271   -0.4886   -5.1888 H   0  0  0  0  0  0  0  0  0  0  0  0
   -3.2077   -0.4703   -6.8347 H   0  0  0  0  0  0  0  0  0  0  0  0
 29 30  2  0  0  0  0
 27 29  1  0  0  0  0
 28 30  1  0  0  0  0
 24 27  2  0  0  0  0
 26 28  2  0  0  0  0
 22 23  2  0  0  0  0
 23 25  1  0  0  0  0
 22 24  1  0  0  0  0
 24 26  1  0  0  0  0
 21 22  1  0  0  0  0
 25 26  1  0  0  0  0
  1  3  1  0  0  0  0
  1  7  1  0  0  0  0
  1  2  2  0  0  0  0
 42 43  1  0  0  0  0
 43 51  1  0  0  0  0
 43 44  2  0  0  0  0
  8  9  1  0  0  0  0
  9 17  1  0  0  0  0
  9 10  2  0  0  0  0
 18 19  1  0  0  0  0
 19 41  1  0  0  0  0
 19 20  2  0  0  0  0
 42 45  1  0  0  0  0
  8 11  1  0  0  0  0
 51 52  1  0  0  0  0
 18 21  1  0  0  0  0
 41 42  1  0  0  0  0
  7  8  1  0  0  0  0
 17 18  1  0  0  0  0
 29 39  1  0  0  0  0
 30 40  1  0  0  0  0
 27 37  1  0  0  0  0
 28 38  1  0  0  0  0
 23 35  1  0  0  0  0
  3  4  1  0  0  0  0
  3  5  1  0  0  0  0
  3  6  1  0  0  0  0
 45 48  1  0  0  0  0
 45 49  1  0  0  0  0
 45 50  1  0  0  0  0
 11 14  1  0  0  0  0
 11 15  1  0  0  0  0
 11 16  1  0  0  0  0
 52 54  1  0  0  0  0
 52 55  1  0  0  0  0
 52 56  1  0  0  0  0
 21 33  1  0  0  0  0
 21 34  1  0  0  0  0
 42 47  1  0  0  0  0
  8 13  1  0  0  0  0
 18 32  1  0  0  0  0
 25 36  1  0  0  0  0
 51 53  1  0  0  0  0
  7 12  1  0  0  0  0
 41 46  1  0  0  0  0
 17 31  1  0  0  0  0
M  END
$$$$

  -OEChem-05262214473D

 56 57  0     1  0  0  0  0  0999 V2000
   -2.2900    0.3401    4.1553 C   0  0  0  0  0  0  0  0  0  0  0  0
   -1.3426   -0.2746    3.6796 O   0  0  0  0  0  0  0  0  0  0  0  0
   -2.7219    0.0577    5.5560 C   0  0  0  0  0  0  0  0  0  0  0  0
   -3.4815   -0.7386    5.6094 H   0  0  0  0  0  0  0  0  0  0  0  0
   -1.8906   -0.2899    6.1903 H   0  0  0  0  0  0  0  0  0  0  0  0
   -3.1599    0.9126    6.0956 H   0  0  0  0  0  0  0  0  0  0  0  0
   -3.0397    1.3125    3.5142 N   0  0  0  0  0  0  0  0  0  0  0  0
   -2.7928    1.7385    2.1618 C   0  0  2  0  0  0  0  0  0  0  0  0
   -1.4579    1.1532    1.7206 C   0  0  0  0  0  0  0  0  0  0  0  0
   -0.5858    0.8004    2.5118 O   0  0  0  0  0  0  0  0  0  0  0  0
   -2.7841    3.2553    2.0523 C   0  0  0  0  0  0  0  0  0  0  0  0
   -3.8047    1.7484    4.0260 H   0  0  0  0  0  0  0  0  0  0  0  0
   -3.5969    1.3201    1.5466 H   0  0  0  0  0  0  0  0  0  0  0  0
   -1.9850    3.6926    2.6620 H   0  0  0  0  0  0  0  0  0  0  0  0
   -2.6246    3.5776    1.0180 H   0  0  0  0  0  0  0  0  0  0  0  0
   -3.7342    3.6765    2.3981 H   0  0  0  0  0  0  0  0  0  0  0  0
   -1.3352    1.1101    0.3372 N   0  0  0  0  0  0  0  0  0  0  0  0
   -0.1579    0.6093   -0.3265 C   0  0  2  0  0  0  0  0  0  0  0  0
   -0.5303    0.3690   -1.7852 C   0  0  0  0  0  0  0  0  0  0  0  0
   -0.8924    1.2688   -2.5403 O   0  0  0  0  0  0  0  0  0  0  0  0
    0.3600   -0.6849    0.3114 C   0  0  0  0  0  0  0  0  0  0  0  0
    0.8903   -0.4752    1.7088 C   0  0  0  0  0  0  0  0  0  0  0  0
    0.1933   -0.6964    2.8742 C   0  0  0  0  0  0  0  0  0  0  0  0
    2.1909   -0.0185    2.0621 C   0  0  0  0  0  0  0  0  0  0  0  0
    1.0187   -0.3917    3.9231 N   0  0  0  0  0  0  0  0  0  0  0  0
    2.2452    0.0249    3.4568 C   0  0  0  0  0  0  0  0  0  0  0  0
    3.3307    0.3632    1.3268 C   0  0  0  0  0  0  0  0  0  0  0  0
    3.3868    0.4327    4.1559 C   0  0  0  0  0  0  0  0  0  0  0  0
    4.4798    0.7733    2.0126 C   0  0  0  0  0  0  0  0  0  0  0  0
    4.5052    0.8067    3.4054 C   0  0  0  0  0  0  0  0  0  0  0  0
   -2.1183    1.4068   -0.2401 H   0  0  0  0  0  0  0  0  0  0  0  0
    0.5930    1.4065   -0.2744 H   0  0  0  0  0  0  0  0  0  0  0  0
    1.1418   -1.1324   -0.3171 H   0  0  0  0  0  0  0  0  0  0  0  0
   -0.4389   -1.4369    0.3561 H   0  0  0  0  0  0  0  0  0  0  0  0
   -0.8159   -1.0416    3.0521 H   0  0  0  0  0  0  0  0  0  0  0  0
    0.7651   -0.4623    4.8989 H   0  0  0  0  0  0  0  0  0  0  0  0
    3.3264    0.3436    0.2406 H   0  0  0  0  0  0  0  0  0  0  0  0
    3.4079    0.4579    5.2401 H   0  0  0  0  0  0  0  0  0  0  0  0
    5.3617    1.0694    1.4509 H   0  0  0  0  0  0  0  0  0  0  0  0
    5.4083    1.1284    3.9176 H   0  0  0  0  0  0  0  0  0  0  0  0
   -0.3615   -0.9587   -2.1526 N   0  0  0  0  0  0  0  0  0  0  0  0
   -0.6212   -1.4524   -3.4859 C   0  0  2  0  0  0  0  0  0  0  0  0
   -2.0033   -0.9692   -3.9053 C   0  0  0  0  0  0  0  0  0  0  0  0
   -2.8725   -0.6422   -3.1000 O   0  0  0  0  0  0  0  0  0  0  0  0
   -0.5362   -2.9698   -3.5405 C   0  0  0  0  0  0  0  0  0  0  0  0
   -0.0392   -1.6166   -1.4490 H   0  0  0  0  0  0  0  0  0  0  0  0
    0.1361   -1.0078   -4.1408 H   0  0  0  0  0  0  0  0  0  0  0  0
   -1.2875   -3.4330   -2.8904 H   0  0  0  0  0  0  0  0  0  0  0  0
   -0.7050   -3.3403   -4.5569 H   0  0  0  0  0  0  0  0  0  0  0  0
    0.4487   -3.3171   -3.2100 H   0  0  0  0  0  0  0  0  0  0  0  0
   -2.1664   -0.9871   -5.2835 N   0  0  0  0  0  0  0  0  0  0  0  0
   -3.3948   -0.5859   -5.9284 C   0  0  0  0  0  0  0  0  0  0  0  0
   -1.3857   -1.2548   -5.8756 H   0  0  0  0  0  0  0  0  0  0  0  0
   -4.0350   -1.4675   -6.0799 H   0  0  0  0  0  0  0  0  0  0  0  0
   -3.9201    0.1440   -5.2948 H   0  0  0  0  0  0  0  0  0  0  0  0
   -3.1651   -0.1281   -6.9019 H   0  0  0  0  0  0  0  0  0  0  0  0
 29 30  2  0  0  0  0
 27 29  1  0  0  0  0
 28 30  1  0  0  0  0
 24 27  2  0  0  0  0
 26 28  2  0  0  0  0
 22 23  2  0  0  0  0
 23 25  1  0  0  0  0
 22 24  1  0  0  0  0
 24 26  1  0  0  0  0
 21 22  1  0  0  0  0
 25 26  1  0  0  0  0
  1  3  1  0  0  0  0
  1  7  1  0  0  0  0
  1  2  2  0  0  0  0
 42 43  1  0  0  0  0
 43 51  1  0  0  0  0
 43 44  2  0  0  0  0
  8  9  1  0  0  0  0
  9 17  1  0  0  0  0
  9 10  2  0  0  0  0
 18 19  1  0  0  0  0
 19 41  1  0  0  0  0
 19 20  2  0  0  0  0
 42 45  1  0  0  0  0
  8 11  1  0  0  0  0
 51 52  1  0  0  0  0
 18 21  1  0  0  0  0
 41 42  1  0  0  0  0
  7  8  1  0  0  0  0
 17 18  1  0  0  0  0
 29 39  1  0  0  0  0
 30 40  1  0  0  0  0
 27 37  1  0  0  0  0
 28 38  1  0  0  0  0
 23 35  1  0  0  0  0
  3  4  1  0  0  0  0
  3  5  1  0  0  0  0
  3  6  1  0  0  0  0
 45 48  1  0  0  0  0
 45 49  1  0  0  0  0
 45 50  1  0  0  0  0
 11 14  1  0  0  0  0
 11 15  1  0  0  0  0
 11 16  1  0  0  0  0
 52 54  1  0  0  0  0
 52 55  1  0  0  0  0
 52 56  1  0  0  0  0
 21 33  1  0  0  0  0
 21 34  1  0  0  0  0
 42 47  1  0  0  0  0
  8 13  1  0  0  0  0
 18 32  1  0  0  0  0
 25 36  1  0  0  0  0
 51 53  1  0  0  0  0
  7 12  1  0  0  0  0
 41 46  1  0  0  0  0
 17 31  1  0  0  0  0
M  END
$$$$

  -OEChem-05262214473D

 56 57  0     1  0  0  0  0  0999 V2000
   -2.2900    0.3401    4.1553 C   0  0  0  0  0  0  0  0  0  0  0  0
   -1.3426   -0.2746    3.6796 O   0  0  0  0  0  0  0  0  0  0  0  0
   -2.7219    0.0577    5.5560 C   0  0  0  0  0  0  0  0  0  0  0  0
   -3.4815   -0.7386    5.6094 H   0  0  0  0  0  0  0  0  0  0  0  0
   -1.8906   -0.2899    6.1903 H   0  0  0  0  0  0  0  0  0  0  0  0
   -3.1599    0.9126    6.0956 H   0  0  0  0  0  0  0  0  0  0  0  0
   -3.0397    1.3125    3.5142 N   0  0  0  0  0  0  0  0  0  0  0  0
   -2.7928    1.7385    2.1618 C   0  0  2  0  0  0  0  0  0  0  0  0
   -1.4579    1.1532    1.7206 C   0  0  0  0  0  0  0  0  0  0  0  0
   -0.5858    0.8004    2.5118 O   0  0  0  0  0  0  0  0  0  0  0  0
   -2.7841    3.2553    2.0523 C   0  0  0  0  0  0  0  0  0  0  0  0
   -3.8047    1.7484    4.0260 H   0  0  0  0  0  0  0  0  0  0  0  0
   -3.5969    1.3201    1.5466 H   0  0  0  0  0  0  0  0  0  0  0  0
   -1.9850    3.6926    2.6620 H   0  0  0  0  0  0  0  0  0  0  0  0
   -2.6246    3.5776    1.0180 H   0  0  0  0  0  0  0  0  0  0  0  0
   -3.7342    3.6765    2.3981 H   0  0  0  0  0  0  0  0  0  0  0  0
   -1.3352    1.1101    0.3372 N   0  0  0  0  0  0  0  0  0  0  0  0
   -0.1579    0.6093   -0.3265 C   0  0  2  0  0  0  0  0  0  0  0  0
   -0.5303    0.3690   -1.7852 C   0  0  0  0  0  0  0  0  0  0  0  0
   -0.6320    1.2765   -2.6080 O   0  0  0  0  0  0  0  0  0  0  0  0
    0.3600   -0.6849    0.3114 C   0  0  0  0  0  0  0  0  0  0  0  0
    0.8903   -0.4752    1.7088 C   0  0  0  0  0  0  0  0  0  0  0  0
    0.1933   -0.6964    2.8742 C   0  0  0  0  0  0  0  0  0  0  0  0
    2.1909   -0.0185    2.0621 C   0  0  0  0  0  0  0  0  0  0  0  0
    1.0187   -0.3917    3.9231 N   0  0  0  0  0  0  0  0  0  0  0  0
    2.2452    0.0249    3.4568 C   0  0  0  0  0  0  0  0  0  0  0  0
    3.3307    0.3632    1.3268 C   0  0  0  0  0  0  0  0  0  0  0  0
    3.3868    0.4327    4.1559 C   0  0  0  0  0  0  0  0  0  0  0  0
    4.4798    0.7733    2.0126 C   0  0  0  0  0  0  0  0  0  0  0  0
    4.5052    0.8067    3.4054 C   0  0  0  0  0  0  0  0  0  0  0  0
   -2.1183    1.4068   -0.2401 H   0  0  0  0  0  0  0  0  0  0  0  0
    0.5930    1.4065   -0.2744 H   0  0  0  0  0  0  0  0  0  0  0  0
    1.1418   -1.1324   -0.3171 H   0  0  0  0  0  0  0  0  0  0  0  0
   -0.4389   -1.4369    0.3561 H   0  0  0  0  0  0  0  0  0  0  0  0
   -0.8159   -1.0416    3.0521 H   0  0  0  0  0  0  0  0  0  0  0  0
    0.7651   -0.4623    4.8989 H   0  0  0  0  0  0  0  0  0  0  0  0
    3.3264    0.3436    0.2406 H   0  0  0  0  0  0  0  0  0  0  0  0
    3.4079    0.4579    5.2401 H   0  0  0  0  0  0  0  0  0  0  0  0
    5.3617    1.0694    1.4509 H   0  0  0  0  0  0  0  0  0  0  0  0
    5.4083    1.1284    3.9176 H   0  0  0  0  0  0  0  0  0  0  0  0
   -0.6854   -0.9813   -2.0662 N   0  0  0  0  0  0  0  0  0  0  0  0
   -1.0159   -1.4857   -3.3796 C   0  0  2  0  0  0  0  0  0  0  0  0
   -2.2196   -0.7068   -3.8933 C   0  0  0  0  0  0  0  0  0  0  0  0
   -3.0061   -0.1215   -3.1517 O   0  0  0  0  0  0  0  0  0  0  0  0
   -1.3096   -2.9774   -3.3418 C   0  0  0  0  0  0  0  0  0  0  0  0
   -0.5603   -1.6487   -1.3107 H   0  0  0  0  0  0  0  0  0  0  0  0
   -0.1507   -1.2873   -4.0216 H   0  0  0  0  0  0  0  0  0  0  0  0
   -2.1735   -3.1957   -2.7034 H   0  0  0  0  0  0  0  0  0  0  0  0
   -1.5319   -3.3635   -4.3420 H   0  0  0  0  0  0  0  0  0  0  0  0
   -0.4536   -3.5331   -2.9441 H   0  0  0  0  0  0  0  0  0  0  0  0
   -2.3367   -0.7781   -5.2744 N   0  0  0  0  0  0  0  0  0  0  0  0
   -3.4047   -0.1318   -6.0007 C   0  0  0  0  0  0  0  0  0  0  0  0
   -1.6283   -1.2697   -5.8112 H   0  0  0  0  0  0  0  0  0  0  0  0
   -4.2389   -0.8368   -6.1317 H   0  0  0  0  0  0  0  0  0  0  0  0
   -3.7523    0.7465   -5.4369 H   0  0  0  0  0  0  0  0  0  0  0  0
   -3.0365    0.1877   -6.9868 H   0  0  0  0  0  0  0  0  0  0  0  0
 29 30  2  0  0  0  0
 27 29  1  0  0  0  0
 28 30  1  0  0  0  0
 24 27  2  0  0  0  0
 26 28  2  0  0  0  0
 22 23  2  0  0  0  0
 23 25  1  0  0  0  0
 22 24  1  0  0  0  0
 24 26  1  0  0  0  0
 21 22  1  0  0  0  0
 25 26  1  0  0  0  0
  1  3  1  0  0  0  0
  1  7  1  0  0  0  0
  1  2  2  0  0  0  0
 42 43  1  0  0  0  0
 43 51  1  0  0  0  0
 43 44  2  0  0  0  0
  8  9  1  0  0  0  0
  9 17  1  0  0  0  0
  9 10  2  0  0  0  0
 18 19  1  0  0  0  0
 19 41  1  0  0  0  0
 19 20  2  0  0  0  0
 42 45  1  0  0  0  0
  8 11  1  0  0  0  0
 51 52  1  0  0  0  0
 18 21  1  0  0  0  0
 41 42  1  0  0  0  0
  7  8  1  0  0  0  0
 17 18  1  0  0  0  0
 29 39  1  0  0  0  0
 30 40  1  0  0  0  0
 27 37  1  0  0  0  0
 28 38  1  0  0  0  0
 23 35  1  0  0  0  0
  3  4  1  0  0  0  0
  3  5  1  0  0  0  0
  3  6  1  0  0  0  0
 45 48  1  0  0  0  0
 45 49  1  0  0  0  0
 45 50  1  0  0  0  0
 11 14  1  0  0  0  0
 11 15  1  0  0  0  0
 11 16  1  0  0  0  0
 52 54  1  0  0  0  0
 52 55  1  0  0  0  0
 52 56  1  0  0  0  0
 21 33  1  0  0  0  0
 21 34  1  0  0  0  0
 42 47  1  0  0  0  0
  8 13  1  0  0  0  0
 18 32  1  0  0  0  0
 25 36  1  0  0  0  0
 51 53  1  0  0  0  0
  7 12  1  0  0  0  0
 41 46  1  0  0  0  0
 17 31  1  0  0  0  0
M  END
$$$$

  -OEChem-05262214473D

 56 57  0     1  0  0  0  0  0999 V2000
   -2.2900    0.3401    4.1553 C   0  0  0  0  0  0  0  0  0  0  0  0
   -1.3426   -0.2746    3.6796 O   0  0  0  0  0  0  0  0  0  0  0  0
   -2.7219    0.0577    5.5560 C   0  0  0  0  0  0  0  0  0  0  0  0
   -3.4815   -0.7386    5.6094 H   0  0  0  0  0  0  0  0  0  0  0  0
   -1.8906   -0.2899    6.1903 H   0  0  0  0  0  0  0  0  0  0  0  0
   -3.1599    0.9126    6.0956 H   0  0  0  0  0  0  0  0  0  0  0  0
   -3.0397    1.3125    3.5142 N   0  0  0  0  0  0  0  0  0  0  0  0
   -2.7928    1.7385    2.1618 C   0  0  2  0  0  0  0  0  0  0  0  0
   -1.4579    1.1532    1.7206 C   0  0  0  0  0  0  0  0  0  0  0  0
   -0.5858    0.8004    2.5118 O   0  0  0  0  0  0  0  0  0  0  0  0
   -2.7841    3.2553    2.0523 C   0  0  0  0  0  0  0  0  0  0  0  0
   -3.8047    1.7484    4.0260 H   0  0  0  0  0  0  0  0  0  0  0  0
   -3.5969    1.3201    1.5466 H   0  0  0  0  0  0  0  0  0  0  0  0
   -1.9850    3.6926    2.6620 H   0  0  0  0  0  0  0  0  0  0  0  0
   -2.6246    3.5776    1.0180 H   0  0  0  0  0  0  0  0  0  0  0  0
   -3.7342    3.6765    2.3981 H   0  0  0  0  0  0  0  0  0  0  0  0
   -1.3352    1.1101    0.3372 N   0  0  0  0  0  0  0  0  0  0  0  0
   -0.1579    0.6093   -0.3265 C   0  0  2  0  0  0  0  0  0  0  0  0
   -0.5303    0.3690   -1.7852 C   0  0  0  0  0  0  0  0  0  0  0  0
   -0.3758    1.2151   -2.6633 O   0  0  0  0  0  0  0  0  0  0  0  0
    0.3600   -0.6849    0.3114 C   0  0  0  0  0  0  0  0  0  0  0  0
    0.8903   -0.4752    1.7088 C   0  0  0  0  0  0  0  0  0  0  0  0
    0.1933   -0.6964    2.8742 C   0  0  0  0  0  0  0  0  0  0  0  0
    2.1909   -0.0185    2.0621 C   0  0  0  0  0  0  0  0  0  0  0  0
    1.0187   -0.3917    3.9231 N   0  0  0  0  0  0  0  0  0  0  0  0
    2.2452    0.0249    3.4568 C   0  0  0  0  0  0  0  0  0  0  0  0
    3.3307    0.3632    1.3268 C   0  0  0  0  0  0  0  0  0  0  0  0
    3.3868    0.4327    4.1559 C   0  0  0  0  0  0  0  0  0  0  0  0
    4.4798    0.7733    2.0126 C   0  0  0  0  0  0  0  0  0  0  0  0
    4.5052    0.8067    3.4054 C   0  0  0  0  0  0  0  0  0  0  0  0
   -2.1183    1.4068   -0.2401 H   0  0  0  0  0  0  0  0  0  0  0  0
    0.5930    1.4065   -0.2744 H   0  0  0  0  0  0  0  0  0  0  0  0
    1.1418   -1.1324   -0.3171 H   0  0  0  0  0  0  0  0  0  0  0  0
   -0.4389   -1.4369    0.3561 H   0  0  0  0  0  0  0  0  0  0  0  0
   -0.8159   -1.0416    3.0521 H   0  0  0  0  0  0  0  0  0  0  0  0
    0.7651   -0.4623    4.8989 H   0  0  0  0  0  0  0  0  0  0  0  0
    3.3264    0.3436    0.2406 H   0  0  0  0  0  0  0  0  0  0  0  0
    3.4079    0.4579    5.2401 H   0  0  0  0  0  0  0  0  0  0  0  0
    5.3617    1.0694    1.4509 H   0  0  0  0  0  0  0  0  0  0  0  0
    5.4083    1.1284    3.9176 H   0  0  0  0  0  0  0  0  0  0  0  0
   -1.0074   -0.9175   -1.9945 N   0  0  0  0  0  0  0  0  0  0  0  0
   -1.4098   -1.4134   -3.2910 C   0  0  2  0  0  0  0  0  0  0  0  0
   -2.3641   -0.3990   -3.9071 C   0  0  0  0  0  0  0  0  0  0  0  0
   -3.0040    0.4113   -3.2400 O   0  0  0  0  0  0  0  0  0  0  0  0
   -2.0666   -2.7806   -3.1809 C   0  0  0  0  0  0  0  0  0  0  0  0
   -1.0772   -1.5418   -1.1963 H   0  0  0  0  0  0  0  0  0  0  0  0
   -0.5018   -1.4786   -3.9004 H   0  0  0  0  0  0  0  0  0  0  0  0
   -2.9781   -2.7352   -2.5738 H   0  0  0  0  0  0  0  0  0  0  0  0
   -2.3451   -3.1675   -4.1667 H   0  0  0  0  0  0  0  0  0  0  0  0
   -1.3894   -3.5016   -2.7104 H   0  0  0  0  0  0  0  0  0  0  0  0
   -2.4499   -0.5336   -5.2858 N   0  0  0  0  0  0  0  0  0  0  0  0
   -3.2989    0.3048   -6.0996 C   0  0  0  0  0  0  0  0  0  0  0  0
   -1.8689   -1.2200   -5.7580 H   0  0  0  0  0  0  0  0  0  0  0  0
   -4.2776   -0.1803   -6.2300 H   0  0  0  0  0  0  0  0  0  0  0  0
   -3.4352    1.2780   -5.6054 H   0  0  0  0  0  0  0  0  0  0  0  0
   -2.8306    0.4555   -7.0834 H   0  0  0  0  0  0  0  0  0  0  0  0
 29 30  2  0  0  0  0
 27 29  1  0  0  0  0
 28 30  1  0  0  0  0
 24 27  2  0  0  0  0
 26 28  2  0  0  0  0
 22 23  2  0  0  0  0
 23 25  1  0  0  0  0
 22 24  1  0  0  0  0
 24 26  1  0  0  0  0
 21 22  1  0  0  0  0
 25 26  1  0  0  0  0
  1  3  1  0  0  0  0
  1  7  1  0  0  0  0
  1  2  2  0  0  0  0
 42 43  1  0  0  0  0
 43 51  1  0  0  0  0
 43 44  2  0  0  0  0
  8  9  1  0  0  0  0
  9 17  1  0  0  0  0
  9 10  2  0  0  0  0
 18 19  1  0  0  0  0
 19 41  1  0  0  0  0
 19 20  2  0  0  0  0
 42 45  1  0  0  0  0
  8 11  1  0  0  0  0
 51 52  1  0  0  0  0
 18 21  1  0  0  0  0
 41 42  1  0  0  0  0
  7  8  1  0  0  0  0
 17 18  1  0  0  0  0
 29 39  1  0  0  0  0
 30 40  1  0  0  0  0
 27 37  1  0  0  0  0
 28 38  1  0  0  0  0
 23 35  1  0  0  0  0
  3  4  1  0  0  0  0
  3  5  1  0  0  0  0
  3  6  1  0  0  0  0
 45 48  1  0  0  0  0
 45 49  1  0  0  0  0
 45 50  1  0  0  0  0
 11 14  1  0  0  0  0
 11 15  1  0  0  0  0
 11 16  1  0  0  0  0
 52 54  1  0  0  0  0
 52 55  1  0  0  0  0
 52 56  1  0  0  0  0
 21 33  1  0  0  0  0
 21 34  1  0  0  0  0
 42 47  1  0  0  0  0
  8 13  1  0  0  0  0
 18 32  1  0  0  0  0
 25 36  1  0  0  0  0
 51 53  1  0  0  0  0
  7 12  1  0  0  0  0
 41 46  1  0  0  0  0
 17 31  1  0  0  0  0
M  END
$$$$

  -OEChem-05262214473D

 56 57  0     1  0  0  0  0  0999 V2000
   -2.2900    0.3401    4.1553 C   0  0  0  0  0  0  0  0  0  0  0  0
   -1.3426   -0.2746    3.6796 O   0  0  0  0  0  0  0  0  0  0  0  0
   -2.7219    0.0577    5.5560 C   0  0  0  0  0  0  0  0  0  0  0  0
   -3.4815   -0.7386    5.6094 H   0  0  0  0  0  0  0  0  0  0  0  0
   -1.8906   -0.2899    6.1903 H   0  0  0  0  0  0  0  0  0  0  0  0
   -3.1599    0.9126    6.0956 H   0  0  0  0  0  0  0  0  0  0  0  0
   -3.0397    1.3125    3.5142 N   0  0  0  0  0  0  0  0  0  0  0  0
   -2.7928    1.7385    2.1618 C   0  0  2  0  0  0  0  0  0  0  0  0
   -1.4579    1.1532    1.7206 C   0  0  0  0  0  0  0  0  0  0  0  0
   -0.5858    0.8004    2.5118 O   0  0  0  0  0  0  0  0  0  0  0  0
   -2.7841    3.2553    2.0523 C   0  0  0  0  0  0  0  0  0  0  0  0
   -3.8047    1.7484    4.0260 H   0  0  0  0  0  0  0  0  0  0  0  0
   -3.5969    1.3201    1.5466 H   0  0  0  0  0  0  0  0  0  0  0  0
   -1.9850    3.6926    2.6620 H   0  0  0  0  0  0  0  0  0  0  0  0
   -2.6246    3.5776    1.0180 H   0  0  0  0  0  0  0  0  0  0  0  0
   -3.7342    3.6765    2.3981 H   0  0  0  0  0  0  0  0  0  0  0  0
   -1.3352    1.1101    0.3372 N   0  0  0  0  0  0  0  0  0  0  0  0
   -0.1579    0.6093   -0.3265 C   0  0  2  0  0  0  0  0  0  0  0  0
   -0.5303    0.3690   -1.7852 C   0  0  0  0  0  0  0  0  0  0  0  0
   -0.1413    1.0889   -2.7024 O   0  0  0  0  0  0  0  0  0  0  0  0
    0.3600   -0.6849    0.3114 C   0  0  0  0  0  0  0  0  0  0  0  0
    0.8903   -0.4752    1.7088 C   0  0  0  0  0  0  0  0  0  0  0  0
    0.1933   -0.6964    2.8742 C   0  0  0  0  0  0  0  0  0  0  0  0
    2.1909   -0.0185    2.0621 C   0  0  0  0  0  0  0  0  0  0  0  0
    1.0187   -0.3917    3.9231 N   0  0  0  0  0  0  0  0  0  0  0  0
    2.2452    0.0249    3.4568 C   0  0  0  0  0  0  0  0  0  0  0  0
    3.3307    0.3632    1.3268 C   0  0  0  0  0  0  0  0  0  0  0  0
    3.3868    0.4327    4.1559 C   0  0  0  0  0  0  0  0  0  0  0  0
    4.4798    0.7733    2.0126 C   0  0  0  0  0  0  0  0  0  0  0  0
    4.5052    0.8067    3.4054 C   0  0  0  0  0  0  0  0  0  0  0  0
   -2.1183    1.4068   -0.2401 H   0  0  0  0  0  0  0  0  0  0  0  0
    0.5930    1.4065   -0.2744 H   0  0  0  0  0  0  0  0  0  0  0  0
    1.1418   -1.1324   -0.3171 H   0  0  0  0  0  0  0  0  0  0  0  0
   -0.4389   -1.4369    0.3561 H   0  0  0  0  0  0  0  0  0  0  0  0
   -0.8159   -1.0416    3.0521 H   0  0  0  0  0  0  0  0  0  0  0  0
    0.7651   -0.4623    4.8989 H   0  0  0  0  0  0  0  0  0  0  0  0
    3.3264    0.3436    0.2406 H   0  0  0  0  0  0  0  0  0  0  0  0
    3.4079    0.4579    5.2401 H   0  0  0  0  0  0  0  0  0  0  0  0
    5.3617    1.0694    1.4509 H   0  0  0  0  0  0  0  0  0  0  0  0
    5.4083    1.1284    3.9176 H   0  0  0  0  0  0  0  0  0  0  0  0
   -1.3055   -0.7715   -1.9424 N   0  0  0  0  0  0  0  0  0  0  0  0
   -1.7759   -1.2405   -3.2260 C   0  0  2  0  0  0  0  0  0  0  0  0
   -2.4269   -0.0668   -3.9458 C   0  0  0  0  0  0  0  0  0  0  0  0
   -2.8665    0.9198   -3.3589 O   0  0  0  0  0  0  0  0  0  0  0  0
   -2.7557   -2.3929   -3.0689 C   0  0  0  0  0  0  0  0  0  0  0  0
   -1.5547   -1.3033   -1.1137 H   0  0  0  0  0  0  0  0  0  0  0  0
   -0.8933   -1.5688   -3.7856 H   0  0  0  0  0  0  0  0  0  0  0  0
   -3.6466   -2.0830   -2.5105 H   0  0  0  0  0  0  0  0  0  0  0  0
   -3.0892   -2.7658   -4.0429 H   0  0  0  0  0  0  0  0  0  0  0  0
   -2.2951   -3.2246   -2.5248 H   0  0  0  0  0  0  0  0  0  0  0  0
   -2.4982   -0.2700   -5.3169 N   0  0  0  0  0  0  0  0  0  0  0  0
   -3.0846    0.6940   -6.2184 C   0  0  0  0  0  0  0  0  0  0  0  0
   -2.0912   -1.1091   -5.7195 H   0  0  0  0  0  0  0  0  0  0  0  0
   -4.1483    0.4572   -6.3680 H   0  0  0  0  0  0  0  0  0  0  0  0
   -2.9904    1.7022   -5.7888 H   0  0  0  0  0  0  0  0  0  0  0  0
   -2.5614    0.6571   -7.1854 H   0  0  0  0  0  0  0  0  0  0  0  0
 29 30  2  0  0  0  0
 27 29  1  0  0  0  0
 28 30  1  0  0  0  0
 24 27  2  0  0  0  0
 26 28  2  0  0  0  0
 22 23  2  0  0  0  0
 23 25  1  0  0  0  0
 22 24  1  0  0  0  0
 24 26  1  0  0  0  0
 21 22  1  0  0  0  0
 25 26  1  0  0  0  0
  1  3  1  0  0  0  0
  1  7  1  0  0  0  0
  1  2  2  0  0  0  0
 42 43  1  0  0  0  0
 43 51  1  0  0  0  0
 43 44  2  0  0  0  0
  8  9  1  0  0  0  0
  9 17  1  0  0  0  0
  9 10  2  0  0  0  0
 18 19  1  0  0  0  0
 19 41  1  0  0  0  0
 19 20  2  0  0  0  0
 42 45  1  0  0  0  0
  8 11  1  0  0  0  0
 51 52  1  0  0  0  0
 18 21  1  0  0  0  0
 41 42  1  0  0  0  0
  7  8  1  0  0  0  0
 17 18  1  0  0  0  0
 29 39  1  0  0  0  0
 30 40  1  0  0  0  0
 27 37  1  0  0  0  0
 28 38  1  0  0  0  0
 23 35  1  0  0  0  0
  3  4  1  0  0  0  0
  3  5  1  0  0  0  0
  3  6  1  0  0  0  0
 45 48  1  0  0  0  0
 45 49  1  0  0  0  0
 45 50  1  0  0  0  0
 11 14  1  0  0  0  0
 11 15  1  0  0  0  0
 11 16  1  0  0  0  0
 52 54  1  0  0  0  0
 52 55  1  0  0  0  0
 52 56  1  0  0  0  0
 21 33  1  0  0  0  0
 21 34  1  0  0  0  0
 42 47  1  0  0  0  0
  8 13  1  0  0  0  0
 18 32  1  0  0  0  0
 25 36  1  0  0  0  0
 51 53  1  0  0  0  0
  7 12  1  0  0  0  0
 41 46  1  0  0  0  0
 17 31  1  0  0  0  0
M  END
$$$$

  -OEChem-05262214473D

 56 57  0     1  0  0  0  0  0999 V2000
   -2.2900    0.3401    4.1553 C   0  0  0  0  0  0  0  0  0  0  0  0
   -1.3426   -0.2746    3.6796 O   0  0  0  0  0  0  0  0  0  0  0  0
   -2.7219    0.0577    5.5560 C   0  0  0  0  0  0  0  0  0  0  0  0
   -3.4815   -0.7386    5.6094 H   0  0  0  0  0  0  0  0  0  0  0  0
   -1.8906   -0.2899    6.1903 H   0  0  0  0  0  0  0  0  0  0  0  0
   -3.1599    0.9126    6.0956 H   0  0  0  0  0  0  0  0  0  0  0  0
   -3.0397    1.3125    3.5142 N   0  0  0  0  0  0  0  0  0  0  0  0
   -2.7928    1.7385    2.1618 C   0  0  2  0  0  0  0  0  0  0  0  0
   -1.4579    1.1532    1.7206 C   0  0  0  0  0  0  0  0  0  0  0  0
   -0.5858    0.8004    2.5118 O   0  0  0  0  0  0  0  0  0  0  0  0
   -2.7841    3.2553    2.0523 C   0  0  0  0  0  0  0  0  0  0  0  0
   -3.8047    1.7484    4.0260 H   0  0  0  0  0  0  0  0  0  0  0  0
   -3.5969    1.3201    1.5466 H   0  0  0  0  0  0  0  0  0  0  0  0
   -1.9850    3.6926    2.6620 H   0  0  0  0  0  0  0  0  0  0  0  0
   -2.6246    3.5776    1.0180 H   0  0  0  0  0  0  0  0  0  0  0  0
   -3.7342    3.6765    2.3981 H   0  0  0  0  0  0  0  0  0  0  0  0
   -1.3352    1.1101    0.3372 N   0  0  0  0  0  0  0  0  0  0  0  0
   -0.1579    0.6093   -0.3265 C   0  0  2  0  0  0  0  0  0  0  0  0
   -0.5303    0.3690   -1.7852 C   0  0  0  0  0  0  0  0  0  0  0  0
    0.0556    0.9065   -2.7226 O   0  0  0  0  0  0  0  0  0  0  0  0
    0.3600   -0.6849    0.3114 C   0  0  0  0  0  0  0  0  0  0  0  0
    0.8903   -0.4752    1.7088 C   0  0  0  0  0  0  0  0  0  0  0  0
    0.1933   -0.6964    2.8742 C   0  0  0  0  0  0  0  0  0  0  0  0
    2.1909   -0.0185    2.0621 C   0  0  0  0  0  0  0  0  0  0  0  0
    1.0187   -0.3917    3.9231 N   0  0  0  0  0  0  0  0  0  0  0  0
    2.2452    0.0249    3.4568 C   0  0  0  0  0  0  0  0  0  0  0  0
    3.3307    0.3632    1.3268 C   0  0  0  0  0  0  0  0  0  0  0  0
    3.3868    0.4327    4.1559 C   0  0  0  0  0  0  0  0  0  0  0  0
    4.4798    0.7733    2.0126 C   0  0  0  0  0  0  0  0  0  0  0  0
    4.5052    0.8067    3.4054 C   0  0  0  0  0  0  0  0  0  0  0  0
   -2.1183    1.4068   -0.2401 H   0  0  0  0  0  0  0  0  0  0  0  0
    0.5930    1.4065   -0.2744 H   0  0  0  0  0  0  0  0  0  0  0  0
    1.1418   -1.1324   -0.3171 H   0  0  0  0  0  0  0  0  0  0  0  0
   -0.4389   -1.4369    0.3561 H   0  0  0  0  0  0  0  0  0  0  0  0
   -0.8159   -1.0416    3.0521 H   0  0  0  0  0  0  0  0  0  0  0  0
    0.7651   -0.4623    4.8989 H   0  0  0  0  0  0  0  0  0  0  0  0
    3.3264    0.3436    0.2406 H   0  0  0  0  0  0  0  0  0  0  0  0
    3.4079    0.4579    5.2401 H   0  0  0  0  0  0  0  0  0  0  0  0
    5.3617    1.0694    1.4509 H   0  0  0  0  0  0  0  0  0  0  0  0
    5.4083    1.1284    3.9176 H   0  0  0  0  0  0  0  0  0  0  0  0
   -1.5594   -0.5534   -1.9135 N   0  0  0  0  0  0  0  0  0  0  0  0
   -2.0894   -0.9787   -3.1891 C   0  0  2  0  0  0  0  0  0  0  0  0
   -2.4037    0.2672   -4.0067 C   0  0  0  0  0  0  0  0  0  0  0  0
   -2.6029    1.3694   -3.5002 O   0  0  0  0  0  0  0  0  0  0  0  0
   -3.3298   -1.8407   -3.0132 C   0  0  0  0  0  0  0  0  0  0  0  0
   -1.9603   -0.9495   -1.0684 H   0  0  0  0  0  0  0  0  0  0  0  0
   -1.2984   -1.5518   -3.6850 H   0  0  0  0  0  0  0  0  0  0  0  0
   -4.1334   -1.2835   -2.5180 H   0  0  0  0  0  0  0  0  0  0  0  0
   -3.7135   -2.1856   -3.9791 H   0  0  0  0  0  0  0  0  0  0  0  0
   -3.1090   -2.7210   -2.4000 H   0  0  0  0  0  0  0  0  0  0  0  0
   -2.4783   -0.0054   -5.3655 N   0  0  0  0  0  0  0  0  0  0  0  0
   -2.7763    1.0093   -6.3491 C   0  0  0  0  0  0  0  0  0  0  0  0
   -2.2800   -0.9444   -5.6984 H   0  0  0  0  0  0  0  0  0  0  0  0
   -3.8600    1.0322   -6.5363 H   0  0  0  0  0  0  0  0  0  0  0  0
   -2.4482    1.9902   -5.9747 H   0  0  0  0  0  0  0  0  0  0  0  0
   -2.2474    0.7787   -7.2856 H   0  0  0  0  0  0  0  0  0  0  0  0
 29 30  2  0  0  0  0
 27 29  1  0  0  0  0
 28 30  1  0  0  0  0
 24 27  2  0  0  0  0
 26 28  2  0  0  0  0
 22 23  2  0  0  0  0
 23 25  1  0  0  0  0
 22 24  1  0  0  0  0
 24 26  1  0  0  0  0
 21 22  1  0  0  0  0
 25 26  1  0  0  0  0
  1  3  1  0  0  0  0
  1  7  1  0  0  0  0
  1  2  2  0  0  0  0
 42 43  1  0  0  0  0
 43 51  1  0  0  0  0
 43 44  2  0  0  0  0
  8  9  1  0  0  0  0
  9 17  1  0  0  0  0
  9 10  2  0  0  0  0
 18 19  1  0  0  0  0
 19 41  1  0  0  0  0
 19 20  2  0  0  0  0
 42 45  1  0  0  0  0
  8 11  1  0  0  0  0
 51 52  1  0  0  0  0
 18 21  1  0  0  0  0
 41 42  1  0  0  0  0
  7  8  1  0  0  0  0
 17 18  1  0  0  0  0
 29 39  1  0  0  0  0
 30 40  1  0  0  0  0
 27 37  1  0  0  0  0
 28 38  1  0  0  0  0
 23 35  1  0  0  0  0
  3  4  1  0  0  0  0
  3  5  1  0  0  0  0
  3  6  1  0  0  0  0
 45 48  1  0  0  0  0
 45 49  1  0  0  0  0
 45 50  1  0  0  0  0
 11 14  1  0  0  0  0
 11 15  1  0  0  0  0
 11 16  1  0  0  0  0
 52 54  1  0  0  0  0
 52 55  1  0  0  0  0
 52 56  1  0  0  0  0
 21 33  1  0  0  0  0
 21 34  1  0  0  0  0
 42 47  1  0  0  0  0
  8 13  1  0  0  0  0
 18 32  1  0  0  0  0
 25 36  1  0  0  0  0
 51 53  1  0  0  0  0
  7 12  1  0  0  0  0
 41 46  1  0  0  0  0
 17 31  1  0  0  0  0
M  END
$$$$

  -OEChem-05262214473D

 56 57  0     1  0  0  0  0  0999 V2000
   -2.2900    0.3401    4.1553 C   0  0  0  0  0  0  0  0  0  0  0  0
   -1.3426   -0.2746    3.6796 O   0  0  0  0  0  0  0  0  0  0  0  0
   -2.7219    0.0577    5.5560 C   0  0  0  0  0  0  0  0  0  0  0  0
   -3.4815   -0.7386    5.6094 H   0  0  0  0  0  0  0  0  0  0  0  0
   -1.8906   -0.2899    6.1903 H   0  0  0  0  0  0  0  0  0  0  0  0
   -3.1599    0.9126    6.0956 H   0  0  0  0  0  0  0  0  0  0  0  0
   -3.0397    1.3125    3.5142 N   0  0  0  0  0  0  0  0  0  0  0  0
   -2.7928    1.7385    2.1618 C   0  0  2  0  0  0  0  0  0  0  0  0
   -1.4579    1.1532    1.7206 C   0  0  0  0  0  0  0  0  0  0  0  0
   -0.5858    0.8004    2.5118 O   0  0  0  0  0  0  0  0  0  0  0  0
   -2.7841    3.2553    2.0523 C   0  0  0  0  0  0  0  0  0  0  0  0
   -3.8047    1.7484    4.0260 H   0  0  0  0  0  0  0  0  0  0  0  0
   -3.5969    1.3201    1.5466 H   0  0  0  0  0  0  0  0  0  0  0  0
   -1.9850    3.6926    2.6620 H   0  0  0  0  0  0  0  0  0  0  0  0
   -2.6246    3.5776    1.0180 H   0  0  0  0  0  0  0  0  0  0  0  0
   -3.7342    3.6765    2.3981 H   0  0  0  0  0  0  0  0  0  0  0  0
   -1.3352    1.1101    0.3372 N   0  0  0  0  0  0  0  0  0  0  0  0
   -0.1579    0.6093   -0.3265 C   0  0  2  0  0  0  0  0  0  0  0  0
   -0.5303    0.3690   -1.7852 C   0  0  0  0  0  0  0  0  0  0  0  0
    0.2014    0.6802   -2.7226 O   0  0  0  0  0  0  0  0  0  0  0  0
    0.3600   -0.6849    0.3114 C   0  0  0  0  0  0  0  0  0  0  0  0
    0.8903   -0.4752    1.7088 C   0  0  0  0  0  0  0  0  0  0  0  0
    0.1933   -0.6964    2.8742 C   0  0  0  0  0  0  0  0  0  0  0  0
    2.1909   -0.0185    2.0621 C   0  0  0  0  0  0  0  0  0  0  0  0
    1.0187   -0.3917    3.9231 N   0  0  0  0  0  0  0  0  0  0  0  0
    2.2452    0.0249    3.4568 C   0  0  0  0  0  0  0  0  0  0  0  0
    3.3307    0.3632    1.3268 C   0  0  0  0  0  0  0  0  0  0  0  0
    3.3868    0.4327    4.1559 C   0  0  0  0  0  0  0  0  0  0  0  0
    4.4798    0.7733    2.0126 C   0  0  0  0  0  0  0  0  0  0  0  0
    4.5052    0.8067    3.4054 C   0  0  0  0  0  0  0  0  0  0  0  0
   -2.1183    1.4068   -0.2401 H   0  0  0  0  0  0  0  0  0  0  0  0
    0.5930    1.4065   -0.2744 H   0  0  0  0  0  0  0  0  0  0  0  0
    1.1418   -1.1324   -0.3171 H   0  0  0  0  0  0  0  0  0  0  0  0
   -0.4389   -1.4369    0.3561 H   0  0  0  0  0  0  0  0  0  0  0  0
   -0.8159   -1.0416    3.0521 H   0  0  0  0  0  0  0  0  0  0  0  0
    0.7651   -0.4623    4.8989 H   0  0  0  0  0  0  0  0  0  0  0  0
    3.3264    0.3436    0.2406 H   0  0  0  0  0  0  0  0  0  0  0  0
    3.4079    0.4579    5.2401 H   0  0  0  0  0  0  0  0  0  0  0  0
    5.3617    1.0694    1.4509 H   0  0  0  0  0  0  0  0  0  0  0  0
    5.4083    1.1284    3.9176 H   0  0  0  0  0  0  0  0  0  0  0  0
   -1.7519   -0.2780   -1.9098 N   0  0  0  0  0  0  0  0  0  0  0  0
   -2.3289   -0.6458   -3.1828 C   0  0  2  0  0  0  0  0  0  0  0  0
   -2.2961    0.5802   -4.0858 C   0  0  0  0  0  0  0  0  0  0  0  0
   -2.2311    1.7294   -3.6544 O   0  0  0  0  0  0  0  0  0  0  0  0
   -3.7499   -1.1616   -3.0179 C   0  0  0  0  0  0  0  0  0  0  0  0
   -2.2662   -0.5045   -1.0636 H   0  0  0  0  0  0  0  0  0  0  0  0
   -1.6896   -1.4286   -3.6054 H   0  0  0  0  0  0  0  0  0  0  0  0
   -4.4053   -0.3911   -2.5956 H   0  0  0  0  0  0  0  0  0  0  0  0
   -4.1755   -1.4666   -3.9796 H   0  0  0  0  0  0  0  0  0  0  0  0
   -3.7754   -2.0252   -2.3445 H   0  0  0  0  0  0  0  0  0  0  0  0
   -2.3915    0.2421   -5.4284 N   0  0  0  0  0  0  0  0  0  0  0  0
   -2.3951    1.2293   -6.4826 C   0  0  0  0  0  0  0  0  0  0  0  0
   -2.4225   -0.7373   -5.6962 H   0  0  0  0  0  0  0  0  0  0  0  0
   -3.4323    1.5056   -6.7235 H   0  0  0  0  0  0  0  0  0  0  0  0
   -1.8456    2.1224   -6.1503 H   0  0  0  0  0  0  0  0  0  0  0  0
   -1.9098    0.8120   -7.3773 H   0  0  0  0  0  0  0  0  0  0  0  0
 29 30  2  0  0  0  0
 27 29  1  0  0  0  0
 28 30  1  0  0  0  0
 24 27  2  0  0  0  0
 26 28  2  0  0  0  0
 22 23  2  0  0  0  0
 23 25  1  0  0  0  0
 22 24  1  0  0  0  0
 24 26  1  0  0  0  0
 21 22  1  0  0  0  0
 25 26  1  0  0  0  0
  1  3  1  0  0  0  0
  1  7  1  0  0  0  0
  1  2  2  0  0  0  0
 42 43  1  0  0  0  0
 43 51  1  0  0  0  0
 43 44  2  0  0  0  0
  8  9  1  0  0  0  0
  9 17  1  0  0  0  0
  9 10  2  0  0  0  0
 18 19  1  0  0  0  0
 19 41  1  0  0  0  0
 19 20  2  0  0  0  0
 42 45  1  0  0  0  0
  8 11  1  0  0  0  0
 51 52  1  0  0  0  0
 18 21  1  0  0  0  0
 41 42  1  0  0  0  0
  7  8  1  0  0  0  0
 17 18  1  0  0  0  0
 29 39  1  0  0  0  0
 30 40  1  0  0  0  0
 27 37  1  0  0  0  0
 28 38  1  0  0  0  0
 23 35  1  0  0  0  0
  3  4  1  0  0  0  0
  3  5  1  0  0  0  0
  3  6  1  0  0  0  0
 45 48  1  0  0  0  0
 45 49  1  0  0  0  0
 45 50  1  0  0  0  0
 11 14  1  0  0  0  0
 11 15  1  0  0  0  0
 11 16  1  0  0  0  0
 52 54  1  0  0  0  0
 52 55  1  0  0  0  0
 52 56  1  0  0  0  0
 21 33  1  0  0  0  0
 21 34  1  0  0  0  0
 42 47  1  0  0  0  0
  8 13  1  0  0  0  0
 18 32  1  0  0  0  0
 25 36  1  0  0  0  0
 51 53  1  0  0  0  0
  7 12  1  0  0  0  0
 41 46  1  0  0  0  0
 17 31  1  0  0  0  0
M  END
$$$$

  -OEChem-05262214473D

 56 57  0     1  0  0  0  0  0999 V2000
   -2.2900    0.3401    4.1553 C   0  0  0  0  0  0  0  0  0  0  0  0
   -1.3426   -0.2746    3.6796 O   0  0  0  0  0  0  0  0  0  0  0  0
   -2.7219    0.0577    5.5560 C   0  0  0  0  0  0  0  0  0  0  0  0
   -3.4815   -0.7386    5.6094 H   0  0  0  0  0  0  0  0  0  0  0  0
   -1.8906   -0.2899    6.1903 H   0  0  0  0  0  0  0  0  0  0  0  0
   -3.1599    0.9126    6.0956 H   0  0  0  0  0  0  0  0  0  0  0  0
   -3.0397    1.3125    3.5142 N   0  0  0  0  0  0  0  0  0  0  0  0
   -2.7928    1.7385    2.1618 C   0  0  2  0  0  0  0  0  0  0  0  0
   -1.4579    1.1532    1.7206 C   0  0  0  0  0  0  0  0  0  0  0  0
   -0.5858    0.8004    2.5118 O   0  0  0  0  0  0  0  0  0  0  0  0
   -2.7841    3.2553    2.0523 C   0  0  0  0  0  0  0  0  0  0  0  0
   -3.8047    1.7484    4.0260 H   0  0  0  0  0  0  0  0  0  0  0  0
   -3.5969    1.3201    1.5466 H   0  0  0  0  0  0  0  0  0  0  0  0
   -1.9850    3.6926    2.6620 H   0  0  0  0  0  0  0  0  0  0  0  0
   -2.6246    3.5776    1.0180 H   0  0  0  0  0  0  0  0  0  0  0  0
   -3.7342    3.6765    2.3981 H   0  0  0  0  0  0  0  0  0  0  0  0
   -1.3352    1.1101    0.3372 N   0  0  0  0  0  0  0  0  0  0  0  0
   -0.1579    0.6093   -0.3265 C   0  0  2  0  0  0  0  0  0  0  0  0
   -0.5303    0.3690   -1.7852 C   0  0  0  0  0  0  0  0  0  0  0  0
    0.2862    0.4256   -2.7023 O   0  0  0  0  0  0  0  0  0  0  0  0
    0.3600   -0.6849    0.3114 C   0  0  0  0  0  0  0  0  0  0  0  0
    0.8903   -0.4752    1.7088 C   0  0  0  0  0  0  0  0  0  0  0  0
    0.1933   -0.6964    2.8742 C   0  0  0  0  0  0  0  0  0  0  0  0
    2.1909   -0.0185    2.0621 C   0  0  0  0  0  0  0  0  0  0  0  0
    1.0187   -0.3917    3.9231 N   0  0  0  0  0  0  0  0  0  0  0  0
    2.2452    0.0249    3.4568 C   0  0  0  0  0  0  0  0  0  0  0  0
    3.3307    0.3632    1.3268 C   0  0  0  0  0  0  0  0  0  0  0  0
    3.3868    0.4327    4.1559 C   0  0  0  0  0  0  0  0  0  0  0  0
    4.4798    0.7733    2.0126 C   0  0  0  0  0  0  0  0  0  0  0  0
    4.5052    0.8067    3.4054 C   0  0  0  0  0  0  0  0  0  0  0  0
   -2.1183    1.4068   -0.2401 H   0  0  0  0  0  0  0  0  0  0  0  0
    0.5930    1.4065   -0.2744 H   0  0  0  0  0  0  0  0  0  0  0  0
    1.1418   -1.1324   -0.3171 H   0  0  0  0  0  0  0  0  0  0  0  0
   -0.4389   -1.4369    0.3561 H   0  0  0  0  0  0  0  0  0  0  0  0
   -0.8159   -1.0416    3.0521 H   0  0  0  0  0  0  0  0  0  0  0  0
    0.7651   -0.4623    4.8989 H   0  0  0  0  0  0  0  0  0  0  0  0
    3.3264    0.3436    0.2406 H   0  0  0  0  0  0  0  0  0  0  0  0
    3.4079    0.4579    5.2401 H   0  0  0  0  0  0  0  0  0  0  0  0
    5.3617    1.0694    1.4509 H   0  0  0  0  0  0  0  0  0  0  0  0
    5.4083    1.1284    3.9176 H   0  0  0  0  0  0  0  0  0  0  0  0
   -1.8697    0.0359   -1.9314 N   0  0  0  0  0  0  0  0  0  0  0  0
   -2.4780   -0.2646   -3.2075 C   0  0  2  0  0  0  0  0  0  0  0  0
   -2.1115    0.8508   -4.1775 C   0  0  0  0  0  0  0  0  0  0  0  0
   -1.7766    1.9754   -3.8110 O   0  0  0  0  0  0  0  0  0  0  0  0
   -3.9874   -0.4019   -3.0824 C   0  0  0  0  0  0  0  0  0  0  0  0
   -2.4517    0.0015   -1.0996 H   0  0  0  0  0  0  0  0  0  0  0  0
   -2.0402   -1.2077   -3.5523 H   0  0  0  0  0  0  0  0  0  0  0  0
   -4.4438    0.5333   -2.7380 H   0  0  0  0  0  0  0  0  0  0  0  0
   -4.4436   -0.6577   -4.0444 H   0  0  0  0  0  0  0  0  0  0  0  0
   -4.2491   -1.1845   -2.3620 H   0  0  0  0  0  0  0  0  0  0  0  0
   -2.2439    0.4557   -5.5013 N   0  0  0  0  0  0  0  0  0  0  0  0
   -1.9670    1.3390   -6.6100 C   0  0  0  0  0  0  0  0  0  0  0  0
   -2.5089   -0.5017   -5.7129 H   0  0  0  0  0  0  0  0  0  0  0  0
   -2.8942    1.8451   -6.9167 H   0  0  0  0  0  0  0  0  0  0  0  0
   -1.2237    2.0898   -6.3037 H   0  0  0  0  0  0  0  0  0  0  0  0
   -1.5717    0.7549   -7.4541 H   0  0  0  0  0  0  0  0  0  0  0  0
 29 30  2  0  0  0  0
 27 29  1  0  0  0  0
 28 30  1  0  0  0  0
 24 27  2  0  0  0  0
 26 28  2  0  0  0  0
 22 23  2  0  0  0  0
 23 25  1  0  0  0  0
 22 24  1  0  0  0  0
 24 26  1  0  0  0  0
 21 22  1  0  0  0  0
 25 26  1  0  0  0  0
  1  3  1  0  0  0  0
  1  7  1  0  0  0  0
  1  2  2  0  0  0  0
 42 43  1  0  0  0  0
 43 51  1  0  0  0  0
 43 44  2  0  0  0  0
  8  9  1  0  0  0  0
  9 17  1  0  0  0  0
  9 10  2  0  0  0  0
 18 19  1  0  0  0  0
 19 41  1  0  0  0  0
 19 20  2  0  0  0  0
 42 45  1  0  0  0  0
  8 11  1  0  0  0  0
 51 52  1  0  0  0  0
 18 21  1  0  0  0  0
 41 42  1  0  0  0  0
  7  8  1  0  0  0  0
 17 18  1  0  0  0  0
 29 39  1  0  0  0  0
 30 40  1  0  0  0  0
 27 37  1  0  0  0  0
 28 38  1  0  0  0  0
 23 35  1  0  0  0  0
  3  4  1  0  0  0  0
  3  5  1  0  0  0  0
  3  6  1  0  0  0  0
 45 48  1  0  0  0  0
 45 49  1  0  0  0  0
 45 50  1  0  0  0  0
 11 14  1  0  0  0  0
 11 15  1  0  0  0  0
 11 16  1  0  0  0  0
 52 54  1  0  0  0  0
 52 55  1  0  0  0  0
 52 56  1  0  0  0  0
 21 33  1  0  0  0  0
 21 34  1  0  0  0  0
 42 47  1  0  0  0  0
  8 13  1  0  0  0  0
 18 32  1  0  0  0  0
 25 36  1  0  0  0  0
 51 53  1  0  0  0  0
  7 12  1  0  0  0  0
 41 46  1  0  0  0  0
 17 31  1  0  0  0  0
M  END
$$$$

  -OEChem-05262214473D

 56 57  0     1  0  0  0  0  0999 V2000
   -2.2900    0.3401    4.1553 C   0  0  0  0  0  0  0  0  0  0  0  0
   -1.3426   -0.2746    3.6796 O   0  0  0  0  0  0  0  0  0  0  0  0
   -2.7219    0.0577    5.5560 C   0  0  0  0  0  0  0  0  0  0  0  0
   -3.4815   -0.7386    5.6094 H   0  0  0  0  0  0  0  0  0  0  0  0
   -1.8906   -0.2899    6.1903 H   0  0  0  0  0  0  0  0  0  0  0  0
   -3.1599    0.9126    6.0956 H   0  0  0  0  0  0  0  0  0  0  0  0
   -3.0397    1.3125    3.5142 N   0  0  0  0  0  0  0  0  0  0  0  0
   -2.7928    1.7385    2.1618 C   0  0  2  0  0  0  0  0  0  0  0  0
   -1.4579    1.1532    1.7206 C   0  0  0  0  0  0  0  0  0  0  0  0
   -0.5858    0.8004    2.5118 O   0  0  0  0  0  0  0  0  0  0  0  0
   -2.7841    3.2553    2.0523 C   0  0  0  0  0  0  0  0  0  0  0  0
   -3.8047    1.7484    4.0260 H   0  0  0  0  0  0  0  0  0  0  0  0
   -3.5969    1.3201    1.5466 H   0  0  0  0  0  0  0  0  0  0  0  0
   -1.9850    3.6926    2.6620 H   0  0  0  0  0  0  0  0  0  0  0  0
   -2.6246    3.5776    1.0180 H   0  0  0  0  0  0  0  0  0  0  0  0
   -3.7342    3.6765    2.3981 H   0  0  0  0  0  0  0  0  0  0  0  0
   -1.3352    1.1101    0.3372 N   0  0  0  0  0  0  0  0  0  0  0  0
   -0.1579    0.6093   -0.3265 C   0  0  2  0  0  0  0  0  0  0  0  0
   -0.5303    0.3690   -1.7852 C   0  0  0  0  0  0  0  0  0  0  0  0
    0.3042    0.1599   -2.6631 O   0  0  0  0  0  0  0  0  0  0  0  0
    0.3600   -0.6849    0.3114 C   0  0  0  0  0  0  0  0  0  0  0  0
    0.8903   -0.4752    1.7088 C   0  0  0  0  0  0  0  0  0  0  0  0
    0.1933   -0.6964    2.8742 C   0  0  0  0  0  0  0  0  0  0  0  0
    2.1909   -0.0185    2.0621 C   0  0  0  0  0  0  0  0  0  0  0  0
    1.0187   -0.3917    3.9231 N   0  0  0  0  0  0  0  0  0  0  0  0
    2.2452    0.0249    3.4568 C   0  0  0  0  0  0  0  0  0  0  0  0
    3.3307    0.3632    1.3268 C   0  0  0  0  0  0  0  0  0  0  0  0
    3.3868    0.4327    4.1559 C   0  0  0  0  0  0  0  0  0  0  0  0
    4.4798    0.7733    2.0126 C   0  0  0  0  0  0  0  0  0  0  0  0
    4.5052    0.8067    3.4054 C   0  0  0  0  0  0  0  0  0  0  0  0
   -2.1183    1.4068   -0.2401 H   0  0  0  0  0  0  0  0  0  0  0  0
    0.5930    1.4065   -0.2744 H   0  0  0  0  0  0  0  0  0  0  0  0
    1.1418   -1.1324   -0.3171 H   0  0  0  0  0  0  0  0  0  0  0  0
   -0.4389   -1.4369    0.3561 H   0  0  0  0  0  0  0  0  0  0  0  0
   -0.8159   -1.0416    3.0521 H   0  0  0  0  0  0  0  0  0  0  0  0
    0.7651   -0.4623    4.8989 H   0  0  0  0  0  0  0  0  0  0  0  0
    3.3264    0.3436    0.2406 H   0  0  0  0  0  0  0  0  0  0  0  0
    3.4079    0.4579    5.2401 H   0  0  0  0  0  0  0  0  0  0  0  0
    5.3617    1.0694    1.4509 H   0  0  0  0  0  0  0  0  0  0  0  0
    5.4083    1.1284    3.9176 H   0  0  0  0  0  0  0  0  0  0  0  0
   -1.9049    0.3669   -1.9769 N   0  0  0  0  0  0  0  0  0  0  0  0
   -2.5267    0.1390   -3.2616 C   0  0  2  0  0  0  0  0  0  0  0  0
   -1.8623    1.0608   -4.2757 C   0  0  0  0  0  0  0  0  0  0  0  0
   -1.2702    2.0905   -3.9592 O   0  0  0  0  0  0  0  0  0  0  0  0
   -4.0260    0.3866   -3.2024 C   0  0  0  0  0  0  0  0  0  0  0  0
   -2.5042    0.5339   -1.1739 H   0  0  0  0  0  0  0  0  0  0  0  0
   -2.3264   -0.9042   -3.5293 H   0  0  0  0  0  0  0  0  0  0  0  0
   -4.2462    1.4267   -2.9356 H   0  0  0  0  0  0  0  0  0  0  0  0
   -4.4997    0.1860   -4.1690 H   0  0  0  0  0  0  0  0  0  0  0  0
   -4.4978   -0.2562   -2.4514 H   0  0  0  0  0  0  0  0  0  0  0  0
   -2.0454    0.6209   -5.5792 N   0  0  0  0  0  0  0  0  0  0  0  0
   -1.5211    1.3308   -6.7225 C   0  0  0  0  0  0  0  0  0  0  0  0
   -2.5333   -0.2539   -5.7475 H   0  0  0  0  0  0  0  0  0  0  0  0
   -2.2825    2.0276   -7.1030 H   0  0  0  0  0  0  0  0  0  0  0  0
   -0.6247    1.8945   -6.4244 H   0  0  0  0  0  0  0  0  0  0  0  0
   -1.2562    0.6111   -7.5110 H   0  0  0  0  0  0  0  0  0  0  0  0
 29 30  2  0  0  0  0
 27 29  1  0  0  0  0
 28 30  1  0  0  0  0
 24 27  2  0  0  0  0
 26 28  2  0  0  0  0
 22 23  2  0  0  0  0
 23 25  1  0  0  0  0
 22 24  1  0  0  0  0
 24 26  1  0  0  0  0
 21 22  1  0  0  0  0
 25 26  1  0  0  0  0
  1  3  1  0  0  0  0
  1  7  1  0  0  0  0
  1  2  2  0  0  0  0
 42 43  1  0  0  0  0
 43 51  1  0  0  0  0
 43 44  2  0  0  0  0
  8  9  1  0  0  0  0
  9 17  1  0  0  0  0
  9 10  2  0  0  0  0
 18 19  1  0  0  0  0
 19 41  1  0  0  0  0
 19 20  2  0  0  0  0
 42 45  1  0  0  0  0
  8 11  1  0  0  0  0
 51 52  1  0  0  0  0
 18 21  1  0  0  0  0
 41 42  1  0  0  0  0
  7  8  1  0  0  0  0
 17 18  1  0  0  0  0
 29 39  1  0  0  0  0
 30 40  1  0  0  0  0
 27 37  1  0  0  0  0
 28 38  1  0  0  0  0
 23 35  1  0  0  0  0
  3  4  1  0  0  0  0
  3  5  1  0  0  0  0
  3  6  1  0  0  0  0
 45 48  1  0  0  0  0
 45 49  1  0  0  0  0
 45 50  1  0  0  0  0
 11 14  1  0  0  0  0
 11 15  1  0  0  0  0
 11 16  1  0  0  0  0
 52 54  1  0  0  0  0
 52 55  1  0  0  0  0
 52 56  1  0  0  0  0
 21 33  1  0  0  0  0
 21 34  1  0  0  0  0
 42 47  1  0  0  0  0
  8 13  1  0  0  0  0
 18 32  1  0  0  0  0
 25 36  1  0  0  0  0
 51 53  1  0  0  0  0
  7 12  1  0  0  0  0
 41 46  1  0  0  0  0
 17 31  1  0  0  0  0
M  END
$$$$

  -OEChem-05262214473D

 56 57  0     1  0  0  0  0  0999 V2000
   -2.2900    0.3401    4.1553 C   0  0  0  0  0  0  0  0  0  0  0  0
   -1.3426   -0.2746    3.6796 O   0  0  0  0  0  0  0  0  0  0  0  0
   -2.7219    0.0577    5.5560 C   0  0  0  0  0  0  0  0  0  0  0  0
   -3.4815   -0.7386    5.6094 H   0  0  0  0  0  0  0  0  0  0  0  0
   -1.8906   -0.2899    6.1903 H   0  0  0  0  0  0  0  0  0  0  0  0
   -3.1599    0.9126    6.0956 H   0  0  0  0  0  0  0  0  0  0  0  0
   -3.0397    1.3125    3.5142 N   0  0  0  0  0  0  0  0  0  0  0  0
   -2.7928    1.7385    2.1618 C   0  0  2  0  0  0  0  0  0  0  0  0
   -1.4579    1.1532    1.7206 C   0  0  0  0  0  0  0  0  0  0  0  0
   -0.5858    0.8004    2.5118 O   0  0  0  0  0  0  0  0  0  0  0  0
   -2.7841    3.2553    2.0523 C   0  0  0  0  0  0  0  0  0  0  0  0
   -3.8047    1.7484    4.0260 H   0  0  0  0  0  0  0  0  0  0  0  0
   -3.5969    1.3201    1.5466 H   0  0  0  0  0  0  0  0  0  0  0  0
   -1.9850    3.6926    2.6620 H   0  0  0  0  0  0  0  0  0  0  0  0
   -2.6246    3.5776    1.0180 H   0  0  0  0  0  0  0  0  0  0  0  0
   -3.7342    3.6765    2.3981 H   0  0  0  0  0  0  0  0  0  0  0  0
   -1.3352    1.1101    0.3372 N   0  0  0  0  0  0  0  0  0  0  0  0
   -0.1579    0.6093   -0.3265 C   0  0  2  0  0  0  0  0  0  0  0  0
   -0.5303    0.3690   -1.7852 C   0  0  0  0  0  0  0  0  0  0  0  0
    0.2543   -0.0987   -2.6077 O   0  0  0  0  0  0  0  0  0  0  0  0
    0.3600   -0.6849    0.3114 C   0  0  0  0  0  0  0  0  0  0  0  0
    0.8903   -0.4752    1.7088 C   0  0  0  0  0  0  0  0  0  0  0  0
    0.1933   -0.6964    2.8742 C   0  0  0  0  0  0  0  0  0  0  0  0
    2.1909   -0.0185    2.0621 C   0  0  0  0  0  0  0  0  0  0  0  0
    1.0187   -0.3917    3.9231 N   0  0  0  0  0  0  0  0  0  0  0  0
    2.2452    0.0249    3.4568 C   0  0  0  0  0  0  0  0  0  0  0  0
    3.3307    0.3632    1.3268 C   0  0  0  0  0  0  0  0  0  0  0  0
    3.3868    0.4327    4.1559 C   0  0  0  0  0  0  0  0  0  0  0  0
    4.4798    0.7733    2.0126 C   0  0  0  0  0  0  0  0  0  0  0  0
    4.5052    0.8067    3.4054 C   0  0  0  0  0  0  0  0  0  0  0  0
   -2.1183    1.4068   -0.2401 H   0  0  0  0  0  0  0  0  0  0  0  0
    0.5930    1.4065   -0.2744 H   0  0  0  0  0  0  0  0  0  0  0  0
    1.1418   -1.1324   -0.3171 H   0  0  0  0  0  0  0  0  0  0  0  0
   -0.4389   -1.4369    0.3561 H   0  0  0  0  0  0  0  0  0  0  0  0
   -0.8159   -1.0416    3.0521 H   0  0  0  0  0  0  0  0  0  0  0  0
    0.7651   -0.4623    4.8989 H   0  0  0  0  0  0  0  0  0  0  0  0
    3.3264    0.3436    0.2406 H   0  0  0  0  0  0  0  0  0  0  0  0
    3.4079    0.4579    5.2401 H   0  0  0  0  0  0  0  0  0  0  0  0
    5.3617    1.0694    1.4509 H   0  0  0  0  0  0  0  0  0  0  0  0
    5.4083    1.1284    3.9176 H   0  0  0  0  0  0  0  0  0  0  0  0
   -1.8551    0.6925   -2.0433 N   0  0  0  0  0  0  0  0  0  0  0  0
   -2.4715    0.5375   -3.3413 C   0  0  2  0  0  0  0  0  0  0  0  0
   -1.5656    1.1957   -4.3736 C   0  0  0  0  0  0  0  0  0  0  0  0
   -0.7466    2.0670   -4.0890 O   0  0  0  0  0  0  0  0  0  0  0  0
   -3.8630    1.1502   -3.3698 C   0  0  0  0  0  0  0  0  0  0  0  0
   -2.4200    1.0564   -1.2815 H   0  0  0  0  0  0  0  0  0  0  0  0
   -2.5285   -0.5387   -3.5378 H   0  0  0  0  0  0  0  0  0  0  0  0
   -3.8261    2.2282   -3.1749 H   0  0  0  0  0  0  0  0  0  0  0  0
   -4.3398    1.0069   -4.3451 H   0  0  0  0  0  0  0  0  0  0  0  0
   -4.5044    0.6963   -2.6066 H   0  0  0  0  0  0  0  0  0  0  0  0
   -1.8096    0.7264   -5.6568 N   0  0  0  0  0  0  0  0  0  0  0  0
   -1.0878    1.2054   -6.8124 C   0  0  0  0  0  0  0  0  0  0  0  0
   -2.4941   -0.0107   -5.7975 H   0  0  0  0  0  0  0  0  0  0  0  0
   -1.6389    2.0406   -7.2694 H   0  0  0  0  0  0  0  0  0  0  0  0
   -0.0896    1.5500   -6.5043 H   0  0  0  0  0  0  0  0  0  0  0  0
   -0.9847    0.3904   -7.5440 H   0  0  0  0  0  0  0  0  0  0  0  0
 29 30  2  0  0  0  0
 27 29  1  0  0  0  0
 28 30  1  0  0  0  0
 24 27  2  0  0  0  0
 26 28  2  0  0  0  0
 22 23  2  0  0  0  0
 23 25  1  0  0  0  0
 22 24  1  0  0  0  0
 24 26  1  0  0  0  0
 21 22  1  0  0  0  0
 25 26  1  0  0  0  0
  1  3  1  0  0  0  0
  1  7  1  0  0  0  0
  1  2  2  0  0  0  0
 42 43  1  0  0  0  0
 43 51  1  0  0  0  0
 43 44  2  0  0  0  0
  8  9  1  0  0  0  0
  9 17  1  0  0  0  0
  9 10  2  0  0  0  0
 18 19  1  0  0  0  0
 19 41  1  0  0  0  0
 19 20  2  0  0  0  0
 42 45  1  0  0  0  0
  8 11  1  0  0  0  0
 51 52  1  0  0  0  0
 18 21  1  0  0  0  0
 41 42  1  0  0  0  0
  7  8  1  0  0  0  0
 17 18  1  0  0  0  0
 29 39  1  0  0  0  0
 30 40  1  0  0  0  0
 27 37  1  0  0  0  0
 28 38  1  0  0  0  0
 23 35  1  0  0  0  0
  3  4  1  0  0  0  0
  3  5  1  0  0  0  0
  3  6  1  0  0  0  0
 45 48  1  0  0  0  0
 45 49  1  0  0  0  0
 45 50  1  0  0  0  0
 11 14  1  0  0  0  0
 11 15  1  0  0  0  0
 11 16  1  0  0  0  0
 52 54  1  0  0  0  0
 52 55  1  0  0  0  0
 52 56  1  0  0  0  0
 21 33  1  0  0  0  0
 21 34  1  0  0  0  0
 42 47  1  0  0  0  0
  8 13  1  0  0  0  0
 18 32  1  0  0  0  0
 25 36  1  0  0  0  0
 51 53  1  0  0  0  0
  7 12  1  0  0  0  0
 41 46  1  0  0  0  0
 17 31  1  0  0  0  0
M  END
$$$$

  -OEChem-05262214473D

 56 57  0     1  0  0  0  0  0999 V2000
   -2.2900    0.3401    4.1553 C   0  0  0  0  0  0  0  0  0  0  0  0
   -1.3426   -0.2746    3.6796 O   0  0  0  0  0  0  0  0  0  0  0  0
   -2.7219    0.0577    5.5560 C   0  0  0  0  0  0  0  0  0  0  0  0
   -3.4815   -0.7386    5.6094 H   0  0  0  0  0  0  0  0  0  0  0  0
   -1.8906   -0.2899    6.1903 H   0  0  0  0  0  0  0  0  0  0  0  0
   -3.1599    0.9126    6.0956 H   0  0  0  0  0  0  0  0  0  0  0  0
   -3.0397    1.3125    3.5142 N   0  0  0  0  0  0  0  0  0  0  0  0
   -2.7928    1.7385    2.1618 C   0  0  2  0  0  0  0  0  0  0  0  0
   -1.4579    1.1532    1.7206 C   0  0  0  0  0  0  0  0  0  0  0  0
   -0.5858    0.8004    2.5118 O   0  0  0  0  0  0  0  0  0  0  0  0
   -2.7841    3.2553    2.0523 C   0  0  0  0  0  0  0  0  0  0  0  0
   -3.8047    1.7484    4.0260 H   0  0  0  0  0  0  0  0  0  0  0  0
   -3.5969    1.3201    1.5466 H   0  0  0  0  0  0  0  0  0  0  0  0
   -1.9850    3.6926    2.6620 H   0  0  0  0  0  0  0  0  0  0  0  0
   -2.6246    3.5776    1.0180 H   0  0  0  0  0  0  0  0  0  0  0  0
   -3.7342    3.6765    2.3981 H   0  0  0  0  0  0  0  0  0  0  0  0
   -1.3352    1.1101    0.3372 N   0  0  0  0  0  0  0  0  0  0  0  0
   -0.1579    0.6093   -0.3265 C   0  0  2  0  0  0  0  0  0  0  0  0
   -0.5303    0.3690   -1.7852 C   0  0  0  0  0  0  0  0  0  0  0  0
    0.1397   -0.3327   -2.5399 O   0  0  0  0  0  0  0  0  0  0  0  0
    0.3600   -0.6849    0.3114 C   0  0  0  0  0  0  0  0  0  0  0  0
    0.8903   -0.4752    1.7088 C   0  0  0  0  0  0  0  0  0  0  0  0
    0.1933   -0.6964    2.8742 C   0  0  0  0  0  0  0  0  0  0  0  0
    2.1909   -0.0185    2.0621 C   0  0  0  0  0  0  0  0  0  0  0  0
    1.0187   -0.3917    3.9231 N   0  0  0  0  0  0  0  0  0  0  0  0
    2.2452    0.0249    3.4568 C   0  0  0  0  0  0  0  0  0  0  0  0
    3.3307    0.3632    1.3268 C   0  0  0  0  0  0  0  0  0  0  0  0
    3.3868    0.4327    4.1559 C   0  0  0  0  0  0  0  0  0  0  0  0
    4.4798    0.7733    2.0126 C   0  0  0  0  0  0  0  0  0  0  0  0
    4.5052    0.8067    3.4054 C   0  0  0  0  0  0  0  0  0  0  0  0
   -2.1183    1.4068   -0.2401 H   0  0  0  0  0  0  0  0  0  0  0  0
    0.5930    1.4065   -0.2744 H   0  0  0  0  0  0  0  0  0  0  0  0
    1.1418   -1.1324   -0.3171 H   0  0  0  0  0  0  0  0  0  0  0  0
   -0.4389   -1.4369    0.3561 H   0  0  0  0  0  0  0  0  0  0  0  0
   -0.8159   -1.0416    3.0521 H   0  0  0  0  0  0  0  0  0  0  0  0
    0.7651   -0.4623    4.8989 H   0  0  0  0  0  0  0  0  0  0  0  0
    3.3264    0.3436    0.2406 H   0  0  0  0  0  0  0  0  0  0  0  0
    3.4079    0.4579    5.2401 H   0  0  0  0  0  0  0  0  0  0  0  0
    5.3617    1.0694    1.4509 H   0  0  0  0  0  0  0  0  0  0  0  0
    5.4083    1.1284    3.9176 H   0  0  0  0  0  0  0  0  0  0  0  0
   -1.7237    0.9904   -2.1259 N   0  0  0  0  0  0  0  0  0  0  0  0
   -2.3163    0.9037   -3.4412 C   0  0  2  0  0  0  0  0  0  0  0  0
   -1.2417    1.2463   -4.4647 C   0  0  0  0  0  0  0  0  0  0  0  0
   -0.2413    1.9064   -4.1915 O   0  0  0  0  0  0  0  0  0  0  0  0
   -3.5098    1.8369   -3.5731 C   0  0  0  0  0  0  0  0  0  0  0  0
   -2.2048    1.5335   -1.4150 H   0  0  0  0  0  0  0  0  0  0  0  0
   -2.6329   -0.1361   -3.5775 H   0  0  0  0  0  0  0  0  0  0  0  0
   -3.2120    2.8833   -3.4396 H   0  0  0  0  0  0  0  0  0  0  0  0
   -3.9749    1.7491   -4.5605 H   0  0  0  0  0  0  0  0  0  0  0  0
   -4.2687    1.6083   -2.8170 H   0  0  0  0  0  0  0  0  0  0  0  0
   -1.5525    0.7650   -5.7288 N   0  0  0  0  0  0  0  0  0  0  0  0
   -0.6967    0.9713   -6.8737 C   0  0  0  0  0  0  0  0  0  0  0  0
   -2.3940    0.2114   -5.8597 H   0  0  0  0  0  0  0  0  0  0  0  0
   -1.0072    1.8832   -7.4048 H   0  0  0  0  0  0  0  0  0  0  0  0
    0.3452    1.0796   -6.5378 H   0  0  0  0  0  0  0  0  0  0  0  0
   -0.7758    0.1080   -7.5508 H   0  0  0  0  0  0  0  0  0  0  0  0
 29 30  2  0  0  0  0
 27 29  1  0  0  0  0
 28 30  1  0  0  0  0
 24 27  2  0  0  0  0
 26 28  2  0  0  0  0
 22 23  2  0  0  0  0
 23 25  1  0  0  0  0
 22 24  1  0  0  0  0
 24 26  1  0  0  0  0
 21 22  1  0  0  0  0
 25 26  1  0  0  0  0
  1  3  1  0  0  0  0
  1  7  1  0  0  0  0
  1  2  2  0  0  0  0
 42 43  1  0  0  0  0
 43 51  1  0  0  0  0
 43 44  2  0  0  0  0
  8  9  1  0  0  0  0
  9 17  1  0  0  0  0
  9 10  2  0  0  0  0
 18 19  1  0  0  0  0
 19 41  1  0  0  0  0
 19 20  2  0  0  0  0
 42 45  1  0  0  0  0
  8 11  1  0  0  0  0
 51 52  1  0  0  0  0
 18 21  1  0  0  0  0
 41 42  1  0  0  0  0
  7  8  1  0  0  0  0
 17 18  1  0  0  0  0
 29 39  1  0  0  0  0
 30 40  1  0  0  0  0
 27 37  1  0  0  0  0
 28 38  1  0  0  0  0
 23 35  1  0  0  0  0
  3  4  1  0  0  0  0
  3  5  1  0  0  0  0
  3  6  1  0  0  0  0
 45 48  1  0  0  0  0
 45 49  1  0  0  0  0
 45 50  1  0  0  0  0
 11 14  1  0  0  0  0
 11 15  1  0  0  0  0
 11 16  1  0  0  0  0
 52 54  1  0  0  0  0
 52 55  1  0  0  0  0
 52 56  1  0  0  0  0
 21 33  1  0  0  0  0
 21 34  1  0  0  0  0
 42 47  1  0  0  0  0
  8 13  1  0  0  0  0
 18 32  1  0  0  0  0
 25 36  1  0  0  0  0
 51 53  1  0  0  0  0
  7 12  1  0  0  0  0
 41 46  1  0  0  0  0
 17 31  1  0  0  0  0
M  END
$$$$

  -OEChem-05262214473D

 56 57  0     1  0  0  0  0  0999 V2000
   -2.2900    0.3401    4.1553 C   0  0  0  0  0  0  0  0  0  0  0  0
   -1.3426   -0.2746    3.6796 O   0  0  0  0  0  0  0  0  0  0  0  0
   -2.7219    0.0577    5.5560 C   0  0  0  0  0  0  0  0  0  0  0  0
   -3.4815   -0.7386    5.6094 H   0  0  0  0  0  0  0  0  0  0  0  0
   -1.8906   -0.2899    6.1903 H   0  0  0  0  0  0  0  0  0  0  0  0
   -3.1599    0.9126    6.0956 H   0  0  0  0  0  0  0  0  0  0  0  0
   -3.0397    1.3125    3.5142 N   0  0  0  0  0  0  0  0  0  0  0  0
   -2.7928    1.7385    2.1618 C   0  0  2  0  0  0  0  0  0  0  0  0
   -1.4579    1.1532    1.7206 C   0  0  0  0  0  0  0  0  0  0  0  0
   -0.5858    0.8004    2.5118 O   0  0  0  0  0  0  0  0  0  0  0  0
   -2.7841    3.2553    2.0523 C   0  0  0  0  0  0  0  0  0  0  0  0
   -3.8047    1.7484    4.0260 H   0  0  0  0  0  0  0  0  0  0  0  0
   -3.5969    1.3201    1.5466 H   0  0  0  0  0  0  0  0  0  0  0  0
   -1.9850    3.6926    2.6620 H   0  0  0  0  0  0  0  0  0  0  0  0
   -2.6246    3.5776    1.0180 H   0  0  0  0  0  0  0  0  0  0  0  0
   -3.7342    3.6765    2.3981 H   0  0  0  0  0  0  0  0  0  0  0  0
   -1.3352    1.1101    0.3372 N   0  0  0  0  0  0  0  0  0  0  0  0
   -0.1579    0.6093   -0.3265 C   0  0  2  0  0  0  0  0  0  0  0  0
   -0.5303    0.3690   -1.7852 C   0  0  0  0  0  0  0  0  0  0  0  0
   -0.0317   -0.5260   -2.4644 O   0  0  0  0  0  0  0  0  0  0  0  0
    0.3600   -0.6849    0.3114 C   0  0  0  0  0  0  0  0  0  0  0  0
    0.8903   -0.4752    1.7088 C   0  0  0  0  0  0  0  0  0  0  0  0
    0.1933   -0.6964    2.8742 C   0  0  0  0  0  0  0  0  0  0  0  0
    2.1909   -0.0185    2.0621 C   0  0  0  0  0  0  0  0  0  0  0  0
    1.0187   -0.3917    3.9231 N   0  0  0  0  0  0  0  0  0  0  0  0
    2.2452    0.0249    3.4568 C   0  0  0  0  0  0  0  0  0  0  0  0
    3.3307    0.3632    1.3268 C   0  0  0  0  0  0  0  0  0  0  0  0
    3.3868    0.4327    4.1559 C   0  0  0  0  0  0  0  0  0  0  0  0
    4.4798    0.7733    2.0126 C   0  0  0  0  0  0  0  0  0  0  0  0
    4.5052    0.8067    3.4054 C   0  0  0  0  0  0  0  0  0  0  0  0
   -2.1183    1.4068   -0.2401 H   0  0  0  0  0  0  0  0  0  0  0  0
    0.5930    1.4065   -0.2744 H   0  0  0  0  0  0  0  0  0  0  0  0
    1.1418   -1.1324   -0.3171 H   0  0  0  0  0  0  0  0  0  0  0  0
   -0.4389   -1.4369    0.3561 H   0  0  0  0  0  0  0  0  0  0  0  0
   -0.8159   -1.0416    3.0521 H   0  0  0  0  0  0  0  0  0  0  0  0
    0.7651   -0.4623    4.8989 H   0  0  0  0  0  0  0  0  0  0  0  0
    3.3264    0.3436    0.2406 H   0  0  0  0  0  0  0  0  0  0  0  0
    3.4079    0.4579    5.2401 H   0  0  0  0  0  0  0  0  0  0  0  0
    5.3617    1.0694    1.4509 H   0  0  0  0  0  0  0  0  0  0  0  0
    5.4083    1.1284    3.9176 H   0  0  0  0  0  0  0  0  0  0  0  0
   -1.5196    1.2405   -2.2192 N   0  0  0  0  0  0  0  0  0  0  0  0
   -2.0716    1.2127   -3.5546 C   0  0  2  0  0  0  0  0  0  0  0  0
   -0.9125    1.2092   -4.5426 C   0  0  0  0  0  0  0  0  0  0  0  0
    0.2112    1.6196   -4.2598 O   0  0  0  0  0  0  0  0  0  0  0  0
   -2.9902    2.3998   -3.7985 C   0  0  0  0  0  0  0  0  0  0  0  0
   -1.8734    1.9326   -1.5654 H   0  0  0  0  0  0  0  0  0  0  0  0
   -2.6325    0.2761   -3.6455 H   0  0  0  0  0  0  0  0  0  0  0  0
   -2.4458    3.3473   -3.7116 H   0  0  0  0  0  0  0  0  0  0  0  0
   -3.4299    2.3620   -4.8006 H   0  0  0  0  0  0  0  0  0  0  0  0
   -3.8065    2.4174   -3.0683 H   0  0  0  0  0  0  0  0  0  0  0  0
   -1.2917    0.7341   -5.7903 N   0  0  0  0  0  0  0  0  0  0  0  0
   -0.3743    0.6444   -6.9022 C   0  0  0  0  0  0  0  0  0  0  0  0
   -2.2398    0.3972   -5.9297 H   0  0  0  0  0  0  0  0  0  0  0  0
   -0.4305    1.5662   -7.4998 H   0  0  0  0  0  0  0  0  0  0  0  0
    0.6500    0.5154   -6.5227 H   0  0  0  0  0  0  0  0  0  0  0  0
   -0.6436   -0.2170   -7.5310 H   0  0  0  0  0  0  0  0  0  0  0  0
 29 30  2  0  0  0  0
 27 29  1  0  0  0  0
 28 30  1  0  0  0  0
 24 27  2  0  0  0  0
 26 28  2  0  0  0  0
 22 23  2  0  0  0  0
 23 25  1  0  0  0  0
 22 24  1  0  0  0  0
 24 26  1  0  0  0  0
 21 22  1  0  0  0  0
 25 26  1  0  0  0  0
  1  3  1  0  0  0  0
  1  7  1  0  0  0  0
  1  2  2  0  0  0  0
 42 43  1  0  0  0  0
 43 51  1  0  0  0  0
 43 44  2  0  0  0  0
  8  9  1  0  0  0  0
  9 17  1  0  0  0  0
  9 10  2  0  0  0  0
 18 19  1  0  0  0  0
 19 41  1  0  0  0  0
 19 20  2  0  0  0  0
 42 45  1  0  0  0  0
  8 11  1  0  0  0  0
 51 52  1  0  0  0  0
 18 21  1  0  0  0  0
 41 42  1  0  0  0  0
  7  8  1  0  0  0  0
 17 18  1  0  0  0  0
 29 39  1  0  0  0  0
 30 40  1  0  0  0  0
 27 37  1  0  0  0  0
 28 38  1  0  0  0  0
 23 35  1  0  0  0  0
  3  4  1  0  0  0  0
  3  5  1  0  0  0  0
  3  6  1  0  0  0  0
 45 48  1  0  0  0  0
 45 49  1  0  0  0  0
 45 50  1  0  0  0  0
 11 14  1  0  0  0  0
 11 15  1  0  0  0  0
 11 16  1  0  0  0  0
 52 54  1  0  0  0  0
 52 55  1  0  0  0  0
 52 56  1  0  0  0  0
 21 33  1  0  0  0  0
 21 34  1  0  0  0  0
 42 47  1  0  0  0  0
  8 13  1  0  0  0  0
 18 32  1  0  0  0  0
 25 36  1  0  0  0  0
 51 53  1  0  0  0  0
  7 12  1  0  0  0  0
 41 46  1  0  0  0  0
 17 31  1  0  0  0  0
M  END
$$$$

  -OEChem-05262214473D

 56 57  0     1  0  0  0  0  0999 V2000
   -2.2900    0.3401    4.1553 C   0  0  0  0  0  0  0  0  0  0  0  0
   -1.3426   -0.2746    3.6796 O   0  0  0  0  0  0  0  0  0  0  0  0
   -2.7219    0.0577    5.5560 C   0  0  0  0  0  0  0  0  0  0  0  0
   -3.4815   -0.7386    5.6094 H   0  0  0  0  0  0  0  0  0  0  0  0
   -1.8906   -0.2899    6.1903 H   0  0  0  0  0  0  0  0  0  0  0  0
   -3.1599    0.9126    6.0956 H   0  0  0  0  0  0  0  0  0  0  0  0
   -3.0397    1.3125    3.5142 N   0  0  0  0  0  0  0  0  0  0  0  0
   -2.7928    1.7385    2.1618 C   0  0  2  0  0  0  0  0  0  0  0  0
   -1.4579    1.1532    1.7206 C   0  0  0  0  0  0  0  0  0  0  0  0
   -0.5858    0.8004    2.5118 O   0  0  0  0  0  0  0  0  0  0  0  0
   -2.7841    3.2553    2.0523 C   0  0  0  0  0  0  0  0  0  0  0  0
   -3.8047    1.7484    4.0260 H   0  0  0  0  0  0  0  0  0  0  0  0
   -3.5969    1.3201    1.5466 H   0  0  0  0  0  0  0  0  0  0  0  0
   -1.9850    3.6926    2.6620 H   0  0  0  0  0  0  0  0  0  0  0  0
   -2.6246    3.5776    1.0180 H   0  0  0  0  0  0  0  0  0  0  0  0
   -3.7342    3.6765    2.3981 H   0  0  0  0  0  0  0  0  0  0  0  0
   -1.3352    1.1101    0.3372 N   0  0  0  0  0  0  0  0  0  0  0  0
   -0.1579    0.6093   -0.3265 C   0  0  2  0  0  0  0  0  0  0  0  0
   -0.5303    0.3690   -1.7852 C   0  0  0  0  0  0  0  0  0  0  0  0
   -0.2482   -0.6655   -2.3861 O   0  0  0  0  0  0  0  0  0  0  0  0
    0.3600   -0.6849    0.3114 C   0  0  0  0  0  0  0  0  0  0  0  0
    0.8903   -0.4752    1.7088 C   0  0  0  0  0  0  0  0  0  0  0  0
    0.1933   -0.6964    2.8742 C   0  0  0  0  0  0  0  0  0  0  0  0
    2.1909   -0.0185    2.0621 C   0  0  0  0  0  0  0  0  0  0  0  0
    1.0187   -0.3917    3.9231 N   0  0  0  0  0  0  0  0  0  0  0  0
    2.2452    0.0249    3.4568 C   0  0  0  0  0  0  0  0  0  0  0  0
    3.3307    0.3632    1.3268 C   0  0  0  0  0  0  0  0  0  0  0  0
    3.3868    0.4327    4.1559 C   0  0  0  0  0  0  0  0  0  0  0  0
    4.4798    0.7733    2.0126 C   0  0  0  0  0  0  0  0  0  0  0  0
    4.5052    0.8067    3.4054 C   0  0  0  0  0  0  0  0  0  0  0  0
   -2.1183    1.4068   -0.2401 H   0  0  0  0  0  0  0  0  0  0  0  0
    0.5930    1.4065   -0.2744 H   0  0  0  0  0  0  0  0  0  0  0  0
    1.1418   -1.1324   -0.3171 H   0  0  0  0  0  0  0  0  0  0  0  0
   -0.4389   -1.4369    0.3561 H   0  0  0  0  0  0  0  0  0  0  0  0
   -0.8159   -1.0416    3.0521 H   0  0  0  0  0  0  0  0  0  0  0  0
    0.7651   -0.4623    4.8989 H   0  0  0  0  0  0  0  0  0  0  0  0
    3.3264    0.3436    0.2406 H   0  0  0  0  0  0  0  0  0  0  0  0
    3.4079    0.4579    5.2401 H   0  0  0  0  0  0  0  0  0  0  0  0
    5.3617    1.0694    1.4509 H   0  0  0  0  0  0  0  0  0  0  0  0
    5.4083    1.1284    3.9176 H   0  0  0  0  0  0  0  0  0  0  0  0
   -1.2567    1.4255   -2.3168 N   0  0  0  0  0  0  0  0  0  0  0  0
   -1.7541    1.4433   -3.6737 C   0  0  2  0  0  0  0  0  0  0  0  0
   -0.6006    1.0870   -4.6021 C   0  0  0  0  0  0  0  0  0  0  0  0
    0.5800    1.2262   -4.2892 O   0  0  0  0  0  0  0  0  0  0  0  0
   -2.3397    2.8007   -4.0306 C   0  0  0  0  0  0  0  0  0  0  0  0
   -1.4483    2.2265   -1.7223 H   0  0  0  0  0  0  0  0  0  0  0  0
   -2.5272    0.6699   -3.7373 H   0  0  0  0  0  0  0  0  0  0  0  0
   -1.5797    3.5885   -3.9724 H   0  0  0  0  0  0  0  0  0  0  0  0
   -2.7418    2.8039   -5.0490 H   0  0  0  0  0  0  0  0  0  0  0  0
   -3.1494    3.0687   -3.3433 H   0  0  0  0  0  0  0  0  0  0  0  0
   -1.0450    0.6358   -5.8371 N   0  0  0  0  0  0  0  0  0  0  0  0
   -0.1428    0.2471   -6.8958 C   0  0  0  0  0  0  0  0  0  0  0  0
   -2.0419    0.5341   -6.0027 H   0  0  0  0  0  0  0  0  0  0  0  0
    0.0520    1.1112   -7.5480 H   0  0  0  0  0  0  0  0  0  0  0  0
    0.8042   -0.1040   -6.4600 H   0  0  0  0  0  0  0  0  0  0  0  0
   -0.5973   -0.5624   -7.4859 H   0  0  0  0  0  0  0  0  0  0  0  0
 29 30  2  0  0  0  0
 27 29  1  0  0  0  0
 28 30  1  0  0  0  0
 24 27  2  0  0  0  0
 26 28  2  0  0  0  0
 22 23  2  0  0  0  0
 23 25  1  0  0  0  0
 22 24  1  0  0  0  0
 24 26  1  0  0  0  0
 21 22  1  0  0  0  0
 25 26  1  0  0  0  0
  1  3  1  0  0  0  0
  1  7  1  0  0  0  0
  1  2  2  0  0  0  0
 42 43  1  0  0  0  0
 43 51  1  0  0  0  0
 43 44  2  0  0  0  0
  8  9  1  0  0  0  0
  9 17  1  0  0  0  0
  9 10  2  0  0  0  0
 18 19  1  0  0  0  0
 19 41  1  0  0  0  0
 19 20  2  0  0  0  0
 42 45  1  0  0  0  0
  8 11  1  0  0  0  0
 51 52  1  0  0  0  0
 18 21  1  0  0  0  0
 41 42  1  0  0  0  0
  7  8  1  0  0  0  0
 17 18  1  0  0  0  0
 29 39  1  0  0  0  0
 30 40  1  0  0  0  0
 27 37  1  0  0  0  0
 28 38  1  0  0  0  0
 23 35  1  0  0  0  0
  3  4  1  0  0  0  0
  3  5  1  0  0  0  0
  3  6  1  0  0  0  0
 45 48  1  0  0  0  0
 45 49  1  0  0  0  0
 45 50  1  0  0  0  0
 11 14  1  0  0  0  0
 11 15  1  0  0  0  0
 11 16  1  0  0  0  0
 52 54  1  0  0  0  0
 52 55  1  0  0  0  0
 52 56  1  0  0  0  0
 21 33  1  0  0  0  0
 21 34  1  0  0  0  0
 42 47  1  0  0  0  0
  8 13  1  0  0  0  0
 18 32  1  0  0  0  0
 25 36  1  0  0  0  0
 51 53  1  0  0  0  0
  7 12  1  0  0  0  0
 41 46  1  0  0  0  0
 17 31  1  0  0  0  0
M  END
$$$$

  -OEChem-05262214473D

 56 57  0     1  0  0  0  0  0999 V2000
   -2.2900    0.3401    4.1553 C   0  0  0  0  0  0  0  0  0  0  0  0
   -1.3426   -0.2746    3.6796 O   0  0  0  0  0  0  0  0  0  0  0  0
   -2.7219    0.0577    5.5560 C   0  0  0  0  0  0  0  0  0  0  0  0
   -3.4815   -0.7386    5.6094 H   0  0  0  0  0  0  0  0  0  0  0  0
   -1.8906   -0.2899    6.1903 H   0  0  0  0  0  0  0  0  0  0  0  0
   -3.1599    0.9126    6.0956 H   0  0  0  0  0  0  0  0  0  0  0  0
   -3.0397    1.3125    3.5142 N   0  0  0  0  0  0  0  0  0  0  0  0
   -2.7928    1.7385    2.1618 C   0  0  2  0  0  0  0  0  0  0  0  0
   -1.4579    1.1532    1.7206 C   0  0  0  0  0  0  0  0  0  0  0  0
   -0.5858    0.8004    2.5118 O   0  0  0  0  0  0  0  0  0  0  0  0
   -2.7841    3.2553    2.0523 C   0  0  0  0  0  0  0  0  0  0  0  0
   -3.8047    1.7484    4.0260 H   0  0  0  0  0  0  0  0  0  0  0  0
   -3.5969    1.3201    1.5466 H   0  0  0  0  0  0  0  0  0  0  0  0
   -1.9850    3.6926    2.6620 H   0  0  0  0  0  0  0  0  0  0  0  0
   -2.6246    3.5776    1.0180 H   0  0  0  0  0  0  0  0  0  0  0  0
   -3.7342    3.6765    2.3981 H   0  0  0  0  0  0  0  0  0  0  0  0
   -1.3352    1.1101    0.3372 N   0  0  0  0  0  0  0  0  0  0  0  0
   -0.1579    0.6093   -0.3265 C   0  0  2  0  0  0  0  0  0  0  0  0
   -0.5303    0.3690   -1.7852 C   0  0  0  0  0  0  0  0  0  0  0  0
   -0.4951   -0.7417   -2.3105 O   0  0  0  0  0  0  0  0  0  0  0  0
    0.3600   -0.6849    0.3114 C   0  0  0  0  0  0  0  0  0  0  0  0
    0.8903   -0.4752    1.7088 C   0  0  0  0  0  0  0  0  0  0  0  0
    0.1933   -0.6964    2.8742 C   0  0  0  0  0  0  0  0  0  0  0  0
    2.1909   -0.0185    2.0621 C   0  0  0  0  0  0  0  0  0  0  0  0
    1.0187   -0.3917    3.9231 N   0  0  0  0  0  0  0  0  0  0  0  0
    2.2452    0.0249    3.4568 C   0  0  0  0  0  0  0  0  0  0  0  0
    3.3307    0.3632    1.3268 C   0  0  0  0  0  0  0  0  0  0  0  0
    3.3868    0.4327    4.1559 C   0  0  0  0  0  0  0  0  0  0  0  0
    4.4798    0.7733    2.0126 C   0  0  0  0  0  0  0  0  0  0  0  0
    4.5052    0.8067    3.4054 C   0  0  0  0  0  0  0  0  0  0  0  0
   -2.1183    1.4068   -0.2401 H   0  0  0  0  0  0  0  0  0  0  0  0
    0.5930    1.4065   -0.2744 H   0  0  0  0  0  0  0  0  0  0  0  0
    1.1418   -1.1324   -0.3171 H   0  0  0  0  0  0  0  0  0  0  0  0
   -0.4389   -1.4369    0.3561 H   0  0  0  0  0  0  0  0  0  0  0  0
   -0.8159   -1.0416    3.0521 H   0  0  0  0  0  0  0  0  0  0  0  0
    0.7651   -0.4623    4.8989 H   0  0  0  0  0  0  0  0  0  0  0  0
    3.3264    0.3436    0.2406 H   0  0  0  0  0  0  0  0  0  0  0  0
    3.4079    0.4579    5.2401 H   0  0  0  0  0  0  0  0  0  0  0  0
    5.3617    1.0694    1.4509 H   0  0  0  0  0  0  0  0  0  0  0  0
    5.4083    1.1284    3.9176 H   0  0  0  0  0  0  0  0  0  0  0  0
   -0.9529    1.5330   -2.4120 N   0  0  0  0  0  0  0  0  0  0  0  0
   -1.3854    1.5800   -3.7903 C   0  0  2  0  0  0  0  0  0  0  0  0
   -0.3271    0.8879   -4.6391 C   0  0  0  0  0  0  0  0  0  0  0  0
    0.8400    0.7531   -4.2776 O   0  0  0  0  0  0  0  0  0  0  0  0
   -1.6026    3.0121   -4.2535 C   0  0  0  0  0  0  0  0  0  0  0  0
   -0.9585    2.3952   -1.8751 H   0  0  0  0  0  0  0  0  0  0  0  0
   -2.3242    1.0183   -3.8465 H   0  0  0  0  0  0  0  0  0  0  0  0
   -0.6728    3.5905   -4.2043 H   0  0  0  0  0  0  0  0  0  0  0  0
   -1.9576    3.0447   -5.2889 H   0  0  0  0  0  0  0  0  0  0  0  0
   -2.3423    3.5176   -3.6233 H   0  0  0  0  0  0  0  0  0  0  0  0
   -0.8291    0.4767   -5.8660 N   0  0  0  0  0  0  0  0  0  0  0  0
   -0.0178   -0.1937   -6.8551 C   0  0  0  0  0  0  0  0  0  0  0  0
   -1.8140    0.6126   -6.0739 H   0  0  0  0  0  0  0  0  0  0  0  0
    0.4073    0.5492   -7.5461 H   0  0  0  0  0  0  0  0  0  0  0  0
    0.7971   -0.7366   -6.3540 H   0  0  0  0  0  0  0  0  0  0  0  0
   -0.6399   -0.9046   -7.4187 H   0  0  0  0  0  0  0  0  0  0  0  0
 29 30  2  0  0  0  0
 27 29  1  0  0  0  0
 28 30  1  0  0  0  0
 24 27  2  0  0  0  0
 26 28  2  0  0  0  0
 22 23  2  0  0  0  0
 23 25  1  0  0  0  0
 22 24  1  0  0  0  0
 24 26  1  0  0  0  0
 21 22  1  0  0  0  0
 25 26  1  0  0  0  0
  1  3  1  0  0  0  0
  1  7  1  0  0  0  0
  1  2  2  0  0  0  0
 42 43  1  0  0  0  0
 43 51  1  0  0  0  0
 43 44  2  0  0  0  0
  8  9  1  0  0  0  0
  9 17  1  0  0  0  0
  9 10  2  0  0  0  0
 18 19  1  0  0  0  0
 19 41  1  0  0  0  0
 19 20  2  0  0  0  0
 42 45  1  0  0  0  0
  8 11  1  0  0  0  0
 51 52  1  0  0  0  0
 18 21  1  0  0  0  0
 41 42  1  0  0  0  0
  7  8  1  0  0  0  0
 17 18  1  0  0  0  0
 29 39  1  0  0  0  0
 30 40  1  0  0  0  0
 27 37  1  0  0  0  0
 28 38  1  0  0  0  0
 23 35  1  0  0  0  0
  3  4  1  0  0  0  0
  3  5  1  0  0  0  0
  3  6  1  0  0  0  0
 45 48  1  0  0  0  0
 45 49  1  0  0  0  0
 45 50  1  0  0  0  0
 11 14  1  0  0  0  0
 11 15  1  0  0  0  0
 11 16  1  0  0  0  0
 52 54  1  0  0  0  0
 52 55  1  0  0  0  0
 52 56  1  0  0  0  0
 21 33  1  0  0  0  0
 21 34  1  0  0  0  0
 42 47  1  0  0  0  0
  8 13  1  0  0  0  0
 18 32  1  0  0  0  0
 25 36  1  0  0  0  0
 51 53  1  0  0  0  0
  7 12  1  0  0  0  0
 41 46  1  0  0  0  0
 17 31  1  0  0  0  0
M  END
$$$$

  -OEChem-05262214473D

 56 57  0     1  0  0  0  0  0999 V2000
   -2.2900    0.3401    4.1553 C   0  0  0  0  0  0  0  0  0  0  0  0
   -1.3426   -0.2746    3.6796 O   0  0  0  0  0  0  0  0  0  0  0  0
   -2.7219    0.0577    5.5560 C   0  0  0  0  0  0  0  0  0  0  0  0
   -3.4815   -0.7386    5.6094 H   0  0  0  0  0  0  0  0  0  0  0  0
   -1.8906   -0.2899    6.1903 H   0  0  0  0  0  0  0  0  0  0  0  0
   -3.1599    0.9126    6.0956 H   0  0  0  0  0  0  0  0  0  0  0  0
   -3.0397    1.3125    3.5142 N   0  0  0  0  0  0  0  0  0  0  0  0
   -2.7928    1.7385    2.1618 C   0  0  2  0  0  0  0  0  0  0  0  0
   -1.4579    1.1532    1.7206 C   0  0  0  0  0  0  0  0  0  0  0  0
   -0.5858    0.8004    2.5118 O   0  0  0  0  0  0  0  0  0  0  0  0
   -2.7841    3.2553    2.0523 C   0  0  0  0  0  0  0  0  0  0  0  0
   -3.8047    1.7484    4.0260 H   0  0  0  0  0  0  0  0  0  0  0  0
   -3.5969    1.3201    1.5466 H   0  0  0  0  0  0  0  0  0  0  0  0
   -1.9850    3.6926    2.6620 H   0  0  0  0  0  0  0  0  0  0  0  0
   -2.6246    3.5776    1.0180 H   0  0  0  0  0  0  0  0  0  0  0  0
   -3.7342    3.6765    2.3981 H   0  0  0  0  0  0  0  0  0  0  0  0
   -1.3352    1.1101    0.3372 N   0  0  0  0  0  0  0  0  0  0  0  0
   -0.1579    0.6093   -0.3265 C   0  0  2  0  0  0  0  0  0  0  0  0
   -0.5303    0.3690   -1.7852 C   0  0  0  0  0  0  0  0  0  0  0  0
   -0.7555   -0.7494   -2.2428 O   0  0  0  0  0  0  0  0  0  0  0  0
    0.3600   -0.6849    0.3114 C   0  0  0  0  0  0  0  0  0  0  0  0
    0.8903   -0.4752    1.7088 C   0  0  0  0  0  0  0  0  0  0  0  0
    0.1933   -0.6964    2.8742 C   0  0  0  0  0  0  0  0  0  0  0  0
    2.1909   -0.0185    2.0621 C   0  0  0  0  0  0  0  0  0  0  0  0
    1.0187   -0.3917    3.9231 N   0  0  0  0  0  0  0  0  0  0  0  0
    2.2452    0.0249    3.4568 C   0  0  0  0  0  0  0  0  0  0  0  0
    3.3307    0.3632    1.3268 C   0  0  0  0  0  0  0  0  0  0  0  0
    3.3868    0.4327    4.1559 C   0  0  0  0  0  0  0  0  0  0  0  0
    4.4798    0.7733    2.0126 C   0  0  0  0  0  0  0  0  0  0  0  0
    4.5052    0.8067    3.4054 C   0  0  0  0  0  0  0  0  0  0  0  0
   -2.1183    1.4068   -0.2401 H   0  0  0  0  0  0  0  0  0  0  0  0
    0.5930    1.4065   -0.2744 H   0  0  0  0  0  0  0  0  0  0  0  0
    1.1418   -1.1324   -0.3171 H   0  0  0  0  0  0  0  0  0  0  0  0
   -0.4389   -1.4369    0.3561 H   0  0  0  0  0  0  0  0  0  0  0  0
   -0.8159   -1.0416    3.0521 H   0  0  0  0  0  0  0  0  0  0  0  0
    0.7651   -0.4623    4.8989 H   0  0  0  0  0  0  0  0  0  0  0  0
    3.3264    0.3436    0.2406 H   0  0  0  0  0  0  0  0  0  0  0  0
    3.4079    0.4579    5.2401 H   0  0  0  0  0  0  0  0  0  0  0  0
    5.3617    1.0694    1.4509 H   0  0  0  0  0  0  0  0  0  0  0  0
    5.4083    1.1284    3.9176 H   0  0  0  0  0  0  0  0  0  0  0  0
   -0.6290    1.5556   -2.4985 N   0  0  0  0  0  0  0  0  0  0  0  0
   -0.9907    1.6133   -3.8965 C   0  0  2  0  0  0  0  0  0  0  0  0
   -0.1108    0.6255   -4.6511 C   0  0  0  0  0  0  0  0  0  0  0  0
    0.9735    0.2324   -4.2260 O   0  0  0  0  0  0  0  0  0  0  0  0
   -0.8292    3.0197   -4.4522 C   0  0  0  0  0  0  0  0  0  0  0  0
   -0.4374    2.4273   -2.0134 H   0  0  0  0  0  0  0  0  0  0  0  0
   -2.0374    1.2977   -3.9657 H   0  0  0  0  0  0  0  0  0  0  0  0
    0.2131    3.3532   -4.3914 H   0  0  0  0  0  0  0  0  0  0  0  0
   -1.1308    3.0679   -5.5038 H   0  0  0  0  0  0  0  0  0  0  0  0
   -1.4400    3.7337   -3.8893 H   0  0  0  0  0  0  0  0  0  0  0  0
   -0.6587    0.2678   -5.8750 N   0  0  0  0  0  0  0  0  0  0  0  0
   -0.0079   -0.6478   -6.7829 C   0  0  0  0  0  0  0  0  0  0  0  0
   -1.5714    0.6276   -6.1382 H   0  0  0  0  0  0  0  0  0  0  0  0
    0.6112   -0.0815   -7.4943 H   0  0  0  0  0  0  0  0  0  0  0  0
    0.6293   -1.3392   -6.2119 H   0  0  0  0  0  0  0  0  0  0  0  0
   -0.7685   -1.2204   -7.3338 H   0  0  0  0  0  0  0  0  0  0  0  0
 29 30  2  0  0  0  0
 27 29  1  0  0  0  0
 28 30  1  0  0  0  0
 24 27  2  0  0  0  0
 26 28  2  0  0  0  0
 22 23  2  0  0  0  0
 23 25  1  0  0  0  0
 22 24  1  0  0  0  0
 24 26  1  0  0  0  0
 21 22  1  0  0  0  0
 25 26  1  0  0  0  0
  1  3  1  0  0  0  0
  1  7  1  0  0  0  0
  1  2  2  0  0  0  0
 42 43  1  0  0  0  0
 43 51  1  0  0  0  0
 43 44  2  0  0  0  0
  8  9  1  0  0  0  0
  9 17  1  0  0  0  0
  9 10  2  0  0  0  0
 18 19  1  0  0  0  0
 19 41  1  0  0  0  0
 19 20  2  0  0  0  0
 42 45  1  0  0  0  0
  8 11  1  0  0  0  0
 51 52  1  0  0  0  0
 18 21  1  0  0  0  0
 41 42  1  0  0  0  0
  7  8  1  0  0  0  0
 17 18  1  0  0  0  0
 29 39  1  0  0  0  0
 30 40  1  0  0  0  0
 27 37  1  0  0  0  0
 28 38  1  0  0  0  0
 23 35  1  0  0  0  0
  3  4  1  0  0  0  0
  3  5  1  0  0  0  0
  3  6  1  0  0  0  0
 45 48  1  0  0  0  0
 45 49  1  0  0  0  0
 45 50  1  0  0  0  0
 11 14  1  0  0  0  0
 11 15  1  0  0  0  0
 11 16  1  0  0  0  0
 52 54  1  0  0  0  0
 52 55  1  0  0  0  0
 52 56  1  0  0  0  0
 21 33  1  0  0  0  0
 21 34  1  0  0  0  0
 42 47  1  0  0  0  0
  8 13  1  0  0  0  0
 18 32  1  0  0  0  0
 25 36  1  0  0  0  0
 51 53  1  0  0  0  0
  7 12  1  0  0  0  0
 41 46  1  0  0  0  0
 17 31  1  0  0  0  0
M  END
$$$$

  -OEChem-05262214473D

 56 57  0     1  0  0  0  0  0999 V2000
   -2.2900    0.3401    4.1553 C   0  0  0  0  0  0  0  0  0  0  0  0
   -1.3426   -0.2746    3.6796 O   0  0  0  0  0  0  0  0  0  0  0  0
   -2.7219    0.0577    5.5560 C   0  0  0  0  0  0  0  0  0  0  0  0
   -3.4815   -0.7386    5.6094 H   0  0  0  0  0  0  0  0  0  0  0  0
   -1.8906   -0.2899    6.1903 H   0  0  0  0  0  0  0  0  0  0  0  0
   -3.1599    0.9126    6.0956 H   0  0  0  0  0  0  0  0  0  0  0  0
   -3.0397    1.3125    3.5142 N   0  0  0  0  0  0  0  0  0  0  0  0
   -2.7928    1.7385    2.1618 C   0  0  2  0  0  0  0  0  0  0  0  0
   -1.4579    1.1532    1.7206 C   0  0  0  0  0  0  0  0  0  0  0  0
   -0.5858    0.8004    2.5118 O   0  0  0  0  0  0  0  0  0  0  0  0
   -2.7841    3.2553    2.0523 C   0  0  0  0  0  0  0  0  0  0  0  0
   -3.8047    1.7484    4.0260 H   0  0  0  0  0  0  0  0  0  0  0  0
   -3.5969    1.3201    1.5466 H   0  0  0  0  0  0  0  0  0  0  0  0
   -1.9850    3.6926    2.6620 H   0  0  0  0  0  0  0  0  0  0  0  0
   -2.6246    3.5776    1.0180 H   0  0  0  0  0  0  0  0  0  0  0  0
   -3.7342    3.6765    2.3981 H   0  0  0  0  0  0  0  0  0  0  0  0
   -1.3352    1.1101    0.3372 N   0  0  0  0  0  0  0  0  0  0  0  0
   -0.1579    0.6093   -0.3265 C   0  0  2  0  0  0  0  0  0  0  0  0
   -0.5303    0.3690   -1.7852 C   0  0  0  0  0  0  0  0  0  0  0  0
   -1.0117   -0.6880   -2.1875 O   0  0  0  0  0  0  0  0  0  0  0  0
    0.3600   -0.6849    0.3114 C   0  0  0  0  0  0  0  0  0  0  0  0
    0.8903   -0.4752    1.7088 C   0  0  0  0  0  0  0  0  0  0  0  0
    0.1933   -0.6964    2.8742 C   0  0  0  0  0  0  0  0  0  0  0  0
    2.1909   -0.0185    2.0621 C   0  0  0  0  0  0  0  0  0  0  0  0
    1.0187   -0.3917    3.9231 N   0  0  0  0  0  0  0  0  0  0  0  0
    2.2452    0.0249    3.4568 C   0  0  0  0  0  0  0  0  0  0  0  0
    3.3307    0.3632    1.3268 C   0  0  0  0  0  0  0  0  0  0  0  0
    3.3868    0.4327    4.1559 C   0  0  0  0  0  0  0  0  0  0  0  0
    4.4798    0.7733    2.0126 C   0  0  0  0  0  0  0  0  0  0  0  0
    4.5052    0.8067    3.4054 C   0  0  0  0  0  0  0  0  0  0  0  0
   -2.1183    1.4068   -0.2401 H   0  0  0  0  0  0  0  0  0  0  0  0
    0.5930    1.4065   -0.2744 H   0  0  0  0  0  0  0  0  0  0  0  0
    1.1418   -1.1324   -0.3171 H   0  0  0  0  0  0  0  0  0  0  0  0
   -0.4389   -1.4369    0.3561 H   0  0  0  0  0  0  0  0  0  0  0  0
   -0.8159   -1.0416    3.0521 H   0  0  0  0  0  0  0  0  0  0  0  0
    0.7651   -0.4623    4.8989 H   0  0  0  0  0  0  0  0  0  0  0  0
    3.3264    0.3436    0.2406 H   0  0  0  0  0  0  0  0  0  0  0  0
    3.4079    0.4579    5.2401 H   0  0  0  0  0  0  0  0  0  0  0  0
    5.3617    1.0694    1.4509 H   0  0  0  0  0  0  0  0  0  0  0  0
    5.4083    1.1284    3.9176 H   0  0  0  0  0  0  0  0  0  0  0  0
   -0.3070    1.4917   -2.5701 N   0  0  0  0  0  0  0  0  0  0  0  0
   -0.5969    1.5411   -3.9852 C   0  0  2  0  0  0  0  0  0  0  0  0
    0.0337    0.3177   -4.6373 C   0  0  0  0  0  0  0  0  0  0  0  0
    0.9715   -0.3003   -4.1377 O   0  0  0  0  0  0  0  0  0  0  0  0
   -0.0722    2.8229   -4.6131 C   0  0  0  0  0  0  0  0  0  0  0  0
    0.0795    2.3204   -2.1278 H   0  0  0  0  0  0  0  0  0  0  0  0
   -1.6864    1.4891   -4.0869 H   0  0  0  0  0  0  0  0  0  0  0  0
    1.0178    2.8927   -4.5209 H   0  0  0  0  0  0  0  0  0  0  0  0
   -0.3176    2.8719   -5.6791 H   0  0  0  0  0  0  0  0  0  0  0  0
   -0.5042    3.7022   -4.1230 H   0  0  0  0  0  0  0  0  0  0  0  0
   -0.5455    0.0232   -5.8636 N   0  0  0  0  0  0  0  0  0  0  0  0
   -0.1137   -1.0843   -6.6840 C   0  0  0  0  0  0  0  0  0  0  0  0
   -1.3308    0.5779   -6.1915 H   0  0  0  0  0  0  0  0  0  0  0  0
    0.6499   -0.7380   -7.3960 H   0  0  0  0  0  0  0  0  0  0  0  0
    0.3122   -1.8707   -6.0434 H   0  0  0  0  0  0  0  0  0  0  0  0
   -0.9744   -1.4882   -7.2371 H   0  0  0  0  0  0  0  0  0  0  0  0
 29 30  2  0  0  0  0
 27 29  1  0  0  0  0
 28 30  1  0  0  0  0
 24 27  2  0  0  0  0
 26 28  2  0  0  0  0
 22 23  2  0  0  0  0
 23 25  1  0  0  0  0
 22 24  1  0  0  0  0
 24 26  1  0  0  0  0
 21 22  1  0  0  0  0
 25 26  1  0  0  0  0
  1  3  1  0  0  0  0
  1  7  1  0  0  0  0
  1  2  2  0  0  0  0
 42 43  1  0  0  0  0
 43 51  1  0  0  0  0
 43 44  2  0  0  0  0
  8  9  1  0  0  0  0
  9 17  1  0  0  0  0
  9 10  2  0  0  0  0
 18 19  1  0  0  0  0
 19 41  1  0  0  0  0
 19 20  2  0  0  0  0
 42 45  1  0  0  0  0
  8 11  1  0  0  0  0
 51 52  1  0  0  0  0
 18 21  1  0  0  0  0
 41 42  1  0  0  0  0
  7  8  1  0  0  0  0
 17 18  1  0  0  0  0
 29 39  1  0  0  0  0
 30 40  1  0  0  0  0
 27 37  1  0  0  0  0
 28 38  1  0  0  0  0
 23 35  1  0  0  0  0
  3  4  1  0  0  0  0
  3  5  1  0  0  0  0
  3  6  1  0  0  0  0
 45 48  1  0  0  0  0
 45 49  1  0  0  0  0
 45 50  1  0  0  0  0
 11 14  1  0  0  0  0
 11 15  1  0  0  0  0
 11 16  1  0  0  0  0
 52 54  1  0  0  0  0
 52 55  1  0  0  0  0
 52 56  1  0  0  0  0
 21 33  1  0  0  0  0
 21 34  1  0  0  0  0
 42 47  1  0  0  0  0
  8 13  1  0  0  0  0
 18 32  1  0  0  0  0
 25 36  1  0  0  0  0
 51 53  1  0  0  0  0
  7 12  1  0  0  0  0
 41 46  1  0  0  0  0
 17 31  1  0  0  0  0
M  END
$$$$

  -OEChem-05262214473D

 56 57  0     1  0  0  0  0  0999 V2000
   -2.2900    0.3401    4.1553 C   0  0  0  0  0  0  0  0  0  0  0  0
   -1.3426   -0.2746    3.6796 O   0  0  0  0  0  0  0  0  0  0  0  0
   -2.7219    0.0577    5.5560 C   0  0  0  0  0  0  0  0  0  0  0  0
   -3.4815   -0.7386    5.6094 H   0  0  0  0  0  0  0  0  0  0  0  0
   -1.8906   -0.2899    6.1903 H   0  0  0  0  0  0  0  0  0  0  0  0
   -3.1599    0.9126    6.0956 H   0  0  0  0  0  0  0  0  0  0  0  0
   -3.0397    1.3125    3.5142 N   0  0  0  0  0  0  0  0  0  0  0  0
   -2.7928    1.7385    2.1618 C   0  0  2  0  0  0  0  0  0  0  0  0
   -1.4579    1.1532    1.7206 C   0  0  0  0  0  0  0  0  0  0  0  0
   -0.5858    0.8004    2.5118 O   0  0  0  0  0  0  0  0  0  0  0  0
   -2.7841    3.2553    2.0523 C   0  0  0  0  0  0  0  0  0  0  0  0
   -3.8047    1.7484    4.0260 H   0  0  0  0  0  0  0  0  0  0  0  0
   -3.5969    1.3201    1.5466 H   0  0  0  0  0  0  0  0  0  0  0  0
   -1.9850    3.6926    2.6620 H   0  0  0  0  0  0  0  0  0  0  0  0
   -2.6246    3.5776    1.0180 H   0  0  0  0  0  0  0  0  0  0  0  0
   -3.7342    3.6765    2.3981 H   0  0  0  0  0  0  0  0  0  0  0  0
   -1.3352    1.1101    0.3372 N   0  0  0  0  0  0  0  0  0  0  0  0
   -0.1579    0.6093   -0.3265 C   0  0  2  0  0  0  0  0  0  0  0  0
   -0.5303    0.3690   -1.7852 C   0  0  0  0  0  0  0  0  0  0  0  0
   -1.2462   -0.5618   -2.1484 O   0  0  0  0  0  0  0  0  0  0  0  0
    0.3600   -0.6849    0.3114 C   0  0  0  0  0  0  0  0  0  0  0  0
    0.8903   -0.4752    1.7088 C   0  0  0  0  0  0  0  0  0  0  0  0
    0.1933   -0.6964    2.8742 C   0  0  0  0  0  0  0  0  0  0  0  0
    2.1909   -0.0185    2.0621 C   0  0  0  0  0  0  0  0  0  0  0  0
    1.0187   -0.3917    3.9231 N   0  0  0  0  0  0  0  0  0  0  0  0
    2.2452    0.0249    3.4568 C   0  0  0  0  0  0  0  0  0  0  0  0
    3.3307    0.3632    1.3268 C   0  0  0  0  0  0  0  0  0  0  0  0
    3.3868    0.4327    4.1559 C   0  0  0  0  0  0  0  0  0  0  0  0
    4.4798    0.7733    2.0126 C   0  0  0  0  0  0  0  0  0  0  0  0
    4.5052    0.8067    3.4054 C   0  0  0  0  0  0  0  0  0  0  0  0
   -2.1183    1.4068   -0.2401 H   0  0  0  0  0  0  0  0  0  0  0  0
    0.5930    1.4065   -0.2744 H   0  0  0  0  0  0  0  0  0  0  0  0
    1.1418   -1.1324   -0.3171 H   0  0  0  0  0  0  0  0  0  0  0  0
   -0.4389   -1.4369    0.3561 H   0  0  0  0  0  0  0  0  0  0  0  0
   -0.8159   -1.0416    3.0521 H   0  0  0  0  0  0  0  0  0  0  0  0
    0.7651   -0.4623    4.8989 H   0  0  0  0  0  0  0  0  0  0  0  0
    3.3264    0.3436    0.2406 H   0  0  0  0  0  0  0  0  0  0  0  0
    3.4079    0.4579    5.2401 H   0  0  0  0  0  0  0  0  0  0  0  0
    5.3617    1.0694    1.4509 H   0  0  0  0  0  0  0  0  0  0  0  0
    5.4083    1.1284    3.9176 H   0  0  0  0  0  0  0  0  0  0  0  0
   -0.0089    1.3458   -2.6222 N   0  0  0  0  0  0  0  0  0  0  0  0
   -0.2307    1.3681   -4.0502 C   0  0  2  0  0  0  0  0  0  0  0  0
    0.0965   -0.0145   -4.5986 C   0  0  0  0  0  0  0  0  0  0  0  0
    0.8339   -0.8088   -4.0188 O   0  0  0  0  0  0  0  0  0  0  0  0
    0.6169    2.4352   -4.7251 C   0  0  0  0  0  0  0  0  0  0  0  0
    0.5570    2.0819   -2.2104 H   0  0  0  0  0  0  0  0  0  0  0  0
   -1.2949    1.5793   -4.2017 H   0  0  0  0  0  0  0  0  0  0  0  0
    1.6863    2.2405   -4.5842 H   0  0  0  0  0  0  0  0  0  0  0  0
    0.4265    2.4701   -5.8029 H   0  0  0  0  0  0  0  0  0  0  0  0
    0.4016    3.4252   -4.3086 H   0  0  0  0  0  0  0  0  0  0  0  0
   -0.4973   -0.2404   -5.8326 N   0  0  0  0  0  0  0  0  0  0  0  0
   -0.3280   -1.4735   -6.5651 C   0  0  0  0  0  0  0  0  0  0  0  0
   -1.1085    0.4669   -6.2300 H   0  0  0  0  0  0  0  0  0  0  0  0
    0.5207   -1.3755   -7.2580 H   0  0  0  0  0  0  0  0  0  0  0  0
   -0.1325   -2.2949   -5.8600 H   0  0  0  0  0  0  0  0  0  0  0  0
   -1.2436   -1.6898   -7.1352 H   0  0  0  0  0  0  0  0  0  0  0  0
 29 30  2  0  0  0  0
 27 29  1  0  0  0  0
 28 30  1  0  0  0  0
 24 27  2  0  0  0  0
 26 28  2  0  0  0  0
 22 23  2  0  0  0  0
 23 25  1  0  0  0  0
 22 24  1  0  0  0  0
 24 26  1  0  0  0  0
 21 22  1  0  0  0  0
 25 26  1  0  0  0  0
  1  3  1  0  0  0  0
  1  7  1  0  0  0  0
  1  2  2  0  0  0  0
 42 43  1  0  0  0  0
 43 51  1  0  0  0  0
 43 44  2  0  0  0  0
  8  9  1  0  0  0  0
  9 17  1  0  0  0  0
  9 10  2  0  0  0  0
 18 19  1  0  0  0  0
 19 41  1  0  0  0  0
 19 20  2  0  0  0  0
 42 45  1  0  0  0  0
  8 11  1  0  0  0  0
 51 52  1  0  0  0  0
 18 21  1  0  0  0  0
 41 42  1  0  0  0  0
  7  8  1  0  0  0  0
 17 18  1  0  0  0  0
 29 39  1  0  0  0  0
 30 40  1  0  0  0  0
 27 37  1  0  0  0  0
 28 38  1  0  0  0  0
 23 35  1  0  0  0  0
  3  4  1  0  0  0  0
  3  5  1  0  0  0  0
  3  6  1  0  0  0  0
 45 48  1  0  0  0  0
 45 49  1  0  0  0  0
 45 50  1  0  0  0  0
 11 14  1  0  0  0  0
 11 15  1  0  0  0  0
 11 16  1  0  0  0  0
 52 54  1  0  0  0  0
 52 55  1  0  0  0  0
 52 56  1  0  0  0  0
 21 33  1  0  0  0  0
 21 34  1  0  0  0  0
 42 47  1  0  0  0  0
  8 13  1  0  0  0  0
 18 32  1  0  0  0  0
 25 36  1  0  0  0  0
 51 53  1  0  0  0  0
  7 12  1  0  0  0  0
 41 46  1  0  0  0  0
 17 31  1  0  0  0  0
M  END
$$$$

  -OEChem-05262214473D

 56 57  0     1  0  0  0  0  0999 V2000
   -2.2900    0.3401    4.1553 C   0  0  0  0  0  0  0  0  0  0  0  0
   -1.3426   -0.2746    3.6796 O   0  0  0  0  0  0  0  0  0  0  0  0
   -2.7219    0.0577    5.5560 C   0  0  0  0  0  0  0  0  0  0  0  0
   -3.4815   -0.7386    5.6094 H   0  0  0  0  0  0  0  0  0  0  0  0
   -1.8906   -0.2899    6.1903 H   0  0  0  0  0  0  0  0  0  0  0  0
   -3.1599    0.9126    6.0956 H   0  0  0  0  0  0  0  0  0  0  0  0
   -3.0397    1.3125    3.5142 N   0  0  0  0  0  0  0  0  0  0  0  0
   -2.7928    1.7385    2.1618 C   0  0  2  0  0  0  0  0  0  0  0  0
   -1.4579    1.1532    1.7206 C   0  0  0  0  0  0  0  0  0  0  0  0
   -0.5858    0.8004    2.5118 O   0  0  0  0  0  0  0  0  0  0  0  0
   -2.7841    3.2553    2.0523 C   0  0  0  0  0  0  0  0  0  0  0  0
   -3.8047    1.7484    4.0260 H   0  0  0  0  0  0  0  0  0  0  0  0
   -3.5969    1.3201    1.5466 H   0  0  0  0  0  0  0  0  0  0  0  0
   -1.9850    3.6926    2.6620 H   0  0  0  0  0  0  0  0  0  0  0  0
   -2.6246    3.5776    1.0180 H   0  0  0  0  0  0  0  0  0  0  0  0
   -3.7342    3.6765    2.3981 H   0  0  0  0  0  0  0  0  0  0  0  0
   -1.3352    1.1101    0.3372 N   0  0  0  0  0  0  0  0  0  0  0  0
   -0.1579    0.6093   -0.3265 C   0  0  2  0  0  0  0  0  0  0  0  0
   -0.5303    0.3690   -1.7852 C   0  0  0  0  0  0  0  0  0  0  0  0
   -1.4431   -0.3794   -2.1282 O   0  0  0  0  0  0  0  0  0  0  0  0
    0.3600   -0.6849    0.3114 C   0  0  0  0  0  0  0  0  0  0  0  0
    0.8903   -0.4752    1.7088 C   0  0  0  0  0  0  0  0  0  0  0  0
    0.1933   -0.6964    2.8742 C   0  0  0  0  0  0  0  0  0  0  0  0
    2.1909   -0.0185    2.0621 C   0  0  0  0  0  0  0  0  0  0  0  0
    1.0187   -0.3917    3.9231 N   0  0  0  0  0  0  0  0  0  0  0  0
    2.2452    0.0249    3.4568 C   0  0  0  0  0  0  0  0  0  0  0  0
    3.3307    0.3632    1.3268 C   0  0  0  0  0  0  0  0  0  0  0  0
    3.3868    0.4327    4.1559 C   0  0  0  0  0  0  0  0  0  0  0  0
    4.4798    0.7733    2.0126 C   0  0  0  0  0  0  0  0  0  0  0  0
    4.5052    0.8067    3.4054 C   0  0  0  0  0  0  0  0  0  0  0  0
   -2.1183    1.4068   -0.2401 H   0  0  0  0  0  0  0  0  0  0  0  0
    0.5930    1.4065   -0.2744 H   0  0  0  0  0  0  0  0  0  0  0  0
    1.1418   -1.1324   -0.3171 H   0  0  0  0  0  0  0  0  0  0  0  0
   -0.4389   -1.4369    0.3561 H   0  0  0  0  0  0  0  0  0  0  0  0
   -0.8159   -1.0416    3.0521 H   0  0  0  0  0  0  0  0  0  0  0  0
    0.7651   -0.4623    4.8989 H   0  0  0  0  0  0  0  0  0  0  0  0
    3.3264    0.3436    0.2406 H   0  0  0  0  0  0  0  0  0  0  0  0
    3.4079    0.4579    5.2401 H   0  0  0  0  0  0  0  0  0  0  0  0
    5.3617    1.0694    1.4509 H   0  0  0  0  0  0  0  0  0  0  0  0
    5.4083    1.1284    3.9176 H   0  0  0  0  0  0  0  0  0  0  0  0
    0.2450    1.1277   -2.6511 N   0  0  0  0  0  0  0  0  0  0  0  0
    0.0828    1.1063   -4.0871 C   0  0  2  0  0  0  0  0  0  0  0  0
    0.0733   -0.3484   -4.5377 C   0  0  0  0  0  0  0  0  0  0  0  0
    0.5703   -1.2584   -3.8774 O   0  0  0  0  0  0  0  0  0  0  0  0
    1.1910    1.8830   -4.7808 C   0  0  0  0  0  0  0  0  0  0  0  0
    0.9626    1.7281   -2.2557 H   0  0  0  0  0  0  0  0  0  0  0  0
   -0.8898    1.5622   -4.3023 H   0  0  0  0  0  0  0  0  0  0  0  0
    2.1731    1.4410   -4.5767 H   0  0  0  0  0  0  0  0  0  0  0  0
    1.0509    1.8900   -5.8667 H   0  0  0  0  0  0  0  0  0  0  0  0
    1.2154    2.9216   -4.4334 H   0  0  0  0  0  0  0  0  0  0  0  0
   -0.5172   -0.5049   -5.7839 N   0  0  0  0  0  0  0  0  0  0  0  0
   -0.6363   -1.7889   -6.4345 C   0  0  0  0  0  0  0  0  0  0  0  0
   -0.9197    0.3022   -6.2510 H   0  0  0  0  0  0  0  0  0  0  0  0
    0.2323   -1.9505   -7.0897 H   0  0  0  0  0  0  0  0  0  0  0  0
   -0.6747   -2.5829   -5.6742 H   0  0  0  0  0  0  0  0  0  0  0  0
   -1.5576   -1.8114   -7.0350 H   0  0  0  0  0  0  0  0  0  0  0  0
 29 30  2  0  0  0  0
 27 29  1  0  0  0  0
 28 30  1  0  0  0  0
 24 27  2  0  0  0  0
 26 28  2  0  0  0  0
 22 23  2  0  0  0  0
 23 25  1  0  0  0  0
 22 24  1  0  0  0  0
 24 26  1  0  0  0  0
 21 22  1  0  0  0  0
 25 26  1  0  0  0  0
  1  3  1  0  0  0  0
  1  7  1  0  0  0  0
  1  2  2  0  0  0  0
 42 43  1  0  0  0  0
 43 51  1  0  0  0  0
 43 44  2  0  0  0  0
  8  9  1  0  0  0  0
  9 17  1  0  0  0  0
  9 10  2  0  0  0  0
 18 19  1  0  0  0  0
 19 41  1  0  0  0  0
 19 20  2  0  0  0  0
 42 45  1  0  0  0  0
  8 11  1  0  0  0  0
 51 52  1  0  0  0  0
 18 21  1  0  0  0  0
 41 42  1  0  0  0  0
  7  8  1  0  0  0  0
 17 18  1  0  0  0  0
 29 39  1  0  0  0  0
 30 40  1  0  0  0  0
 27 37  1  0  0  0  0
 28 38  1  0  0  0  0
 23 35  1  0  0  0  0
  3  4  1  0  0  0  0
  3  5  1  0  0  0  0
  3  6  1  0  0  0  0
 45 48  1  0  0  0  0
 45 49  1  0  0  0  0
 45 50  1  0  0  0  0
 11 14  1  0  0  0  0
 11 15  1  0  0  0  0
 11 16  1  0  0  0  0
 52 54  1  0  0  0  0
 52 55  1  0  0  0  0
 52 56  1  0  0  0  0
 21 33  1  0  0  0  0
 21 34  1  0  0  0  0
 42 47  1  0  0  0  0
  8 13  1  0  0  0  0
 18 32  1  0  0  0  0
 25 36  1  0  0  0  0
 51 53  1  0  0  0  0
  7 12  1  0  0  0  0
 41 46  1  0  0  0  0
 17 31  1  0  0  0  0
M  END
$$$$

  -OEChem-05262214473D

 56 57  0     1  0  0  0  0  0999 V2000
   -2.2900    0.3401    4.1553 C   0  0  0  0  0  0  0  0  0  0  0  0
   -1.3426   -0.2746    3.6796 O   0  0  0  0  0  0  0  0  0  0  0  0
   -2.7219    0.0577    5.5560 C   0  0  0  0  0  0  0  0  0  0  0  0
   -3.4815   -0.7386    5.6094 H   0  0  0  0  0  0  0  0  0  0  0  0
   -1.8906   -0.2899    6.1903 H   0  0  0  0  0  0  0  0  0  0  0  0
   -3.1599    0.9126    6.0956 H   0  0  0  0  0  0  0  0  0  0  0  0
   -3.0397    1.3125    3.5142 N   0  0  0  0  0  0  0  0  0  0  0  0
   -2.7928    1.7385    2.1618 C   0  0  2  0  0  0  0  0  0  0  0  0
   -1.4579    1.1532    1.7206 C   0  0  0  0  0  0  0  0  0  0  0  0
   -0.5858    0.8004    2.5118 O   0  0  0  0  0  0  0  0  0  0  0  0
   -2.7841    3.2553    2.0523 C   0  0  0  0  0  0  0  0  0  0  0  0
   -3.8047    1.7484    4.0260 H   0  0  0  0  0  0  0  0  0  0  0  0
   -3.5969    1.3201    1.5466 H   0  0  0  0  0  0  0  0  0  0  0  0
   -1.9850    3.6926    2.6620 H   0  0  0  0  0  0  0  0  0  0  0  0
   -2.6246    3.5776    1.0180 H   0  0  0  0  0  0  0  0  0  0  0  0
   -3.7342    3.6765    2.3981 H   0  0  0  0  0  0  0  0  0  0  0  0
   -1.3352    1.1101    0.3372 N   0  0  0  0  0  0  0  0  0  0  0  0
   -0.1579    0.6093   -0.3265 C   0  0  2  0  0  0  0  0  0  0  0  0
   -0.5303    0.3690   -1.7852 C   0  0  0  0  0  0  0  0  0  0  0  0
   -1.5889   -0.1531   -2.1282 O   0  0  0  0  0  0  0  0  0  0  0  0
    0.3600   -0.6849    0.3114 C   0  0  0  0  0  0  0  0  0  0  0  0
    0.8903   -0.4752    1.7088 C   0  0  0  0  0  0  0  0  0  0  0  0
    0.1933   -0.6964    2.8742 C   0  0  0  0  0  0  0  0  0  0  0  0
    2.1909   -0.0185    2.0621 C   0  0  0  0  0  0  0  0  0  0  0  0
    1.0187   -0.3917    3.9231 N   0  0  0  0  0  0  0  0  0  0  0  0
    2.2452    0.0249    3.4568 C   0  0  0  0  0  0  0  0  0  0  0  0
    3.3307    0.3632    1.3268 C   0  0  0  0  0  0  0  0  0  0  0  0
    3.3868    0.4327    4.1559 C   0  0  0  0  0  0  0  0  0  0  0  0
    4.4798    0.7733    2.0126 C   0  0  0  0  0  0  0  0  0  0  0  0
    4.5052    0.8067    3.4054 C   0  0  0  0  0  0  0  0  0  0  0  0
   -2.1183    1.4068   -0.2401 H   0  0  0  0  0  0  0  0  0  0  0  0
    0.5930    1.4065   -0.2744 H   0  0  0  0  0  0  0  0  0  0  0  0
    1.1418   -1.1324   -0.3171 H   0  0  0  0  0  0  0  0  0  0  0  0
   -0.4389   -1.4369    0.3561 H   0  0  0  0  0  0  0  0  0  0  0  0
   -0.8159   -1.0416    3.0521 H   0  0  0  0  0  0  0  0  0  0  0  0
    0.7651   -0.4623    4.8989 H   0  0  0  0  0  0  0  0  0  0  0  0
    3.3264    0.3436    0.2406 H   0  0  0  0  0  0  0  0  0  0  0  0
    3.4079    0.4579    5.2401 H   0  0  0  0  0  0  0  0  0  0  0  0
    5.3617    1.0694    1.4509 H   0  0  0  0  0  0  0  0  0  0  0  0
    5.4083    1.1284    3.9176 H   0  0  0  0  0  0  0  0  0  0  0  0
    0.4375    0.8523   -2.6549 N   0  0  0  0  0  0  0  0  0  0  0  0
    0.3222    0.7735   -4.0934 C   0  0  2  0  0  0  0  0  0  0  0  0
   -0.0343   -0.6614   -4.4587 C   0  0  0  0  0  0  0  0  0  0  0  0
    0.1986   -1.6185   -3.7232 O   0  0  0  0  0  0  0  0  0  0  0  0
    1.6111    1.2039   -4.7761 C   0  0  0  0  0  0  0  0  0  0  0  0
    1.2685    1.2831   -2.2605 H   0  0  0  0  0  0  0  0  0  0  0  0
   -0.4986    1.4391   -4.3819 H   0  0  0  0  0  0  0  0  0  0  0  0
    2.4450    0.5486   -4.4992 H   0  0  0  0  0  0  0  0  0  0  0  0
    1.5128    1.1709   -5.8662 H   0  0  0  0  0  0  0  0  0  0  0  0
    1.8818    2.2257   -4.4889 H   0  0  0  0  0  0  0  0  0  0  0  0
   -0.6039   -0.7525   -5.7210 N   0  0  0  0  0  0  0  0  0  0  0  0
   -1.0175   -2.0089   -6.3009 C   0  0  0  0  0  0  0  0  0  0  0  0
   -0.7772    0.0951   -6.2533 H   0  0  0  0  0  0  0  0  0  0  0  0
   -0.1954   -2.4239   -6.9025 H   0  0  0  0  0  0  0  0  0  0  0  0
   -1.2773   -2.7151   -5.4985 H   0  0  0  0  0  0  0  0  0  0  0  0
   -1.8952   -1.8448   -6.9433 H   0  0  0  0  0  0  0  0  0  0  0  0
 29 30  2  0  0  0  0
 27 29  1  0  0  0  0
 28 30  1  0  0  0  0
 24 27  2  0  0  0  0
 26 28  2  0  0  0  0
 22 23  2  0  0  0  0
 23 25  1  0  0  0  0
 22 24  1  0  0  0  0
 24 26  1  0  0  0  0
 21 22  1  0  0  0  0
 25 26  1  0  0  0  0
  1  3  1  0  0  0  0
  1  7  1  0  0  0  0
  1  2  2  0  0  0  0
 42 43  1  0  0  0  0
 43 51  1  0  0  0  0
 43 44  2  0  0  0  0
  8  9  1  0  0  0  0
  9 17  1  0  0  0  0
  9 10  2  0  0  0  0
 18 19  1  0  0  0  0
 19 41  1  0  0  0  0
 19 20  2  0  0  0  0
 42 45  1  0  0  0  0
  8 11  1  0  0  0  0
 51 52  1  0  0  0  0
 18 21  1  0  0  0  0
 41 42  1  0  0  0  0
  7  8  1  0  0  0  0
 17 18  1  0  0  0  0
 29 39  1  0  0  0  0
 30 40  1  0  0  0  0
 27 37  1  0  0  0  0
 28 38  1  0  0  0  0
 23 35  1  0  0  0  0
  3  4  1  0  0  0  0
  3  5  1  0  0  0  0
  3  6  1  0  0  0  0
 45 48  1  0  0  0  0
 45 49  1  0  0  0  0
 45 50  1  0  0  0  0
 11 14  1  0  0  0  0
 11 15  1  0  0  0  0
 11 16  1  0  0  0  0
 52 54  1  0  0  0  0
 52 55  1  0  0  0  0
 52 56  1  0  0  0  0
 21 33  1  0  0  0  0
 21 34  1  0  0  0  0
 42 47  1  0  0  0  0
  8 13  1  0  0  0  0
 18 32  1  0  0  0  0
 25 36  1  0  0  0  0
 51 53  1  0  0  0  0
  7 12  1  0  0  0  0
 41 46  1  0  0  0  0
 17 31  1  0  0  0  0
M  END
$$$$

  -OEChem-05262214473D

 56 57  0     1  0  0  0  0  0999 V2000
   -2.2900    0.3401    4.1553 C   0  0  0  0  0  0  0  0  0  0  0  0
   -1.3426   -0.2746    3.6796 O   0  0  0  0  0  0  0  0  0  0  0  0
   -2.7219    0.0577    5.5560 C   0  0  0  0  0  0  0  0  0  0  0  0
   -3.4815   -0.7386    5.6094 H   0  0  0  0  0  0  0  0  0  0  0  0
   -1.8906   -0.2899    6.1903 H   0  0  0  0  0  0  0  0  0  0  0  0
   -3.1599    0.9126    6.0956 H   0  0  0  0  0  0  0  0  0  0  0  0
   -3.0397    1.3125    3.5142 N   0  0  0  0  0  0  0  0  0  0  0  0
   -2.7928    1.7385    2.1618 C   0  0  2  0  0  0  0  0  0  0  0  0
   -1.4579    1.1532    1.7206 C   0  0  0  0  0  0  0  0  0  0  0  0
   -0.5858    0.8004    2.5118 O   0  0  0  0  0  0  0  0  0  0  0  0
   -2.7841    3.2553    2.0523 C   0  0  0  0  0  0  0  0  0  0  0  0
   -3.8047    1.7484    4.0260 H   0  0  0  0  0  0  0  0  0  0  0  0
   -3.5969    1.3201    1.5466 H   0  0  0  0  0  0  0  0  0  0  0  0
   -1.9850    3.6926    2.6620 H   0  0  0  0  0  0  0  0  0  0  0  0
   -2.6246    3.5776    1.0180 H   0  0  0  0  0  0  0  0  0  0  0  0
   -3.7342    3.6765    2.3981 H   0  0  0  0  0  0  0  0  0  0  0  0
   -1.3352    1.1101    0.3372 N   0  0  0  0  0  0  0  0  0  0  0  0
   -0.1579    0.6093   -0.3265 C   0  0  2  0  0  0  0  0  0  0  0  0
   -0.5303    0.3690   -1.7852 C   0  0  0  0  0  0  0  0  0  0  0  0
   -1.6737    0.1015   -2.1485 O   0  0  0  0  0  0  0  0  0  0  0  0
    0.3600   -0.6849    0.3114 C   0  0  0  0  0  0  0  0  0  0  0  0
    0.8903   -0.4752    1.7088 C   0  0  0  0  0  0  0  0  0  0  0  0
    0.1933   -0.6964    2.8742 C   0  0  0  0  0  0  0  0  0  0  0  0
    2.1909   -0.0185    2.0621 C   0  0  0  0  0  0  0  0  0  0  0  0
    1.0187   -0.3917    3.9231 N   0  0  0  0  0  0  0  0  0  0  0  0
    2.2452    0.0249    3.4568 C   0  0  0  0  0  0  0  0  0  0  0  0
    3.3307    0.3632    1.3268 C   0  0  0  0  0  0  0  0  0  0  0  0
    3.3868    0.4327    4.1559 C   0  0  0  0  0  0  0  0  0  0  0  0
    4.4798    0.7733    2.0126 C   0  0  0  0  0  0  0  0  0  0  0  0
    4.5052    0.8067    3.4054 C   0  0  0  0  0  0  0  0  0  0  0  0
   -2.1183    1.4068   -0.2401 H   0  0  0  0  0  0  0  0  0  0  0  0
    0.5930    1.4065   -0.2744 H   0  0  0  0  0  0  0  0  0  0  0  0
    1.1418   -1.1324   -0.3171 H   0  0  0  0  0  0  0  0  0  0  0  0
   -0.4389   -1.4369    0.3561 H   0  0  0  0  0  0  0  0  0  0  0  0
   -0.8159   -1.0416    3.0521 H   0  0  0  0  0  0  0  0  0  0  0  0
    0.7651   -0.4623    4.8989 H   0  0  0  0  0  0  0  0  0  0  0  0
    3.3264    0.3436    0.2406 H   0  0  0  0  0  0  0  0  0  0  0  0
    3.4079    0.4579    5.2401 H   0  0  0  0  0  0  0  0  0  0  0  0
    5.3617    1.0694    1.4509 H   0  0  0  0  0  0  0  0  0  0  0  0
    5.4083    1.1284    3.9176 H   0  0  0  0  0  0  0  0  0  0  0  0
    0.5553    0.5384   -2.6333 N   0  0  0  0  0  0  0  0  0  0  0  0
    0.4714    0.3922   -4.0687 C   0  0  2  0  0  0  0  0  0  0  0  0
   -0.2190   -0.9321   -4.3669 C   0  0  0  0  0  0  0  0  0  0  0  0
   -0.2560   -1.8645   -3.5667 O   0  0  0  0  0  0  0  0  0  0  0  0
    1.8485    0.4443   -4.7116 C   0  0  0  0  0  0  0  0  0  0  0  0
    1.4540    0.7771   -2.2245 H   0  0  0  0  0  0  0  0  0  0  0  0
   -0.1480    1.2182   -4.4350 H   0  0  0  0  0  0  0  0  0  0  0  0
    2.4835   -0.3758   -4.3567 H   0  0  0  0  0  0  0  0  0  0  0  0
    1.7810    0.3620   -5.8014 H   0  0  0  0  0  0  0  0  0  0  0  0
    2.3555    1.3850   -4.4714 H   0  0  0  0  0  0  0  0  0  0  0  0
   -0.7515   -0.9661   -5.6481 N   0  0  0  0  0  0  0  0  0  0  0  0
   -1.4456   -2.1186   -6.1736 C   0  0  0  0  0  0  0  0  0  0  0  0
   -0.6908   -0.1404   -6.2365 H   0  0  0  0  0  0  0  0  0  0  0  0
   -0.7335   -2.7634   -6.7092 H   0  0  0  0  0  0  0  0  0  0  0  0
   -1.8993   -2.6824   -5.3451 H   0  0  0  0  0  0  0  0  0  0  0  0
   -2.2333   -1.7876   -6.8665 H   0  0  0  0  0  0  0  0  0  0  0  0
 29 30  2  0  0  0  0
 27 29  1  0  0  0  0
 28 30  1  0  0  0  0
 24 27  2  0  0  0  0
 26 28  2  0  0  0  0
 22 23  2  0  0  0  0
 23 25  1  0  0  0  0
 22 24  1  0  0  0  0
 24 26  1  0  0  0  0
 21 22  1  0  0  0  0
 25 26  1  0  0  0  0
  1  3  1  0  0  0  0
  1  7  1  0  0  0  0
  1  2  2  0  0  0  0
 42 43  1  0  0  0  0
 43 51  1  0  0  0  0
 43 44  2  0  0  0  0
  8  9  1  0  0  0  0
  9 17  1  0  0  0  0
  9 10  2  0  0  0  0
 18 19  1  0  0  0  0
 19 41  1  0  0  0  0
 19 20  2  0  0  0  0
 42 45  1  0  0  0  0
  8 11  1  0  0  0  0
 51 52  1  0  0  0  0
 18 21  1  0  0  0  0
 41 42  1  0  0  0  0
  7  8  1  0  0  0  0
 17 18  1  0  0  0  0
 29 39  1  0  0  0  0
 30 40  1  0  0  0  0
 27 37  1  0  0  0  0
 28 38  1  0  0  0  0
 23 35  1  0  0  0  0
  3  4  1  0  0  0  0
  3  5  1  0  0  0  0
  3  6  1  0  0  0  0
 45 48  1  0  0  0  0
 45 49  1  0  0  0  0
 45 50  1  0  0  0  0
 11 14  1  0  0  0  0
 11 15  1  0  0  0  0
 11 16  1  0  0  0  0
 52 54  1  0  0  0  0
 52 55  1  0  0  0  0
 52 56  1  0  0  0  0
 21 33  1  0  0  0  0
 21 34  1  0  0  0  0
 42 47  1  0  0  0  0
  8 13  1  0  0  0  0
 18 32  1  0  0  0  0
 25 36  1  0  0  0  0
 51 53  1  0  0  0  0
  7 12  1  0  0  0  0
 41 46  1  0  0  0  0
 17 31  1  0  0  0  0
M  END
$$$$

  -OEChem-05262214473D

 56 57  0     1  0  0  0  0  0999 V2000
   -2.2900    0.3401    4.1553 C   0  0  0  0  0  0  0  0  0  0  0  0
   -1.3426   -0.2746    3.6796 O   0  0  0  0  0  0  0  0  0  0  0  0
   -2.7219    0.0577    5.5560 C   0  0  0  0  0  0  0  0  0  0  0  0
   -3.4815   -0.7386    5.6094 H   0  0  0  0  0  0  0  0  0  0  0  0
   -1.8906   -0.2899    6.1903 H   0  0  0  0  0  0  0  0  0  0  0  0
   -3.1599    0.9126    6.0956 H   0  0  0  0  0  0  0  0  0  0  0  0
   -3.0397    1.3125    3.5142 N   0  0  0  0  0  0  0  0  0  0  0  0
   -2.7928    1.7385    2.1618 C   0  0  2  0  0  0  0  0  0  0  0  0
   -1.4579    1.1532    1.7206 C   0  0  0  0  0  0  0  0  0  0  0  0
   -0.5858    0.8004    2.5118 O   0  0  0  0  0  0  0  0  0  0  0  0
   -2.7841    3.2553    2.0523 C   0  0  0  0  0  0  0  0  0  0  0  0
   -3.8047    1.7484    4.0260 H   0  0  0  0  0  0  0  0  0  0  0  0
   -3.5969    1.3201    1.5466 H   0  0  0  0  0  0  0  0  0  0  0  0
   -1.9850    3.6926    2.6620 H   0  0  0  0  0  0  0  0  0  0  0  0
   -2.6246    3.5776    1.0180 H   0  0  0  0  0  0  0  0  0  0  0  0
   -3.7342    3.6765    2.3981 H   0  0  0  0  0  0  0  0  0  0  0  0
   -1.3352    1.1101    0.3372 N   0  0  0  0  0  0  0  0  0  0  0  0
   -0.1579    0.6093   -0.3265 C   0  0  2  0  0  0  0  0  0  0  0  0
   -0.5303    0.3690   -1.7852 C   0  0  0  0  0  0  0  0  0  0  0  0
   -1.6917    0.3672   -2.1877 O   0  0  0  0  0  0  0  0  0  0  0  0
    0.3600   -0.6849    0.3114 C   0  0  0  0  0  0  0  0  0  0  0  0
    0.8903   -0.4752    1.7088 C   0  0  0  0  0  0  0  0  0  0  0  0
    0.1933   -0.6964    2.8742 C   0  0  0  0  0  0  0  0  0  0  0  0
    2.1909   -0.0185    2.0621 C   0  0  0  0  0  0  0  0  0  0  0  0
    1.0187   -0.3917    3.9231 N   0  0  0  0  0  0  0  0  0  0  0  0
    2.2452    0.0249    3.4568 C   0  0  0  0  0  0  0  0  0  0  0  0
    3.3307    0.3632    1.3268 C   0  0  0  0  0  0  0  0  0  0  0  0
    3.3868    0.4327    4.1559 C   0  0  0  0  0  0  0  0  0  0  0  0
    4.4798    0.7733    2.0126 C   0  0  0  0  0  0  0  0  0  0  0  0
    4.5052    0.8067    3.4054 C   0  0  0  0  0  0  0  0  0  0  0  0
   -2.1183    1.4068   -0.2401 H   0  0  0  0  0  0  0  0  0  0  0  0
    0.5930    1.4065   -0.2744 H   0  0  0  0  0  0  0  0  0  0  0  0
    1.1418   -1.1324   -0.3171 H   0  0  0  0  0  0  0  0  0  0  0  0
   -0.4389   -1.4369    0.3561 H   0  0  0  0  0  0  0  0  0  0  0  0
   -0.8159   -1.0416    3.0521 H   0  0  0  0  0  0  0  0  0  0  0  0
    0.7651   -0.4623    4.8989 H   0  0  0  0  0  0  0  0  0  0  0  0
    3.3264    0.3436    0.2406 H   0  0  0  0  0  0  0  0  0  0  0  0
    3.4079    0.4579    5.2401 H   0  0  0  0  0  0  0  0  0  0  0  0
    5.3617    1.0694    1.4509 H   0  0  0  0  0  0  0  0  0  0  0  0
    5.4083    1.1284    3.9176 H   0  0  0  0  0  0  0  0  0  0  0  0
    0.5905    0.2074   -2.5877 N   0  0  0  0  0  0  0  0  0  0  0  0
    0.5200   -0.0114   -4.0146 C   0  0  2  0  0  0  0  0  0  0  0  0
   -0.4681   -1.1421   -4.2688 C   0  0  0  0  0  0  0  0  0  0  0  0
   -0.7623   -1.9796   -3.4184 O   0  0  0  0  0  0  0  0  0  0  0  0
    1.8871   -0.3443   -4.5916 C   0  0  0  0  0  0  0  0  0  0  0  0
    1.5065    0.2447   -2.1502 H   0  0  0  0  0  0  0  0  0  0  0  0
    0.1382    0.9147   -4.4580 H   0  0  0  0  0  0  0  0  0  0  0  0
    2.2859   -1.2692   -4.1591 H   0  0  0  0  0  0  0  0  0  0  0  0
    1.8370   -0.4816   -5.6768 H   0  0  0  0  0  0  0  0  0  0  0  0
    2.6042    0.4568   -4.3820 H   0  0  0  0  0  0  0  0  0  0  0  0
   -0.9500   -1.1313   -5.5702 N   0  0  0  0  0  0  0  0  0  0  0  0
   -1.8915   -2.1104   -6.0611 C   0  0  0  0  0  0  0  0  0  0  0  0
   -0.6664   -0.3882   -6.2020 H   0  0  0  0  0  0  0  0  0  0  0  0
   -1.3452   -2.9459   -6.5230 H   0  0  0  0  0  0  0  0  0  0  0  0
   -2.4982   -2.4872   -5.2244 H   0  0  0  0  0  0  0  0  0  0  0  0
   -2.5488   -1.6438   -6.8096 H   0  0  0  0  0  0  0  0  0  0  0  0
 29 30  2  0  0  0  0
 27 29  1  0  0  0  0
 28 30  1  0  0  0  0
 24 27  2  0  0  0  0
 26 28  2  0  0  0  0
 22 23  2  0  0  0  0
 23 25  1  0  0  0  0
 22 24  1  0  0  0  0
 24 26  1  0  0  0  0
 21 22  1  0  0  0  0
 25 26  1  0  0  0  0
  1  3  1  0  0  0  0
  1  7  1  0  0  0  0
  1  2  2  0  0  0  0
 42 43  1  0  0  0  0
 43 51  1  0  0  0  0
 43 44  2  0  0  0  0
  8  9  1  0  0  0  0
  9 17  1  0  0  0  0
  9 10  2  0  0  0  0
 18 19  1  0  0  0  0
 19 41  1  0  0  0  0
 19 20  2  0  0  0  0
 42 45  1  0  0  0  0
  8 11  1  0  0  0  0
 51 52  1  0  0  0  0
 18 21  1  0  0  0  0
 41 42  1  0  0  0  0
  7  8  1  0  0  0  0
 17 18  1  0  0  0  0
 29 39  1  0  0  0  0
 30 40  1  0  0  0  0
 27 37  1  0  0  0  0
 28 38  1  0  0  0  0
 23 35  1  0  0  0  0
  3  4  1  0  0  0  0
  3  5  1  0  0  0  0
  3  6  1  0  0  0  0
 45 48  1  0  0  0  0
 45 49  1  0  0  0  0
 45 50  1  0  0  0  0
 11 14  1  0  0  0  0
 11 15  1  0  0  0  0
 11 16  1  0  0  0  0
 52 54  1  0  0  0  0
 52 55  1  0  0  0  0
 52 56  1  0  0  0  0
 21 33  1  0  0  0  0
 21 34  1  0  0  0  0
 42 47  1  0  0  0  0
  8 13  1  0  0  0  0
 18 32  1  0  0  0  0
 25 36  1  0  0  0  0
 51 53  1  0  0  0  0
  7 12  1  0  0  0  0
 41 46  1  0  0  0  0
 17 31  1  0  0  0  0
M  END
$$$$
