default_name
  -OEChem-02102213163D

 36 35  0     1  0  0  0  0  0999 V2000
   -4.2256   -3.6731    1.8584 H   0  0  0  0  0  0  0  0  0  0  0  0
   -4.2396   -2.6781    1.4144 C   0  0  0  0  0  0  0  0  0  0  0  0
   -4.9506   -2.0521    1.9514 H   0  0  0  0  0  0  0  0  0  0  0  0
   -4.5266   -2.7521    0.3674 H   0  0  0  0  0  0  0  0  0  0  0  0
   -2.8576   -2.0761    1.5184 C   0  0  0  0  0  0  0  0  0  0  0  0
   -1.9456   -2.7051    2.0404 O   0  0  0  0  0  0  0  0  0  0  0  0
   -2.6926   -0.8481    1.0174 N   0  0  0  0  0  0  0  0  0  0  0  0
   -3.4926   -0.3971    0.5954 H   0  0  0  0  0  0  0  0  0  0  0  0
   -1.4216   -0.1071    1.0434 C   0  0  1  0  0  0  0  0  0  0  0  0
   -0.7579   -0.5878    1.7640 H   0  0  0  0  0  0  0  0  0  0  0  0
   -0.7791   -0.1912   -0.3557 C   0  0  0  0  0  0  0  0  0  0  0  0
   -0.6105   -1.2421   -0.5991 H   0  0  0  0  0  0  0  0  0  0  0  0
   -1.4727    0.2205   -1.0922 H   0  0  0  0  0  0  0  0  0  0  0  0
    0.5625    0.5490   -0.4578 C   0  0  0  0  0  0  0  0  0  0  0  0
    0.4190    1.6061   -0.2298 H   0  0  0  0  0  0  0  0  0  0  0  0
    1.2669    0.1191    0.2551 H   0  0  0  0  0  0  0  0  0  0  0  0
    1.1274    0.4133   -1.8783 C   0  0  0  0  0  0  0  0  0  0  0  0
    1.2427   -0.6486   -2.1077 H   0  0  0  0  0  0  0  0  0  0  0  0
    0.4126    0.8499   -2.5798 H   0  0  0  0  0  0  0  0  0  0  0  0
    2.4324    1.0918   -2.0167 N   0  3  0  0  0  0  0  0  0  0  0  0
    2.7708    1.5889   -1.2106 H   0  0  0  0  0  0  0  0  0  0  0  0
    3.1949    1.1067   -3.0971 C   0  0  0  0  0  0  0  0  0  0  0  0
    2.8518    0.4954   -4.1961 N   0  0  0  0  0  0  0  0  0  0  0  0
    1.9802   -0.0036   -4.2203 H   0  0  0  0  0  0  0  0  0  0  0  0
    3.4420    0.5169   -5.0074 H   0  0  0  0  0  0  0  0  0  0  0  0
    4.3307    1.7449   -3.0944 N   0  0  0  0  0  0  0  0  0  0  0  0
    4.6382    2.2313   -2.2699 H   0  0  0  0  0  0  0  0  0  0  0  0
    4.9061    1.7536   -3.9162 H   0  0  0  0  0  0  0  0  0  0  0  0
   -1.6547    1.3413    1.4779 C   0  0  0  0  0  0  0  0  0  0  0  0
   -2.5654    1.9858    0.9716 O   0  0  0  0  0  0  0  0  0  0  0  0
   -0.8107    1.8504    2.3808 N   0  0  0  0  0  0  0  0  0  0  0  0
   -0.1136    1.2381    2.7719 H   0  0  0  0  0  0  0  0  0  0  0  0
   -0.8954    3.2155    2.9026 C   0  0  0  0  0  0  0  0  0  0  0  0
   -1.8299    3.3430    3.4532 H   0  0  0  0  0  0  0  0  0  0  0  0
   -0.0581    3.4194    3.5712 H   0  0  0  0  0  0  0  0  0  0  0  0
   -0.8804    3.9320    2.0784 H   0  0  0  0  0  0  0  0  0  0  0  0
  5  6  2  0  0  0  0
  5  7  1  0  0  0  0
  2  3  1  0  0  0  0
  2  4  1  0  0  0  0
  2  5  1  0  0  0  0
  1  2  1  0  0  0  0
 29 30  2  0  0  0  0
 29 31  1  0  0  0  0
 26 27  1  0  0  0  0
 26 28  1  0  0  0  0
 23 24  1  0  0  0  0
 23 25  1  0  0  0  0
 22 23  1  0  0  0  0
 22 26  1  0  0  0  0
 20 21  1  0  0  0  0
 20 22  2  0  0  0  0
 17 18  1  0  0  0  0
 17 19  1  0  0  0  0
 17 20  1  0  0  0  0
 14 15  1  0  0  0  0
 14 16  1  0  0  0  0
 14 17  1  0  0  0  0
 11 12  1  0  0  0  0
 11 13  1  0  0  0  0
 11 14  1  0  0  0  0
  9 10  1  0  0  0  0
  9 11  1  0  0  0  0
  9 29  1  0  0  0  0
  7  8  1  0  0  0  0
  7  9  1  0  0  0  0
 33 34  1  0  0  0  0
 33 35  1  0  0  0  0
 33 36  1  0  0  0  0
 31 32  1  0  0  0  0
 31 33  1  0  0  0  0
M  CHG  1  20   1
M  END
$$$$
default_name
  -OEChem-02102213163D

 36 35  0     1  0  0  0  0  0999 V2000
   -4.2256   -3.6731    1.8584 H   0  0  0  0  0  0  0  0  0  0  0  0
   -4.2396   -2.6781    1.4144 C   0  0  0  0  0  0  0  0  0  0  0  0
   -4.9506   -2.0521    1.9514 H   0  0  0  0  0  0  0  0  0  0  0  0
   -4.5266   -2.7521    0.3674 H   0  0  0  0  0  0  0  0  0  0  0  0
   -2.8576   -2.0761    1.5184 C   0  0  0  0  0  0  0  0  0  0  0  0
   -1.9456   -2.7051    2.0404 O   0  0  0  0  0  0  0  0  0  0  0  0
   -2.6926   -0.8481    1.0174 N   0  0  0  0  0  0  0  0  0  0  0  0
   -3.4926   -0.3971    0.5954 H   0  0  0  0  0  0  0  0  0  0  0  0
   -1.4216   -0.1071    1.0434 C   0  0  1  0  0  0  0  0  0  0  0  0
   -0.7579   -0.5878    1.7640 H   0  0  0  0  0  0  0  0  0  0  0  0
   -0.7791   -0.1912   -0.3557 C   0  0  0  0  0  0  0  0  0  0  0  0
   -0.6105   -1.2421   -0.5991 H   0  0  0  0  0  0  0  0  0  0  0  0
   -1.4727    0.2205   -1.0922 H   0  0  0  0  0  0  0  0  0  0  0  0
    0.5625    0.5490   -0.4578 C   0  0  0  0  0  0  0  0  0  0  0  0
    0.4815    1.5271    0.0185 H   0  0  0  0  0  0  0  0  0  0  0  0
    1.3351   -0.0337    0.0450 H   0  0  0  0  0  0  0  0  0  0  0  0
    0.9441    0.7380   -1.9323 C   0  0  0  0  0  0  0  0  0  0  0  0
    0.9968   -0.2443   -2.4074 H   0  0  0  0  0  0  0  0  0  0  0  0
    0.1628    1.3246   -2.4211 H   0  0  0  0  0  0  0  0  0  0  0  0
    2.2431    1.4265   -2.0786 N   0  3  0  0  0  0  0  0  0  0  0  0
    2.6934    1.7264   -1.2309 H   0  0  0  0  0  0  0  0  0  0  0  0
    2.8673    1.6842   -3.2157 C   0  0  0  0  0  0  0  0  0  0  0  0
    2.3727    1.3397   -4.3715 N   0  0  0  0  0  0  0  0  0  0  0  0
    1.4894    0.8616   -4.3966 H   0  0  0  0  0  0  0  0  0  0  0  0
    2.8592    1.5432   -5.2251 H   0  0  0  0  0  0  0  0  0  0  0  0
    4.0143    2.3020   -3.2134 N   0  0  0  0  0  0  0  0  0  0  0  0
    4.4360    2.5874   -2.3463 H   0  0  0  0  0  0  0  0  0  0  0  0
    4.4846    2.4955   -4.0782 H   0  0  0  0  0  0  0  0  0  0  0  0
   -1.6547    1.3413    1.4779 C   0  0  0  0  0  0  0  0  0  0  0  0
   -2.5654    1.9858    0.9716 O   0  0  0  0  0  0  0  0  0  0  0  0
   -0.8107    1.8504    2.3808 N   0  0  0  0  0  0  0  0  0  0  0  0
   -0.1136    1.2381    2.7719 H   0  0  0  0  0  0  0  0  0  0  0  0
   -0.8954    3.2155    2.9026 C   0  0  0  0  0  0  0  0  0  0  0  0
   -1.8299    3.3430    3.4532 H   0  0  0  0  0  0  0  0  0  0  0  0
   -0.0581    3.4194    3.5712 H   0  0  0  0  0  0  0  0  0  0  0  0
   -0.8804    3.9320    2.0784 H   0  0  0  0  0  0  0  0  0  0  0  0
  5  6  2  0  0  0  0
  5  7  1  0  0  0  0
  2  3  1  0  0  0  0
  2  4  1  0  0  0  0
  2  5  1  0  0  0  0
  1  2  1  0  0  0  0
 29 30  2  0  0  0  0
 29 31  1  0  0  0  0
 26 27  1  0  0  0  0
 26 28  1  0  0  0  0
 23 24  1  0  0  0  0
 23 25  1  0  0  0  0
 22 23  1  0  0  0  0
 22 26  1  0  0  0  0
 20 21  1  0  0  0  0
 20 22  2  0  0  0  0
 17 18  1  0  0  0  0
 17 19  1  0  0  0  0
 17 20  1  0  0  0  0
 14 15  1  0  0  0  0
 14 16  1  0  0  0  0
 14 17  1  0  0  0  0
 11 12  1  0  0  0  0
 11 13  1  0  0  0  0
 11 14  1  0  0  0  0
  9 10  1  0  0  0  0
  9 11  1  0  0  0  0
  9 29  1  0  0  0  0
  7  8  1  0  0  0  0
  7  9  1  0  0  0  0
 33 34  1  0  0  0  0
 33 35  1  0  0  0  0
 33 36  1  0  0  0  0
 31 32  1  0  0  0  0
 31 33  1  0  0  0  0
M  CHG  1  20   1
M  END
$$$$
default_name
  -OEChem-02102213163D

 36 35  0     1  0  0  0  0  0999 V2000
   -4.2256   -3.6731    1.8584 H   0  0  0  0  0  0  0  0  0  0  0  0
   -4.2396   -2.6781    1.4144 C   0  0  0  0  0  0  0  0  0  0  0  0
   -4.9506   -2.0521    1.9514 H   0  0  0  0  0  0  0  0  0  0  0  0
   -4.5266   -2.7521    0.3674 H   0  0  0  0  0  0  0  0  0  0  0  0
   -2.8576   -2.0761    1.5184 C   0  0  0  0  0  0  0  0  0  0  0  0
   -1.9456   -2.7051    2.0404 O   0  0  0  0  0  0  0  0  0  0  0  0
   -2.6926   -0.8481    1.0174 N   0  0  0  0  0  0  0  0  0  0  0  0
   -3.4926   -0.3971    0.5954 H   0  0  0  0  0  0  0  0  0  0  0  0
   -1.4216   -0.1071    1.0434 C   0  0  1  0  0  0  0  0  0  0  0  0
   -0.7579   -0.5878    1.7640 H   0  0  0  0  0  0  0  0  0  0  0  0
   -0.7791   -0.1912   -0.3557 C   0  0  0  0  0  0  0  0  0  0  0  0
   -0.6105   -1.2421   -0.5991 H   0  0  0  0  0  0  0  0  0  0  0  0
   -1.4727    0.2205   -1.0922 H   0  0  0  0  0  0  0  0  0  0  0  0
    0.5625    0.5490   -0.4578 C   0  0  0  0  0  0  0  0  0  0  0  0
    0.5715    1.3935    0.2327 H   0  0  0  0  0  0  0  0  0  0  0  0
    1.3722   -0.1349   -0.2011 H   0  0  0  0  0  0  0  0  0  0  0  0
    0.7660    1.0670   -1.8881 C   0  0  0  0  0  0  0  0  0  0  0  0
    0.7289    0.2182   -2.5748 H   0  0  0  0  0  0  0  0  0  0  0  0
   -0.0505    1.7516   -2.1293 H   0  0  0  0  0  0  0  0  0  0  0  0
    2.0582    1.7670   -2.0391 N   0  3  0  0  0  0  0  0  0  0  0  0
    2.6184    1.8652   -1.2097 H   0  0  0  0  0  0  0  0  0  0  0  0
    2.5460    2.2746   -3.1587 C   0  0  0  0  0  0  0  0  0  0  0  0
    1.9026    2.2030   -4.2902 N   0  0  0  0  0  0  0  0  0  0  0  0
    1.0083    1.7458   -4.3101 H   0  0  0  0  0  0  0  0  0  0  0  0
    2.2868    2.5939   -5.1307 H   0  0  0  0  0  0  0  0  0  0  0  0
    3.7035    2.8723   -3.1628 N   0  0  0  0  0  0  0  0  0  0  0  0
    4.2372    2.9521   -2.3144 H   0  0  0  0  0  0  0  0  0  0  0  0
    4.0699    3.2560   -4.0144 H   0  0  0  0  0  0  0  0  0  0  0  0
   -1.6547    1.3413    1.4779 C   0  0  0  0  0  0  0  0  0  0  0  0
   -2.5654    1.9858    0.9716 O   0  0  0  0  0  0  0  0  0  0  0  0
   -0.8107    1.8504    2.3808 N   0  0  0  0  0  0  0  0  0  0  0  0
   -0.1136    1.2381    2.7719 H   0  0  0  0  0  0  0  0  0  0  0  0
   -0.8954    3.2155    2.9026 C   0  0  0  0  0  0  0  0  0  0  0  0
   -1.8299    3.3430    3.4532 H   0  0  0  0  0  0  0  0  0  0  0  0
   -0.0581    3.4194    3.5712 H   0  0  0  0  0  0  0  0  0  0  0  0
   -0.8804    3.9320    2.0784 H   0  0  0  0  0  0  0  0  0  0  0  0
  5  6  2  0  0  0  0
  5  7  1  0  0  0  0
  2  3  1  0  0  0  0
  2  4  1  0  0  0  0
  2  5  1  0  0  0  0
  1  2  1  0  0  0  0
 29 30  2  0  0  0  0
 29 31  1  0  0  0  0
 26 27  1  0  0  0  0
 26 28  1  0  0  0  0
 23 24  1  0  0  0  0
 23 25  1  0  0  0  0
 22 23  1  0  0  0  0
 22 26  1  0  0  0  0
 20 21  1  0  0  0  0
 20 22  2  0  0  0  0
 17 18  1  0  0  0  0
 17 19  1  0  0  0  0
 17 20  1  0  0  0  0
 14 15  1  0  0  0  0
 14 16  1  0  0  0  0
 14 17  1  0  0  0  0
 11 12  1  0  0  0  0
 11 13  1  0  0  0  0
 11 14  1  0  0  0  0
  9 10  1  0  0  0  0
  9 11  1  0  0  0  0
  9 29  1  0  0  0  0
  7  8  1  0  0  0  0
  7  9  1  0  0  0  0
 33 34  1  0  0  0  0
 33 35  1  0  0  0  0
 33 36  1  0  0  0  0
 31 32  1  0  0  0  0
 31 33  1  0  0  0  0
M  CHG  1  20   1
M  END
$$$$
default_name
  -OEChem-02102213163D

 36 35  0     1  0  0  0  0  0999 V2000
   -4.2256   -3.6731    1.8584 H   0  0  0  0  0  0  0  0  0  0  0  0
   -4.2396   -2.6781    1.4144 C   0  0  0  0  0  0  0  0  0  0  0  0
   -4.9506   -2.0521    1.9514 H   0  0  0  0  0  0  0  0  0  0  0  0
   -4.5266   -2.7521    0.3674 H   0  0  0  0  0  0  0  0  0  0  0  0
   -2.8576   -2.0761    1.5184 C   0  0  0  0  0  0  0  0  0  0  0  0
   -1.9456   -2.7051    2.0404 O   0  0  0  0  0  0  0  0  0  0  0  0
   -2.6926   -0.8481    1.0174 N   0  0  0  0  0  0  0  0  0  0  0  0
   -3.4926   -0.3971    0.5954 H   0  0  0  0  0  0  0  0  0  0  0  0
   -1.4216   -0.1071    1.0434 C   0  0  1  0  0  0  0  0  0  0  0  0
   -0.7579   -0.5878    1.7640 H   0  0  0  0  0  0  0  0  0  0  0  0
   -0.7791   -0.1912   -0.3557 C   0  0  0  0  0  0  0  0  0  0  0  0
   -0.6105   -1.2421   -0.5991 H   0  0  0  0  0  0  0  0  0  0  0  0
   -1.4727    0.2205   -1.0922 H   0  0  0  0  0  0  0  0  0  0  0  0
    0.5625    0.5490   -0.4578 C   0  0  0  0  0  0  0  0  0  0  0  0
    0.6828    1.2145    0.3982 H   0  0  0  0  0  0  0  0  0  0  0  0
    1.3756   -0.1776   -0.4663 H   0  0  0  0  0  0  0  0  0  0  0  0
    0.6051    1.3778   -1.7488 C   0  0  0  0  0  0  0  0  0  0  0  0
    0.4573    0.7074   -2.5985 H   0  0  0  0  0  0  0  0  0  0  0  0
   -0.2128    2.1017   -1.7243 H   0  0  0  0  0  0  0  0  0  0  0  0
    1.8905    2.0901   -1.9009 N   0  3  0  0  0  0  0  0  0  0  0  0
    2.5511    1.9957   -1.1485 H   0  0  0  0  0  0  0  0  0  0  0  0
    2.2529    2.8374   -2.9301 C   0  0  0  0  0  0  0  0  0  0  0  0
    1.4735    3.0267   -3.9578 N   0  0  0  0  0  0  0  0  0  0  0  0
    0.5695    2.5885   -3.9666 H   0  0  0  0  0  0  0  0  0  0  0  0
    1.7638    3.5972   -4.7306 H   0  0  0  0  0  0  0  0  0  0  0  0
    3.4194    3.4172   -2.9463 N   0  0  0  0  0  0  0  0  0  0  0  0
    4.0555    3.3006   -2.1763 H   0  0  0  0  0  0  0  0  0  0  0  0
    3.6904    3.9832   -3.7291 H   0  0  0  0  0  0  0  0  0  0  0  0
   -1.6547    1.3413    1.4779 C   0  0  0  0  0  0  0  0  0  0  0  0
   -2.5654    1.9858    0.9716 O   0  0  0  0  0  0  0  0  0  0  0  0
   -0.8107    1.8504    2.3808 N   0  0  0  0  0  0  0  0  0  0  0  0
   -0.1136    1.2381    2.7719 H   0  0  0  0  0  0  0  0  0  0  0  0
   -0.8954    3.2155    2.9026 C   0  0  0  0  0  0  0  0  0  0  0  0
   -1.8299    3.3430    3.4532 H   0  0  0  0  0  0  0  0  0  0  0  0
   -0.0581    3.4194    3.5712 H   0  0  0  0  0  0  0  0  0  0  0  0
   -0.8804    3.9320    2.0784 H   0  0  0  0  0  0  0  0  0  0  0  0
  5  6  2  0  0  0  0
  5  7  1  0  0  0  0
  2  3  1  0  0  0  0
  2  4  1  0  0  0  0
  2  5  1  0  0  0  0
  1  2  1  0  0  0  0
 29 30  2  0  0  0  0
 29 31  1  0  0  0  0
 26 27  1  0  0  0  0
 26 28  1  0  0  0  0
 23 24  1  0  0  0  0
 23 25  1  0  0  0  0
 22 23  1  0  0  0  0
 22 26  1  0  0  0  0
 20 21  1  0  0  0  0
 20 22  2  0  0  0  0
 17 18  1  0  0  0  0
 17 19  1  0  0  0  0
 17 20  1  0  0  0  0
 14 15  1  0  0  0  0
 14 16  1  0  0  0  0
 14 17  1  0  0  0  0
 11 12  1  0  0  0  0
 11 13  1  0  0  0  0
 11 14  1  0  0  0  0
  9 10  1  0  0  0  0
  9 11  1  0  0  0  0
  9 29  1  0  0  0  0
  7  8  1  0  0  0  0
  7  9  1  0  0  0  0
 33 34  1  0  0  0  0
 33 35  1  0  0  0  0
 33 36  1  0  0  0  0
 31 32  1  0  0  0  0
 31 33  1  0  0  0  0
M  CHG  1  20   1
M  END
$$$$
default_name
  -OEChem-02102213163D

 36 35  0     1  0  0  0  0  0999 V2000
   -4.2256   -3.6731    1.8584 H   0  0  0  0  0  0  0  0  0  0  0  0
   -4.2396   -2.6781    1.4144 C   0  0  0  0  0  0  0  0  0  0  0  0
   -4.9506   -2.0521    1.9514 H   0  0  0  0  0  0  0  0  0  0  0  0
   -4.5266   -2.7521    0.3674 H   0  0  0  0  0  0  0  0  0  0  0  0
   -2.8576   -2.0761    1.5184 C   0  0  0  0  0  0  0  0  0  0  0  0
   -1.9456   -2.7051    2.0404 O   0  0  0  0  0  0  0  0  0  0  0  0
   -2.6926   -0.8481    1.0174 N   0  0  0  0  0  0  0  0  0  0  0  0
   -3.4926   -0.3971    0.5954 H   0  0  0  0  0  0  0  0  0  0  0  0
   -1.4216   -0.1071    1.0434 C   0  0  1  0  0  0  0  0  0  0  0  0
   -0.7579   -0.5878    1.7640 H   0  0  0  0  0  0  0  0  0  0  0  0
   -0.7791   -0.1912   -0.3557 C   0  0  0  0  0  0  0  0  0  0  0  0
   -0.6105   -1.2421   -0.5991 H   0  0  0  0  0  0  0  0  0  0  0  0
   -1.4727    0.2205   -1.0922 H   0  0  0  0  0  0  0  0  0  0  0  0
    0.5625    0.5490   -0.4578 C   0  0  0  0  0  0  0  0  0  0  0  0
    0.8079    1.0023    0.5037 H   0  0  0  0  0  0  0  0  0  0  0  0
    1.3451   -0.1590   -0.7326 H   0  0  0  0  0  0  0  0  0  0  0  0
    0.4724    1.6493   -1.5239 C   0  0  0  0  0  0  0  0  0  0  0  0
    0.2003    1.1900   -2.4769 H   0  0  0  0  0  0  0  0  0  0  0  0
   -0.3131    2.3511   -1.2337 H   0  0  0  0  0  0  0  0  0  0  0  0
    1.7512    2.3739   -1.6734 N   0  3  0  0  0  0  0  0  0  0  0  0
    2.4959    2.1091   -1.0515 H   0  0  0  0  0  0  0  0  0  0  0  0
    2.0079    3.3345   -2.5455 C   0  0  0  0  0  0  0  0  0  0  0  0
    1.1147    3.7545   -3.3969 N   0  0  0  0  0  0  0  0  0  0  0  0
    0.2031    3.3324   -3.3895 H   0  0  0  0  0  0  0  0  0  0  0  0
    1.3258    4.4849   -4.0519 H   0  0  0  0  0  0  0  0  0  0  0  0
    3.1814    3.8994   -2.5784 N   0  0  0  0  0  0  0  0  0  0  0  0
    3.9032    3.6091   -1.9415 H   0  0  0  0  0  0  0  0  0  0  0  0
    3.3720    4.6277   -3.2416 H   0  0  0  0  0  0  0  0  0  0  0  0
   -1.6547    1.3413    1.4779 C   0  0  0  0  0  0  0  0  0  0  0  0
   -2.5654    1.9858    0.9716 O   0  0  0  0  0  0  0  0  0  0  0  0
   -0.8107    1.8504    2.3808 N   0  0  0  0  0  0  0  0  0  0  0  0
   -0.1136    1.2381    2.7719 H   0  0  0  0  0  0  0  0  0  0  0  0
   -0.8954    3.2155    2.9026 C   0  0  0  0  0  0  0  0  0  0  0  0
   -1.8299    3.3430    3.4532 H   0  0  0  0  0  0  0  0  0  0  0  0
   -0.0581    3.4194    3.5712 H   0  0  0  0  0  0  0  0  0  0  0  0
   -0.8804    3.9320    2.0784 H   0  0  0  0  0  0  0  0  0  0  0  0
  5  6  2  0  0  0  0
  5  7  1  0  0  0  0
  2  3  1  0  0  0  0
  2  4  1  0  0  0  0
  2  5  1  0  0  0  0
  1  2  1  0  0  0  0
 29 30  2  0  0  0  0
 29 31  1  0  0  0  0
 26 27  1  0  0  0  0
 26 28  1  0  0  0  0
 23 24  1  0  0  0  0
 23 25  1  0  0  0  0
 22 23  1  0  0  0  0
 22 26  1  0  0  0  0
 20 21  1  0  0  0  0
 20 22  2  0  0  0  0
 17 18  1  0  0  0  0
 17 19  1  0  0  0  0
 17 20  1  0  0  0  0
 14 15  1  0  0  0  0
 14 16  1  0  0  0  0
 14 17  1  0  0  0  0
 11 12  1  0  0  0  0
 11 13  1  0  0  0  0
 11 14  1  0  0  0  0
  9 10  1  0  0  0  0
  9 11  1  0  0  0  0
  9 29  1  0  0  0  0
  7  8  1  0  0  0  0
  7  9  1  0  0  0  0
 33 34  1  0  0  0  0
 33 35  1  0  0  0  0
 33 36  1  0  0  0  0
 31 32  1  0  0  0  0
 31 33  1  0  0  0  0
M  CHG  1  20   1
M  END
$$$$
default_name
  -OEChem-02102213163D

 36 35  0     1  0  0  0  0  0999 V2000
   -4.2256   -3.6731    1.8584 H   0  0  0  0  0  0  0  0  0  0  0  0
   -4.2396   -2.6781    1.4144 C   0  0  0  0  0  0  0  0  0  0  0  0
   -4.9506   -2.0521    1.9514 H   0  0  0  0  0  0  0  0  0  0  0  0
   -4.5266   -2.7521    0.3674 H   0  0  0  0  0  0  0  0  0  0  0  0
   -2.8576   -2.0761    1.5184 C   0  0  0  0  0  0  0  0  0  0  0  0
   -1.9456   -2.7051    2.0404 O   0  0  0  0  0  0  0  0  0  0  0  0
   -2.6926   -0.8481    1.0174 N   0  0  0  0  0  0  0  0  0  0  0  0
   -3.4926   -0.3971    0.5954 H   0  0  0  0  0  0  0  0  0  0  0  0
   -1.4216   -0.1071    1.0434 C   0  0  1  0  0  0  0  0  0  0  0  0
   -0.7579   -0.5878    1.7640 H   0  0  0  0  0  0  0  0  0  0  0  0
   -0.7791   -0.1912   -0.3557 C   0  0  0  0  0  0  0  0  0  0  0  0
   -0.6105   -1.2421   -0.5991 H   0  0  0  0  0  0  0  0  0  0  0  0
   -1.4727    0.2205   -1.0922 H   0  0  0  0  0  0  0  0  0  0  0  0
    0.5625    0.5490   -0.4578 C   0  0  0  0  0  0  0  0  0  0  0  0
    0.9383    0.7712    0.5420 H   0  0  0  0  0  0  0  0  0  0  0  0
    1.2827   -0.0803   -0.9817 H   0  0  0  0  0  0  0  0  0  0  0  0
    0.3770    1.8630   -1.2287 C   0  0  0  0  0  0  0  0  0  0  0  0
   -0.0244    1.6330   -2.2183 H   0  0  0  0  0  0  0  0  0  0  0  0
   -0.3444    2.4827   -0.6909 H   0  0  0  0  0  0  0  0  0  0  0  0
    1.6500    2.5990   -1.3721 N   0  3  0  0  0  0  0  0  0  0  0  0
    2.4566    2.1977   -0.9253 H   0  0  0  0  0  0  0  0  0  0  0  0
    1.8279    3.7318   -2.0310 C   0  0  0  0  0  0  0  0  0  0  0  0
    0.8506    4.3369   -2.6458 N   0  0  0  0  0  0  0  0  0  0  0  0
   -0.0661    3.9267   -2.6181 H   0  0  0  0  0  0  0  0  0  0  0  0
    1.0026    5.1963   -3.1410 H   0  0  0  0  0  0  0  0  0  0  0  0
    3.0057    4.2861   -2.0844 N   0  0  0  0  0  0  0  0  0  0  0  0
    3.7906    3.8566   -1.6258 H   0  0  0  0  0  0  0  0  0  0  0  0
    3.1363    5.1455   -2.5854 H   0  0  0  0  0  0  0  0  0  0  0  0
   -1.6547    1.3413    1.4779 C   0  0  0  0  0  0  0  0  0  0  0  0
   -2.5654    1.9858    0.9716 O   0  0  0  0  0  0  0  0  0  0  0  0
   -0.8107    1.8504    2.3808 N   0  0  0  0  0  0  0  0  0  0  0  0
   -0.1136    1.2381    2.7719 H   0  0  0  0  0  0  0  0  0  0  0  0
   -0.8954    3.2155    2.9026 C   0  0  0  0  0  0  0  0  0  0  0  0
   -1.8299    3.3430    3.4532 H   0  0  0  0  0  0  0  0  0  0  0  0
   -0.0581    3.4194    3.5712 H   0  0  0  0  0  0  0  0  0  0  0  0
   -0.8804    3.9320    2.0784 H   0  0  0  0  0  0  0  0  0  0  0  0
  5  6  2  0  0  0  0
  5  7  1  0  0  0  0
  2  3  1  0  0  0  0
  2  4  1  0  0  0  0
  2  5  1  0  0  0  0
  1  2  1  0  0  0  0
 29 30  2  0  0  0  0
 29 31  1  0  0  0  0
 26 27  1  0  0  0  0
 26 28  1  0  0  0  0
 23 24  1  0  0  0  0
 23 25  1  0  0  0  0
 22 23  1  0  0  0  0
 22 26  1  0  0  0  0
 20 21  1  0  0  0  0
 20 22  2  0  0  0  0
 17 18  1  0  0  0  0
 17 19  1  0  0  0  0
 17 20  1  0  0  0  0
 14 15  1  0  0  0  0
 14 16  1  0  0  0  0
 14 17  1  0  0  0  0
 11 12  1  0  0  0  0
 11 13  1  0  0  0  0
 11 14  1  0  0  0  0
  9 10  1  0  0  0  0
  9 11  1  0  0  0  0
  9 29  1  0  0  0  0
  7  8  1  0  0  0  0
  7  9  1  0  0  0  0
 33 34  1  0  0  0  0
 33 35  1  0  0  0  0
 33 36  1  0  0  0  0
 31 32  1  0  0  0  0
 31 33  1  0  0  0  0
M  CHG  1  20   1
M  END
$$$$
default_name
  -OEChem-02102213163D

 36 35  0     1  0  0  0  0  0999 V2000
   -4.2256   -3.6731    1.8584 H   0  0  0  0  0  0  0  0  0  0  0  0
   -4.2396   -2.6781    1.4144 C   0  0  0  0  0  0  0  0  0  0  0  0
   -4.9506   -2.0521    1.9514 H   0  0  0  0  0  0  0  0  0  0  0  0
   -4.5266   -2.7521    0.3674 H   0  0  0  0  0  0  0  0  0  0  0  0
   -2.8576   -2.0761    1.5184 C   0  0  0  0  0  0  0  0  0  0  0  0
   -1.9456   -2.7051    2.0404 O   0  0  0  0  0  0  0  0  0  0  0  0
   -2.6926   -0.8481    1.0174 N   0  0  0  0  0  0  0  0  0  0  0  0
   -3.4926   -0.3971    0.5954 H   0  0  0  0  0  0  0  0  0  0  0  0
   -1.4216   -0.1071    1.0434 C   0  0  1  0  0  0  0  0  0  0  0  0
   -0.7579   -0.5878    1.7640 H   0  0  0  0  0  0  0  0  0  0  0  0
   -0.7791   -0.1912   -0.3557 C   0  0  0  0  0  0  0  0  0  0  0  0
   -0.6105   -1.2421   -0.5991 H   0  0  0  0  0  0  0  0  0  0  0  0
   -1.4727    0.2205   -1.0922 H   0  0  0  0  0  0  0  0  0  0  0  0
    0.5625    0.5490   -0.4578 C   0  0  0  0  0  0  0  0  0  0  0  0
    1.0650    0.5372    0.5105 H   0  0  0  0  0  0  0  0  0  0  0  0
    1.1927    0.0532   -1.1968 H   0  0  0  0  0  0  0  0  0  0  0  0
    0.3253    2.0044   -0.8833 C   0  0  0  0  0  0  0  0  0  0  0  0
   -0.2016    2.0064   -1.8402 H   0  0  0  0  0  0  0  0  0  0  0  0
   -0.3047    2.4877   -0.1329 H   0  0  0  0  0  0  0  0  0  0  0  0
    1.5937    2.7500   -1.0176 N   0  3  0  0  0  0  0  0  0  0  0  0
    2.4360    2.2554   -0.7784 H   0  0  0  0  0  0  0  0  0  0  0  0
    1.7250    4.0024   -1.4217 C   0  0  0  0  0  0  0  0  0  0  0  0
    0.6992    4.7342   -1.7557 N   0  0  0  0  0  0  0  0  0  0  0  0
   -0.2197    4.3310   -1.7051 H   0  0  0  0  0  0  0  0  0  0  0  0
    0.8163    5.6832   -2.0599 H   0  0  0  0  0  0  0  0  0  0  0  0
    2.9042    4.5510   -1.4979 N   0  0  0  0  0  0  0  0  0  0  0  0
    3.7256    4.0262   -1.2510 H   0  0  0  0  0  0  0  0  0  0  0  0
    2.9994    5.5013   -1.8050 H   0  0  0  0  0  0  0  0  0  0  0  0
   -1.6547    1.3413    1.4779 C   0  0  0  0  0  0  0  0  0  0  0  0
   -2.5654    1.9858    0.9716 O   0  0  0  0  0  0  0  0  0  0  0  0
   -0.8107    1.8504    2.3808 N   0  0  0  0  0  0  0  0  0  0  0  0
   -0.1136    1.2381    2.7719 H   0  0  0  0  0  0  0  0  0  0  0  0
   -0.8954    3.2155    2.9026 C   0  0  0  0  0  0  0  0  0  0  0  0
   -1.8299    3.3430    3.4532 H   0  0  0  0  0  0  0  0  0  0  0  0
   -0.0581    3.4194    3.5712 H   0  0  0  0  0  0  0  0  0  0  0  0
   -0.8804    3.9320    2.0784 H   0  0  0  0  0  0  0  0  0  0  0  0
  5  6  2  0  0  0  0
  5  7  1  0  0  0  0
  2  3  1  0  0  0  0
  2  4  1  0  0  0  0
  2  5  1  0  0  0  0
  1  2  1  0  0  0  0
 29 30  2  0  0  0  0
 29 31  1  0  0  0  0
 26 27  1  0  0  0  0
 26 28  1  0  0  0  0
 23 24  1  0  0  0  0
 23 25  1  0  0  0  0
 22 23  1  0  0  0  0
 22 26  1  0  0  0  0
 20 21  1  0  0  0  0
 20 22  2  0  0  0  0
 17 18  1  0  0  0  0
 17 19  1  0  0  0  0
 17 20  1  0  0  0  0
 14 15  1  0  0  0  0
 14 16  1  0  0  0  0
 14 17  1  0  0  0  0
 11 12  1  0  0  0  0
 11 13  1  0  0  0  0
 11 14  1  0  0  0  0
  9 10  1  0  0  0  0
  9 11  1  0  0  0  0
  9 29  1  0  0  0  0
  7  8  1  0  0  0  0
  7  9  1  0  0  0  0
 33 34  1  0  0  0  0
 33 35  1  0  0  0  0
 33 36  1  0  0  0  0
 31 32  1  0  0  0  0
 31 33  1  0  0  0  0
M  CHG  1  20   1
M  END
$$$$
default_name
  -OEChem-02102213163D

 36 35  0     1  0  0  0  0  0999 V2000
   -4.2256   -3.6731    1.8584 H   0  0  0  0  0  0  0  0  0  0  0  0
   -4.2396   -2.6781    1.4144 C   0  0  0  0  0  0  0  0  0  0  0  0
   -4.9506   -2.0521    1.9514 H   0  0  0  0  0  0  0  0  0  0  0  0
   -4.5266   -2.7521    0.3674 H   0  0  0  0  0  0  0  0  0  0  0  0
   -2.8576   -2.0761    1.5184 C   0  0  0  0  0  0  0  0  0  0  0  0
   -1.9456   -2.7051    2.0404 O   0  0  0  0  0  0  0  0  0  0  0  0
   -2.6926   -0.8481    1.0174 N   0  0  0  0  0  0  0  0  0  0  0  0
   -3.4926   -0.3971    0.5954 H   0  0  0  0  0  0  0  0  0  0  0  0
   -1.4216   -0.1071    1.0434 C   0  0  1  0  0  0  0  0  0  0  0  0
   -0.7579   -0.5878    1.7640 H   0  0  0  0  0  0  0  0  0  0  0  0
   -0.7791   -0.1912   -0.3557 C   0  0  0  0  0  0  0  0  0  0  0  0
   -0.6105   -1.2421   -0.5991 H   0  0  0  0  0  0  0  0  0  0  0  0
   -1.4727    0.2205   -1.0922 H   0  0  0  0  0  0  0  0  0  0  0  0
    0.5625    0.5490   -0.4578 C   0  0  0  0  0  0  0  0  0  0  0  0
    1.1794    0.3161    0.4113 H   0  0  0  0  0  0  0  0  0  0  0  0
    1.0812    0.2323   -1.3631 H   0  0  0  0  0  0  0  0  0  0  0  0
    0.3209    2.0637   -0.5113 C   0  0  0  0  0  0  0  0  0  0  0  0
   -0.3192    2.2846   -1.3685 H   0  0  0  0  0  0  0  0  0  0  0  0
   -0.1966    2.3657    0.4023 H   0  0  0  0  0  0  0  0  0  0  0  0
    1.5861    2.8167   -0.6340 N   0  3  0  0  0  0  0  0  0  0  0  0
    2.4354    2.2783   -0.6210 H   0  0  0  0  0  0  0  0  0  0  0  0
    1.7063    4.1278   -0.7592 C   0  0  0  0  0  0  0  0  0  0  0  0
    0.6708    4.9192   -0.7872 N   0  0  0  0  0  0  0  0  0  0  0  0
   -0.2471    4.5177   -0.7126 H   0  0  0  0  0  0  0  0  0  0  0  0
    0.7796    5.9122   -0.8824 H   0  0  0  0  0  0  0  0  0  0  0  0
    2.8839    4.6759   -0.8587 N   0  0  0  0  0  0  0  0  0  0  0  0
    3.7124    4.1064   -0.8424 H   0  0  0  0  0  0  0  0  0  0  0  0
    2.9706    5.6709   -0.9536 H   0  0  0  0  0  0  0  0  0  0  0  0
   -1.6547    1.3413    1.4779 C   0  0  0  0  0  0  0  0  0  0  0  0
   -2.5654    1.9858    0.9716 O   0  0  0  0  0  0  0  0  0  0  0  0
   -0.8107    1.8504    2.3808 N   0  0  0  0  0  0  0  0  0  0  0  0
   -0.1136    1.2381    2.7719 H   0  0  0  0  0  0  0  0  0  0  0  0
   -0.8954    3.2155    2.9026 C   0  0  0  0  0  0  0  0  0  0  0  0
   -1.8299    3.3430    3.4532 H   0  0  0  0  0  0  0  0  0  0  0  0
   -0.0581    3.4194    3.5712 H   0  0  0  0  0  0  0  0  0  0  0  0
   -0.8804    3.9320    2.0784 H   0  0  0  0  0  0  0  0  0  0  0  0
  5  6  2  0  0  0  0
  5  7  1  0  0  0  0
  2  3  1  0  0  0  0
  2  4  1  0  0  0  0
  2  5  1  0  0  0  0
  1  2  1  0  0  0  0
 29 30  2  0  0  0  0
 29 31  1  0  0  0  0
 26 27  1  0  0  0  0
 26 28  1  0  0  0  0
 23 24  1  0  0  0  0
 23 25  1  0  0  0  0
 22 23  1  0  0  0  0
 22 26  1  0  0  0  0
 20 21  1  0  0  0  0
 20 22  2  0  0  0  0
 17 18  1  0  0  0  0
 17 19  1  0  0  0  0
 17 20  1  0  0  0  0
 14 15  1  0  0  0  0
 14 16  1  0  0  0  0
 14 17  1  0  0  0  0
 11 12  1  0  0  0  0
 11 13  1  0  0  0  0
 11 14  1  0  0  0  0
  9 10  1  0  0  0  0
  9 11  1  0  0  0  0
  9 29  1  0  0  0  0
  7  8  1  0  0  0  0
  7  9  1  0  0  0  0
 33 34  1  0  0  0  0
 33 35  1  0  0  0  0
 33 36  1  0  0  0  0
 31 32  1  0  0  0  0
 31 33  1  0  0  0  0
M  CHG  1  20   1
M  END
$$$$
default_name
  -OEChem-02102213163D

 36 35  0     1  0  0  0  0  0999 V2000
   -4.2256   -3.6731    1.8584 H   0  0  0  0  0  0  0  0  0  0  0  0
   -4.2396   -2.6781    1.4144 C   0  0  0  0  0  0  0  0  0  0  0  0
   -4.9506   -2.0521    1.9514 H   0  0  0  0  0  0  0  0  0  0  0  0
   -4.5266   -2.7521    0.3674 H   0  0  0  0  0  0  0  0  0  0  0  0
   -2.8576   -2.0761    1.5184 C   0  0  0  0  0  0  0  0  0  0  0  0
   -1.9456   -2.7051    2.0404 O   0  0  0  0  0  0  0  0  0  0  0  0
   -2.6926   -0.8481    1.0174 N   0  0  0  0  0  0  0  0  0  0  0  0
   -3.4926   -0.3971    0.5954 H   0  0  0  0  0  0  0  0  0  0  0  0
   -1.4216   -0.1071    1.0434 C   0  0  1  0  0  0  0  0  0  0  0  0
   -0.7579   -0.5878    1.7640 H   0  0  0  0  0  0  0  0  0  0  0  0
   -0.7791   -0.1912   -0.3557 C   0  0  0  0  0  0  0  0  0  0  0  0
   -0.6105   -1.2421   -0.5991 H   0  0  0  0  0  0  0  0  0  0  0  0
   -1.4727    0.2205   -1.0922 H   0  0  0  0  0  0  0  0  0  0  0  0
    0.5625    0.5490   -0.4578 C   0  0  0  0  0  0  0  0  0  0  0  0
    1.2738    0.1229    0.2512 H   0  0  0  0  0  0  0  0  0  0  0  0
    0.9559    0.4448   -1.4694 H   0  0  0  0  0  0  0  0  0  0  0  0
    0.3641    2.0369   -0.1380 C   0  0  0  0  0  0  0  0  0  0  0  0
   -0.3691    2.4486   -0.8354 H   0  0  0  0  0  0  0  0  0  0  0  0
   -0.0276    2.1249    0.8781 H   0  0  0  0  0  0  0  0  0  0  0  0
    1.6278    2.7945   -0.2474 N   0  3  0  0  0  0  0  0  0  0  0  0
    2.4548    2.2647   -0.4636 H   0  0  0  0  0  0  0  0  0  0  0  0
    1.7730    4.0994   -0.0886 C   0  0  0  0  0  0  0  0  0  0  0  0
    0.7674    4.8794    0.1937 N   0  0  0  0  0  0  0  0  0  0  0  0
   -0.1466    4.4741    0.2917 H   0  0  0  0  0  0  0  0  0  0  0  0
    0.8950    5.8678    0.3114 H   0  0  0  0  0  0  0  0  0  0  0  0
    2.9462    4.6524   -0.2106 N   0  0  0  0  0  0  0  0  0  0  0  0
    3.7521    4.0918   -0.4280 H   0  0  0  0  0  0  0  0  0  0  0  0
    3.0519    5.6427   -0.0894 H   0  0  0  0  0  0  0  0  0  0  0  0
   -1.6547    1.3413    1.4779 C   0  0  0  0  0  0  0  0  0  0  0  0
   -2.5654    1.9858    0.9716 O   0  0  0  0  0  0  0  0  0  0  0  0
   -0.8107    1.8504    2.3808 N   0  0  0  0  0  0  0  0  0  0  0  0
   -0.1136    1.2381    2.7719 H   0  0  0  0  0  0  0  0  0  0  0  0
   -0.8954    3.2155    2.9026 C   0  0  0  0  0  0  0  0  0  0  0  0
   -1.8299    3.3430    3.4532 H   0  0  0  0  0  0  0  0  0  0  0  0
   -0.0581    3.4194    3.5712 H   0  0  0  0  0  0  0  0  0  0  0  0
   -0.8804    3.9320    2.0784 H   0  0  0  0  0  0  0  0  0  0  0  0
  5  6  2  0  0  0  0
  5  7  1  0  0  0  0
  2  3  1  0  0  0  0
  2  4  1  0  0  0  0
  2  5  1  0  0  0  0
  1  2  1  0  0  0  0
 29 30  2  0  0  0  0
 29 31  1  0  0  0  0
 26 27  1  0  0  0  0
 26 28  1  0  0  0  0
 23 24  1  0  0  0  0
 23 25  1  0  0  0  0
 22 23  1  0  0  0  0
 22 26  1  0  0  0  0
 20 21  1  0  0  0  0
 20 22  2  0  0  0  0
 17 18  1  0  0  0  0
 17 19  1  0  0  0  0
 17 20  1  0  0  0  0
 14 15  1  0  0  0  0
 14 16  1  0  0  0  0
 14 17  1  0  0  0  0
 11 12  1  0  0  0  0
 11 13  1  0  0  0  0
 11 14  1  0  0  0  0
  9 10  1  0  0  0  0
  9 11  1  0  0  0  0
  9 29  1  0  0  0  0
  7  8  1  0  0  0  0
  7  9  1  0  0  0  0
 33 34  1  0  0  0  0
 33 35  1  0  0  0  0
 33 36  1  0  0  0  0
 31 32  1  0  0  0  0
 31 33  1  0  0  0  0
M  CHG  1  20   1
M  END
$$$$
default_name
  -OEChem-02102213163D

 36 35  0     1  0  0  0  0  0999 V2000
   -4.2256   -3.6731    1.8584 H   0  0  0  0  0  0  0  0  0  0  0  0
   -4.2396   -2.6781    1.4144 C   0  0  0  0  0  0  0  0  0  0  0  0
   -4.9506   -2.0521    1.9514 H   0  0  0  0  0  0  0  0  0  0  0  0
   -4.5266   -2.7521    0.3674 H   0  0  0  0  0  0  0  0  0  0  0  0
   -2.8576   -2.0761    1.5184 C   0  0  0  0  0  0  0  0  0  0  0  0
   -1.9456   -2.7051    2.0404 O   0  0  0  0  0  0  0  0  0  0  0  0
   -2.6926   -0.8481    1.0174 N   0  0  0  0  0  0  0  0  0  0  0  0
   -3.4926   -0.3971    0.5954 H   0  0  0  0  0  0  0  0  0  0  0  0
   -1.4216   -0.1071    1.0434 C   0  0  1  0  0  0  0  0  0  0  0  0
   -0.7579   -0.5878    1.7640 H   0  0  0  0  0  0  0  0  0  0  0  0
   -0.7791   -0.1912   -0.3557 C   0  0  0  0  0  0  0  0  0  0  0  0
   -0.6105   -1.2421   -0.5991 H   0  0  0  0  0  0  0  0  0  0  0  0
   -1.4727    0.2205   -1.0922 H   0  0  0  0  0  0  0  0  0  0  0  0
    0.5625    0.5490   -0.4578 C   0  0  0  0  0  0  0  0  0  0  0  0
    1.3416   -0.0290    0.0412 H   0  0  0  0  0  0  0  0  0  0  0  0
    0.8253    0.6763   -1.5084 H   0  0  0  0  0  0  0  0  0  0  0  0
    0.4519    1.9259    0.2111 C   0  0  0  0  0  0  0  0  0  0  0  0
   -0.3480    2.4874   -0.2770 H   0  0  0  0  0  0  0  0  0  0  0  0
    0.1909    1.7818    1.2622 H   0  0  0  0  0  0  0  0  0  0  0  0
    1.7159    2.6849    0.1158 N   0  3  0  0  0  0  0  0  0  0  0  0
    2.4929    2.2158   -0.3171 H   0  0  0  0  0  0  0  0  0  0  0  0
    1.9206    3.9192    0.5445 C   0  0  0  0  0  0  0  0  0  0  0  0
    0.9824    4.6176    1.1201 N   0  0  0  0  0  0  0  0  0  0  0  0
    0.0750    4.2032    1.2395 H   0  0  0  0  0  0  0  0  0  0  0  0
    1.1545    5.5529    1.4400 H   0  0  0  0  0  0  0  0  0  0  0  0
    3.0868    4.4821    0.4023 N   0  0  0  0  0  0  0  0  0  0  0  0
    3.8418    3.9832   -0.0359 H   0  0  0  0  0  0  0  0  0  0  0  0
    3.2378    5.4187    0.7289 H   0  0  0  0  0  0  0  0  0  0  0  0
   -1.6547    1.3413    1.4779 C   0  0  0  0  0  0  0  0  0  0  0  0
   -2.5654    1.9858    0.9716 O   0  0  0  0  0  0  0  0  0  0  0  0
   -0.8107    1.8504    2.3808 N   0  0  0  0  0  0  0  0  0  0  0  0
   -0.1136    1.2381    2.7719 H   0  0  0  0  0  0  0  0  0  0  0  0
   -0.8954    3.2155    2.9026 C   0  0  0  0  0  0  0  0  0  0  0  0
   -1.8299    3.3430    3.4532 H   0  0  0  0  0  0  0  0  0  0  0  0
   -0.0581    3.4194    3.5712 H   0  0  0  0  0  0  0  0  0  0  0  0
   -0.8804    3.9320    2.0784 H   0  0  0  0  0  0  0  0  0  0  0  0
  5  6  2  0  0  0  0
  5  7  1  0  0  0  0
  2  3  1  0  0  0  0
  2  4  1  0  0  0  0
  2  5  1  0  0  0  0
  1  2  1  0  0  0  0
 29 30  2  0  0  0  0
 29 31  1  0  0  0  0
 26 27  1  0  0  0  0
 26 28  1  0  0  0  0
 23 24  1  0  0  0  0
 23 25  1  0  0  0  0
 22 23  1  0  0  0  0
 22 26  1  0  0  0  0
 20 21  1  0  0  0  0
 20 22  2  0  0  0  0
 17 18  1  0  0  0  0
 17 19  1  0  0  0  0
 17 20  1  0  0  0  0
 14 15  1  0  0  0  0
 14 16  1  0  0  0  0
 14 17  1  0  0  0  0
 11 12  1  0  0  0  0
 11 13  1  0  0  0  0
 11 14  1  0  0  0  0
  9 10  1  0  0  0  0
  9 11  1  0  0  0  0
  9 29  1  0  0  0  0
  7  8  1  0  0  0  0
  7  9  1  0  0  0  0
 33 34  1  0  0  0  0
 33 35  1  0  0  0  0
 33 36  1  0  0  0  0
 31 32  1  0  0  0  0
 31 33  1  0  0  0  0
M  CHG  1  20   1
M  END
$$$$
default_name
  -OEChem-02102213163D

 36 35  0     1  0  0  0  0  0999 V2000
   -4.2256   -3.6731    1.8584 H   0  0  0  0  0  0  0  0  0  0  0  0
   -4.2396   -2.6781    1.4144 C   0  0  0  0  0  0  0  0  0  0  0  0
   -4.9506   -2.0521    1.9514 H   0  0  0  0  0  0  0  0  0  0  0  0
   -4.5266   -2.7521    0.3674 H   0  0  0  0  0  0  0  0  0  0  0  0
   -2.8576   -2.0761    1.5184 C   0  0  0  0  0  0  0  0  0  0  0  0
   -1.9456   -2.7051    2.0404 O   0  0  0  0  0  0  0  0  0  0  0  0
   -2.6926   -0.8481    1.0174 N   0  0  0  0  0  0  0  0  0  0  0  0
   -3.4926   -0.3971    0.5954 H   0  0  0  0  0  0  0  0  0  0  0  0
   -1.4216   -0.1071    1.0434 C   0  0  1  0  0  0  0  0  0  0  0  0
   -0.7579   -0.5878    1.7640 H   0  0  0  0  0  0  0  0  0  0  0  0
   -0.7791   -0.1912   -0.3557 C   0  0  0  0  0  0  0  0  0  0  0  0
   -0.6105   -1.2421   -0.5991 H   0  0  0  0  0  0  0  0  0  0  0  0
   -1.4727    0.2205   -1.0922 H   0  0  0  0  0  0  0  0  0  0  0  0
    0.5625    0.5490   -0.4578 C   0  0  0  0  0  0  0  0  0  0  0  0
    1.3784   -0.1295   -0.2046 H   0  0  0  0  0  0  0  0  0  0  0  0
    0.6982    0.9109   -1.4774 H   0  0  0  0  0  0  0  0  0  0  0  0
    0.5784    1.7382    0.5123 C   0  0  0  0  0  0  0  0  0  0  0  0
   -0.2573    2.3982    0.2684 H   0  0  0  0  0  0  0  0  0  0  0  0
    0.4439    1.3599    1.5284 H   0  0  0  0  0  0  0  0  0  0  0  0
    1.8444    2.4954    0.4308 N   0  3  0  0  0  0  0  0  0  0  0  0
    2.5472    2.1347   -0.1914 H   0  0  0  0  0  0  0  0  0  0  0  0
    2.1390    3.5994    1.0968 C   0  0  0  0  0  0  0  0  0  0  0  0
    1.3011    4.1514    1.9289 N   0  0  0  0  0  0  0  0  0  0  0  0
    0.4026    3.7234    2.0660 H   0  0  0  0  0  0  0  0  0  0  0  0
    1.5406    4.9891    2.4267 H   0  0  0  0  0  0  0  0  0  0  0  0
    3.2962    4.1766    0.9383 N   0  0  0  0  0  0  0  0  0  0  0  0
    3.9755    3.7881    0.3070 H   0  0  0  0  0  0  0  0  0  0  0  0
    3.5156    5.0140    1.4455 H   0  0  0  0  0  0  0  0  0  0  0  0
   -1.6547    1.3413    1.4779 C   0  0  0  0  0  0  0  0  0  0  0  0
   -2.5654    1.9858    0.9716 O   0  0  0  0  0  0  0  0  0  0  0  0
   -0.8107    1.8504    2.3808 N   0  0  0  0  0  0  0  0  0  0  0  0
   -0.1136    1.2381    2.7719 H   0  0  0  0  0  0  0  0  0  0  0  0
   -0.8954    3.2155    2.9026 C   0  0  0  0  0  0  0  0  0  0  0  0
   -1.8299    3.3430    3.4532 H   0  0  0  0  0  0  0  0  0  0  0  0
   -0.0581    3.4194    3.5712 H   0  0  0  0  0  0  0  0  0  0  0  0
   -0.8804    3.9320    2.0784 H   0  0  0  0  0  0  0  0  0  0  0  0
  5  6  2  0  0  0  0
  5  7  1  0  0  0  0
  2  3  1  0  0  0  0
  2  4  1  0  0  0  0
  2  5  1  0  0  0  0
  1  2  1  0  0  0  0
 29 30  2  0  0  0  0
 29 31  1  0  0  0  0
 26 27  1  0  0  0  0
 26 28  1  0  0  0  0
 23 24  1  0  0  0  0
 23 25  1  0  0  0  0
 22 23  1  0  0  0  0
 22 26  1  0  0  0  0
 20 21  1  0  0  0  0
 20 22  2  0  0  0  0
 17 18  1  0  0  0  0
 17 19  1  0  0  0  0
 17 20  1  0  0  0  0
 14 15  1  0  0  0  0
 14 16  1  0  0  0  0
 14 17  1  0  0  0  0
 11 12  1  0  0  0  0
 11 13  1  0  0  0  0
 11 14  1  0  0  0  0
  9 10  1  0  0  0  0
  9 11  1  0  0  0  0
  9 29  1  0  0  0  0
  7  8  1  0  0  0  0
  7  9  1  0  0  0  0
 33 34  1  0  0  0  0
 33 35  1  0  0  0  0
 33 36  1  0  0  0  0
 31 32  1  0  0  0  0
 31 33  1  0  0  0  0
M  CHG  1  20   1
M  END
$$$$
default_name
  -OEChem-02102213163D

 36 35  0     1  0  0  0  0  0999 V2000
   -4.2256   -3.6731    1.8584 H   0  0  0  0  0  0  0  0  0  0  0  0
   -4.2396   -2.6781    1.4144 C   0  0  0  0  0  0  0  0  0  0  0  0
   -4.9506   -2.0521    1.9514 H   0  0  0  0  0  0  0  0  0  0  0  0
   -4.5266   -2.7521    0.3674 H   0  0  0  0  0  0  0  0  0  0  0  0
   -2.8576   -2.0761    1.5184 C   0  0  0  0  0  0  0  0  0  0  0  0
   -1.9456   -2.7051    2.0404 O   0  0  0  0  0  0  0  0  0  0  0  0
   -2.6926   -0.8481    1.0174 N   0  0  0  0  0  0  0  0  0  0  0  0
   -3.4926   -0.3971    0.5954 H   0  0  0  0  0  0  0  0  0  0  0  0
   -1.4216   -0.1071    1.0434 C   0  0  1  0  0  0  0  0  0  0  0  0
   -0.7579   -0.5878    1.7640 H   0  0  0  0  0  0  0  0  0  0  0  0
   -0.7791   -0.1912   -0.3557 C   0  0  0  0  0  0  0  0  0  0  0  0
   -0.6105   -1.2421   -0.5991 H   0  0  0  0  0  0  0  0  0  0  0  0
   -1.4727    0.2205   -1.0922 H   0  0  0  0  0  0  0  0  0  0  0  0
    0.5625    0.5490   -0.4578 C   0  0  0  0  0  0  0  0  0  0  0  0
    1.3815   -0.1716   -0.4692 H   0  0  0  0  0  0  0  0  0  0  0  0
    0.5833    1.1327   -1.3786 H   0  0  0  0  0  0  0  0  0  0  0  0
    0.7349    1.4867    0.7450 C   0  0  0  0  0  0  0  0  0  0  0  0
   -0.1032    2.1872    0.7638 H   0  0  0  0  0  0  0  0  0  0  0  0
    0.7143    0.8877    1.6585 H   0  0  0  0  0  0  0  0  0  0  0  0
    2.0045    2.2389    0.6762 N   0  3  0  0  0  0  0  0  0  0  0  0
    2.6140    2.0270   -0.0951 H   0  0  0  0  0  0  0  0  0  0  0  0
    2.4134    3.1619    1.5307 C   0  0  0  0  0  0  0  0  0  0  0  0
    1.7018    3.5128    2.5650 N   0  0  0  0  0  0  0  0  0  0  0  0
    0.8138    3.0673    2.7150 H   0  0  0  0  0  0  0  0  0  0  0  0
    2.0270    4.2148    3.2040 H   0  0  0  0  0  0  0  0  0  0  0  0
    3.5600    3.7567    1.3609 N   0  0  0  0  0  0  0  0  0  0  0  0
    4.1441    3.5199    0.5775 H   0  0  0  0  0  0  0  0  0  0  0  0
    3.8663    4.4563    2.0114 H   0  0  0  0  0  0  0  0  0  0  0  0
   -1.6547    1.3413    1.4779 C   0  0  0  0  0  0  0  0  0  0  0  0
   -2.5654    1.9858    0.9716 O   0  0  0  0  0  0  0  0  0  0  0  0
   -0.8107    1.8504    2.3808 N   0  0  0  0  0  0  0  0  0  0  0  0
   -0.1136    1.2381    2.7719 H   0  0  0  0  0  0  0  0  0  0  0  0
   -0.8954    3.2155    2.9026 C   0  0  0  0  0  0  0  0  0  0  0  0
   -1.8299    3.3430    3.4532 H   0  0  0  0  0  0  0  0  0  0  0  0
   -0.0581    3.4194    3.5712 H   0  0  0  0  0  0  0  0  0  0  0  0
   -0.8804    3.9320    2.0784 H   0  0  0  0  0  0  0  0  0  0  0  0
  5  6  2  0  0  0  0
  5  7  1  0  0  0  0
  2  3  1  0  0  0  0
  2  4  1  0  0  0  0
  2  5  1  0  0  0  0
  1  2  1  0  0  0  0
 29 30  2  0  0  0  0
 29 31  1  0  0  0  0
 26 27  1  0  0  0  0
 26 28  1  0  0  0  0
 23 24  1  0  0  0  0
 23 25  1  0  0  0  0
 22 23  1  0  0  0  0
 22 26  1  0  0  0  0
 20 21  1  0  0  0  0
 20 22  2  0  0  0  0
 17 18  1  0  0  0  0
 17 19  1  0  0  0  0
 17 20  1  0  0  0  0
 14 15  1  0  0  0  0
 14 16  1  0  0  0  0
 14 17  1  0  0  0  0
 11 12  1  0  0  0  0
 11 13  1  0  0  0  0
 11 14  1  0  0  0  0
  9 10  1  0  0  0  0
  9 11  1  0  0  0  0
  9 29  1  0  0  0  0
  7  8  1  0  0  0  0
  7  9  1  0  0  0  0
 33 34  1  0  0  0  0
 33 35  1  0  0  0  0
 33 36  1  0  0  0  0
 31 32  1  0  0  0  0
 31 33  1  0  0  0  0
M  CHG  1  20   1
M  END
$$$$
default_name
  -OEChem-02102213163D

 36 35  0     1  0  0  0  0  0999 V2000
   -4.2256   -3.6731    1.8584 H   0  0  0  0  0  0  0  0  0  0  0  0
   -4.2396   -2.6781    1.4144 C   0  0  0  0  0  0  0  0  0  0  0  0
   -4.9506   -2.0521    1.9514 H   0  0  0  0  0  0  0  0  0  0  0  0
   -4.5266   -2.7521    0.3674 H   0  0  0  0  0  0  0  0  0  0  0  0
   -2.8576   -2.0761    1.5184 C   0  0  0  0  0  0  0  0  0  0  0  0
   -1.9456   -2.7051    2.0404 O   0  0  0  0  0  0  0  0  0  0  0  0
   -2.6926   -0.8481    1.0174 N   0  0  0  0  0  0  0  0  0  0  0  0
   -3.4926   -0.3971    0.5954 H   0  0  0  0  0  0  0  0  0  0  0  0
   -1.4216   -0.1071    1.0434 C   0  0  1  0  0  0  0  0  0  0  0  0
   -0.7579   -0.5878    1.7640 H   0  0  0  0  0  0  0  0  0  0  0  0
   -0.7791   -0.1912   -0.3557 C   0  0  0  0  0  0  0  0  0  0  0  0
   -0.6105   -1.2421   -0.5991 H   0  0  0  0  0  0  0  0  0  0  0  0
   -1.4727    0.2205   -1.0922 H   0  0  0  0  0  0  0  0  0  0  0  0
    0.5625    0.5490   -0.4578 C   0  0  0  0  0  0  0  0  0  0  0  0
    1.3507   -0.1525   -0.7347 H   0  0  0  0  0  0  0  0  0  0  0  0
    0.4885    1.3266   -1.2186 H   0  0  0  0  0  0  0  0  0  0  0  0
    0.9107    1.1884    0.8933 C   0  0  0  0  0  0  0  0  0  0  0  0
    0.1039    1.8687    1.1754 H   0  0  0  0  0  0  0  0  0  0  0  0
    0.9836    0.3976    1.6437 H   0  0  0  0  0  0  0  0  0  0  0  0
    2.1854    1.9329    0.8353 N   0  3  0  0  0  0  0  0  0  0  0  0
    2.6886    1.9001   -0.0348 H   0  0  0  0  0  0  0  0  0  0  0  0
    2.7250    2.6364    1.8167 C   0  0  0  0  0  0  0  0  0  0  0  0
    2.1572    2.7452    2.9850 N   0  0  0  0  0  0  0  0  0  0  0  0
    1.2808    2.2799    3.1422 H   0  0  0  0  0  0  0  0  0  0  0  0
    2.5804    3.2827    3.7192 H   0  0  0  0  0  0  0  0  0  0  0  0
    3.8603    3.2509    1.6412 N   0  0  0  0  0  0  0  0  0  0  0  0
    4.3360    3.1967    0.7570 H   0  0  0  0  0  0  0  0  0  0  0  0
    4.2661    3.7836    2.3883 H   0  0  0  0  0  0  0  0  0  0  0  0
   -1.6547    1.3413    1.4779 C   0  0  0  0  0  0  0  0  0  0  0  0
   -2.5654    1.9858    0.9716 O   0  0  0  0  0  0  0  0  0  0  0  0
   -0.8107    1.8504    2.3808 N   0  0  0  0  0  0  0  0  0  0  0  0
   -0.1136    1.2381    2.7719 H   0  0  0  0  0  0  0  0  0  0  0  0
   -0.8954    3.2155    2.9026 C   0  0  0  0  0  0  0  0  0  0  0  0
   -1.8299    3.3430    3.4532 H   0  0  0  0  0  0  0  0  0  0  0  0
   -0.0581    3.4194    3.5712 H   0  0  0  0  0  0  0  0  0  0  0  0
   -0.8804    3.9320    2.0784 H   0  0  0  0  0  0  0  0  0  0  0  0
  5  6  2  0  0  0  0
  5  7  1  0  0  0  0
  2  3  1  0  0  0  0
  2  4  1  0  0  0  0
  2  5  1  0  0  0  0
  1  2  1  0  0  0  0
 29 30  2  0  0  0  0
 29 31  1  0  0  0  0
 26 27  1  0  0  0  0
 26 28  1  0  0  0  0
 23 24  1  0  0  0  0
 23 25  1  0  0  0  0
 22 23  1  0  0  0  0
 22 26  1  0  0  0  0
 20 21  1  0  0  0  0
 20 22  2  0  0  0  0
 17 18  1  0  0  0  0
 17 19  1  0  0  0  0
 17 20  1  0  0  0  0
 14 15  1  0  0  0  0
 14 16  1  0  0  0  0
 14 17  1  0  0  0  0
 11 12  1  0  0  0  0
 11 13  1  0  0  0  0
 11 14  1  0  0  0  0
  9 10  1  0  0  0  0
  9 11  1  0  0  0  0
  9 29  1  0  0  0  0
  7  8  1  0  0  0  0
  7  9  1  0  0  0  0
 33 34  1  0  0  0  0
 33 35  1  0  0  0  0
 33 36  1  0  0  0  0
 31 32  1  0  0  0  0
 31 33  1  0  0  0  0
M  CHG  1  20   1
M  END
$$$$
default_name
  -OEChem-02102213163D

 36 35  0     1  0  0  0  0  0999 V2000
   -4.2256   -3.6731    1.8584 H   0  0  0  0  0  0  0  0  0  0  0  0
   -4.2396   -2.6781    1.4144 C   0  0  0  0  0  0  0  0  0  0  0  0
   -4.9506   -2.0521    1.9514 H   0  0  0  0  0  0  0  0  0  0  0  0
   -4.5266   -2.7521    0.3674 H   0  0  0  0  0  0  0  0  0  0  0  0
   -2.8576   -2.0761    1.5184 C   0  0  0  0  0  0  0  0  0  0  0  0
   -1.9456   -2.7051    2.0404 O   0  0  0  0  0  0  0  0  0  0  0  0
   -2.6926   -0.8481    1.0174 N   0  0  0  0  0  0  0  0  0  0  0  0
   -3.4926   -0.3971    0.5954 H   0  0  0  0  0  0  0  0  0  0  0  0
   -1.4216   -0.1071    1.0434 C   0  0  1  0  0  0  0  0  0  0  0  0
   -0.7579   -0.5878    1.7640 H   0  0  0  0  0  0  0  0  0  0  0  0
   -0.7791   -0.1912   -0.3557 C   0  0  0  0  0  0  0  0  0  0  0  0
   -0.6105   -1.2421   -0.5991 H   0  0  0  0  0  0  0  0  0  0  0  0
   -1.4727    0.2205   -1.0922 H   0  0  0  0  0  0  0  0  0  0  0  0
    0.5625    0.5490   -0.4578 C   0  0  0  0  0  0  0  0  0  0  0  0
    1.2882   -0.0735   -0.9831 H   0  0  0  0  0  0  0  0  0  0  0  0
    0.4203    1.4794   -1.0084 H   0  0  0  0  0  0  0  0  0  0  0  0
    1.0939    0.8636    0.9473 C   0  0  0  0  0  0  0  0  0  0  0  0
    0.3497    1.4644    1.4751 H   0  0  0  0  0  0  0  0  0  0  0  0
    1.2334   -0.0771    1.4850 H   0  0  0  0  0  0  0  0  0  0  0  0
    2.3748    1.5983    0.8973 N   0  3  0  0  0  0  0  0  0  0  0  0
    2.7660    1.7626   -0.0145 H   0  0  0  0  0  0  0  0  0  0  0  0
    3.0527    2.0588    1.9352 C   0  0  0  0  0  0  0  0  0  0  0  0
    2.6363    1.9009    3.1604 N   0  0  0  0  0  0  0  0  0  0  0  0
    1.7715    1.4146    3.3186 H   0  0  0  0  0  0  0  0  0  0  0  0
    3.1631    2.2563    3.9369 H   0  0  0  0  0  0  0  0  0  0  0  0
    4.1766    2.6939    1.7601 N   0  0  0  0  0  0  0  0  0  0  0  0
    4.5383    2.8406    0.8335 H   0  0  0  0  0  0  0  0  0  0  0  0
    4.6877    3.0417    2.5503 H   0  0  0  0  0  0  0  0  0  0  0  0
   -1.6547    1.3413    1.4779 C   0  0  0  0  0  0  0  0  0  0  0  0
   -2.5654    1.9858    0.9716 O   0  0  0  0  0  0  0  0  0  0  0  0
   -0.8107    1.8504    2.3808 N   0  0  0  0  0  0  0  0  0  0  0  0
   -0.1136    1.2381    2.7719 H   0  0  0  0  0  0  0  0  0  0  0  0
   -0.8954    3.2155    2.9026 C   0  0  0  0  0  0  0  0  0  0  0  0
   -1.8299    3.3430    3.4532 H   0  0  0  0  0  0  0  0  0  0  0  0
   -0.0581    3.4194    3.5712 H   0  0  0  0  0  0  0  0  0  0  0  0
   -0.8804    3.9320    2.0784 H   0  0  0  0  0  0  0  0  0  0  0  0
  5  6  2  0  0  0  0
  5  7  1  0  0  0  0
  2  3  1  0  0  0  0
  2  4  1  0  0  0  0
  2  5  1  0  0  0  0
  1  2  1  0  0  0  0
 29 30  2  0  0  0  0
 29 31  1  0  0  0  0
 26 27  1  0  0  0  0
 26 28  1  0  0  0  0
 23 24  1  0  0  0  0
 23 25  1  0  0  0  0
 22 23  1  0  0  0  0
 22 26  1  0  0  0  0
 20 21  1  0  0  0  0
 20 22  2  0  0  0  0
 17 18  1  0  0  0  0
 17 19  1  0  0  0  0
 17 20  1  0  0  0  0
 14 15  1  0  0  0  0
 14 16  1  0  0  0  0
 14 17  1  0  0  0  0
 11 12  1  0  0  0  0
 11 13  1  0  0  0  0
 11 14  1  0  0  0  0
  9 10  1  0  0  0  0
  9 11  1  0  0  0  0
  9 29  1  0  0  0  0
  7  8  1  0  0  0  0
  7  9  1  0  0  0  0
 33 34  1  0  0  0  0
 33 35  1  0  0  0  0
 33 36  1  0  0  0  0
 31 32  1  0  0  0  0
 31 33  1  0  0  0  0
M  CHG  1  20   1
M  END
$$$$
default_name
  -OEChem-02102213163D

 36 35  0     1  0  0  0  0  0999 V2000
   -4.2256   -3.6731    1.8584 H   0  0  0  0  0  0  0  0  0  0  0  0
   -4.2396   -2.6781    1.4144 C   0  0  0  0  0  0  0  0  0  0  0  0
   -4.9506   -2.0521    1.9514 H   0  0  0  0  0  0  0  0  0  0  0  0
   -4.5266   -2.7521    0.3674 H   0  0  0  0  0  0  0  0  0  0  0  0
   -2.8576   -2.0761    1.5184 C   0  0  0  0  0  0  0  0  0  0  0  0
   -1.9456   -2.7051    2.0404 O   0  0  0  0  0  0  0  0  0  0  0  0
   -2.6926   -0.8481    1.0174 N   0  0  0  0  0  0  0  0  0  0  0  0
   -3.4926   -0.3971    0.5954 H   0  0  0  0  0  0  0  0  0  0  0  0
   -1.4216   -0.1071    1.0434 C   0  0  1  0  0  0  0  0  0  0  0  0
   -0.7579   -0.5878    1.7640 H   0  0  0  0  0  0  0  0  0  0  0  0
   -0.7791   -0.1912   -0.3557 C   0  0  0  0  0  0  0  0  0  0  0  0
   -0.6105   -1.2421   -0.5991 H   0  0  0  0  0  0  0  0  0  0  0  0
   -1.4727    0.2205   -1.0922 H   0  0  0  0  0  0  0  0  0  0  0  0
    0.5625    0.5490   -0.4578 C   0  0  0  0  0  0  0  0  0  0  0  0
    1.1982    0.0601   -1.1973 H   0  0  0  0  0  0  0  0  0  0  0  0
    0.3832    1.5806   -0.7624 H   0  0  0  0  0  0  0  0  0  0  0  0
    1.2721    0.5347    0.9031 C   0  0  0  0  0  0  0  0  0  0  0  0
    0.6176    1.0019    1.6425 H   0  0  0  0  0  0  0  0  0  0  0  0
    1.4467   -0.5041    1.1932 H   0  0  0  0  0  0  0  0  0  0  0  0
    2.5596    1.2578    0.8578 N   0  3  0  0  0  0  0  0  0  0  0  0
    2.8409    1.6238   -0.0357 H   0  0  0  0  0  0  0  0  0  0  0  0
    3.3740    1.4685    1.8783 C   0  0  0  0  0  0  0  0  0  0  0  0
    3.1064    1.0375    3.0791 N   0  0  0  0  0  0  0  0  0  0  0  0
    2.2527    0.5304    3.2320 H   0  0  0  0  0  0  0  0  0  0  0  0
    3.7355    1.2057    3.8425 H   0  0  0  0  0  0  0  0  0  0  0  0
    4.4874    2.1235    1.7096 N   0  0  0  0  0  0  0  0  0  0  0  0
    4.7370    2.4759    0.8015 H   0  0  0  0  0  0  0  0  0  0  0  0
    5.1023    2.2813    2.4865 H   0  0  0  0  0  0  0  0  0  0  0  0
   -1.6547    1.3413    1.4779 C   0  0  0  0  0  0  0  0  0  0  0  0
   -2.5654    1.9858    0.9716 O   0  0  0  0  0  0  0  0  0  0  0  0
   -0.8107    1.8504    2.3808 N   0  0  0  0  0  0  0  0  0  0  0  0
   -0.1136    1.2381    2.7719 H   0  0  0  0  0  0  0  0  0  0  0  0
   -0.8954    3.2155    2.9026 C   0  0  0  0  0  0  0  0  0  0  0  0
   -1.8299    3.3430    3.4532 H   0  0  0  0  0  0  0  0  0  0  0  0
   -0.0581    3.4194    3.5712 H   0  0  0  0  0  0  0  0  0  0  0  0
   -0.8804    3.9320    2.0784 H   0  0  0  0  0  0  0  0  0  0  0  0
  5  6  2  0  0  0  0
  5  7  1  0  0  0  0
  2  3  1  0  0  0  0
  2  4  1  0  0  0  0
  2  5  1  0  0  0  0
  1  2  1  0  0  0  0
 29 30  2  0  0  0  0
 29 31  1  0  0  0  0
 26 27  1  0  0  0  0
 26 28  1  0  0  0  0
 23 24  1  0  0  0  0
 23 25  1  0  0  0  0
 22 23  1  0  0  0  0
 22 26  1  0  0  0  0
 20 21  1  0  0  0  0
 20 22  2  0  0  0  0
 17 18  1  0  0  0  0
 17 19  1  0  0  0  0
 17 20  1  0  0  0  0
 14 15  1  0  0  0  0
 14 16  1  0  0  0  0
 14 17  1  0  0  0  0
 11 12  1  0  0  0  0
 11 13  1  0  0  0  0
 11 14  1  0  0  0  0
  9 10  1  0  0  0  0
  9 11  1  0  0  0  0
  9 29  1  0  0  0  0
  7  8  1  0  0  0  0
  7  9  1  0  0  0  0
 33 34  1  0  0  0  0
 33 35  1  0  0  0  0
 33 36  1  0  0  0  0
 31 32  1  0  0  0  0
 31 33  1  0  0  0  0
M  CHG  1  20   1
M  END
$$$$
default_name
  -OEChem-02102213163D

 36 35  0     1  0  0  0  0  0999 V2000
   -4.2256   -3.6731    1.8584 H   0  0  0  0  0  0  0  0  0  0  0  0
   -4.2396   -2.6781    1.4144 C   0  0  0  0  0  0  0  0  0  0  0  0
   -4.9506   -2.0521    1.9514 H   0  0  0  0  0  0  0  0  0  0  0  0
   -4.5266   -2.7521    0.3674 H   0  0  0  0  0  0  0  0  0  0  0  0
   -2.8576   -2.0761    1.5184 C   0  0  0  0  0  0  0  0  0  0  0  0
   -1.9456   -2.7051    2.0404 O   0  0  0  0  0  0  0  0  0  0  0  0
   -2.6926   -0.8481    1.0174 N   0  0  0  0  0  0  0  0  0  0  0  0
   -3.4926   -0.3971    0.5954 H   0  0  0  0  0  0  0  0  0  0  0  0
   -1.4216   -0.1071    1.0434 C   0  0  1  0  0  0  0  0  0  0  0  0
   -0.7579   -0.5878    1.7640 H   0  0  0  0  0  0  0  0  0  0  0  0
   -0.7791   -0.1912   -0.3557 C   0  0  0  0  0  0  0  0  0  0  0  0
   -0.6105   -1.2421   -0.5991 H   0  0  0  0  0  0  0  0  0  0  0  0
   -1.4727    0.2205   -1.0922 H   0  0  0  0  0  0  0  0  0  0  0  0
    0.5625    0.5490   -0.4578 C   0  0  0  0  0  0  0  0  0  0  0  0
    1.0869    0.2391   -1.3628 H   0  0  0  0  0  0  0  0  0  0  0  0
    0.3798    1.6233   -0.4972 H   0  0  0  0  0  0  0  0  0  0  0  0
    1.4329    0.2238    0.7638 C   0  0  0  0  0  0  0  0  0  0  0  0
    0.8893    0.5127    1.6662 H   0  0  0  0  0  0  0  0  0  0  0  0
    1.6090   -0.8542    0.7882 H   0  0  0  0  0  0  0  0  0  0  0  0
    2.7274    0.9346    0.7196 N   0  3  0  0  0  0  0  0  0  0  0  0
    2.9083    1.4933   -0.0968 H   0  0  0  0  0  0  0  0  0  0  0  0
    3.6671    0.9056    1.6497 C   0  0  0  0  0  0  0  0  0  0  0  0
    3.5355    0.2139    2.7467 N   0  0  0  0  0  0  0  0  0  0  0  0
    2.6914   -0.3123    2.8885 H   0  0  0  0  0  0  0  0  0  0  0  0
    4.2586    0.2024    3.4423 H   0  0  0  0  0  0  0  0  0  0  0  0
    4.7715    1.5787    1.4930 N   0  0  0  0  0  0  0  0  0  0  0  0
    4.9188    2.1274    0.6634 H   0  0  0  0  0  0  0  0  0  0  0  0
    5.4818    1.5540    2.2011 H   0  0  0  0  0  0  0  0  0  0  0  0
   -1.6547    1.3413    1.4779 C   0  0  0  0  0  0  0  0  0  0  0  0
   -2.5654    1.9858    0.9716 O   0  0  0  0  0  0  0  0  0  0  0  0
   -0.8107    1.8504    2.3808 N   0  0  0  0  0  0  0  0  0  0  0  0
   -0.1136    1.2381    2.7719 H   0  0  0  0  0  0  0  0  0  0  0  0
   -0.8954    3.2155    2.9026 C   0  0  0  0  0  0  0  0  0  0  0  0
   -1.8299    3.3430    3.4532 H   0  0  0  0  0  0  0  0  0  0  0  0
   -0.0581    3.4194    3.5712 H   0  0  0  0  0  0  0  0  0  0  0  0
   -0.8804    3.9320    2.0784 H   0  0  0  0  0  0  0  0  0  0  0  0
  5  6  2  0  0  0  0
  5  7  1  0  0  0  0
  2  3  1  0  0  0  0
  2  4  1  0  0  0  0
  2  5  1  0  0  0  0
  1  2  1  0  0  0  0
 29 30  2  0  0  0  0
 29 31  1  0  0  0  0
 26 27  1  0  0  0  0
 26 28  1  0  0  0  0
 23 24  1  0  0  0  0
 23 25  1  0  0  0  0
 22 23  1  0  0  0  0
 22 26  1  0  0  0  0
 20 21  1  0  0  0  0
 20 22  2  0  0  0  0
 17 18  1  0  0  0  0
 17 19  1  0  0  0  0
 17 20  1  0  0  0  0
 14 15  1  0  0  0  0
 14 16  1  0  0  0  0
 14 17  1  0  0  0  0
 11 12  1  0  0  0  0
 11 13  1  0  0  0  0
 11 14  1  0  0  0  0
  9 10  1  0  0  0  0
  9 11  1  0  0  0  0
  9 29  1  0  0  0  0
  7  8  1  0  0  0  0
  7  9  1  0  0  0  0
 33 34  1  0  0  0  0
 33 35  1  0  0  0  0
 33 36  1  0  0  0  0
 31 32  1  0  0  0  0
 31 33  1  0  0  0  0
M  CHG  1  20   1
M  END
$$$$
default_name
  -OEChem-02102213163D

 36 35  0     1  0  0  0  0  0999 V2000
   -4.2256   -3.6731    1.8584 H   0  0  0  0  0  0  0  0  0  0  0  0
   -4.2396   -2.6781    1.4144 C   0  0  0  0  0  0  0  0  0  0  0  0
   -4.9506   -2.0521    1.9514 H   0  0  0  0  0  0  0  0  0  0  0  0
   -4.5266   -2.7521    0.3674 H   0  0  0  0  0  0  0  0  0  0  0  0
   -2.8576   -2.0761    1.5184 C   0  0  0  0  0  0  0  0  0  0  0  0
   -1.9456   -2.7051    2.0404 O   0  0  0  0  0  0  0  0  0  0  0  0
   -2.6926   -0.8481    1.0174 N   0  0  0  0  0  0  0  0  0  0  0  0
   -3.4926   -0.3971    0.5954 H   0  0  0  0  0  0  0  0  0  0  0  0
   -1.4216   -0.1071    1.0434 C   0  0  1  0  0  0  0  0  0  0  0  0
   -0.7579   -0.5878    1.7640 H   0  0  0  0  0  0  0  0  0  0  0  0
   -0.7791   -0.1912   -0.3557 C   0  0  0  0  0  0  0  0  0  0  0  0
   -0.6105   -1.2421   -0.5991 H   0  0  0  0  0  0  0  0  0  0  0  0
   -1.4727    0.2205   -1.0922 H   0  0  0  0  0  0  0  0  0  0  0  0
    0.5625    0.5490   -0.4578 C   0  0  0  0  0  0  0  0  0  0  0  0
    0.9618    0.4513   -1.4683 H   0  0  0  0  0  0  0  0  0  0  0  0
    0.4103    1.6047   -0.2309 H   0  0  0  0  0  0  0  0  0  0  0  0
    1.5656   -0.0477    0.5389 C   0  0  0  0  0  0  0  0  0  0  0  0
    1.1462    0.0301    1.5446 H   0  0  0  0  0  0  0  0  0  0  0  0
    1.7092   -1.1036    0.2975 H   0  0  0  0  0  0  0  0  0  0  0  0
    2.8666    0.6508    0.4921 N   0  3  0  0  0  0  0  0  0  0  0  0
    2.9635    1.3798   -0.1938 H   0  0  0  0  0  0  0  0  0  0  0  0
    3.9120    0.4086    1.2650 C   0  0  0  0  0  0  0  0  0  0  0  0
    3.8943   -0.5140    2.1858 N   0  0  0  0  0  0  0  0  0  0  0  0
    3.0579   -1.0562    2.3114 H   0  0  0  0  0  0  0  0  0  0  0  0
    4.6966   -0.6853    2.7637 H   0  0  0  0  0  0  0  0  0  0  0  0
    5.0095    1.0965    1.1252 N   0  0  0  0  0  0  0  0  0  0  0  0
    5.0711    1.8189    0.4286 H   0  0  0  0  0  0  0  0  0  0  0  0
    5.8003    0.9095    1.7137 H   0  0  0  0  0  0  0  0  0  0  0  0
   -1.6547    1.3413    1.4779 C   0  0  0  0  0  0  0  0  0  0  0  0
   -2.5654    1.9858    0.9716 O   0  0  0  0  0  0  0  0  0  0  0  0
   -0.8107    1.8504    2.3808 N   0  0  0  0  0  0  0  0  0  0  0  0
   -0.1136    1.2381    2.7719 H   0  0  0  0  0  0  0  0  0  0  0  0
   -0.8954    3.2155    2.9026 C   0  0  0  0  0  0  0  0  0  0  0  0
   -1.8299    3.3430    3.4532 H   0  0  0  0  0  0  0  0  0  0  0  0
   -0.0581    3.4194    3.5712 H   0  0  0  0  0  0  0  0  0  0  0  0
   -0.8804    3.9320    2.0784 H   0  0  0  0  0  0  0  0  0  0  0  0
  5  6  2  0  0  0  0
  5  7  1  0  0  0  0
  2  3  1  0  0  0  0
  2  4  1  0  0  0  0
  2  5  1  0  0  0  0
  1  2  1  0  0  0  0
 29 30  2  0  0  0  0
 29 31  1  0  0  0  0
 26 27  1  0  0  0  0
 26 28  1  0  0  0  0
 23 24  1  0  0  0  0
 23 25  1  0  0  0  0
 22 23  1  0  0  0  0
 22 26  1  0  0  0  0
 20 21  1  0  0  0  0
 20 22  2  0  0  0  0
 17 18  1  0  0  0  0
 17 19  1  0  0  0  0
 17 20  1  0  0  0  0
 14 15  1  0  0  0  0
 14 16  1  0  0  0  0
 14 17  1  0  0  0  0
 11 12  1  0  0  0  0
 11 13  1  0  0  0  0
 11 14  1  0  0  0  0
  9 10  1  0  0  0  0
  9 11  1  0  0  0  0
  9 29  1  0  0  0  0
  7  8  1  0  0  0  0
  7  9  1  0  0  0  0
 33 34  1  0  0  0  0
 33 35  1  0  0  0  0
 33 36  1  0  0  0  0
 31 32  1  0  0  0  0
 31 33  1  0  0  0  0
M  CHG  1  20   1
M  END
$$$$
default_name
  -OEChem-02102213163D

 36 35  0     1  0  0  0  0  0999 V2000
   -4.2256   -3.6731    1.8584 H   0  0  0  0  0  0  0  0  0  0  0  0
   -4.2396   -2.6781    1.4144 C   0  0  0  0  0  0  0  0  0  0  0  0
   -4.9506   -2.0521    1.9514 H   0  0  0  0  0  0  0  0  0  0  0  0
   -4.5266   -2.7521    0.3674 H   0  0  0  0  0  0  0  0  0  0  0  0
   -2.8576   -2.0761    1.5184 C   0  0  0  0  0  0  0  0  0  0  0  0
   -1.9456   -2.7051    2.0404 O   0  0  0  0  0  0  0  0  0  0  0  0
   -2.6926   -0.8481    1.0174 N   0  0  0  0  0  0  0  0  0  0  0  0
   -3.4926   -0.3971    0.5954 H   0  0  0  0  0  0  0  0  0  0  0  0
   -1.4216   -0.1071    1.0434 C   0  0  1  0  0  0  0  0  0  0  0  0
   -0.7579   -0.5878    1.7640 H   0  0  0  0  0  0  0  0  0  0  0  0
   -0.7791   -0.1912   -0.3557 C   0  0  0  0  0  0  0  0  0  0  0  0
   -0.6105   -1.2421   -0.5991 H   0  0  0  0  0  0  0  0  0  0  0  0
   -1.4727    0.2205   -1.0922 H   0  0  0  0  0  0  0  0  0  0  0  0
    0.5625    0.5490   -0.4578 C   0  0  0  0  0  0  0  0  0  0  0  0
    0.8314    0.6823   -1.5065 H   0  0  0  0  0  0  0  0  0  0  0  0
    0.4727    1.5260    0.0182 H   0  0  0  0  0  0  0  0  0  0  0  0
    1.6610   -0.2614    0.2437 C   0  0  0  0  0  0  0  0  0  0  0  0
    1.3709   -0.4129    1.2859 H   0  0  0  0  0  0  0  0  0  0  0  0
    1.7405   -1.2352   -0.2453 H   0  0  0  0  0  0  0  0  0  0  0  0
    2.9678    0.4258    0.1908 N   0  3  0  0  0  0  0  0  0  0  0  0
    3.0027    1.2913   -0.3201 H   0  0  0  0  0  0  0  0  0  0  0  0
    4.0921    0.0112    0.7505 C   0  0  0  0  0  0  0  0  0  0  0  0
    4.1584   -1.0964    1.4347 N   0  0  0  0  0  0  0  0  0  0  0  0
    3.3270   -1.6505    1.5401 H   0  0  0  0  0  0  0  0  0  0  0  0
    5.0198   -1.3968    1.8528 H   0  0  0  0  0  0  0  0  0  0  0  0
    5.1853    0.7097    0.6312 N   0  0  0  0  0  0  0  0  0  0  0  0
    5.1836    1.5714    0.1130 H   0  0  0  0  0  0  0  0  0  0  0  0
    6.0360    0.3917    1.0574 H   0  0  0  0  0  0  0  0  0  0  0  0
   -1.6547    1.3413    1.4779 C   0  0  0  0  0  0  0  0  0  0  0  0
   -2.5654    1.9858    0.9716 O   0  0  0  0  0  0  0  0  0  0  0  0
   -0.8107    1.8504    2.3808 N   0  0  0  0  0  0  0  0  0  0  0  0
   -0.1136    1.2381    2.7719 H   0  0  0  0  0  0  0  0  0  0  0  0
   -0.8954    3.2155    2.9026 C   0  0  0  0  0  0  0  0  0  0  0  0
   -1.8299    3.3430    3.4532 H   0  0  0  0  0  0  0  0  0  0  0  0
   -0.0581    3.4194    3.5712 H   0  0  0  0  0  0  0  0  0  0  0  0
   -0.8804    3.9320    2.0784 H   0  0  0  0  0  0  0  0  0  0  0  0
  5  6  2  0  0  0  0
  5  7  1  0  0  0  0
  2  3  1  0  0  0  0
  2  4  1  0  0  0  0
  2  5  1  0  0  0  0
  1  2  1  0  0  0  0
 29 30  2  0  0  0  0
 29 31  1  0  0  0  0
 26 27  1  0  0  0  0
 26 28  1  0  0  0  0
 23 24  1  0  0  0  0
 23 25  1  0  0  0  0
 22 23  1  0  0  0  0
 22 26  1  0  0  0  0
 20 21  1  0  0  0  0
 20 22  2  0  0  0  0
 17 18  1  0  0  0  0
 17 19  1  0  0  0  0
 17 20  1  0  0  0  0
 14 15  1  0  0  0  0
 14 16  1  0  0  0  0
 14 17  1  0  0  0  0
 11 12  1  0  0  0  0
 11 13  1  0  0  0  0
 11 14  1  0  0  0  0
  9 10  1  0  0  0  0
  9 11  1  0  0  0  0
  9 29  1  0  0  0  0
  7  8  1  0  0  0  0
  7  9  1  0  0  0  0
 33 34  1  0  0  0  0
 33 35  1  0  0  0  0
 33 36  1  0  0  0  0
 31 32  1  0  0  0  0
 31 33  1  0  0  0  0
M  CHG  1  20   1
M  END
$$$$
default_name
  -OEChem-02102213163D

 36 35  0     1  0  0  0  0  0999 V2000
   -4.2256   -3.6731    1.8584 H   0  0  0  0  0  0  0  0  0  0  0  0
   -4.2396   -2.6781    1.4144 C   0  0  0  0  0  0  0  0  0  0  0  0
   -4.9506   -2.0521    1.9514 H   0  0  0  0  0  0  0  0  0  0  0  0
   -4.5266   -2.7521    0.3674 H   0  0  0  0  0  0  0  0  0  0  0  0
   -2.8576   -2.0761    1.5184 C   0  0  0  0  0  0  0  0  0  0  0  0
   -1.9456   -2.7051    2.0404 O   0  0  0  0  0  0  0  0  0  0  0  0
   -2.6926   -0.8481    1.0174 N   0  0  0  0  0  0  0  0  0  0  0  0
   -3.4926   -0.3971    0.5954 H   0  0  0  0  0  0  0  0  0  0  0  0
   -1.4216   -0.1071    1.0434 C   0  0  1  0  0  0  0  0  0  0  0  0
   -0.7579   -0.5878    1.7640 H   0  0  0  0  0  0  0  0  0  0  0  0
   -0.7791   -0.1912   -0.3557 C   0  0  0  0  0  0  0  0  0  0  0  0
   -0.6105   -1.2421   -0.5991 H   0  0  0  0  0  0  0  0  0  0  0  0
   -1.4727    0.2205   -1.0922 H   0  0  0  0  0  0  0  0  0  0  0  0
    0.5625    0.5490   -0.4578 C   0  0  0  0  0  0  0  0  0  0  0  0
    0.7047    0.9164   -1.4750 H   0  0  0  0  0  0  0  0  0  0  0  0
    0.5627    1.3925    0.2333 H   0  0  0  0  0  0  0  0  0  0  0  0
    1.7127   -0.4027   -0.1017 C   0  0  0  0  0  0  0  0  0  0  0  0
    1.5481   -0.7863    0.9079 H   0  0  0  0  0  0  0  0  0  0  0  0
    1.7008   -1.2402   -0.8033 H   0  0  0  0  0  0  0  0  0  0  0  0
    3.0242    0.2747   -0.1637 N   0  3  0  0  0  0  0  0  0  0  0  0
    3.0234    1.2336   -0.4669 H   0  0  0  0  0  0  0  0  0  0  0  0
    4.1950   -0.2593    0.1413 C   0  0  0  0  0  0  0  0  0  0  0  0
    4.3098   -1.4936    0.5446 N   0  0  0  0  0  0  0  0  0  0  0  0
    3.4806   -2.0548    0.6270 H   0  0  0  0  0  0  0  0  0  0  0  0
    5.2061   -1.8836    0.7717 H   0  0  0  0  0  0  0  0  0  0  0  0
    5.2867    0.4449    0.0446 N   0  0  0  0  0  0  0  0  0  0  0  0
    5.2486    1.4018   -0.2619 H   0  0  0  0  0  0  0  0  0  0  0  0
    6.1729    0.0359    0.2770 H   0  0  0  0  0  0  0  0  0  0  0  0
   -1.6547    1.3413    1.4779 C   0  0  0  0  0  0  0  0  0  0  0  0
   -2.5654    1.9858    0.9716 O   0  0  0  0  0  0  0  0  0  0  0  0
   -0.8107    1.8504    2.3808 N   0  0  0  0  0  0  0  0  0  0  0  0
   -0.1136    1.2381    2.7719 H   0  0  0  0  0  0  0  0  0  0  0  0
   -0.8954    3.2155    2.9026 C   0  0  0  0  0  0  0  0  0  0  0  0
   -1.8299    3.3430    3.4532 H   0  0  0  0  0  0  0  0  0  0  0  0
   -0.0581    3.4194    3.5712 H   0  0  0  0  0  0  0  0  0  0  0  0
   -0.8804    3.9320    2.0784 H   0  0  0  0  0  0  0  0  0  0  0  0
  5  6  2  0  0  0  0
  5  7  1  0  0  0  0
  2  3  1  0  0  0  0
  2  4  1  0  0  0  0
  2  5  1  0  0  0  0
  1  2  1  0  0  0  0
 29 30  2  0  0  0  0
 29 31  1  0  0  0  0
 26 27  1  0  0  0  0
 26 28  1  0  0  0  0
 23 24  1  0  0  0  0
 23 25  1  0  0  0  0
 22 23  1  0  0  0  0
 22 26  1  0  0  0  0
 20 21  1  0  0  0  0
 20 22  2  0  0  0  0
 17 18  1  0  0  0  0
 17 19  1  0  0  0  0
 17 20  1  0  0  0  0
 14 15  1  0  0  0  0
 14 16  1  0  0  0  0
 14 17  1  0  0  0  0
 11 12  1  0  0  0  0
 11 13  1  0  0  0  0
 11 14  1  0  0  0  0
  9 10  1  0  0  0  0
  9 11  1  0  0  0  0
  9 29  1  0  0  0  0
  7  8  1  0  0  0  0
  7  9  1  0  0  0  0
 33 34  1  0  0  0  0
 33 35  1  0  0  0  0
 33 36  1  0  0  0  0
 31 32  1  0  0  0  0
 31 33  1  0  0  0  0
M  CHG  1  20   1
M  END
$$$$
default_name
  -OEChem-02102213163D

 36 35  0     1  0  0  0  0  0999 V2000
   -4.2256   -3.6731    1.8584 H   0  0  0  0  0  0  0  0  0  0  0  0
   -4.2396   -2.6781    1.4144 C   0  0  0  0  0  0  0  0  0  0  0  0
   -4.9506   -2.0521    1.9514 H   0  0  0  0  0  0  0  0  0  0  0  0
   -4.5266   -2.7521    0.3674 H   0  0  0  0  0  0  0  0  0  0  0  0
   -2.8576   -2.0761    1.5184 C   0  0  0  0  0  0  0  0  0  0  0  0
   -1.9456   -2.7051    2.0404 O   0  0  0  0  0  0  0  0  0  0  0  0
   -2.6926   -0.8481    1.0174 N   0  0  0  0  0  0  0  0  0  0  0  0
   -3.4926   -0.3971    0.5954 H   0  0  0  0  0  0  0  0  0  0  0  0
   -1.4216   -0.1071    1.0434 C   0  0  1  0  0  0  0  0  0  0  0  0
   -0.7579   -0.5878    1.7640 H   0  0  0  0  0  0  0  0  0  0  0  0
   -0.7791   -0.1912   -0.3557 C   0  0  0  0  0  0  0  0  0  0  0  0
   -0.6105   -1.2421   -0.5991 H   0  0  0  0  0  0  0  0  0  0  0  0
   -1.4727    0.2205   -1.0922 H   0  0  0  0  0  0  0  0  0  0  0  0
    0.5625    0.5490   -0.4578 C   0  0  0  0  0  0  0  0  0  0  0  0
    0.5903    1.1375   -1.3759 H   0  0  0  0  0  0  0  0  0  0  0  0
    0.6742    1.2134    0.3997 H   0  0  0  0  0  0  0  0  0  0  0  0
    1.7171   -0.4620   -0.4737 C   0  0  0  0  0  0  0  0  0  0  0  0
    1.6657   -1.0644    0.4362 H   0  0  0  0  0  0  0  0  0  0  0  0
    1.5928   -1.1182   -1.3384 H   0  0  0  0  0  0  0  0  0  0  0  0
    3.0318    0.2081   -0.5473 N   0  3  0  0  0  0  0  0  0  0  0  0
    3.0240    1.2107   -0.6244 H   0  0  0  0  0  0  0  0  0  0  0  0
    4.2137   -0.3847   -0.5212 C   0  0  0  0  0  0  0  0  0  0  0  0
    4.3382   -1.6786   -0.4239 N   0  0  0  0  0  0  0  0  0  0  0  0
    3.5081   -2.2415   -0.3655 H   0  0  0  0  0  0  0  0  0  0  0  0
    5.2428   -2.1126   -0.4058 H   0  0  0  0  0  0  0  0  0  0  0  0
    5.3070    0.3200   -0.5945 N   0  0  0  0  0  0  0  0  0  0  0  0
    5.2618    1.3215   -0.6705 H   0  0  0  0  0  0  0  0  0  0  0  0
    6.2016   -0.1337   -0.5743 H   0  0  0  0  0  0  0  0  0  0  0  0
   -1.6547    1.3413    1.4779 C   0  0  0  0  0  0  0  0  0  0  0  0
   -2.5654    1.9858    0.9716 O   0  0  0  0  0  0  0  0  0  0  0  0
   -0.8107    1.8504    2.3808 N   0  0  0  0  0  0  0  0  0  0  0  0
   -0.1136    1.2381    2.7719 H   0  0  0  0  0  0  0  0  0  0  0  0
   -0.8954    3.2155    2.9026 C   0  0  0  0  0  0  0  0  0  0  0  0
   -1.8299    3.3430    3.4532 H   0  0  0  0  0  0  0  0  0  0  0  0
   -0.0581    3.4194    3.5712 H   0  0  0  0  0  0  0  0  0  0  0  0
   -0.8804    3.9320    2.0784 H   0  0  0  0  0  0  0  0  0  0  0  0
  5  6  2  0  0  0  0
  5  7  1  0  0  0  0
  2  3  1  0  0  0  0
  2  4  1  0  0  0  0
  2  5  1  0  0  0  0
  1  2  1  0  0  0  0
 29 30  2  0  0  0  0
 29 31  1  0  0  0  0
 26 27  1  0  0  0  0
 26 28  1  0  0  0  0
 23 24  1  0  0  0  0
 23 25  1  0  0  0  0
 22 23  1  0  0  0  0
 22 26  1  0  0  0  0
 20 21  1  0  0  0  0
 20 22  2  0  0  0  0
 17 18  1  0  0  0  0
 17 19  1  0  0  0  0
 17 20  1  0  0  0  0
 14 15  1  0  0  0  0
 14 16  1  0  0  0  0
 14 17  1  0  0  0  0
 11 12  1  0  0  0  0
 11 13  1  0  0  0  0
 11 14  1  0  0  0  0
  9 10  1  0  0  0  0
  9 11  1  0  0  0  0
  9 29  1  0  0  0  0
  7  8  1  0  0  0  0
  7  9  1  0  0  0  0
 33 34  1  0  0  0  0
 33 35  1  0  0  0  0
 33 36  1  0  0  0  0
 31 32  1  0  0  0  0
 31 33  1  0  0  0  0
M  CHG  1  20   1
M  END
$$$$
default_name
  -OEChem-02102213163D

 36 35  0     1  0  0  0  0  0999 V2000
   -4.2256   -3.6731    1.8584 H   0  0  0  0  0  0  0  0  0  0  0  0
   -4.2396   -2.6781    1.4144 C   0  0  0  0  0  0  0  0  0  0  0  0
   -4.9506   -2.0521    1.9514 H   0  0  0  0  0  0  0  0  0  0  0  0
   -4.5266   -2.7521    0.3674 H   0  0  0  0  0  0  0  0  0  0  0  0
   -2.8576   -2.0761    1.5184 C   0  0  0  0  0  0  0  0  0  0  0  0
   -1.9456   -2.7051    2.0404 O   0  0  0  0  0  0  0  0  0  0  0  0
   -2.6926   -0.8481    1.0174 N   0  0  0  0  0  0  0  0  0  0  0  0
   -3.4926   -0.3971    0.5954 H   0  0  0  0  0  0  0  0  0  0  0  0
   -1.4216   -0.1071    1.0434 C   0  0  1  0  0  0  0  0  0  0  0  0
   -0.7579   -0.5878    1.7640 H   0  0  0  0  0  0  0  0  0  0  0  0
   -0.7791   -0.1912   -0.3557 C   0  0  0  0  0  0  0  0  0  0  0  0
   -0.6105   -1.2421   -0.5991 H   0  0  0  0  0  0  0  0  0  0  0  0
   -1.4727    0.2205   -1.0922 H   0  0  0  0  0  0  0  0  0  0  0  0
    0.5625    0.5490   -0.4578 C   0  0  0  0  0  0  0  0  0  0  0  0
    0.4959    1.3306   -1.2158 H   0  0  0  0  0  0  0  0  0  0  0  0
    0.7995    1.0009    0.5059 H   0  0  0  0  0  0  0  0  0  0  0  0
    1.6739   -0.4353   -0.8470 C   0  0  0  0  0  0  0  0  0  0  0  0
    1.7156   -1.2285   -0.0970 H   0  0  0  0  0  0  0  0  0  0  0  0
    1.4237   -0.8774   -1.8142 H   0  0  0  0  0  0  0  0  0  0  0  0
    2.9901    0.2303   -0.9339 N   0  3  0  0  0  0  0  0  0  0  0  0
    3.0046    1.2242   -0.7818 H   0  0  0  0  0  0  0  0  0  0  0  0
    4.1470   -0.3563   -1.1919 C   0  0  0  0  0  0  0  0  0  0  0  0
    4.2416   -1.6389   -1.4048 N   0  0  0  0  0  0  0  0  0  0  0  0
    3.4076   -2.1979   -1.3698 H   0  0  0  0  0  0  0  0  0  0  0  0
    5.1274   -2.0682   -1.5996 H   0  0  0  0  0  0  0  0  0  0  0  0
    5.2447    0.3435   -1.2426 N   0  0  0  0  0  0  0  0  0  0  0  0
    5.2222    1.3362   -1.0849 H   0  0  0  0  0  0  0  0  0  0  0  0
    6.1203   -0.1055   -1.4386 H   0  0  0  0  0  0  0  0  0  0  0  0
   -1.6547    1.3413    1.4779 C   0  0  0  0  0  0  0  0  0  0  0  0
   -2.5654    1.9858    0.9716 O   0  0  0  0  0  0  0  0  0  0  0  0
   -0.8107    1.8504    2.3808 N   0  0  0  0  0  0  0  0  0  0  0  0
   -0.1136    1.2381    2.7719 H   0  0  0  0  0  0  0  0  0  0  0  0
   -0.8954    3.2155    2.9026 C   0  0  0  0  0  0  0  0  0  0  0  0
   -1.8299    3.3430    3.4532 H   0  0  0  0  0  0  0  0  0  0  0  0
   -0.0581    3.4194    3.5712 H   0  0  0  0  0  0  0  0  0  0  0  0
   -0.8804    3.9320    2.0784 H   0  0  0  0  0  0  0  0  0  0  0  0
  5  6  2  0  0  0  0
  5  7  1  0  0  0  0
  2  3  1  0  0  0  0
  2  4  1  0  0  0  0
  2  5  1  0  0  0  0
  1  2  1  0  0  0  0
 29 30  2  0  0  0  0
 29 31  1  0  0  0  0
 26 27  1  0  0  0  0
 26 28  1  0  0  0  0
 23 24  1  0  0  0  0
 23 25  1  0  0  0  0
 22 23  1  0  0  0  0
 22 26  1  0  0  0  0
 20 21  1  0  0  0  0
 20 22  2  0  0  0  0
 17 18  1  0  0  0  0
 17 19  1  0  0  0  0
 17 20  1  0  0  0  0
 14 15  1  0  0  0  0
 14 16  1  0  0  0  0
 14 17  1  0  0  0  0
 11 12  1  0  0  0  0
 11 13  1  0  0  0  0
 11 14  1  0  0  0  0
  9 10  1  0  0  0  0
  9 11  1  0  0  0  0
  9 29  1  0  0  0  0
  7  8  1  0  0  0  0
  7  9  1  0  0  0  0
 33 34  1  0  0  0  0
 33 35  1  0  0  0  0
 33 36  1  0  0  0  0
 31 32  1  0  0  0  0
 31 33  1  0  0  0  0
M  CHG  1  20   1
M  END
$$$$
default_name
  -OEChem-02102213163D

 36 35  0     1  0  0  0  0  0999 V2000
   -4.2256   -3.6731    1.8584 H   0  0  0  0  0  0  0  0  0  0  0  0
   -4.2396   -2.6781    1.4144 C   0  0  0  0  0  0  0  0  0  0  0  0
   -4.9506   -2.0521    1.9514 H   0  0  0  0  0  0  0  0  0  0  0  0
   -4.5266   -2.7521    0.3674 H   0  0  0  0  0  0  0  0  0  0  0  0
   -2.8576   -2.0761    1.5184 C   0  0  0  0  0  0  0  0  0  0  0  0
   -1.9456   -2.7051    2.0404 O   0  0  0  0  0  0  0  0  0  0  0  0
   -2.6926   -0.8481    1.0174 N   0  0  0  0  0  0  0  0  0  0  0  0
   -3.4926   -0.3971    0.5954 H   0  0  0  0  0  0  0  0  0  0  0  0
   -1.4216   -0.1071    1.0434 C   0  0  1  0  0  0  0  0  0  0  0  0
   -0.7579   -0.5878    1.7640 H   0  0  0  0  0  0  0  0  0  0  0  0
   -0.7791   -0.1912   -0.3557 C   0  0  0  0  0  0  0  0  0  0  0  0
   -0.6105   -1.2421   -0.5991 H   0  0  0  0  0  0  0  0  0  0  0  0
   -1.4727    0.2205   -1.0922 H   0  0  0  0  0  0  0  0  0  0  0  0
    0.5625    0.5490   -0.4578 C   0  0  0  0  0  0  0  0  0  0  0  0
    0.4281    1.4826   -1.0057 H   0  0  0  0  0  0  0  0  0  0  0  0
    0.9301    0.7694    0.5449 H   0  0  0  0  0  0  0  0  0  0  0  0
    1.5861   -0.3243   -1.1961 C   0  0  0  0  0  0  0  0  0  0  0  0
    1.6945   -1.2673   -0.6553 H   0  0  0  0  0  0  0  0  0  0  0  0
    1.2053   -0.5343   -2.1983 H   0  0  0  0  0  0  0  0  0  0  0  0
    2.9020    0.3399   -1.2971 N   0  3  0  0  0  0  0  0  0  0  0  0
    2.9664    1.2732   -0.9283 H   0  0  0  0  0  0  0  0  0  0  0  0
    3.9994   -0.1761   -1.8249 C   0  0  0  0  0  0  0  0  0  0  0  0
    4.0267   -1.3770   -2.3312 N   0  0  0  0  0  0  0  0  0  0  0  0
    3.1860   -1.9270   -2.3175 H   0  0  0  0  0  0  0  0  0  0  0  0
    4.8678   -1.7533   -2.7283 H   0  0  0  0  0  0  0  0  0  0  0  0
    5.1041    0.5138   -1.8556 N   0  0  0  0  0  0  0  0  0  0  0  0
    5.1324    1.4448   -1.4769 H   0  0  0  0  0  0  0  0  0  0  0  0
    5.9344    0.1186   -2.2568 H   0  0  0  0  0  0  0  0  0  0  0  0
   -1.6547    1.3413    1.4779 C   0  0  0  0  0  0  0  0  0  0  0  0
   -2.5654    1.9858    0.9716 O   0  0  0  0  0  0  0  0  0  0  0  0
   -0.8107    1.8504    2.3808 N   0  0  0  0  0  0  0  0  0  0  0  0
   -0.1136    1.2381    2.7719 H   0  0  0  0  0  0  0  0  0  0  0  0
   -0.8954    3.2155    2.9026 C   0  0  0  0  0  0  0  0  0  0  0  0
   -1.8299    3.3430    3.4532 H   0  0  0  0  0  0  0  0  0  0  0  0
   -0.0581    3.4194    3.5712 H   0  0  0  0  0  0  0  0  0  0  0  0
   -0.8804    3.9320    2.0784 H   0  0  0  0  0  0  0  0  0  0  0  0
  5  6  2  0  0  0  0
  5  7  1  0  0  0  0
  2  3  1  0  0  0  0
  2  4  1  0  0  0  0
  2  5  1  0  0  0  0
  1  2  1  0  0  0  0
 29 30  2  0  0  0  0
 29 31  1  0  0  0  0
 26 27  1  0  0  0  0
 26 28  1  0  0  0  0
 23 24  1  0  0  0  0
 23 25  1  0  0  0  0
 22 23  1  0  0  0  0
 22 26  1  0  0  0  0
 20 21  1  0  0  0  0
 20 22  2  0  0  0  0
 17 18  1  0  0  0  0
 17 19  1  0  0  0  0
 17 20  1  0  0  0  0
 14 15  1  0  0  0  0
 14 16  1  0  0  0  0
 14 17  1  0  0  0  0
 11 12  1  0  0  0  0
 11 13  1  0  0  0  0
 11 14  1  0  0  0  0
  9 10  1  0  0  0  0
  9 11  1  0  0  0  0
  9 29  1  0  0  0  0
  7  8  1  0  0  0  0
  7  9  1  0  0  0  0
 33 34  1  0  0  0  0
 33 35  1  0  0  0  0
 33 36  1  0  0  0  0
 31 32  1  0  0  0  0
 31 33  1  0  0  0  0
M  CHG  1  20   1
M  END
$$$$
default_name
  -OEChem-02102213163D

 36 35  0     1  0  0  0  0  0999 V2000
   -4.2256   -3.6731    1.8584 H   0  0  0  0  0  0  0  0  0  0  0  0
   -4.2396   -2.6781    1.4144 C   0  0  0  0  0  0  0  0  0  0  0  0
   -4.9506   -2.0521    1.9514 H   0  0  0  0  0  0  0  0  0  0  0  0
   -4.5266   -2.7521    0.3674 H   0  0  0  0  0  0  0  0  0  0  0  0
   -2.8576   -2.0761    1.5184 C   0  0  0  0  0  0  0  0  0  0  0  0
   -1.9456   -2.7051    2.0404 O   0  0  0  0  0  0  0  0  0  0  0  0
   -2.6926   -0.8481    1.0174 N   0  0  0  0  0  0  0  0  0  0  0  0
   -3.4926   -0.3971    0.5954 H   0  0  0  0  0  0  0  0  0  0  0  0
   -1.4216   -0.1071    1.0434 C   0  0  1  0  0  0  0  0  0  0  0  0
   -0.7579   -0.5878    1.7640 H   0  0  0  0  0  0  0  0  0  0  0  0
   -0.7791   -0.1912   -0.3557 C   0  0  0  0  0  0  0  0  0  0  0  0
   -0.6105   -1.2421   -0.5991 H   0  0  0  0  0  0  0  0  0  0  0  0
   -1.4727    0.2205   -1.0922 H   0  0  0  0  0  0  0  0  0  0  0  0
    0.5625    0.5490   -0.4578 C   0  0  0  0  0  0  0  0  0  0  0  0
    0.3913    1.5831   -0.7600 H   0  0  0  0  0  0  0  0  0  0  0  0
    1.0572    0.5348    0.5139 H   0  0  0  0  0  0  0  0  0  0  0  0
    1.4597   -0.1366   -1.4973 C   0  0  0  0  0  0  0  0  0  0  0  0
    1.6038   -1.1781   -1.2008 H   0  0  0  0  0  0  0  0  0  0  0  0
    0.9522   -0.1124   -2.4645 H   0  0  0  0  0  0  0  0  0  0  0  0
    2.7735    0.5293   -1.6122 N   0  3  0  0  0  0  0  0  0  0  0  0
    2.9121    1.3543   -1.0539 H   0  0  0  0  0  0  0  0  0  0  0  0
    3.7810    0.1437   -2.3772 C   0  0  0  0  0  0  0  0  0  0  0  0
    3.7079   -0.9108   -3.1400 N   0  0  0  0  0  0  0  0  0  0  0  0
    2.8584   -1.4471   -3.1440 H   0  0  0  0  0  0  0  0  0  0  0  0
    4.4817   -1.1895   -3.7149 H   0  0  0  0  0  0  0  0  0  0  0  0
    4.8948    0.8193   -2.3916 N   0  0  0  0  0  0  0  0  0  0  0  0
    4.9987    1.6398   -1.8199 H   0  0  0  0  0  0  0  0  0  0  0  0
    5.6567    0.5232   -2.9734 H   0  0  0  0  0  0  0  0  0  0  0  0
   -1.6547    1.3413    1.4779 C   0  0  0  0  0  0  0  0  0  0  0  0
   -2.5654    1.9858    0.9716 O   0  0  0  0  0  0  0  0  0  0  0  0
   -0.8107    1.8504    2.3808 N   0  0  0  0  0  0  0  0  0  0  0  0
   -0.1136    1.2381    2.7719 H   0  0  0  0  0  0  0  0  0  0  0  0
   -0.8954    3.2155    2.9026 C   0  0  0  0  0  0  0  0  0  0  0  0
   -1.8299    3.3430    3.4532 H   0  0  0  0  0  0  0  0  0  0  0  0
   -0.0581    3.4194    3.5712 H   0  0  0  0  0  0  0  0  0  0  0  0
   -0.8804    3.9320    2.0784 H   0  0  0  0  0  0  0  0  0  0  0  0
  5  6  2  0  0  0  0
  5  7  1  0  0  0  0
  2  3  1  0  0  0  0
  2  4  1  0  0  0  0
  2  5  1  0  0  0  0
  1  2  1  0  0  0  0
 29 30  2  0  0  0  0
 29 31  1  0  0  0  0
 26 27  1  0  0  0  0
 26 28  1  0  0  0  0
 23 24  1  0  0  0  0
 23 25  1  0  0  0  0
 22 23  1  0  0  0  0
 22 26  1  0  0  0  0
 20 21  1  0  0  0  0
 20 22  2  0  0  0  0
 17 18  1  0  0  0  0
 17 19  1  0  0  0  0
 17 20  1  0  0  0  0
 14 15  1  0  0  0  0
 14 16  1  0  0  0  0
 14 17  1  0  0  0  0
 11 12  1  0  0  0  0
 11 13  1  0  0  0  0
 11 14  1  0  0  0  0
  9 10  1  0  0  0  0
  9 11  1  0  0  0  0
  9 29  1  0  0  0  0
  7  8  1  0  0  0  0
  7  9  1  0  0  0  0
 33 34  1  0  0  0  0
 33 35  1  0  0  0  0
 33 36  1  0  0  0  0
 31 32  1  0  0  0  0
 31 33  1  0  0  0  0
M  CHG  1  20   1
M  END
$$$$
default_name
  -OEChem-02102213163D

 36 35  0     1  0  0  0  0  0999 V2000
   -4.2256   -3.6731    1.8584 H   0  0  0  0  0  0  0  0  0  0  0  0
   -4.2396   -2.6781    1.4144 C   0  0  0  0  0  0  0  0  0  0  0  0
   -4.9506   -2.0521    1.9514 H   0  0  0  0  0  0  0  0  0  0  0  0
   -4.5266   -2.7521    0.3674 H   0  0  0  0  0  0  0  0  0  0  0  0
   -2.8576   -2.0761    1.5184 C   0  0  0  0  0  0  0  0  0  0  0  0
   -1.9456   -2.7051    2.0404 O   0  0  0  0  0  0  0  0  0  0  0  0
   -2.6926   -0.8481    1.0174 N   0  0  0  0  0  0  0  0  0  0  0  0
   -3.4926   -0.3971    0.5954 H   0  0  0  0  0  0  0  0  0  0  0  0
   -1.4216   -0.1071    1.0434 C   0  0  1  0  0  0  0  0  0  0  0  0
   -0.7579   -0.5878    1.7640 H   0  0  0  0  0  0  0  0  0  0  0  0
   -0.7791   -0.1912   -0.3557 C   0  0  0  0  0  0  0  0  0  0  0  0
   -0.6105   -1.2421   -0.5991 H   0  0  0  0  0  0  0  0  0  0  0  0
   -1.4727    0.2205   -1.0922 H   0  0  0  0  0  0  0  0  0  0  0  0
    0.5625    0.5490   -0.4578 C   0  0  0  0  0  0  0  0  0  0  0  0
    0.3882    1.6252   -0.4954 H   0  0  0  0  0  0  0  0  0  0  0  0
    1.1721    0.3130    0.4151 H   0  0  0  0  0  0  0  0  0  0  0  0
    1.3032    0.1150   -1.7300 C   0  0  0  0  0  0  0  0  0  0  0  0
    1.4497   -0.9671   -1.6962 H   0  0  0  0  0  0  0  0  0  0  0  0
    0.6819    0.3598   -2.5946 H   0  0  0  0  0  0  0  0  0  0  0  0
    2.6133    0.7858   -1.8576 N   0  3  0  0  0  0  0  0  0  0  0  0
    2.8454    1.4620   -1.1502 H   0  0  0  0  0  0  0  0  0  0  0  0
    3.5066    0.5812   -2.8111 C   0  0  0  0  0  0  0  0  0  0  0  0
    3.3072   -0.2722   -3.7761 N   0  0  0  0  0  0  0  0  0  0  0  0
    2.4471   -0.7911   -3.7930 H   0  0  0  0  0  0  0  0  0  0  0  0
    3.9954   -0.4152   -4.4923 H   0  0  0  0  0  0  0  0  0  0  0  0
    4.6310    1.2392   -2.8142 N   0  0  0  0  0  0  0  0  0  0  0  0
    4.8302    1.9081   -2.0904 H   0  0  0  0  0  0  0  0  0  0  0  0
    5.3059    1.0809   -3.5394 H   0  0  0  0  0  0  0  0  0  0  0  0
   -1.6547    1.3413    1.4779 C   0  0  0  0  0  0  0  0  0  0  0  0
   -2.5654    1.9858    0.9716 O   0  0  0  0  0  0  0  0  0  0  0  0
   -0.8107    1.8504    2.3808 N   0  0  0  0  0  0  0  0  0  0  0  0
   -0.1136    1.2381    2.7719 H   0  0  0  0  0  0  0  0  0  0  0  0
   -0.8954    3.2155    2.9026 C   0  0  0  0  0  0  0  0  0  0  0  0
   -1.8299    3.3430    3.4532 H   0  0  0  0  0  0  0  0  0  0  0  0
   -0.0581    3.4194    3.5712 H   0  0  0  0  0  0  0  0  0  0  0  0
   -0.8804    3.9320    2.0784 H   0  0  0  0  0  0  0  0  0  0  0  0
  5  6  2  0  0  0  0
  5  7  1  0  0  0  0
  2  3  1  0  0  0  0
  2  4  1  0  0  0  0
  2  5  1  0  0  0  0
  1  2  1  0  0  0  0
 29 30  2  0  0  0  0
 29 31  1  0  0  0  0
 26 27  1  0  0  0  0
 26 28  1  0  0  0  0
 23 24  1  0  0  0  0
 23 25  1  0  0  0  0
 22 23  1  0  0  0  0
 22 26  1  0  0  0  0
 20 21  1  0  0  0  0
 20 22  2  0  0  0  0
 17 18  1  0  0  0  0
 17 19  1  0  0  0  0
 17 20  1  0  0  0  0
 14 15  1  0  0  0  0
 14 16  1  0  0  0  0
 14 17  1  0  0  0  0
 11 12  1  0  0  0  0
 11 13  1  0  0  0  0
 11 14  1  0  0  0  0
  9 10  1  0  0  0  0
  9 11  1  0  0  0  0
  9 29  1  0  0  0  0
  7  8  1  0  0  0  0
  7  9  1  0  0  0  0
 33 34  1  0  0  0  0
 33 35  1  0  0  0  0
 33 36  1  0  0  0  0
 31 32  1  0  0  0  0
 31 33  1  0  0  0  0
M  CHG  1  20   1
M  END
$$$$
default_name
  -OEChem-02102213163D

 36 35  0     1  0  0  0  0  0999 V2000
   -4.2256   -3.6731    1.8584 H   0  0  0  0  0  0  0  0  0  0  0  0
   -4.2396   -2.6781    1.4144 C   0  0  0  0  0  0  0  0  0  0  0  0
   -4.9506   -2.0521    1.9514 H   0  0  0  0  0  0  0  0  0  0  0  0
   -4.5266   -2.7521    0.3674 H   0  0  0  0  0  0  0  0  0  0  0  0
   -2.8576   -2.0761    1.5184 C   0  0  0  0  0  0  0  0  0  0  0  0
   -1.9456   -2.7051    2.0404 O   0  0  0  0  0  0  0  0  0  0  0  0
   -2.6926   -0.8481    1.0174 N   0  0  0  0  0  0  0  0  0  0  0  0
   -3.4926   -0.3971    0.5954 H   0  0  0  0  0  0  0  0  0  0  0  0
   -1.4216   -0.1071    1.0434 C   0  0  1  0  0  0  0  0  0  0  0  0
   -0.7579   -0.5878    1.7640 H   0  0  0  0  0  0  0  0  0  0  0  0
   -0.7791   -0.1912   -0.3557 C   0  0  0  0  0  0  0  0  0  0  0  0
   -0.8547   -1.2203   -0.7125 H   0  0  0  0  0  0  0  0  0  0  0  0
   -1.3369    0.4481   -1.0435 H   0  0  0  0  0  0  0  0  0  0  0  0
    0.7008    0.2185   -0.3744 C   0  0  0  0  0  0  0  0  0  0  0  0
    0.8026    1.2494   -0.0323 H   0  0  0  0  0  0  0  0  0  0  0  0
    1.2654   -0.4384    0.2879 H   0  0  0  0  0  0  0  0  0  0  0  0
    1.2562    0.1051   -1.8006 C   0  0  0  0  0  0  0  0  0  0  0  0
    1.1259   -0.9234   -2.1448 H   0  0  0  0  0  0  0  0  0  0  0  0
    0.6828    0.7699   -2.4510 H   0  0  0  0  0  0  0  0  0  0  0  0
    2.6871    0.4678   -1.8622 N   0  3  0  0  0  0  0  0  0  0  0  0
    3.1106    0.7827   -1.0062 H   0  0  0  0  0  0  0  0  0  0  0  0
    3.4608    0.4172   -2.9336 C   0  0  0  0  0  0  0  0  0  0  0  0
    3.0139    0.0242   -4.0934 N   0  0  0  0  0  0  0  0  0  0  0  0
    2.0506   -0.2499   -4.1731 H   0  0  0  0  0  0  0  0  0  0  0  0
    3.6144   -0.0080   -4.8967 H   0  0  0  0  0  0  0  0  0  0  0  0
    4.7139    0.7659   -2.8597 N   0  0  0  0  0  0  0  0  0  0  0  0
    5.1044    1.0757   -1.9865 H   0  0  0  0  0  0  0  0  0  0  0  0
    5.2974    0.7259   -3.6749 H   0  0  0  0  0  0  0  0  0  0  0  0
   -1.6547    1.3413    1.4779 C   0  0  0  0  0  0  0  0  0  0  0  0
   -2.5654    1.9858    0.9716 O   0  0  0  0  0  0  0  0  0  0  0  0
   -0.8107    1.8504    2.3808 N   0  0  0  0  0  0  0  0  0  0  0  0
   -0.1136    1.2381    2.7719 H   0  0  0  0  0  0  0  0  0  0  0  0
   -0.8954    3.2155    2.9026 C   0  0  0  0  0  0  0  0  0  0  0  0
   -1.8299    3.3430    3.4532 H   0  0  0  0  0  0  0  0  0  0  0  0
   -0.0581    3.4194    3.5712 H   0  0  0  0  0  0  0  0  0  0  0  0
   -0.8804    3.9320    2.0784 H   0  0  0  0  0  0  0  0  0  0  0  0
  5  6  2  0  0  0  0
  5  7  1  0  0  0  0
  2  3  1  0  0  0  0
  2  4  1  0  0  0  0
  2  5  1  0  0  0  0
  1  2  1  0  0  0  0
 29 30  2  0  0  0  0
 29 31  1  0  0  0  0
 26 27  1  0  0  0  0
 26 28  1  0  0  0  0
 23 24  1  0  0  0  0
 23 25  1  0  0  0  0
 22 23  1  0  0  0  0
 22 26  1  0  0  0  0
 20 21  1  0  0  0  0
 20 22  2  0  0  0  0
 17 18  1  0  0  0  0
 17 19  1  0  0  0  0
 17 20  1  0  0  0  0
 14 15  1  0  0  0  0
 14 16  1  0  0  0  0
 14 17  1  0  0  0  0
 11 12  1  0  0  0  0
 11 13  1  0  0  0  0
 11 14  1  0  0  0  0
  9 10  1  0  0  0  0
  9 11  1  0  0  0  0
  9 29  1  0  0  0  0
  7  8  1  0  0  0  0
  7  9  1  0  0  0  0
 33 34  1  0  0  0  0
 33 35  1  0  0  0  0
 33 36  1  0  0  0  0
 31 32  1  0  0  0  0
 31 33  1  0  0  0  0
M  CHG  1  20   1
M  END
$$$$
default_name
  -OEChem-02102213163D

 36 35  0     1  0  0  0  0  0999 V2000
   -4.2256   -3.6731    1.8584 H   0  0  0  0  0  0  0  0  0  0  0  0
   -4.2396   -2.6781    1.4144 C   0  0  0  0  0  0  0  0  0  0  0  0
   -4.9506   -2.0521    1.9514 H   0  0  0  0  0  0  0  0  0  0  0  0
   -4.5266   -2.7521    0.3674 H   0  0  0  0  0  0  0  0  0  0  0  0
   -2.8576   -2.0761    1.5184 C   0  0  0  0  0  0  0  0  0  0  0  0
   -1.9456   -2.7051    2.0404 O   0  0  0  0  0  0  0  0  0  0  0  0
   -2.6926   -0.8481    1.0174 N   0  0  0  0  0  0  0  0  0  0  0  0
   -3.4926   -0.3971    0.5954 H   0  0  0  0  0  0  0  0  0  0  0  0
   -1.4216   -0.1071    1.0434 C   0  0  1  0  0  0  0  0  0  0  0  0
   -0.7579   -0.5878    1.7640 H   0  0  0  0  0  0  0  0  0  0  0  0
   -0.7791   -0.1912   -0.3557 C   0  0  0  0  0  0  0  0  0  0  0  0
   -0.8547   -1.2203   -0.7125 H   0  0  0  0  0  0  0  0  0  0  0  0
   -1.3369    0.4481   -1.0435 H   0  0  0  0  0  0  0  0  0  0  0  0
    0.7008    0.2185   -0.3744 C   0  0  0  0  0  0  0  0  0  0  0  0
    0.8381    1.1319    0.2060 H   0  0  0  0  0  0  0  0  0  0  0  0
    1.3016   -0.5797    0.0624 H   0  0  0  0  0  0  0  0  0  0  0  0
    1.1556    0.4677   -1.8189 C   0  0  0  0  0  0  0  0  0  0  0  0
    0.9897   -0.4431   -2.3987 H   0  0  0  0  0  0  0  0  0  0  0  0
    0.5468    1.2705   -2.2415 H   0  0  0  0  0  0  0  0  0  0  0  0
    2.5831    0.8423   -1.8874 N   0  3  0  0  0  0  0  0  0  0  0  0
    3.0681    0.9360   -1.0113 H   0  0  0  0  0  0  0  0  0  0  0  0
    3.2808    1.0649   -2.9886 C   0  0  0  0  0  0  0  0  0  0  0  0
    2.7507    0.9713   -4.1758 N   0  0  0  0  0  0  0  0  0  0  0  0
    1.7810    0.7203   -4.2542 H   0  0  0  0  0  0  0  0  0  0  0  0
    3.2942    1.1439   -5.0015 H   0  0  0  0  0  0  0  0  0  0  0  0
    4.5401    1.3911   -2.9173 N   0  0  0  0  0  0  0  0  0  0  0  0
    4.9932    1.4755   -2.0237 H   0  0  0  0  0  0  0  0  0  0  0  0
    5.0657    1.5591   -3.7552 H   0  0  0  0  0  0  0  0  0  0  0  0
   -1.6547    1.3413    1.4779 C   0  0  0  0  0  0  0  0  0  0  0  0
   -2.5654    1.9858    0.9716 O   0  0  0  0  0  0  0  0  0  0  0  0
   -0.8107    1.8504    2.3808 N   0  0  0  0  0  0  0  0  0  0  0  0
   -0.1136    1.2381    2.7719 H   0  0  0  0  0  0  0  0  0  0  0  0
   -0.8954    3.2155    2.9026 C   0  0  0  0  0  0  0  0  0  0  0  0
   -1.8299    3.3430    3.4532 H   0  0  0  0  0  0  0  0  0  0  0  0
   -0.0581    3.4194    3.5712 H   0  0  0  0  0  0  0  0  0  0  0  0
   -0.8804    3.9320    2.0784 H   0  0  0  0  0  0  0  0  0  0  0  0
  5  6  2  0  0  0  0
  5  7  1  0  0  0  0
  2  3  1  0  0  0  0
  2  4  1  0  0  0  0
  2  5  1  0  0  0  0
  1  2  1  0  0  0  0
 29 30  2  0  0  0  0
 29 31  1  0  0  0  0
 26 27  1  0  0  0  0
 26 28  1  0  0  0  0
 23 24  1  0  0  0  0
 23 25  1  0  0  0  0
 22 23  1  0  0  0  0
 22 26  1  0  0  0  0
 20 21  1  0  0  0  0
 20 22  2  0  0  0  0
 17 18  1  0  0  0  0
 17 19  1  0  0  0  0
 17 20  1  0  0  0  0
 14 15  1  0  0  0  0
 14 16  1  0  0  0  0
 14 17  1  0  0  0  0
 11 12  1  0  0  0  0
 11 13  1  0  0  0  0
 11 14  1  0  0  0  0
  9 10  1  0  0  0  0
  9 11  1  0  0  0  0
  9 29  1  0  0  0  0
  7  8  1  0  0  0  0
  7  9  1  0  0  0  0
 33 34  1  0  0  0  0
 33 35  1  0  0  0  0
 33 36  1  0  0  0  0
 31 32  1  0  0  0  0
 31 33  1  0  0  0  0
M  CHG  1  20   1
M  END
$$$$
default_name
  -OEChem-02102213163D

 36 35  0     1  0  0  0  0  0999 V2000
   -4.2256   -3.6731    1.8584 H   0  0  0  0  0  0  0  0  0  0  0  0
   -4.2396   -2.6781    1.4144 C   0  0  0  0  0  0  0  0  0  0  0  0
   -4.9506   -2.0521    1.9514 H   0  0  0  0  0  0  0  0  0  0  0  0
   -4.5266   -2.7521    0.3674 H   0  0  0  0  0  0  0  0  0  0  0  0
   -2.8576   -2.0761    1.5184 C   0  0  0  0  0  0  0  0  0  0  0  0
   -1.9456   -2.7051    2.0404 O   0  0  0  0  0  0  0  0  0  0  0  0
   -2.6926   -0.8481    1.0174 N   0  0  0  0  0  0  0  0  0  0  0  0
   -3.4926   -0.3971    0.5954 H   0  0  0  0  0  0  0  0  0  0  0  0
   -1.4216   -0.1071    1.0434 C   0  0  1  0  0  0  0  0  0  0  0  0
   -0.7579   -0.5878    1.7640 H   0  0  0  0  0  0  0  0  0  0  0  0
   -0.7791   -0.1912   -0.3557 C   0  0  0  0  0  0  0  0  0  0  0  0
   -0.8547   -1.2203   -0.7125 H   0  0  0  0  0  0  0  0  0  0  0  0
   -1.3369    0.4481   -1.0435 H   0  0  0  0  0  0  0  0  0  0  0  0
    0.7008    0.2185   -0.3744 C   0  0  0  0  0  0  0  0  0  0  0  0
    0.8885    0.9590    0.4044 H   0  0  0  0  0  0  0  0  0  0  0  0
    1.3206   -0.6601   -0.1933 H   0  0  0  0  0  0  0  0  0  0  0  0
    1.0583    0.8228   -1.7392 C   0  0  0  0  0  0  0  0  0  0  0  0
    0.8422    0.0845   -2.5148 H   0  0  0  0  0  0  0  0  0  0  0  0
    0.4316    1.7022   -1.9050 H   0  0  0  0  0  0  0  0  0  0  0  0
    2.4821    1.2106   -1.8110 N   0  3  0  0  0  0  0  0  0  0  0  0
    3.0272    1.0854   -0.9752 H   0  0  0  0  0  0  0  0  0  0  0  0
    3.1052    1.7049   -2.8677 C   0  0  0  0  0  0  0  0  0  0  0  0
    2.4937    1.9075   -4.0010 N   0  0  0  0  0  0  0  0  0  0  0  0
    1.5180    1.6786   -4.0720 H   0  0  0  0  0  0  0  0  0  0  0  0
    2.9813    2.2837   -4.7932 H   0  0  0  0  0  0  0  0  0  0  0  0
    4.3702    2.0100   -2.8049 N   0  0  0  0  0  0  0  0  0  0  0  0
    4.8846    1.8712   -1.9522 H   0  0  0  0  0  0  0  0  0  0  0  0
    4.8390    2.3847   -3.6089 H   0  0  0  0  0  0  0  0  0  0  0  0
   -1.6547    1.3413    1.4779 C   0  0  0  0  0  0  0  0  0  0  0  0
   -2.5654    1.9858    0.9716 O   0  0  0  0  0  0  0  0  0  0  0  0
   -0.8107    1.8504    2.3808 N   0  0  0  0  0  0  0  0  0  0  0  0
   -0.1136    1.2381    2.7719 H   0  0  0  0  0  0  0  0  0  0  0  0
   -0.8954    3.2155    2.9026 C   0  0  0  0  0  0  0  0  0  0  0  0
   -1.8299    3.3430    3.4532 H   0  0  0  0  0  0  0  0  0  0  0  0
   -0.0581    3.4194    3.5712 H   0  0  0  0  0  0  0  0  0  0  0  0
   -0.8804    3.9320    2.0784 H   0  0  0  0  0  0  0  0  0  0  0  0
  5  6  2  0  0  0  0
  5  7  1  0  0  0  0
  2  3  1  0  0  0  0
  2  4  1  0  0  0  0
  2  5  1  0  0  0  0
  1  2  1  0  0  0  0
 29 30  2  0  0  0  0
 29 31  1  0  0  0  0
 26 27  1  0  0  0  0
 26 28  1  0  0  0  0
 23 24  1  0  0  0  0
 23 25  1  0  0  0  0
 22 23  1  0  0  0  0
 22 26  1  0  0  0  0
 20 21  1  0  0  0  0
 20 22  2  0  0  0  0
 17 18  1  0  0  0  0
 17 19  1  0  0  0  0
 17 20  1  0  0  0  0
 14 15  1  0  0  0  0
 14 16  1  0  0  0  0
 14 17  1  0  0  0  0
 11 12  1  0  0  0  0
 11 13  1  0  0  0  0
 11 14  1  0  0  0  0
  9 10  1  0  0  0  0
  9 11  1  0  0  0  0
  9 29  1  0  0  0  0
  7  8  1  0  0  0  0
  7  9  1  0  0  0  0
 33 34  1  0  0  0  0
 33 35  1  0  0  0  0
 33 36  1  0  0  0  0
 31 32  1  0  0  0  0
 31 33  1  0  0  0  0
M  CHG  1  20   1
M  END
$$$$
default_name
  -OEChem-02102213163D

 36 35  0     1  0  0  0  0  0999 V2000
   -4.2256   -3.6731    1.8584 H   0  0  0  0  0  0  0  0  0  0  0  0
   -4.2396   -2.6781    1.4144 C   0  0  0  0  0  0  0  0  0  0  0  0
   -4.9506   -2.0521    1.9514 H   0  0  0  0  0  0  0  0  0  0  0  0
   -4.5266   -2.7521    0.3674 H   0  0  0  0  0  0  0  0  0  0  0  0
   -2.8576   -2.0761    1.5184 C   0  0  0  0  0  0  0  0  0  0  0  0
   -1.9456   -2.7051    2.0404 O   0  0  0  0  0  0  0  0  0  0  0  0
   -2.6926   -0.8481    1.0174 N   0  0  0  0  0  0  0  0  0  0  0  0
   -3.4926   -0.3971    0.5954 H   0  0  0  0  0  0  0  0  0  0  0  0
   -1.4216   -0.1071    1.0434 C   0  0  1  0  0  0  0  0  0  0  0  0
   -0.7579   -0.5878    1.7640 H   0  0  0  0  0  0  0  0  0  0  0  0
   -0.7791   -0.1912   -0.3557 C   0  0  0  0  0  0  0  0  0  0  0  0
   -0.8547   -1.2203   -0.7125 H   0  0  0  0  0  0  0  0  0  0  0  0
   -1.3369    0.4481   -1.0435 H   0  0  0  0  0  0  0  0  0  0  0  0
    0.7008    0.2185   -0.3744 C   0  0  0  0  0  0  0  0  0  0  0  0
    0.9504    0.7422    0.5494 H   0  0  0  0  0  0  0  0  0  0  0  0
    1.3211   -0.6740   -0.4615 H   0  0  0  0  0  0  0  0  0  0  0  0
    0.9710    1.1462   -1.5669 C   0  0  0  0  0  0  0  0  0  0  0  0
    0.6933    0.6237   -2.4851 H   0  0  0  0  0  0  0  0  0  0  0  0
    0.3449    2.0357   -1.4642 H   0  0  0  0  0  0  0  0  0  0  0  0
    2.3910    1.5476   -1.6385 N   0  3  0  0  0  0  0  0  0  0  0  0
    2.9906    1.2209   -0.9002 H   0  0  0  0  0  0  0  0  0  0  0  0
    2.9459    2.2934   -2.5792 C   0  0  0  0  0  0  0  0  0  0  0  0
    2.2606    2.7690   -3.5809 N   0  0  0  0  0  0  0  0  0  0  0  0
    1.2796    2.5596   -3.6388 H   0  0  0  0  0  0  0  0  0  0  0  0
    2.6970    3.3337   -4.2862 H   0  0  0  0  0  0  0  0  0  0  0  0
    4.2158    2.5803   -2.5304 N   0  0  0  0  0  0  0  0  0  0  0  0
    4.7858    2.2360   -1.7770 H   0  0  0  0  0  0  0  0  0  0  0  0
    4.6328    3.1464   -3.2461 H   0  0  0  0  0  0  0  0  0  0  0  0
   -1.6547    1.3413    1.4779 C   0  0  0  0  0  0  0  0  0  0  0  0
   -2.5654    1.9858    0.9716 O   0  0  0  0  0  0  0  0  0  0  0  0
   -0.8107    1.8504    2.3808 N   0  0  0  0  0  0  0  0  0  0  0  0
   -0.1136    1.2381    2.7719 H   0  0  0  0  0  0  0  0  0  0  0  0
   -0.8954    3.2155    2.9026 C   0  0  0  0  0  0  0  0  0  0  0  0
   -1.8299    3.3430    3.4532 H   0  0  0  0  0  0  0  0  0  0  0  0
   -0.0581    3.4194    3.5712 H   0  0  0  0  0  0  0  0  0  0  0  0
   -0.8804    3.9320    2.0784 H   0  0  0  0  0  0  0  0  0  0  0  0
  5  6  2  0  0  0  0
  5  7  1  0  0  0  0
  2  3  1  0  0  0  0
  2  4  1  0  0  0  0
  2  5  1  0  0  0  0
  1  2  1  0  0  0  0
 29 30  2  0  0  0  0
 29 31  1  0  0  0  0
 26 27  1  0  0  0  0
 26 28  1  0  0  0  0
 23 24  1  0  0  0  0
 23 25  1  0  0  0  0
 22 23  1  0  0  0  0
 22 26  1  0  0  0  0
 20 21  1  0  0  0  0
 20 22  2  0  0  0  0
 17 18  1  0  0  0  0
 17 19  1  0  0  0  0
 17 20  1  0  0  0  0
 14 15  1  0  0  0  0
 14 16  1  0  0  0  0
 14 17  1  0  0  0  0
 11 12  1  0  0  0  0
 11 13  1  0  0  0  0
 11 14  1  0  0  0  0
  9 10  1  0  0  0  0
  9 11  1  0  0  0  0
  9 29  1  0  0  0  0
  7  8  1  0  0  0  0
  7  9  1  0  0  0  0
 33 34  1  0  0  0  0
 33 35  1  0  0  0  0
 33 36  1  0  0  0  0
 31 32  1  0  0  0  0
 31 33  1  0  0  0  0
M  CHG  1  20   1
M  END
$$$$
default_name
  -OEChem-02102213163D

 36 35  0     1  0  0  0  0  0999 V2000
   -4.2256   -3.6731    1.8584 H   0  0  0  0  0  0  0  0  0  0  0  0
   -4.2396   -2.6781    1.4144 C   0  0  0  0  0  0  0  0  0  0  0  0
   -4.9506   -2.0521    1.9514 H   0  0  0  0  0  0  0  0  0  0  0  0
   -4.5266   -2.7521    0.3674 H   0  0  0  0  0  0  0  0  0  0  0  0
   -2.8576   -2.0761    1.5184 C   0  0  0  0  0  0  0  0  0  0  0  0
   -1.9456   -2.7051    2.0404 O   0  0  0  0  0  0  0  0  0  0  0  0
   -2.6926   -0.8481    1.0174 N   0  0  0  0  0  0  0  0  0  0  0  0
   -3.4926   -0.3971    0.5954 H   0  0  0  0  0  0  0  0  0  0  0  0
   -1.4216   -0.1071    1.0434 C   0  0  1  0  0  0  0  0  0  0  0  0
   -0.7579   -0.5878    1.7640 H   0  0  0  0  0  0  0  0  0  0  0  0
   -0.7791   -0.1912   -0.3557 C   0  0  0  0  0  0  0  0  0  0  0  0
   -0.8547   -1.2203   -0.7125 H   0  0  0  0  0  0  0  0  0  0  0  0
   -1.3369    0.4481   -1.0435 H   0  0  0  0  0  0  0  0  0  0  0  0
    0.7008    0.2185   -0.3744 C   0  0  0  0  0  0  0  0  0  0  0  0
    1.0194    0.4965    0.6312 H   0  0  0  0  0  0  0  0  0  0  0  0
    1.3030   -0.6206   -0.7242 H   0  0  0  0  0  0  0  0  0  0  0  0
    0.8996    1.4159   -1.3137 C   0  0  0  0  0  0  0  0  0  0  0  0
    0.5533    1.1375   -2.3117 H   0  0  0  0  0  0  0  0  0  0  0  0
    0.2926    2.2481   -0.9494 H   0  0  0  0  0  0  0  0  0  0  0  0
    2.3160    1.8304   -1.3815 N   0  3  0  0  0  0  0  0  0  0  0  0
    2.9609    1.3332   -0.7914 H   0  0  0  0  0  0  0  0  0  0  0  0
    2.8139    2.7905   -2.1427 C   0  0  0  0  0  0  0  0  0  0  0  0
    2.0671    3.4971   -2.9442 N   0  0  0  0  0  0  0  0  0  0  0  0
    1.0821    3.3033   -2.9841 H   0  0  0  0  0  0  0  0  0  0  0  0
    2.4608    4.2224   -3.5149 H   0  0  0  0  0  0  0  0  0  0  0  0
    4.0874    3.0632   -2.1122 N   0  0  0  0  0  0  0  0  0  0  0  0
    4.7037    2.5450   -1.5100 H   0  0  0  0  0  0  0  0  0  0  0  0
    4.4610    3.7923   -2.6914 H   0  0  0  0  0  0  0  0  0  0  0  0
   -1.6547    1.3413    1.4779 C   0  0  0  0  0  0  0  0  0  0  0  0
   -2.5654    1.9858    0.9716 O   0  0  0  0  0  0  0  0  0  0  0  0
   -0.8107    1.8504    2.3808 N   0  0  0  0  0  0  0  0  0  0  0  0
   -0.1136    1.2381    2.7719 H   0  0  0  0  0  0  0  0  0  0  0  0
   -0.8954    3.2155    2.9026 C   0  0  0  0  0  0  0  0  0  0  0  0
   -1.8299    3.3430    3.4532 H   0  0  0  0  0  0  0  0  0  0  0  0
   -0.0581    3.4194    3.5712 H   0  0  0  0  0  0  0  0  0  0  0  0
   -0.8804    3.9320    2.0784 H   0  0  0  0  0  0  0  0  0  0  0  0
  5  6  2  0  0  0  0
  5  7  1  0  0  0  0
  2  3  1  0  0  0  0
  2  4  1  0  0  0  0
  2  5  1  0  0  0  0
  1  2  1  0  0  0  0
 29 30  2  0  0  0  0
 29 31  1  0  0  0  0
 26 27  1  0  0  0  0
 26 28  1  0  0  0  0
 23 24  1  0  0  0  0
 23 25  1  0  0  0  0
 22 23  1  0  0  0  0
 22 26  1  0  0  0  0
 20 21  1  0  0  0  0
 20 22  2  0  0  0  0
 17 18  1  0  0  0  0
 17 19  1  0  0  0  0
 17 20  1  0  0  0  0
 14 15  1  0  0  0  0
 14 16  1  0  0  0  0
 14 17  1  0  0  0  0
 11 12  1  0  0  0  0
 11 13  1  0  0  0  0
 11 14  1  0  0  0  0
  9 10  1  0  0  0  0
  9 11  1  0  0  0  0
  9 29  1  0  0  0  0
  7  8  1  0  0  0  0
  7  9  1  0  0  0  0
 33 34  1  0  0  0  0
 33 35  1  0  0  0  0
 33 36  1  0  0  0  0
 31 32  1  0  0  0  0
 31 33  1  0  0  0  0
M  CHG  1  20   1
M  END
$$$$
default_name
  -OEChem-02102213163D

 36 35  0     1  0  0  0  0  0999 V2000
   -4.2256   -3.6731    1.8584 H   0  0  0  0  0  0  0  0  0  0  0  0
   -4.2396   -2.6781    1.4144 C   0  0  0  0  0  0  0  0  0  0  0  0
   -4.9506   -2.0521    1.9514 H   0  0  0  0  0  0  0  0  0  0  0  0
   -4.5266   -2.7521    0.3674 H   0  0  0  0  0  0  0  0  0  0  0  0
   -2.8576   -2.0761    1.5184 C   0  0  0  0  0  0  0  0  0  0  0  0
   -1.9456   -2.7051    2.0404 O   0  0  0  0  0  0  0  0  0  0  0  0
   -2.6926   -0.8481    1.0174 N   0  0  0  0  0  0  0  0  0  0  0  0
   -3.4926   -0.3971    0.5954 H   0  0  0  0  0  0  0  0  0  0  0  0
   -1.4216   -0.1071    1.0434 C   0  0  1  0  0  0  0  0  0  0  0  0
   -0.7579   -0.5878    1.7640 H   0  0  0  0  0  0  0  0  0  0  0  0
   -0.7791   -0.1912   -0.3557 C   0  0  0  0  0  0  0  0  0  0  0  0
   -0.8547   -1.2203   -0.7125 H   0  0  0  0  0  0  0  0  0  0  0  0
   -1.3369    0.4481   -1.0435 H   0  0  0  0  0  0  0  0  0  0  0  0
    0.7008    0.2185   -0.3744 C   0  0  0  0  0  0  0  0  0  0  0  0
    1.0910    0.2386    0.6441 H   0  0  0  0  0  0  0  0  0  0  0  0
    1.2675   -0.5034   -0.9633 H   0  0  0  0  0  0  0  0  0  0  0  0
    0.8489    1.6135   -0.9970 C   0  0  0  0  0  0  0  0  0  0  0  0
    0.4316    1.5910   -2.0064 H   0  0  0  0  0  0  0  0  0  0  0  0
    0.2783    2.3250   -0.3955 H   0  0  0  0  0  0  0  0  0  0  0  0
    2.2622    2.0397   -1.0575 N   0  3  0  0  0  0  0  0  0  0  0  0
    2.9401    1.4146   -0.6563 H   0  0  0  0  0  0  0  0  0  0  0  0
    2.7180    3.1621   -1.5880 C   0  0  0  0  0  0  0  0  0  0  0  0
    1.9265    4.0422   -2.1341 N   0  0  0  0  0  0  0  0  0  0  0  0
    0.9388    3.8590   -2.1526 H   0  0  0  0  0  0  0  0  0  0  0  0
    2.2887    4.8892   -2.5320 H   0  0  0  0  0  0  0  0  0  0  0  0
    3.9938    3.4257   -1.5790 N   0  0  0  0  0  0  0  0  0  0  0  0
    4.6437    2.7771   -1.1693 H   0  0  0  0  0  0  0  0  0  0  0  0
    4.3354    4.2783   -1.9827 H   0  0  0  0  0  0  0  0  0  0  0  0
   -1.6547    1.3413    1.4779 C   0  0  0  0  0  0  0  0  0  0  0  0
   -2.5654    1.9858    0.9716 O   0  0  0  0  0  0  0  0  0  0  0  0
   -0.8107    1.8504    2.3808 N   0  0  0  0  0  0  0  0  0  0  0  0
   -0.1136    1.2381    2.7719 H   0  0  0  0  0  0  0  0  0  0  0  0
   -0.8954    3.2155    2.9026 C   0  0  0  0  0  0  0  0  0  0  0  0
   -1.8299    3.3430    3.4532 H   0  0  0  0  0  0  0  0  0  0  0  0
   -0.0581    3.4194    3.5712 H   0  0  0  0  0  0  0  0  0  0  0  0
   -0.8804    3.9320    2.0784 H   0  0  0  0  0  0  0  0  0  0  0  0
  5  6  2  0  0  0  0
  5  7  1  0  0  0  0
  2  3  1  0  0  0  0
  2  4  1  0  0  0  0
  2  5  1  0  0  0  0
  1  2  1  0  0  0  0
 29 30  2  0  0  0  0
 29 31  1  0  0  0  0
 26 27  1  0  0  0  0
 26 28  1  0  0  0  0
 23 24  1  0  0  0  0
 23 25  1  0  0  0  0
 22 23  1  0  0  0  0
 22 26  1  0  0  0  0
 20 21  1  0  0  0  0
 20 22  2  0  0  0  0
 17 18  1  0  0  0  0
 17 19  1  0  0  0  0
 17 20  1  0  0  0  0
 14 15  1  0  0  0  0
 14 16  1  0  0  0  0
 14 17  1  0  0  0  0
 11 12  1  0  0  0  0
 11 13  1  0  0  0  0
 11 14  1  0  0  0  0
  9 10  1  0  0  0  0
  9 11  1  0  0  0  0
  9 29  1  0  0  0  0
  7  8  1  0  0  0  0
  7  9  1  0  0  0  0
 33 34  1  0  0  0  0
 33 35  1  0  0  0  0
 33 36  1  0  0  0  0
 31 32  1  0  0  0  0
 31 33  1  0  0  0  0
M  CHG  1  20   1
M  END
$$$$
default_name
  -OEChem-02102213163D

 36 35  0     1  0  0  0  0  0999 V2000
   -4.2256   -3.6731    1.8584 H   0  0  0  0  0  0  0  0  0  0  0  0
   -4.2396   -2.6781    1.4144 C   0  0  0  0  0  0  0  0  0  0  0  0
   -4.9506   -2.0521    1.9514 H   0  0  0  0  0  0  0  0  0  0  0  0
   -4.5266   -2.7521    0.3674 H   0  0  0  0  0  0  0  0  0  0  0  0
   -2.8576   -2.0761    1.5184 C   0  0  0  0  0  0  0  0  0  0  0  0
   -1.9456   -2.7051    2.0404 O   0  0  0  0  0  0  0  0  0  0  0  0
   -2.6926   -0.8481    1.0174 N   0  0  0  0  0  0  0  0  0  0  0  0
   -3.4926   -0.3971    0.5954 H   0  0  0  0  0  0  0  0  0  0  0  0
   -1.4216   -0.1071    1.0434 C   0  0  1  0  0  0  0  0  0  0  0  0
   -0.7579   -0.5878    1.7640 H   0  0  0  0  0  0  0  0  0  0  0  0
   -0.7791   -0.1912   -0.3557 C   0  0  0  0  0  0  0  0  0  0  0  0
   -0.8547   -1.2203   -0.7125 H   0  0  0  0  0  0  0  0  0  0  0  0
   -1.3369    0.4481   -1.0435 H   0  0  0  0  0  0  0  0  0  0  0  0
    0.7008    0.2185   -0.3744 C   0  0  0  0  0  0  0  0  0  0  0  0
    1.1602   -0.0140    0.5873 H   0  0  0  0  0  0  0  0  0  0  0  0
    1.2171   -0.3304   -1.1626 H   0  0  0  0  0  0  0  0  0  0  0  0
    0.8224    1.7255   -0.6383 C   0  0  0  0  0  0  0  0  0  0  0  0
    0.3366    1.9532   -1.5899 H   0  0  0  0  0  0  0  0  0  0  0  0
    0.3030    2.2613    0.1598 H   0  0  0  0  0  0  0  0  0  0  0  0
    2.2332    2.1613   -0.6886 N   0  3  0  0  0  0  0  0  0  0  0  0
    2.9296    1.4596   -0.5040 H   0  0  0  0  0  0  0  0  0  0  0  0
    2.6649    3.3831   -0.9529 C   0  0  0  0  0  0  0  0  0  0  0  0
    1.8483    4.3671   -1.2060 N   0  0  0  0  0  0  0  0  0  0  0  0
    0.8596    4.1888   -1.2010 H   0  0  0  0  0  0  0  0  0  0  0  0
    2.1925    5.2886   -1.4043 H   0  0  0  0  0  0  0  0  0  0  0  0
    3.9414    3.6432   -0.9671 N   0  0  0  0  0  0  0  0  0  0  0  0
    4.6101    2.9165   -0.7782 H   0  0  0  0  0  0  0  0  0  0  0  0
    4.2646    4.5715   -1.1682 H   0  0  0  0  0  0  0  0  0  0  0  0
   -1.6547    1.3413    1.4779 C   0  0  0  0  0  0  0  0  0  0  0  0
   -2.5654    1.9858    0.9716 O   0  0  0  0  0  0  0  0  0  0  0  0
   -0.8107    1.8504    2.3808 N   0  0  0  0  0  0  0  0  0  0  0  0
   -0.1136    1.2381    2.7719 H   0  0  0  0  0  0  0  0  0  0  0  0
   -0.8954    3.2155    2.9026 C   0  0  0  0  0  0  0  0  0  0  0  0
   -1.8299    3.3430    3.4532 H   0  0  0  0  0  0  0  0  0  0  0  0
   -0.0581    3.4194    3.5712 H   0  0  0  0  0  0  0  0  0  0  0  0
   -0.8804    3.9320    2.0784 H   0  0  0  0  0  0  0  0  0  0  0  0
  5  6  2  0  0  0  0
  5  7  1  0  0  0  0
  2  3  1  0  0  0  0
  2  4  1  0  0  0  0
  2  5  1  0  0  0  0
  1  2  1  0  0  0  0
 29 30  2  0  0  0  0
 29 31  1  0  0  0  0
 26 27  1  0  0  0  0
 26 28  1  0  0  0  0
 23 24  1  0  0  0  0
 23 25  1  0  0  0  0
 22 23  1  0  0  0  0
 22 26  1  0  0  0  0
 20 21  1  0  0  0  0
 20 22  2  0  0  0  0
 17 18  1  0  0  0  0
 17 19  1  0  0  0  0
 17 20  1  0  0  0  0
 14 15  1  0  0  0  0
 14 16  1  0  0  0  0
 14 17  1  0  0  0  0
 11 12  1  0  0  0  0
 11 13  1  0  0  0  0
 11 14  1  0  0  0  0
  9 10  1  0  0  0  0
  9 11  1  0  0  0  0
  9 29  1  0  0  0  0
  7  8  1  0  0  0  0
  7  9  1  0  0  0  0
 33 34  1  0  0  0  0
 33 35  1  0  0  0  0
 33 36  1  0  0  0  0
 31 32  1  0  0  0  0
 31 33  1  0  0  0  0
M  CHG  1  20   1
M  END
$$$$
default_name
  -OEChem-02102213163D

 36 35  0     1  0  0  0  0  0999 V2000
   -4.2256   -3.6731    1.8584 H   0  0  0  0  0  0  0  0  0  0  0  0
   -4.2396   -2.6781    1.4144 C   0  0  0  0  0  0  0  0  0  0  0  0
   -4.9506   -2.0521    1.9514 H   0  0  0  0  0  0  0  0  0  0  0  0
   -4.5266   -2.7521    0.3674 H   0  0  0  0  0  0  0  0  0  0  0  0
   -2.8576   -2.0761    1.5184 C   0  0  0  0  0  0  0  0  0  0  0  0
   -1.9456   -2.7051    2.0404 O   0  0  0  0  0  0  0  0  0  0  0  0
   -2.6926   -0.8481    1.0174 N   0  0  0  0  0  0  0  0  0  0  0  0
   -3.4926   -0.3971    0.5954 H   0  0  0  0  0  0  0  0  0  0  0  0
   -1.4216   -0.1071    1.0434 C   0  0  1  0  0  0  0  0  0  0  0  0
   -0.7579   -0.5878    1.7640 H   0  0  0  0  0  0  0  0  0  0  0  0
   -0.7791   -0.1912   -0.3557 C   0  0  0  0  0  0  0  0  0  0  0  0
   -0.8547   -1.2203   -0.7125 H   0  0  0  0  0  0  0  0  0  0  0  0
   -1.3369    0.4481   -1.0435 H   0  0  0  0  0  0  0  0  0  0  0  0
    0.7008    0.2185   -0.3744 C   0  0  0  0  0  0  0  0  0  0  0  0
    1.2223   -0.2441    0.4646 H   0  0  0  0  0  0  0  0  0  0  0  0
    1.1552   -0.1135   -1.3084 H   0  0  0  0  0  0  0  0  0  0  0  0
    0.8220    1.7444   -0.2621 C   0  0  0  0  0  0  0  0  0  0  0  0
    0.2748    2.1996   -1.0907 H   0  0  0  0  0  0  0  0  0  0  0  0
    0.3650    2.0611    0.6785 H   0  0  0  0  0  0  0  0  0  0  0  0
    2.2311    2.1867   -0.3000 N   0  3  0  0  0  0  0  0  0  0  0  0
    2.9300    1.4651   -0.3450 H   0  0  0  0  0  0  0  0  0  0  0  0
    2.6582    3.4383   -0.2807 C   0  0  0  0  0  0  0  0  0  0  0  0
    1.8379    4.4498   -0.2231 N   0  0  0  0  0  0  0  0  0  0  0  0
    0.8498    4.2703   -0.1940 H   0  0  0  0  0  0  0  0  0  0  0  0
    2.1786    5.3935   -0.2089 H   0  0  0  0  0  0  0  0  0  0  0  0
    3.9337    3.7008   -0.3182 N   0  0  0  0  0  0  0  0  0  0  0  0
    4.6051    2.9538   -0.3633 H   0  0  0  0  0  0  0  0  0  0  0  0
    4.2534    4.6517   -0.3034 H   0  0  0  0  0  0  0  0  0  0  0  0
   -1.6547    1.3413    1.4779 C   0  0  0  0  0  0  0  0  0  0  0  0
   -2.5654    1.9858    0.9716 O   0  0  0  0  0  0  0  0  0  0  0  0
   -0.8107    1.8504    2.3808 N   0  0  0  0  0  0  0  0  0  0  0  0
   -0.1136    1.2381    2.7719 H   0  0  0  0  0  0  0  0  0  0  0  0
   -0.8954    3.2155    2.9026 C   0  0  0  0  0  0  0  0  0  0  0  0
   -1.8299    3.3430    3.4532 H   0  0  0  0  0  0  0  0  0  0  0  0
   -0.0581    3.4194    3.5712 H   0  0  0  0  0  0  0  0  0  0  0  0
   -0.8804    3.9320    2.0784 H   0  0  0  0  0  0  0  0  0  0  0  0
  5  6  2  0  0  0  0
  5  7  1  0  0  0  0
  2  3  1  0  0  0  0
  2  4  1  0  0  0  0
  2  5  1  0  0  0  0
  1  2  1  0  0  0  0
 29 30  2  0  0  0  0
 29 31  1  0  0  0  0
 26 27  1  0  0  0  0
 26 28  1  0  0  0  0
 23 24  1  0  0  0  0
 23 25  1  0  0  0  0
 22 23  1  0  0  0  0
 22 26  1  0  0  0  0
 20 21  1  0  0  0  0
 20 22  2  0  0  0  0
 17 18  1  0  0  0  0
 17 19  1  0  0  0  0
 17 20  1  0  0  0  0
 14 15  1  0  0  0  0
 14 16  1  0  0  0  0
 14 17  1  0  0  0  0
 11 12  1  0  0  0  0
 11 13  1  0  0  0  0
 11 14  1  0  0  0  0
  9 10  1  0  0  0  0
  9 11  1  0  0  0  0
  9 29  1  0  0  0  0
  7  8  1  0  0  0  0
  7  9  1  0  0  0  0
 33 34  1  0  0  0  0
 33 35  1  0  0  0  0
 33 36  1  0  0  0  0
 31 32  1  0  0  0  0
 31 33  1  0  0  0  0
M  CHG  1  20   1
M  END
$$$$
default_name
  -OEChem-02102213163D

 36 35  0     1  0  0  0  0  0999 V2000
   -4.2256   -3.6731    1.8584 H   0  0  0  0  0  0  0  0  0  0  0  0
   -4.2396   -2.6781    1.4144 C   0  0  0  0  0  0  0  0  0  0  0  0
   -4.9506   -2.0521    1.9514 H   0  0  0  0  0  0  0  0  0  0  0  0
   -4.5266   -2.7521    0.3674 H   0  0  0  0  0  0  0  0  0  0  0  0
   -2.8576   -2.0761    1.5184 C   0  0  0  0  0  0  0  0  0  0  0  0
   -1.9456   -2.7051    2.0404 O   0  0  0  0  0  0  0  0  0  0  0  0
   -2.6926   -0.8481    1.0174 N   0  0  0  0  0  0  0  0  0  0  0  0
   -3.4926   -0.3971    0.5954 H   0  0  0  0  0  0  0  0  0  0  0  0
   -1.4216   -0.1071    1.0434 C   0  0  1  0  0  0  0  0  0  0  0  0
   -0.7579   -0.5878    1.7640 H   0  0  0  0  0  0  0  0  0  0  0  0
   -0.7791   -0.1912   -0.3557 C   0  0  0  0  0  0  0  0  0  0  0  0
   -0.8547   -1.2203   -0.7125 H   0  0  0  0  0  0  0  0  0  0  0  0
   -1.3369    0.4481   -1.0435 H   0  0  0  0  0  0  0  0  0  0  0  0
    0.7008    0.2185   -0.3744 C   0  0  0  0  0  0  0  0  0  0  0  0
    1.2731   -0.4359    0.2845 H   0  0  0  0  0  0  0  0  0  0  0  0
    1.0860    0.1326   -1.3910 H   0  0  0  0  0  0  0  0  0  0  0  0
    0.8476    1.6687    0.1061 C   0  0  0  0  0  0  0  0  0  0  0  0
    0.2502    2.3132   -0.5428 H   0  0  0  0  0  0  0  0  0  0  0  0
    0.4601    1.7382    1.1253 H   0  0  0  0  0  0  0  0  0  0  0  0
    2.2560    2.1144    0.0819 N   0  3  0  0  0  0  0  0  0  0  0  0
    2.9415    1.4308   -0.1900 H   0  0  0  0  0  0  0  0  0  0  0  0
    2.6982    3.3239    0.3829 C   0  0  0  0  0  0  0  0  0  0  0  0
    1.8960    4.2844    0.7476 N   0  0  0  0  0  0  0  0  0  0  0  0
    0.9102    4.0979    0.7996 H   0  0  0  0  0  0  0  0  0  0  0  0
    2.2481    5.1966    0.9730 H   0  0  0  0  0  0  0  0  0  0  0  0
    3.9712    3.5947    0.3235 N   0  0  0  0  0  0  0  0  0  0  0  0
    4.6290    2.8862    0.0471 H   0  0  0  0  0  0  0  0  0  0  0  0
    4.3025    4.5135    0.5526 H   0  0  0  0  0  0  0  0  0  0  0  0
   -1.6547    1.3413    1.4779 C   0  0  0  0  0  0  0  0  0  0  0  0
   -2.5654    1.9858    0.9716 O   0  0  0  0  0  0  0  0  0  0  0  0
   -0.8107    1.8504    2.3808 N   0  0  0  0  0  0  0  0  0  0  0  0
   -0.1136    1.2381    2.7719 H   0  0  0  0  0  0  0  0  0  0  0  0
   -0.8954    3.2155    2.9026 C   0  0  0  0  0  0  0  0  0  0  0  0
   -1.8299    3.3430    3.4532 H   0  0  0  0  0  0  0  0  0  0  0  0
   -0.0581    3.4194    3.5712 H   0  0  0  0  0  0  0  0  0  0  0  0
   -0.8804    3.9320    2.0784 H   0  0  0  0  0  0  0  0  0  0  0  0
  5  6  2  0  0  0  0
  5  7  1  0  0  0  0
  2  3  1  0  0  0  0
  2  4  1  0  0  0  0
  2  5  1  0  0  0  0
  1  2  1  0  0  0  0
 29 30  2  0  0  0  0
 29 31  1  0  0  0  0
 26 27  1  0  0  0  0
 26 28  1  0  0  0  0
 23 24  1  0  0  0  0
 23 25  1  0  0  0  0
 22 23  1  0  0  0  0
 22 26  1  0  0  0  0
 20 21  1  0  0  0  0
 20 22  2  0  0  0  0
 17 18  1  0  0  0  0
 17 19  1  0  0  0  0
 17 20  1  0  0  0  0
 14 15  1  0  0  0  0
 14 16  1  0  0  0  0
 14 17  1  0  0  0  0
 11 12  1  0  0  0  0
 11 13  1  0  0  0  0
 11 14  1  0  0  0  0
  9 10  1  0  0  0  0
  9 11  1  0  0  0  0
  9 29  1  0  0  0  0
  7  8  1  0  0  0  0
  7  9  1  0  0  0  0
 33 34  1  0  0  0  0
 33 35  1  0  0  0  0
 33 36  1  0  0  0  0
 31 32  1  0  0  0  0
 31 33  1  0  0  0  0
M  CHG  1  20   1
M  END
$$$$
default_name
  -OEChem-02102213163D

 36 35  0     1  0  0  0  0  0999 V2000
   -4.2256   -3.6731    1.8584 H   0  0  0  0  0  0  0  0  0  0  0  0
   -4.2396   -2.6781    1.4144 C   0  0  0  0  0  0  0  0  0  0  0  0
   -4.9506   -2.0521    1.9514 H   0  0  0  0  0  0  0  0  0  0  0  0
   -4.5266   -2.7521    0.3674 H   0  0  0  0  0  0  0  0  0  0  0  0
   -2.8576   -2.0761    1.5184 C   0  0  0  0  0  0  0  0  0  0  0  0
   -1.9456   -2.7051    2.0404 O   0  0  0  0  0  0  0  0  0  0  0  0
   -2.6926   -0.8481    1.0174 N   0  0  0  0  0  0  0  0  0  0  0  0
   -3.4926   -0.3971    0.5954 H   0  0  0  0  0  0  0  0  0  0  0  0
   -1.4216   -0.1071    1.0434 C   0  0  1  0  0  0  0  0  0  0  0  0
   -0.7579   -0.5878    1.7640 H   0  0  0  0  0  0  0  0  0  0  0  0
   -0.7791   -0.1912   -0.3557 C   0  0  0  0  0  0  0  0  0  0  0  0
   -0.8547   -1.2203   -0.7125 H   0  0  0  0  0  0  0  0  0  0  0  0
   -1.3369    0.4481   -1.0435 H   0  0  0  0  0  0  0  0  0  0  0  0
    0.7008    0.2185   -0.3744 C   0  0  0  0  0  0  0  0  0  0  0  0
    1.3092   -0.5764    0.0591 H   0  0  0  0  0  0  0  0  0  0  0  0
    1.0142    0.3911   -1.4045 H   0  0  0  0  0  0  0  0  0  0  0  0
    0.8975    1.5037    0.4411 C   0  0  0  0  0  0  0  0  0  0  0  0
    0.2648    2.2865    0.0164 H   0  0  0  0  0  0  0  0  0  0  0  0
    0.5818    1.3145    1.4697 H   0  0  0  0  0  0  0  0  0  0  0  0
    2.3061    1.9493    0.4310 N   0  3  0  0  0  0  0  0  0  0  0  0
    2.9632    1.3589   -0.0497 H   0  0  0  0  0  0  0  0  0  0  0  0
    2.7824    3.0478    0.9925 C   0  0  0  0  0  0  0  0  0  0  0  0
    2.0186    3.8825    1.6400 N   0  0  0  0  0  0  0  0  0  0  0  0
    1.0365    3.6833    1.7122 H   0  0  0  0  0  0  0  0  0  0  0  0
    2.3962    4.7115    2.0607 H   0  0  0  0  0  0  0  0  0  0  0  0
    4.0515    3.3319    0.9143 N   0  0  0  0  0  0  0  0  0  0  0  0
    4.6802    2.7186    0.4250 H   0  0  0  0  0  0  0  0  0  0  0  0
    4.4086    4.1664    1.3417 H   0  0  0  0  0  0  0  0  0  0  0  0
   -1.6547    1.3413    1.4779 C   0  0  0  0  0  0  0  0  0  0  0  0
   -2.5654    1.9858    0.9716 O   0  0  0  0  0  0  0  0  0  0  0  0
   -0.8107    1.8504    2.3808 N   0  0  0  0  0  0  0  0  0  0  0  0
   -0.1136    1.2381    2.7719 H   0  0  0  0  0  0  0  0  0  0  0  0
   -0.8954    3.2155    2.9026 C   0  0  0  0  0  0  0  0  0  0  0  0
   -1.8299    3.3430    3.4532 H   0  0  0  0  0  0  0  0  0  0  0  0
   -0.0581    3.4194    3.5712 H   0  0  0  0  0  0  0  0  0  0  0  0
   -0.8804    3.9320    2.0784 H   0  0  0  0  0  0  0  0  0  0  0  0
  5  6  2  0  0  0  0
  5  7  1  0  0  0  0
  2  3  1  0  0  0  0
  2  4  1  0  0  0  0
  2  5  1  0  0  0  0
  1  2  1  0  0  0  0
 29 30  2  0  0  0  0
 29 31  1  0  0  0  0
 26 27  1  0  0  0  0
 26 28  1  0  0  0  0
 23 24  1  0  0  0  0
 23 25  1  0  0  0  0
 22 23  1  0  0  0  0
 22 26  1  0  0  0  0
 20 21  1  0  0  0  0
 20 22  2  0  0  0  0
 17 18  1  0  0  0  0
 17 19  1  0  0  0  0
 17 20  1  0  0  0  0
 14 15  1  0  0  0  0
 14 16  1  0  0  0  0
 14 17  1  0  0  0  0
 11 12  1  0  0  0  0
 11 13  1  0  0  0  0
 11 14  1  0  0  0  0
  9 10  1  0  0  0  0
  9 11  1  0  0  0  0
  9 29  1  0  0  0  0
  7  8  1  0  0  0  0
  7  9  1  0  0  0  0
 33 34  1  0  0  0  0
 33 35  1  0  0  0  0
 33 36  1  0  0  0  0
 31 32  1  0  0  0  0
 31 33  1  0  0  0  0
M  CHG  1  20   1
M  END
$$$$
default_name
  -OEChem-02102213163D

 36 35  0     1  0  0  0  0  0999 V2000
   -4.2256   -3.6731    1.8584 H   0  0  0  0  0  0  0  0  0  0  0  0
   -4.2396   -2.6781    1.4144 C   0  0  0  0  0  0  0  0  0  0  0  0
   -4.9506   -2.0521    1.9514 H   0  0  0  0  0  0  0  0  0  0  0  0
   -4.5266   -2.7521    0.3674 H   0  0  0  0  0  0  0  0  0  0  0  0
   -2.8576   -2.0761    1.5184 C   0  0  0  0  0  0  0  0  0  0  0  0
   -1.9456   -2.7051    2.0404 O   0  0  0  0  0  0  0  0  0  0  0  0
   -2.6926   -0.8481    1.0174 N   0  0  0  0  0  0  0  0  0  0  0  0
   -3.4926   -0.3971    0.5954 H   0  0  0  0  0  0  0  0  0  0  0  0
   -1.4216   -0.1071    1.0434 C   0  0  1  0  0  0  0  0  0  0  0  0
   -0.7579   -0.5878    1.7640 H   0  0  0  0  0  0  0  0  0  0  0  0
   -0.7791   -0.1912   -0.3557 C   0  0  0  0  0  0  0  0  0  0  0  0
   -0.8547   -1.2203   -0.7125 H   0  0  0  0  0  0  0  0  0  0  0  0
   -1.3369    0.4481   -1.0435 H   0  0  0  0  0  0  0  0  0  0  0  0
    0.7008    0.2185   -0.3744 C   0  0  0  0  0  0  0  0  0  0  0  0
    1.3280   -0.6560   -0.1961 H   0  0  0  0  0  0  0  0  0  0  0  0
    0.9448    0.6444   -1.3482 H   0  0  0  0  0  0  0  0  0  0  0  0
    0.9684    1.2607    0.7200 C   0  0  0  0  0  0  0  0  0  0  0  0
    0.3173    2.1210    0.5489 H   0  0  0  0  0  0  0  0  0  0  0  0
    0.7217    0.8190    1.6884 H   0  0  0  0  0  0  0  0  0  0  0  0
    2.3782    1.7025    0.7235 N   0  3  0  0  0  0  0  0  0  0  0  0
    2.9936    1.2545    0.0664 H   0  0  0  0  0  0  0  0  0  0  0  0
    2.9049    2.6288    1.5068 C   0  0  0  0  0  0  0  0  0  0  0  0
    2.1974    3.2712    2.3933 N   0  0  0  0  0  0  0  0  0  0  0  0
    1.2203    3.0549    2.4816 H   0  0  0  0  0  0  0  0  0  0  0  0
    2.6129    3.9711    2.9801 H   0  0  0  0  0  0  0  0  0  0  0  0
    4.1689    2.9306    1.4139 N   0  0  0  0  0  0  0  0  0  0  0  0
    4.7552    2.4623    0.7447 H   0  0  0  0  0  0  0  0  0  0  0  0
    4.5645    3.6340    2.0100 H   0  0  0  0  0  0  0  0  0  0  0  0
   -1.6547    1.3413    1.4779 C   0  0  0  0  0  0  0  0  0  0  0  0
   -2.5654    1.9858    0.9716 O   0  0  0  0  0  0  0  0  0  0  0  0
   -0.8107    1.8504    2.3808 N   0  0  0  0  0  0  0  0  0  0  0  0
   -0.1136    1.2381    2.7719 H   0  0  0  0  0  0  0  0  0  0  0  0
   -0.8954    3.2155    2.9026 C   0  0  0  0  0  0  0  0  0  0  0  0
   -1.8299    3.3430    3.4532 H   0  0  0  0  0  0  0  0  0  0  0  0
   -0.0581    3.4194    3.5712 H   0  0  0  0  0  0  0  0  0  0  0  0
   -0.8804    3.9320    2.0784 H   0  0  0  0  0  0  0  0  0  0  0  0
  5  6  2  0  0  0  0
  5  7  1  0  0  0  0
  2  3  1  0  0  0  0
  2  4  1  0  0  0  0
  2  5  1  0  0  0  0
  1  2  1  0  0  0  0
 29 30  2  0  0  0  0
 29 31  1  0  0  0  0
 26 27  1  0  0  0  0
 26 28  1  0  0  0  0
 23 24  1  0  0  0  0
 23 25  1  0  0  0  0
 22 23  1  0  0  0  0
 22 26  1  0  0  0  0
 20 21  1  0  0  0  0
 20 22  2  0  0  0  0
 17 18  1  0  0  0  0
 17 19  1  0  0  0  0
 17 20  1  0  0  0  0
 14 15  1  0  0  0  0
 14 16  1  0  0  0  0
 14 17  1  0  0  0  0
 11 12  1  0  0  0  0
 11 13  1  0  0  0  0
 11 14  1  0  0  0  0
  9 10  1  0  0  0  0
  9 11  1  0  0  0  0
  9 29  1  0  0  0  0
  7  8  1  0  0  0  0
  7  9  1  0  0  0  0
 33 34  1  0  0  0  0
 33 35  1  0  0  0  0
 33 36  1  0  0  0  0
 31 32  1  0  0  0  0
 31 33  1  0  0  0  0
M  CHG  1  20   1
M  END
$$$$
default_name
  -OEChem-02102213163D

 36 35  0     1  0  0  0  0  0999 V2000
   -4.2256   -3.6731    1.8584 H   0  0  0  0  0  0  0  0  0  0  0  0
   -4.2396   -2.6781    1.4144 C   0  0  0  0  0  0  0  0  0  0  0  0
   -4.9506   -2.0521    1.9514 H   0  0  0  0  0  0  0  0  0  0  0  0
   -4.5266   -2.7521    0.3674 H   0  0  0  0  0  0  0  0  0  0  0  0
   -2.8576   -2.0761    1.5184 C   0  0  0  0  0  0  0  0  0  0  0  0
   -1.9456   -2.7051    2.0404 O   0  0  0  0  0  0  0  0  0  0  0  0
   -2.6926   -0.8481    1.0174 N   0  0  0  0  0  0  0  0  0  0  0  0
   -3.4926   -0.3971    0.5954 H   0  0  0  0  0  0  0  0  0  0  0  0
   -1.4216   -0.1071    1.0434 C   0  0  1  0  0  0  0  0  0  0  0  0
   -0.7579   -0.5878    1.7640 H   0  0  0  0  0  0  0  0  0  0  0  0
   -0.7791   -0.1912   -0.3557 C   0  0  0  0  0  0  0  0  0  0  0  0
   -0.8547   -1.2203   -0.7125 H   0  0  0  0  0  0  0  0  0  0  0  0
   -1.3369    0.4481   -1.0435 H   0  0  0  0  0  0  0  0  0  0  0  0
    0.7008    0.2185   -0.3744 C   0  0  0  0  0  0  0  0  0  0  0  0
    1.3283   -0.6693   -0.4637 H   0  0  0  0  0  0  0  0  0  0  0  0
    0.8825    0.8753   -1.2258 H   0  0  0  0  0  0  0  0  0  0  0  0
    1.0553    0.9561    0.9240 C   0  0  0  0  0  0  0  0  0  0  0  0
    0.4043    1.8283    1.0184 H   0  0  0  0  0  0  0  0  0  0  0  0
    0.8704    0.2853    1.7664 H   0  0  0  0  0  0  0  0  0  0  0  0
    2.4672    1.3909    0.9396 N   0  3  0  0  0  0  0  0  0  0  0  0
    3.0306    1.1245    0.1504 H   0  0  0  0  0  0  0  0  0  0  0  0
    3.0575    2.0955    1.8905 C   0  0  0  0  0  0  0  0  0  0  0  0
    2.4202    2.4923    2.9561 N   0  0  0  0  0  0  0  0  0  0  0  0
    1.4489    2.2553    3.0553 H   0  0  0  0  0  0  0  0  0  0  0  0
    2.8832    3.0260    3.6686 H   0  0  0  0  0  0  0  0  0  0  0  0
    4.3156    2.4179    1.7882 N   0  0  0  0  0  0  0  0  0  0  0  0
    4.8489    2.1347    0.9843 H   0  0  0  0  0  0  0  0  0  0  0  0
    4.7595    2.9525    2.5119 H   0  0  0  0  0  0  0  0  0  0  0  0
   -1.6547    1.3413    1.4779 C   0  0  0  0  0  0  0  0  0  0  0  0
   -2.5654    1.9858    0.9716 O   0  0  0  0  0  0  0  0  0  0  0  0
   -0.8107    1.8504    2.3808 N   0  0  0  0  0  0  0  0  0  0  0  0
   -0.1136    1.2381    2.7719 H   0  0  0  0  0  0  0  0  0  0  0  0
   -0.8954    3.2155    2.9026 C   0  0  0  0  0  0  0  0  0  0  0  0
   -1.8299    3.3430    3.4532 H   0  0  0  0  0  0  0  0  0  0  0  0
   -0.0581    3.4194    3.5712 H   0  0  0  0  0  0  0  0  0  0  0  0
   -0.8804    3.9320    2.0784 H   0  0  0  0  0  0  0  0  0  0  0  0
  5  6  2  0  0  0  0
  5  7  1  0  0  0  0
  2  3  1  0  0  0  0
  2  4  1  0  0  0  0
  2  5  1  0  0  0  0
  1  2  1  0  0  0  0
 29 30  2  0  0  0  0
 29 31  1  0  0  0  0
 26 27  1  0  0  0  0
 26 28  1  0  0  0  0
 23 24  1  0  0  0  0
 23 25  1  0  0  0  0
 22 23  1  0  0  0  0
 22 26  1  0  0  0  0
 20 21  1  0  0  0  0
 20 22  2  0  0  0  0
 17 18  1  0  0  0  0
 17 19  1  0  0  0  0
 17 20  1  0  0  0  0
 14 15  1  0  0  0  0
 14 16  1  0  0  0  0
 14 17  1  0  0  0  0
 11 12  1  0  0  0  0
 11 13  1  0  0  0  0
 11 14  1  0  0  0  0
  9 10  1  0  0  0  0
  9 11  1  0  0  0  0
  9 29  1  0  0  0  0
  7  8  1  0  0  0  0
  7  9  1  0  0  0  0
 33 34  1  0  0  0  0
 33 35  1  0  0  0  0
 33 36  1  0  0  0  0
 31 32  1  0  0  0  0
 31 33  1  0  0  0  0
M  CHG  1  20   1
M  END
$$$$
default_name
  -OEChem-02102213163D

 36 35  0     1  0  0  0  0  0999 V2000
   -4.2256   -3.6731    1.8584 H   0  0  0  0  0  0  0  0  0  0  0  0
   -4.2396   -2.6781    1.4144 C   0  0  0  0  0  0  0  0  0  0  0  0
   -4.9506   -2.0521    1.9514 H   0  0  0  0  0  0  0  0  0  0  0  0
   -4.5266   -2.7521    0.3674 H   0  0  0  0  0  0  0  0  0  0  0  0
   -2.8576   -2.0761    1.5184 C   0  0  0  0  0  0  0  0  0  0  0  0
   -1.9456   -2.7051    2.0404 O   0  0  0  0  0  0  0  0  0  0  0  0
   -2.6926   -0.8481    1.0174 N   0  0  0  0  0  0  0  0  0  0  0  0
   -3.4926   -0.3971    0.5954 H   0  0  0  0  0  0  0  0  0  0  0  0
   -1.4216   -0.1071    1.0434 C   0  0  1  0  0  0  0  0  0  0  0  0
   -0.7579   -0.5878    1.7640 H   0  0  0  0  0  0  0  0  0  0  0  0
   -0.7791   -0.1912   -0.3557 C   0  0  0  0  0  0  0  0  0  0  0  0
   -0.8547   -1.2203   -0.7125 H   0  0  0  0  0  0  0  0  0  0  0  0
   -1.3369    0.4481   -1.0435 H   0  0  0  0  0  0  0  0  0  0  0  0
    0.7008    0.2185   -0.3744 C   0  0  0  0  0  0  0  0  0  0  0  0
    1.3100   -0.6154   -0.7256 H   0  0  0  0  0  0  0  0  0  0  0  0
    0.8314    1.0680   -1.0456 H   0  0  0  0  0  0  0  0  0  0  0  0
    1.1523    0.6107    1.0390 C   0  0  0  0  0  0  0  0  0  0  0  0
    0.5199    1.4281    1.3928 H   0  0  0  0  0  0  0  0  0  0  0  0
    1.0178   -0.2500    1.6983 H   0  0  0  0  0  0  0  0  0  0  0  0
    2.5670    1.0358    1.0644 N   0  3  0  0  0  0  0  0  0  0  0  0
    3.0718    0.9779    0.1966 H   0  0  0  0  0  0  0  0  0  0  0  0
    3.2296    1.4841    2.1176 C   0  0  0  0  0  0  0  0  0  0  0  0
    2.6718    1.5989    3.2901 N   0  0  0  0  0  0  0  0  0  0  0  0
    1.7068    1.3392    3.3943 H   0  0  0  0  0  0  0  0  0  0  0  0
    3.1890    1.9405    4.0792 H   0  0  0  0  0  0  0  0  0  0  0  0
    4.4815    1.8288    2.0118 N   0  0  0  0  0  0  0  0  0  0  0  0
    4.9550    1.7582    1.1276 H   0  0  0  0  0  0  0  0  0  0  0  0
    4.9804    2.1685    2.8133 H   0  0  0  0  0  0  0  0  0  0  0  0
   -1.6547    1.3413    1.4779 C   0  0  0  0  0  0  0  0  0  0  0  0
   -2.5654    1.9858    0.9716 O   0  0  0  0  0  0  0  0  0  0  0  0
   -0.8107    1.8504    2.3808 N   0  0  0  0  0  0  0  0  0  0  0  0
   -0.1136    1.2381    2.7719 H   0  0  0  0  0  0  0  0  0  0  0  0
   -0.8954    3.2155    2.9026 C   0  0  0  0  0  0  0  0  0  0  0  0
   -1.8299    3.3430    3.4532 H   0  0  0  0  0  0  0  0  0  0  0  0
   -0.0581    3.4194    3.5712 H   0  0  0  0  0  0  0  0  0  0  0  0
   -0.8804    3.9320    2.0784 H   0  0  0  0  0  0  0  0  0  0  0  0
  5  6  2  0  0  0  0
  5  7  1  0  0  0  0
  2  3  1  0  0  0  0
  2  4  1  0  0  0  0
  2  5  1  0  0  0  0
  1  2  1  0  0  0  0
 29 30  2  0  0  0  0
 29 31  1  0  0  0  0
 26 27  1  0  0  0  0
 26 28  1  0  0  0  0
 23 24  1  0  0  0  0
 23 25  1  0  0  0  0
 22 23  1  0  0  0  0
 22 26  1  0  0  0  0
 20 21  1  0  0  0  0
 20 22  2  0  0  0  0
 17 18  1  0  0  0  0
 17 19  1  0  0  0  0
 17 20  1  0  0  0  0
 14 15  1  0  0  0  0
 14 16  1  0  0  0  0
 14 17  1  0  0  0  0
 11 12  1  0  0  0  0
 11 13  1  0  0  0  0
 11 14  1  0  0  0  0
  9 10  1  0  0  0  0
  9 11  1  0  0  0  0
  9 29  1  0  0  0  0
  7  8  1  0  0  0  0
  7  9  1  0  0  0  0
 33 34  1  0  0  0  0
 33 35  1  0  0  0  0
 33 36  1  0  0  0  0
 31 32  1  0  0  0  0
 31 33  1  0  0  0  0
M  CHG  1  20   1
M  END
$$$$
default_name
  -OEChem-02102213163D

 36 35  0     1  0  0  0  0  0999 V2000
   -4.2256   -3.6731    1.8584 H   0  0  0  0  0  0  0  0  0  0  0  0
   -4.2396   -2.6781    1.4144 C   0  0  0  0  0  0  0  0  0  0  0  0
   -4.9506   -2.0521    1.9514 H   0  0  0  0  0  0  0  0  0  0  0  0
   -4.5266   -2.7521    0.3674 H   0  0  0  0  0  0  0  0  0  0  0  0
   -2.8576   -2.0761    1.5184 C   0  0  0  0  0  0  0  0  0  0  0  0
   -1.9456   -2.7051    2.0404 O   0  0  0  0  0  0  0  0  0  0  0  0
   -2.6926   -0.8481    1.0174 N   0  0  0  0  0  0  0  0  0  0  0  0
   -3.4926   -0.3971    0.5954 H   0  0  0  0  0  0  0  0  0  0  0  0
   -1.4216   -0.1071    1.0434 C   0  0  1  0  0  0  0  0  0  0  0  0
   -0.7579   -0.5878    1.7640 H   0  0  0  0  0  0  0  0  0  0  0  0
   -0.7791   -0.1912   -0.3557 C   0  0  0  0  0  0  0  0  0  0  0  0
   -0.8547   -1.2203   -0.7125 H   0  0  0  0  0  0  0  0  0  0  0  0
   -1.3369    0.4481   -1.0435 H   0  0  0  0  0  0  0  0  0  0  0  0
    0.7008    0.2185   -0.3744 C   0  0  0  0  0  0  0  0  0  0  0  0
    1.2745   -0.4980   -0.9639 H   0  0  0  0  0  0  0  0  0  0  0  0
    0.7952    1.2093   -0.8201 H   0  0  0  0  0  0  0  0  0  0  0  0
    1.2529    0.2481    1.0572 C   0  0  0  0  0  0  0  0  0  0  0  0
    0.6561    0.9478    1.6468 H   0  0  0  0  0  0  0  0  0  0  0  0
    1.1537   -0.7506    1.4888 H   0  0  0  0  0  0  0  0  0  0  0  0
    2.6710    0.6613    1.0896 N   0  3  0  0  0  0  0  0  0  0  0  0
    3.1143    0.8246    0.2018 H   0  0  0  0  0  0  0  0  0  0  0  0
    3.4096    0.8363    2.1726 C   0  0  0  0  0  0  0  0  0  0  0  0
    2.9350    0.6518    3.3725 N   0  0  0  0  0  0  0  0  0  0  0  0
    1.9764    0.3690    3.4754 H   0  0  0  0  0  0  0  0  0  0  0  0
    3.5092    0.7886    4.1840 H   0  0  0  0  0  0  0  0  0  0  0  0
    4.6553    1.2036    2.0694 N   0  0  0  0  0  0  0  0  0  0  0  0
    5.0661    1.3584    1.1649 H   0  0  0  0  0  0  0  0  0  0  0  0
    5.2121    1.3353    2.8936 H   0  0  0  0  0  0  0  0  0  0  0  0
   -1.6547    1.3413    1.4779 C   0  0  0  0  0  0  0  0  0  0  0  0
   -2.5654    1.9858    0.9716 O   0  0  0  0  0  0  0  0  0  0  0  0
   -0.8107    1.8504    2.3808 N   0  0  0  0  0  0  0  0  0  0  0  0
   -0.1136    1.2381    2.7719 H   0  0  0  0  0  0  0  0  0  0  0  0
   -0.8954    3.2155    2.9026 C   0  0  0  0  0  0  0  0  0  0  0  0
   -1.8299    3.3430    3.4532 H   0  0  0  0  0  0  0  0  0  0  0  0
   -0.0581    3.4194    3.5712 H   0  0  0  0  0  0  0  0  0  0  0  0
   -0.8804    3.9320    2.0784 H   0  0  0  0  0  0  0  0  0  0  0  0
  5  6  2  0  0  0  0
  5  7  1  0  0  0  0
  2  3  1  0  0  0  0
  2  4  1  0  0  0  0
  2  5  1  0  0  0  0
  1  2  1  0  0  0  0
 29 30  2  0  0  0  0
 29 31  1  0  0  0  0
 26 27  1  0  0  0  0
 26 28  1  0  0  0  0
 23 24  1  0  0  0  0
 23 25  1  0  0  0  0
 22 23  1  0  0  0  0
 22 26  1  0  0  0  0
 20 21  1  0  0  0  0
 20 22  2  0  0  0  0
 17 18  1  0  0  0  0
 17 19  1  0  0  0  0
 17 20  1  0  0  0  0
 14 15  1  0  0  0  0
 14 16  1  0  0  0  0
 14 17  1  0  0  0  0
 11 12  1  0  0  0  0
 11 13  1  0  0  0  0
 11 14  1  0  0  0  0
  9 10  1  0  0  0  0
  9 11  1  0  0  0  0
  9 29  1  0  0  0  0
  7  8  1  0  0  0  0
  7  9  1  0  0  0  0
 33 34  1  0  0  0  0
 33 35  1  0  0  0  0
 33 36  1  0  0  0  0
 31 32  1  0  0  0  0
 31 33  1  0  0  0  0
M  CHG  1  20   1
M  END
$$$$
default_name
  -OEChem-02102213163D

 36 35  0     1  0  0  0  0  0999 V2000
   -4.2256   -3.6731    1.8584 H   0  0  0  0  0  0  0  0  0  0  0  0
   -4.2396   -2.6781    1.4144 C   0  0  0  0  0  0  0  0  0  0  0  0
   -4.9506   -2.0521    1.9514 H   0  0  0  0  0  0  0  0  0  0  0  0
   -4.5266   -2.7521    0.3674 H   0  0  0  0  0  0  0  0  0  0  0  0
   -2.8576   -2.0761    1.5184 C   0  0  0  0  0  0  0  0  0  0  0  0
   -1.9456   -2.7051    2.0404 O   0  0  0  0  0  0  0  0  0  0  0  0
   -2.6926   -0.8481    1.0174 N   0  0  0  0  0  0  0  0  0  0  0  0
   -3.4926   -0.3971    0.5954 H   0  0  0  0  0  0  0  0  0  0  0  0
   -1.4216   -0.1071    1.0434 C   0  0  1  0  0  0  0  0  0  0  0  0
   -0.7579   -0.5878    1.7640 H   0  0  0  0  0  0  0  0  0  0  0  0
   -0.7791   -0.1912   -0.3557 C   0  0  0  0  0  0  0  0  0  0  0  0
   -0.8547   -1.2203   -0.7125 H   0  0  0  0  0  0  0  0  0  0  0  0
   -1.3369    0.4481   -1.0435 H   0  0  0  0  0  0  0  0  0  0  0  0
    0.7008    0.2185   -0.3744 C   0  0  0  0  0  0  0  0  0  0  0  0
    1.2241   -0.3250   -1.1623 H   0  0  0  0  0  0  0  0  0  0  0  0
    0.7762    1.2897   -0.5645 H   0  0  0  0  0  0  0  0  0  0  0  0
    1.3502   -0.1069    0.9775 C   0  0  0  0  0  0  0  0  0  0  0  0
    0.8036    0.4202    1.7628 H   0  0  0  0  0  0  0  0  0  0  0  0
    1.2690   -1.1824    1.1523 H   0  0  0  0  0  0  0  0  0  0  0  0
    2.7720    0.2930    1.0132 N   0  3  0  0  0  0  0  0  0  0  0  0
    3.1552    0.6752    0.1656 H   0  0  0  0  0  0  0  0  0  0  0  0
    3.5853    0.1964    2.0517 C   0  0  0  0  0  0  0  0  0  0  0  0
    3.1919   -0.2844    3.1977 N   0  0  0  0  0  0  0  0  0  0  0  0
    2.2394   -0.5893    3.2932 H   0  0  0  0  0  0  0  0  0  0  0  0
    3.8221   -0.3512    3.9757 H   0  0  0  0  0  0  0  0  0  0  0  0
    4.8252    0.5847    1.9571 N   0  0  0  0  0  0  0  0  0  0  0  0
    5.1748    0.9627    1.0934 H   0  0  0  0  0  0  0  0  0  0  0  0
    5.4388    0.5097    2.7473 H   0  0  0  0  0  0  0  0  0  0  0  0
   -1.6547    1.3413    1.4779 C   0  0  0  0  0  0  0  0  0  0  0  0
   -2.5654    1.9858    0.9716 O   0  0  0  0  0  0  0  0  0  0  0  0
   -0.8107    1.8504    2.3808 N   0  0  0  0  0  0  0  0  0  0  0  0
   -0.1136    1.2381    2.7719 H   0  0  0  0  0  0  0  0  0  0  0  0
   -0.8954    3.2155    2.9026 C   0  0  0  0  0  0  0  0  0  0  0  0
   -1.8299    3.3430    3.4532 H   0  0  0  0  0  0  0  0  0  0  0  0
   -0.0581    3.4194    3.5712 H   0  0  0  0  0  0  0  0  0  0  0  0
   -0.8804    3.9320    2.0784 H   0  0  0  0  0  0  0  0  0  0  0  0
  5  6  2  0  0  0  0
  5  7  1  0  0  0  0
  2  3  1  0  0  0  0
  2  4  1  0  0  0  0
  2  5  1  0  0  0  0
  1  2  1  0  0  0  0
 29 30  2  0  0  0  0
 29 31  1  0  0  0  0
 26 27  1  0  0  0  0
 26 28  1  0  0  0  0
 23 24  1  0  0  0  0
 23 25  1  0  0  0  0
 22 23  1  0  0  0  0
 22 26  1  0  0  0  0
 20 21  1  0  0  0  0
 20 22  2  0  0  0  0
 17 18  1  0  0  0  0
 17 19  1  0  0  0  0
 17 20  1  0  0  0  0
 14 15  1  0  0  0  0
 14 16  1  0  0  0  0
 14 17  1  0  0  0  0
 11 12  1  0  0  0  0
 11 13  1  0  0  0  0
 11 14  1  0  0  0  0
  9 10  1  0  0  0  0
  9 11  1  0  0  0  0
  9 29  1  0  0  0  0
  7  8  1  0  0  0  0
  7  9  1  0  0  0  0
 33 34  1  0  0  0  0
 33 35  1  0  0  0  0
 33 36  1  0  0  0  0
 31 32  1  0  0  0  0
 31 33  1  0  0  0  0
M  CHG  1  20   1
M  END
$$$$
default_name
  -OEChem-02102213163D

 36 35  0     1  0  0  0  0  0999 V2000
   -4.2256   -3.6731    1.8584 H   0  0  0  0  0  0  0  0  0  0  0  0
   -4.2396   -2.6781    1.4144 C   0  0  0  0  0  0  0  0  0  0  0  0
   -4.9506   -2.0521    1.9514 H   0  0  0  0  0  0  0  0  0  0  0  0
   -4.5266   -2.7521    0.3674 H   0  0  0  0  0  0  0  0  0  0  0  0
   -2.8576   -2.0761    1.5184 C   0  0  0  0  0  0  0  0  0  0  0  0
   -1.9456   -2.7051    2.0404 O   0  0  0  0  0  0  0  0  0  0  0  0
   -2.6926   -0.8481    1.0174 N   0  0  0  0  0  0  0  0  0  0  0  0
   -3.4926   -0.3971    0.5954 H   0  0  0  0  0  0  0  0  0  0  0  0
   -1.4216   -0.1071    1.0434 C   0  0  1  0  0  0  0  0  0  0  0  0
   -0.7579   -0.5878    1.7640 H   0  0  0  0  0  0  0  0  0  0  0  0
   -0.7791   -0.1912   -0.3557 C   0  0  0  0  0  0  0  0  0  0  0  0
   -0.8547   -1.2203   -0.7125 H   0  0  0  0  0  0  0  0  0  0  0  0
   -1.3369    0.4481   -1.0435 H   0  0  0  0  0  0  0  0  0  0  0  0
    0.7008    0.2185   -0.3744 C   0  0  0  0  0  0  0  0  0  0  0  0
    1.1622   -0.1083   -1.3073 H   0  0  0  0  0  0  0  0  0  0  0  0
    0.7757    1.3036   -0.2962 H   0  0  0  0  0  0  0  0  0  0  0  0
    1.4376   -0.4304    0.8052 C   0  0  0  0  0  0  0  0  0  0  0  0
    0.9525   -0.1190    1.7331 H   0  0  0  0  0  0  0  0  0  0  0  0
    1.3557   -1.5158    0.7116 H   0  0  0  0  0  0  0  0  0  0  0  0
    2.8631   -0.0440    0.8407 N   0  3  0  0  0  0  0  0  0  0  0  0
    3.1918    0.5397    0.0906 H   0  0  0  0  0  0  0  0  0  0  0  0
    3.7445   -0.3922    1.7632 C   0  0  0  0  0  0  0  0  0  0  0  0
    3.4251   -1.1459    2.7776 N   0  0  0  0  0  0  0  0  0  0  0  0
    2.4778   -1.4703    2.8600 H   0  0  0  0  0  0  0  0  0  0  0  0
    4.1063   -1.4012    3.4687 H   0  0  0  0  0  0  0  0  0  0  0  0
    4.9796    0.0144    1.6825 N   0  0  0  0  0  0  0  0  0  0  0  0
    5.2736    0.5979    0.9182 H   0  0  0  0  0  0  0  0  0  0  0  0
    5.6450   -0.2520    2.3845 H   0  0  0  0  0  0  0  0  0  0  0  0
   -1.6547    1.3413    1.4779 C   0  0  0  0  0  0  0  0  0  0  0  0
   -2.5654    1.9858    0.9716 O   0  0  0  0  0  0  0  0  0  0  0  0
   -0.8107    1.8504    2.3808 N   0  0  0  0  0  0  0  0  0  0  0  0
   -0.1136    1.2381    2.7719 H   0  0  0  0  0  0  0  0  0  0  0  0
   -0.8954    3.2155    2.9026 C   0  0  0  0  0  0  0  0  0  0  0  0
   -1.8299    3.3430    3.4532 H   0  0  0  0  0  0  0  0  0  0  0  0
   -0.0581    3.4194    3.5712 H   0  0  0  0  0  0  0  0  0  0  0  0
   -0.8804    3.9320    2.0784 H   0  0  0  0  0  0  0  0  0  0  0  0
  5  6  2  0  0  0  0
  5  7  1  0  0  0  0
  2  3  1  0  0  0  0
  2  4  1  0  0  0  0
  2  5  1  0  0  0  0
  1  2  1  0  0  0  0
 29 30  2  0  0  0  0
 29 31  1  0  0  0  0
 26 27  1  0  0  0  0
 26 28  1  0  0  0  0
 23 24  1  0  0  0  0
 23 25  1  0  0  0  0
 22 23  1  0  0  0  0
 22 26  1  0  0  0  0
 20 21  1  0  0  0  0
 20 22  2  0  0  0  0
 17 18  1  0  0  0  0
 17 19  1  0  0  0  0
 17 20  1  0  0  0  0
 14 15  1  0  0  0  0
 14 16  1  0  0  0  0
 14 17  1  0  0  0  0
 11 12  1  0  0  0  0
 11 13  1  0  0  0  0
 11 14  1  0  0  0  0
  9 10  1  0  0  0  0
  9 11  1  0  0  0  0
  9 29  1  0  0  0  0
  7  8  1  0  0  0  0
  7  9  1  0  0  0  0
 33 34  1  0  0  0  0
 33 35  1  0  0  0  0
 33 36  1  0  0  0  0
 31 32  1  0  0  0  0
 31 33  1  0  0  0  0
M  CHG  1  20   1
M  END
$$$$
default_name
  -OEChem-02102213163D

 36 35  0     1  0  0  0  0  0999 V2000
   -4.2256   -3.6731    1.8584 H   0  0  0  0  0  0  0  0  0  0  0  0
   -4.2396   -2.6781    1.4144 C   0  0  0  0  0  0  0  0  0  0  0  0
   -4.9506   -2.0521    1.9514 H   0  0  0  0  0  0  0  0  0  0  0  0
   -4.5266   -2.7521    0.3674 H   0  0  0  0  0  0  0  0  0  0  0  0
   -2.8576   -2.0761    1.5184 C   0  0  0  0  0  0  0  0  0  0  0  0
   -1.9456   -2.7051    2.0404 O   0  0  0  0  0  0  0  0  0  0  0  0
   -2.6926   -0.8481    1.0174 N   0  0  0  0  0  0  0  0  0  0  0  0
   -3.4926   -0.3971    0.5954 H   0  0  0  0  0  0  0  0  0  0  0  0
   -1.4216   -0.1071    1.0434 C   0  0  1  0  0  0  0  0  0  0  0  0
   -0.7579   -0.5878    1.7640 H   0  0  0  0  0  0  0  0  0  0  0  0
   -0.7791   -0.1912   -0.3557 C   0  0  0  0  0  0  0  0  0  0  0  0
   -0.8547   -1.2203   -0.7125 H   0  0  0  0  0  0  0  0  0  0  0  0
   -1.3369    0.4481   -1.0435 H   0  0  0  0  0  0  0  0  0  0  0  0
    0.7008    0.2185   -0.3744 C   0  0  0  0  0  0  0  0  0  0  0  0
    1.0932    0.1374   -1.3891 H   0  0  0  0  0  0  0  0  0  0  0  0
    0.7938    1.2501   -0.0335 H   0  0  0  0  0  0  0  0  0  0  0  0
    1.5090   -0.7001    0.5520 C   0  0  0  0  0  0  0  0  0  0  0  0
    1.0925   -0.6328    1.5597 H   0  0  0  0  0  0  0  0  0  0  0  0
    1.4079   -1.7282    0.1967 H   0  0  0  0  0  0  0  0  0  0  0  0
    2.9382   -0.3268    0.5836 N   0  3  0  0  0  0  0  0  0  0  0  0
    3.2215    0.4274   -0.0182 H   0  0  0  0  0  0  0  0  0  0  0  0
    3.8766   -0.8892    1.3267 C   0  0  0  0  0  0  0  0  0  0  0  0
    3.6186   -1.8740    2.1409 N   0  0  0  0  0  0  0  0  0  0  0  0
    2.6754   -2.2140    2.2053 H   0  0  0  0  0  0  0  0  0  0  0  0
    4.3425   -2.2899    2.6975 H   0  0  0  0  0  0  0  0  0  0  0  0
    5.1080   -0.4685    1.2644 N   0  0  0  0  0  0  0  0  0  0  0  0
    5.3557    0.2889    0.6512 H   0  0  0  0  0  0  0  0  0  0  0  0
    5.8168   -0.8979    1.8298 H   0  0  0  0  0  0  0  0  0  0  0  0
   -1.6547    1.3413    1.4779 C   0  0  0  0  0  0  0  0  0  0  0  0
   -2.5654    1.9858    0.9716 O   0  0  0  0  0  0  0  0  0  0  0  0
   -0.8107    1.8504    2.3808 N   0  0  0  0  0  0  0  0  0  0  0  0
   -0.1136    1.2381    2.7719 H   0  0  0  0  0  0  0  0  0  0  0  0
   -0.8954    3.2155    2.9026 C   0  0  0  0  0  0  0  0  0  0  0  0
   -1.8299    3.3430    3.4532 H   0  0  0  0  0  0  0  0  0  0  0  0
   -0.0581    3.4194    3.5712 H   0  0  0  0  0  0  0  0  0  0  0  0
   -0.8804    3.9320    2.0784 H   0  0  0  0  0  0  0  0  0  0  0  0
  5  6  2  0  0  0  0
  5  7  1  0  0  0  0
  2  3  1  0  0  0  0
  2  4  1  0  0  0  0
  2  5  1  0  0  0  0
  1  2  1  0  0  0  0
 29 30  2  0  0  0  0
 29 31  1  0  0  0  0
 26 27  1  0  0  0  0
 26 28  1  0  0  0  0
 23 24  1  0  0  0  0
 23 25  1  0  0  0  0
 22 23  1  0  0  0  0
 22 26  1  0  0  0  0
 20 21  1  0  0  0  0
 20 22  2  0  0  0  0
 17 18  1  0  0  0  0
 17 19  1  0  0  0  0
 17 20  1  0  0  0  0
 14 15  1  0  0  0  0
 14 16  1  0  0  0  0
 14 17  1  0  0  0  0
 11 12  1  0  0  0  0
 11 13  1  0  0  0  0
 11 14  1  0  0  0  0
  9 10  1  0  0  0  0
  9 11  1  0  0  0  0
  9 29  1  0  0  0  0
  7  8  1  0  0  0  0
  7  9  1  0  0  0  0
 33 34  1  0  0  0  0
 33 35  1  0  0  0  0
 33 36  1  0  0  0  0
 31 32  1  0  0  0  0
 31 33  1  0  0  0  0
M  CHG  1  20   1
M  END
$$$$
default_name
  -OEChem-02102213163D

 36 35  0     1  0  0  0  0  0999 V2000
   -4.2256   -3.6731    1.8584 H   0  0  0  0  0  0  0  0  0  0  0  0
   -4.2396   -2.6781    1.4144 C   0  0  0  0  0  0  0  0  0  0  0  0
   -4.9506   -2.0521    1.9514 H   0  0  0  0  0  0  0  0  0  0  0  0
   -4.5266   -2.7521    0.3674 H   0  0  0  0  0  0  0  0  0  0  0  0
   -2.8576   -2.0761    1.5184 C   0  0  0  0  0  0  0  0  0  0  0  0
   -1.9456   -2.7051    2.0404 O   0  0  0  0  0  0  0  0  0  0  0  0
   -2.6926   -0.8481    1.0174 N   0  0  0  0  0  0  0  0  0  0  0  0
   -3.4926   -0.3971    0.5954 H   0  0  0  0  0  0  0  0  0  0  0  0
   -1.4216   -0.1071    1.0434 C   0  0  1  0  0  0  0  0  0  0  0  0
   -0.7579   -0.5878    1.7640 H   0  0  0  0  0  0  0  0  0  0  0  0
   -0.7791   -0.1912   -0.3557 C   0  0  0  0  0  0  0  0  0  0  0  0
   -0.8547   -1.2203   -0.7125 H   0  0  0  0  0  0  0  0  0  0  0  0
   -1.3369    0.4481   -1.0435 H   0  0  0  0  0  0  0  0  0  0  0  0
    0.7008    0.2185   -0.3744 C   0  0  0  0  0  0  0  0  0  0  0  0
    1.0216    0.3953   -1.4020 H   0  0  0  0  0  0  0  0  0  0  0  0
    0.8293    1.1330    0.2056 H   0  0  0  0  0  0  0  0  0  0  0  0
    1.5597   -0.8976    0.2353 C   0  0  0  0  0  0  0  0  0  0  0  0
    1.2142   -1.0863    1.2544 H   0  0  0  0  0  0  0  0  0  0  0  0
    1.4222   -1.8052   -0.3572 H   0  0  0  0  0  0  0  0  0  0  0  0
    2.9920   -0.5361    0.2597 N   0  3  0  0  0  0  0  0  0  0  0  0
    3.2423    0.3460   -0.1533 H   0  0  0  0  0  0  0  0  0  0  0  0
    3.9724   -1.2609    0.7720 C   0  0  0  0  0  0  0  0  0  0  0  0
    3.7592   -2.4191    1.3308 N   0  0  0  0  0  0  0  0  0  0  0  0
    2.8186   -2.7697    1.3738 H   0  0  0  0  0  0  0  0  0  0  0  0
    4.5147   -2.9567    1.7145 H   0  0  0  0  0  0  0  0  0  0  0  0
    5.2016   -0.8310    0.7312 N   0  0  0  0  0  0  0  0  0  0  0  0
    5.4156    0.0568    0.3105 H   0  0  0  0  0  0  0  0  0  0  0  0
    5.9424   -1.3840    1.1211 H   0  0  0  0  0  0  0  0  0  0  0  0
   -1.6547    1.3413    1.4779 C   0  0  0  0  0  0  0  0  0  0  0  0
   -2.5654    1.9858    0.9716 O   0  0  0  0  0  0  0  0  0  0  0  0
   -0.8107    1.8504    2.3808 N   0  0  0  0  0  0  0  0  0  0  0  0
   -0.1136    1.2381    2.7719 H   0  0  0  0  0  0  0  0  0  0  0  0
   -0.8954    3.2155    2.9026 C   0  0  0  0  0  0  0  0  0  0  0  0
   -1.8299    3.3430    3.4532 H   0  0  0  0  0  0  0  0  0  0  0  0
   -0.0581    3.4194    3.5712 H   0  0  0  0  0  0  0  0  0  0  0  0
   -0.8804    3.9320    2.0784 H   0  0  0  0  0  0  0  0  0  0  0  0
  5  6  2  0  0  0  0
  5  7  1  0  0  0  0
  2  3  1  0  0  0  0
  2  4  1  0  0  0  0
  2  5  1  0  0  0  0
  1  2  1  0  0  0  0
 29 30  2  0  0  0  0
 29 31  1  0  0  0  0
 26 27  1  0  0  0  0
 26 28  1  0  0  0  0
 23 24  1  0  0  0  0
 23 25  1  0  0  0  0
 22 23  1  0  0  0  0
 22 26  1  0  0  0  0
 20 21  1  0  0  0  0
 20 22  2  0  0  0  0
 17 18  1  0  0  0  0
 17 19  1  0  0  0  0
 17 20  1  0  0  0  0
 14 15  1  0  0  0  0
 14 16  1  0  0  0  0
 14 17  1  0  0  0  0
 11 12  1  0  0  0  0
 11 13  1  0  0  0  0
 11 14  1  0  0  0  0
  9 10  1  0  0  0  0
  9 11  1  0  0  0  0
  9 29  1  0  0  0  0
  7  8  1  0  0  0  0
  7  9  1  0  0  0  0
 33 34  1  0  0  0  0
 33 35  1  0  0  0  0
 33 36  1  0  0  0  0
 31 32  1  0  0  0  0
 31 33  1  0  0  0  0
M  CHG  1  20   1
M  END
$$$$
default_name
  -OEChem-02102213163D

 36 35  0     1  0  0  0  0  0999 V2000
   -4.2256   -3.6731    1.8584 H   0  0  0  0  0  0  0  0  0  0  0  0
   -4.2396   -2.6781    1.4144 C   0  0  0  0  0  0  0  0  0  0  0  0
   -4.9506   -2.0521    1.9514 H   0  0  0  0  0  0  0  0  0  0  0  0
   -4.5266   -2.7521    0.3674 H   0  0  0  0  0  0  0  0  0  0  0  0
   -2.8576   -2.0761    1.5184 C   0  0  0  0  0  0  0  0  0  0  0  0
   -1.9456   -2.7051    2.0404 O   0  0  0  0  0  0  0  0  0  0  0  0
   -2.6926   -0.8481    1.0174 N   0  0  0  0  0  0  0  0  0  0  0  0
   -3.4926   -0.3971    0.5954 H   0  0  0  0  0  0  0  0  0  0  0  0
   -1.4216   -0.1071    1.0434 C   0  0  1  0  0  0  0  0  0  0  0  0
   -0.7579   -0.5878    1.7640 H   0  0  0  0  0  0  0  0  0  0  0  0
   -0.7791   -0.1912   -0.3557 C   0  0  0  0  0  0  0  0  0  0  0  0
   -0.8547   -1.2203   -0.7125 H   0  0  0  0  0  0  0  0  0  0  0  0
   -1.3369    0.4481   -1.0435 H   0  0  0  0  0  0  0  0  0  0  0  0
    0.7008    0.2185   -0.3744 C   0  0  0  0  0  0  0  0  0  0  0  0
    0.9524    0.6479   -1.3452 H   0  0  0  0  0  0  0  0  0  0  0  0
    0.8797    0.9600    0.4049 H   0  0  0  0  0  0  0  0  0  0  0  0
    1.5862   -1.0097   -0.1234 C   0  0  0  0  0  0  0  0  0  0  0  0
    1.3092   -1.4485    0.8379 H   0  0  0  0  0  0  0  0  0  0  0  0
    1.3975   -1.7414   -0.9124 H   0  0  0  0  0  0  0  0  0  0  0  0
    3.0210   -0.6576   -0.1092 N   0  3  0  0  0  0  0  0  0  0  0  0
    3.2528    0.3010   -0.3056 H   0  0  0  0  0  0  0  0  0  0  0  0
    4.0255   -1.4818    0.1369 C   0  0  0  0  0  0  0  0  0  0  0  0
    3.8374   -2.7440    0.4027 N   0  0  0  0  0  0  0  0  0  0  0  0
    2.8979   -3.0995    0.4222 H   0  0  0  0  0  0  0  0  0  0  0  0
    4.6109   -3.3561    0.5869 H   0  0  0  0  0  0  0  0  0  0  0  0
    5.2540   -1.0485    0.1193 N   0  0  0  0  0  0  0  0  0  0  0  0
    5.4493   -0.0826   -0.0806 H   0  0  0  0  0  0  0  0  0  0  0  0
    6.0132   -1.6771    0.3066 H   0  0  0  0  0  0  0  0  0  0  0  0
   -1.6547    1.3413    1.4779 C   0  0  0  0  0  0  0  0  0  0  0  0
   -2.5654    1.9858    0.9716 O   0  0  0  0  0  0  0  0  0  0  0  0
   -0.8107    1.8504    2.3808 N   0  0  0  0  0  0  0  0  0  0  0  0
   -0.1136    1.2381    2.7719 H   0  0  0  0  0  0  0  0  0  0  0  0
   -0.8954    3.2155    2.9026 C   0  0  0  0  0  0  0  0  0  0  0  0
   -1.8299    3.3430    3.4532 H   0  0  0  0  0  0  0  0  0  0  0  0
   -0.0581    3.4194    3.5712 H   0  0  0  0  0  0  0  0  0  0  0  0
   -0.8804    3.9320    2.0784 H   0  0  0  0  0  0  0  0  0  0  0  0
  5  6  2  0  0  0  0
  5  7  1  0  0  0  0
  2  3  1  0  0  0  0
  2  4  1  0  0  0  0
  2  5  1  0  0  0  0
  1  2  1  0  0  0  0
 29 30  2  0  0  0  0
 29 31  1  0  0  0  0
 26 27  1  0  0  0  0
 26 28  1  0  0  0  0
 23 24  1  0  0  0  0
 23 25  1  0  0  0  0
 22 23  1  0  0  0  0
 22 26  1  0  0  0  0
 20 21  1  0  0  0  0
 20 22  2  0  0  0  0
 17 18  1  0  0  0  0
 17 19  1  0  0  0  0
 17 20  1  0  0  0  0
 14 15  1  0  0  0  0
 14 16  1  0  0  0  0
 14 17  1  0  0  0  0
 11 12  1  0  0  0  0
 11 13  1  0  0  0  0
 11 14  1  0  0  0  0
  9 10  1  0  0  0  0
  9 11  1  0  0  0  0
  9 29  1  0  0  0  0
  7  8  1  0  0  0  0
  7  9  1  0  0  0  0
 33 34  1  0  0  0  0
 33 35  1  0  0  0  0
 33 36  1  0  0  0  0
 31 32  1  0  0  0  0
 31 33  1  0  0  0  0
M  CHG  1  20   1
M  END
$$$$
default_name
  -OEChem-02102213163D

 36 35  0     1  0  0  0  0  0999 V2000
   -4.2256   -3.6731    1.8584 H   0  0  0  0  0  0  0  0  0  0  0  0
   -4.2396   -2.6781    1.4144 C   0  0  0  0  0  0  0  0  0  0  0  0
   -4.9506   -2.0521    1.9514 H   0  0  0  0  0  0  0  0  0  0  0  0
   -4.5266   -2.7521    0.3674 H   0  0  0  0  0  0  0  0  0  0  0  0
   -2.8576   -2.0761    1.5184 C   0  0  0  0  0  0  0  0  0  0  0  0
   -1.9456   -2.7051    2.0404 O   0  0  0  0  0  0  0  0  0  0  0  0
   -2.6926   -0.8481    1.0174 N   0  0  0  0  0  0  0  0  0  0  0  0
   -3.4926   -0.3971    0.5954 H   0  0  0  0  0  0  0  0  0  0  0  0
   -1.4216   -0.1071    1.0434 C   0  0  1  0  0  0  0  0  0  0  0  0
   -0.7579   -0.5878    1.7640 H   0  0  0  0  0  0  0  0  0  0  0  0
   -0.7791   -0.1912   -0.3557 C   0  0  0  0  0  0  0  0  0  0  0  0
   -0.8547   -1.2203   -0.7125 H   0  0  0  0  0  0  0  0  0  0  0  0
   -1.3369    0.4481   -1.0435 H   0  0  0  0  0  0  0  0  0  0  0  0
    0.7008    0.2185   -0.3744 C   0  0  0  0  0  0  0  0  0  0  0  0
    0.8903    0.8780   -1.2225 H   0  0  0  0  0  0  0  0  0  0  0  0
    0.9416    0.7431    0.5507 H   0  0  0  0  0  0  0  0  0  0  0  0
    1.5866   -1.0285   -0.4996 C   0  0  0  0  0  0  0  0  0  0  0  0
    1.3710   -1.6949    0.3387 H   0  0  0  0  0  0  0  0  0  0  0  0
    1.3355   -1.5412   -1.4311 H   0  0  0  0  0  0  0  0  0  0  0  0
    3.0231   -0.6831   -0.4978 N   0  3  0  0  0  0  0  0  0  0  0  0
    3.2523    0.2955   -0.4646 H   0  0  0  0  0  0  0  0  0  0  0  0
    4.0323   -1.5370   -0.5354 C   0  0  0  0  0  0  0  0  0  0  0  0
    3.8478   -2.8267   -0.5802 N   0  0  0  0  0  0  0  0  0  0  0  0
    2.9076   -3.1810   -0.5848 H   0  0  0  0  0  0  0  0  0  0  0  0
    4.6248   -3.4610   -0.6086 H   0  0  0  0  0  0  0  0  0  0  0  0
    5.2617   -1.1061   -0.5297 N   0  0  0  0  0  0  0  0  0  0  0  0
    5.4543   -0.1199   -0.4955 H   0  0  0  0  0  0  0  0  0  0  0  0
    6.0244   -1.7574   -0.5582 H   0  0  0  0  0  0  0  0  0  0  0  0
   -1.6547    1.3413    1.4779 C   0  0  0  0  0  0  0  0  0  0  0  0
   -2.5654    1.9858    0.9716 O   0  0  0  0  0  0  0  0  0  0  0  0
   -0.8107    1.8504    2.3808 N   0  0  0  0  0  0  0  0  0  0  0  0
   -0.1136    1.2381    2.7719 H   0  0  0  0  0  0  0  0  0  0  0  0
   -0.8954    3.2155    2.9026 C   0  0  0  0  0  0  0  0  0  0  0  0
   -1.8299    3.3430    3.4532 H   0  0  0  0  0  0  0  0  0  0  0  0
   -0.0581    3.4194    3.5712 H   0  0  0  0  0  0  0  0  0  0  0  0
   -0.8804    3.9320    2.0784 H   0  0  0  0  0  0  0  0  0  0  0  0
  5  6  2  0  0  0  0
  5  7  1  0  0  0  0
  2  3  1  0  0  0  0
  2  4  1  0  0  0  0
  2  5  1  0  0  0  0
  1  2  1  0  0  0  0
 29 30  2  0  0  0  0
 29 31  1  0  0  0  0
 26 27  1  0  0  0  0
 26 28  1  0  0  0  0
 23 24  1  0  0  0  0
 23 25  1  0  0  0  0
 22 23  1  0  0  0  0
 22 26  1  0  0  0  0
 20 21  1  0  0  0  0
 20 22  2  0  0  0  0
 17 18  1  0  0  0  0
 17 19  1  0  0  0  0
 17 20  1  0  0  0  0
 14 15  1  0  0  0  0
 14 16  1  0  0  0  0
 14 17  1  0  0  0  0
 11 12  1  0  0  0  0
 11 13  1  0  0  0  0
 11 14  1  0  0  0  0
  9 10  1  0  0  0  0
  9 11  1  0  0  0  0
  9 29  1  0  0  0  0
  7  8  1  0  0  0  0
  7  9  1  0  0  0  0
 33 34  1  0  0  0  0
 33 35  1  0  0  0  0
 33 36  1  0  0  0  0
 31 32  1  0  0  0  0
 31 33  1  0  0  0  0
M  CHG  1  20   1
M  END
$$$$
default_name
  -OEChem-02102213163D

 36 35  0     1  0  0  0  0  0999 V2000
   -4.2256   -3.6731    1.8584 H   0  0  0  0  0  0  0  0  0  0  0  0
   -4.2396   -2.6781    1.4144 C   0  0  0  0  0  0  0  0  0  0  0  0
   -4.9506   -2.0521    1.9514 H   0  0  0  0  0  0  0  0  0  0  0  0
   -4.5266   -2.7521    0.3674 H   0  0  0  0  0  0  0  0  0  0  0  0
   -2.8576   -2.0761    1.5184 C   0  0  0  0  0  0  0  0  0  0  0  0
   -1.9456   -2.7051    2.0404 O   0  0  0  0  0  0  0  0  0  0  0  0
   -2.6926   -0.8481    1.0174 N   0  0  0  0  0  0  0  0  0  0  0  0
   -3.4926   -0.3971    0.5954 H   0  0  0  0  0  0  0  0  0  0  0  0
   -1.4216   -0.1071    1.0434 C   0  0  1  0  0  0  0  0  0  0  0  0
   -0.7579   -0.5878    1.7640 H   0  0  0  0  0  0  0  0  0  0  0  0
   -0.7791   -0.1912   -0.3557 C   0  0  0  0  0  0  0  0  0  0  0  0
   -0.8547   -1.2203   -0.7125 H   0  0  0  0  0  0  0  0  0  0  0  0
   -1.3369    0.4481   -1.0435 H   0  0  0  0  0  0  0  0  0  0  0  0
    0.7008    0.2185   -0.3744 C   0  0  0  0  0  0  0  0  0  0  0  0
    0.8395    1.0698   -1.0424 H   0  0  0  0  0  0  0  0  0  0  0  0
    1.0108    0.4970    0.6332 H   0  0  0  0  0  0  0  0  0  0  0  0
    1.5610   -0.9528   -0.8678 C   0  0  0  0  0  0  0  0  0  0  0  0
    1.3956   -1.8085   -0.2091 H   0  0  0  0  0  0  0  0  0  0  0  0
    1.2404   -1.2183   -1.8779 H   0  0  0  0  0  0  0  0  0  0  0  0
    2.9982   -0.6108   -0.8797 N   0  3  0  0  0  0  0  0  0  0  0  0
    3.2408    0.3298   -0.6196 H   0  0  0  0  0  0  0  0  0  0  0  0
    3.9922   -1.4227   -1.1989 C   0  0  0  0  0  0  0  0  0  0  0  0
    3.7897   -2.6614   -1.5509 N   0  0  0  0  0  0  0  0  0  0  0  0
    2.8473   -3.0086   -1.5784 H   0  0  0  0  0  0  0  0  0  0  0  0
    4.5553   -3.2641   -1.7905 H   0  0  0  0  0  0  0  0  0  0  0  0
    5.2242   -1.0000   -1.1714 N   0  0  0  0  0  0  0  0  0  0  0  0
    5.4304   -0.0524   -0.9059 H   0  0  0  0  0  0  0  0  0  0  0  0
    5.9753   -1.6192   -1.4142 H   0  0  0  0  0  0  0  0  0  0  0  0
   -1.6547    1.3413    1.4779 C   0  0  0  0  0  0  0  0  0  0  0  0
   -2.5654    1.9858    0.9716 O   0  0  0  0  0  0  0  0  0  0  0  0
   -0.8107    1.8504    2.3808 N   0  0  0  0  0  0  0  0  0  0  0  0
   -0.1136    1.2381    2.7719 H   0  0  0  0  0  0  0  0  0  0  0  0
   -0.8954    3.2155    2.9026 C   0  0  0  0  0  0  0  0  0  0  0  0
   -1.8299    3.3430    3.4532 H   0  0  0  0  0  0  0  0  0  0  0  0
   -0.0581    3.4194    3.5712 H   0  0  0  0  0  0  0  0  0  0  0  0
   -0.8804    3.9320    2.0784 H   0  0  0  0  0  0  0  0  0  0  0  0
  5  6  2  0  0  0  0
  5  7  1  0  0  0  0
  2  3  1  0  0  0  0
  2  4  1  0  0  0  0
  2  5  1  0  0  0  0
  1  2  1  0  0  0  0
 29 30  2  0  0  0  0
 29 31  1  0  0  0  0
 26 27  1  0  0  0  0
 26 28  1  0  0  0  0
 23 24  1  0  0  0  0
 23 25  1  0  0  0  0
 22 23  1  0  0  0  0
 22 26  1  0  0  0  0
 20 21  1  0  0  0  0
 20 22  2  0  0  0  0
 17 18  1  0  0  0  0
 17 19  1  0  0  0  0
 17 20  1  0  0  0  0
 14 15  1  0  0  0  0
 14 16  1  0  0  0  0
 14 17  1  0  0  0  0
 11 12  1  0  0  0  0
 11 13  1  0  0  0  0
 11 14  1  0  0  0  0
  9 10  1  0  0  0  0
  9 11  1  0  0  0  0
  9 29  1  0  0  0  0
  7  8  1  0  0  0  0
  7  9  1  0  0  0  0
 33 34  1  0  0  0  0
 33 35  1  0  0  0  0
 33 36  1  0  0  0  0
 31 32  1  0  0  0  0
 31 33  1  0  0  0  0
M  CHG  1  20   1
M  END
$$$$
default_name
  -OEChem-02102213163D

 36 35  0     1  0  0  0  0  0999 V2000
   -4.2256   -3.6731    1.8584 H   0  0  0  0  0  0  0  0  0  0  0  0
   -4.2396   -2.6781    1.4144 C   0  0  0  0  0  0  0  0  0  0  0  0
   -4.9506   -2.0521    1.9514 H   0  0  0  0  0  0  0  0  0  0  0  0
   -4.5266   -2.7521    0.3674 H   0  0  0  0  0  0  0  0  0  0  0  0
   -2.8576   -2.0761    1.5184 C   0  0  0  0  0  0  0  0  0  0  0  0
   -1.9456   -2.7051    2.0404 O   0  0  0  0  0  0  0  0  0  0  0  0
   -2.6926   -0.8481    1.0174 N   0  0  0  0  0  0  0  0  0  0  0  0
   -3.4926   -0.3971    0.5954 H   0  0  0  0  0  0  0  0  0  0  0  0
   -1.4216   -0.1071    1.0434 C   0  0  1  0  0  0  0  0  0  0  0  0
   -0.7579   -0.5878    1.7640 H   0  0  0  0  0  0  0  0  0  0  0  0
   -0.7791   -0.1912   -0.3557 C   0  0  0  0  0  0  0  0  0  0  0  0
   -0.8547   -1.2203   -0.7125 H   0  0  0  0  0  0  0  0  0  0  0  0
   -1.3369    0.4481   -1.0435 H   0  0  0  0  0  0  0  0  0  0  0  0
    0.7008    0.2185   -0.3744 C   0  0  0  0  0  0  0  0  0  0  0  0
    0.8034    1.2103   -0.8170 H   0  0  0  0  0  0  0  0  0  0  0  0
    1.0826    0.2384    0.6468 H   0  0  0  0  0  0  0  0  0  0  0  0
    1.5111   -0.7879   -1.2027 C   0  0  0  0  0  0  0  0  0  0  0  0
    1.3810   -1.7818   -0.7684 H   0  0  0  0  0  0  0  0  0  0  0  0
    1.1188   -0.7947   -2.2224 H   0  0  0  0  0  0  0  0  0  0  0  0
    2.9480   -0.4456   -1.2288 N   0  3  0  0  0  0  0  0  0  0  0  0
    3.2192    0.4017   -0.7599 H   0  0  0  0  0  0  0  0  0  0  0  0
    3.9080   -1.1466   -1.8086 C   0  0  0  0  0  0  0  0  0  0  0  0
    3.6671   -2.2594   -2.4433 N   0  0  0  0  0  0  0  0  0  0  0  0
    2.7209   -2.5940   -2.4910 H   0  0  0  0  0  0  0  0  0  0  0  0
    4.4072   -2.7790   -2.8782 H   0  0  0  0  0  0  0  0  0  0  0  0
    5.1440   -0.7372   -1.7622 N   0  0  0  0  0  0  0  0  0  0  0  0
    5.3792    0.1153   -1.2838 H   0  0  0  0  0  0  0  0  0  0  0  0
    5.8692   -1.2721   -2.2033 H   0  0  0  0  0  0  0  0  0  0  0  0
   -1.6547    1.3413    1.4779 C   0  0  0  0  0  0  0  0  0  0  0  0
   -2.5654    1.9858    0.9716 O   0  0  0  0  0  0  0  0  0  0  0  0
   -0.8107    1.8504    2.3808 N   0  0  0  0  0  0  0  0  0  0  0  0
   -0.1136    1.2381    2.7719 H   0  0  0  0  0  0  0  0  0  0  0  0
   -0.8954    3.2155    2.9026 C   0  0  0  0  0  0  0  0  0  0  0  0
   -1.8299    3.3430    3.4532 H   0  0  0  0  0  0  0  0  0  0  0  0
   -0.0581    3.4194    3.5712 H   0  0  0  0  0  0  0  0  0  0  0  0
   -0.8804    3.9320    2.0784 H   0  0  0  0  0  0  0  0  0  0  0  0
  5  6  2  0  0  0  0
  5  7  1  0  0  0  0
  2  3  1  0  0  0  0
  2  4  1  0  0  0  0
  2  5  1  0  0  0  0
  1  2  1  0  0  0  0
 29 30  2  0  0  0  0
 29 31  1  0  0  0  0
 26 27  1  0  0  0  0
 26 28  1  0  0  0  0
 23 24  1  0  0  0  0
 23 25  1  0  0  0  0
 22 23  1  0  0  0  0
 22 26  1  0  0  0  0
 20 21  1  0  0  0  0
 20 22  2  0  0  0  0
 17 18  1  0  0  0  0
 17 19  1  0  0  0  0
 17 20  1  0  0  0  0
 14 15  1  0  0  0  0
 14 16  1  0  0  0  0
 14 17  1  0  0  0  0
 11 12  1  0  0  0  0
 11 13  1  0  0  0  0
 11 14  1  0  0  0  0
  9 10  1  0  0  0  0
  9 11  1  0  0  0  0
  9 29  1  0  0  0  0
  7  8  1  0  0  0  0
  7  9  1  0  0  0  0
 33 34  1  0  0  0  0
 33 35  1  0  0  0  0
 33 36  1  0  0  0  0
 31 32  1  0  0  0  0
 31 33  1  0  0  0  0
M  CHG  1  20   1
M  END
$$$$
default_name
  -OEChem-02102213163D

 36 35  0     1  0  0  0  0  0999 V2000
   -4.2256   -3.6731    1.8584 H   0  0  0  0  0  0  0  0  0  0  0  0
   -4.2396   -2.6781    1.4144 C   0  0  0  0  0  0  0  0  0  0  0  0
   -4.9506   -2.0521    1.9514 H   0  0  0  0  0  0  0  0  0  0  0  0
   -4.5266   -2.7521    0.3674 H   0  0  0  0  0  0  0  0  0  0  0  0
   -2.8576   -2.0761    1.5184 C   0  0  0  0  0  0  0  0  0  0  0  0
   -1.9456   -2.7051    2.0404 O   0  0  0  0  0  0  0  0  0  0  0  0
   -2.6926   -0.8481    1.0174 N   0  0  0  0  0  0  0  0  0  0  0  0
   -3.4926   -0.3971    0.5954 H   0  0  0  0  0  0  0  0  0  0  0  0
   -1.4216   -0.1071    1.0434 C   0  0  1  0  0  0  0  0  0  0  0  0
   -0.7579   -0.5878    1.7640 H   0  0  0  0  0  0  0  0  0  0  0  0
   -0.7791   -0.1912   -0.3557 C   0  0  0  0  0  0  0  0  0  0  0  0
   -0.8547   -1.2203   -0.7125 H   0  0  0  0  0  0  0  0  0  0  0  0
   -1.3369    0.4481   -1.0435 H   0  0  0  0  0  0  0  0  0  0  0  0
    0.7008    0.2185   -0.3744 C   0  0  0  0  0  0  0  0  0  0  0  0
    0.7846    1.2899   -0.5618 H   0  0  0  0  0  0  0  0  0  0  0  0
    1.1520   -0.0149    0.5905 H   0  0  0  0  0  0  0  0  0  0  0  0
    1.4402   -0.5448   -1.4817 C   0  0  0  0  0  0  0  0  0  0  0  0
    1.3285   -1.6163   -1.3009 H   0  0  0  0  0  0  0  0  0  0  0  0
    0.9788   -0.2991   -2.4411 H   0  0  0  0  0  0  0  0  0  0  0  0
    2.8760   -0.1989   -1.5213 N   0  3  0  0  0  0  0  0  0  0  0  0
    3.1888    0.5061   -0.8760 H   0  0  0  0  0  0  0  0  0  0  0  0
    3.7855   -0.7276   -2.3228 C   0  0  0  0  0  0  0  0  0  0  0  0
    3.4883   -1.6481   -3.1966 N   0  0  0  0  0  0  0  0  0  0  0  0
    2.5372   -1.9656   -3.2604 H   0  0  0  0  0  0  0  0  0  0  0  0
    4.1905   -2.0386   -3.7976 H   0  0  0  0  0  0  0  0  0  0  0  0
    5.0265   -0.3359   -2.2618 N   0  0  0  0  0  0  0  0  0  0  0  0
    5.3042    0.3716   -1.6035 H   0  0  0  0  0  0  0  0  0  0  0  0
    5.7133   -0.7396   -2.8716 H   0  0  0  0  0  0  0  0  0  0  0  0
   -1.6547    1.3413    1.4779 C   0  0  0  0  0  0  0  0  0  0  0  0
   -2.5654    1.9858    0.9716 O   0  0  0  0  0  0  0  0  0  0  0  0
   -0.8107    1.8504    2.3808 N   0  0  0  0  0  0  0  0  0  0  0  0
   -0.1136    1.2381    2.7719 H   0  0  0  0  0  0  0  0  0  0  0  0
   -0.8954    3.2155    2.9026 C   0  0  0  0  0  0  0  0  0  0  0  0
   -1.8299    3.3430    3.4532 H   0  0  0  0  0  0  0  0  0  0  0  0
   -0.0581    3.4194    3.5712 H   0  0  0  0  0  0  0  0  0  0  0  0
   -0.8804    3.9320    2.0784 H   0  0  0  0  0  0  0  0  0  0  0  0
  5  6  2  0  0  0  0
  5  7  1  0  0  0  0
  2  3  1  0  0  0  0
  2  4  1  0  0  0  0
  2  5  1  0  0  0  0
  1  2  1  0  0  0  0
 29 30  2  0  0  0  0
 29 31  1  0  0  0  0
 26 27  1  0  0  0  0
 26 28  1  0  0  0  0
 23 24  1  0  0  0  0
 23 25  1  0  0  0  0
 22 23  1  0  0  0  0
 22 26  1  0  0  0  0
 20 21  1  0  0  0  0
 20 22  2  0  0  0  0
 17 18  1  0  0  0  0
 17 19  1  0  0  0  0
 17 20  1  0  0  0  0
 14 15  1  0  0  0  0
 14 16  1  0  0  0  0
 14 17  1  0  0  0  0
 11 12  1  0  0  0  0
 11 13  1  0  0  0  0
 11 14  1  0  0  0  0
  9 10  1  0  0  0  0
  9 11  1  0  0  0  0
  9 29  1  0  0  0  0
  7  8  1  0  0  0  0
  7  9  1  0  0  0  0
 33 34  1  0  0  0  0
 33 35  1  0  0  0  0
 33 36  1  0  0  0  0
 31 32  1  0  0  0  0
 31 33  1  0  0  0  0
M  CHG  1  20   1
M  END
$$$$
default_name
  -OEChem-02102213163D

 36 35  0     1  0  0  0  0  0999 V2000
   -4.2256   -3.6731    1.8584 H   0  0  0  0  0  0  0  0  0  0  0  0
   -4.2396   -2.6781    1.4144 C   0  0  0  0  0  0  0  0  0  0  0  0
   -4.9506   -2.0521    1.9514 H   0  0  0  0  0  0  0  0  0  0  0  0
   -4.5266   -2.7521    0.3674 H   0  0  0  0  0  0  0  0  0  0  0  0
   -2.8576   -2.0761    1.5184 C   0  0  0  0  0  0  0  0  0  0  0  0
   -1.9456   -2.7051    2.0404 O   0  0  0  0  0  0  0  0  0  0  0  0
   -2.6926   -0.8481    1.0174 N   0  0  0  0  0  0  0  0  0  0  0  0
   -3.4926   -0.3971    0.5954 H   0  0  0  0  0  0  0  0  0  0  0  0
   -1.4216   -0.1071    1.0434 C   0  0  1  0  0  0  0  0  0  0  0  0
   -0.7579   -0.5878    1.7640 H   0  0  0  0  0  0  0  0  0  0  0  0
   -0.7791   -0.1912   -0.3557 C   0  0  0  0  0  0  0  0  0  0  0  0
   -0.8547   -1.2203   -0.7125 H   0  0  0  0  0  0  0  0  0  0  0  0
   -1.3369    0.4481   -1.0435 H   0  0  0  0  0  0  0  0  0  0  0  0
    0.7008    0.2185   -0.3744 C   0  0  0  0  0  0  0  0  0  0  0  0
    0.7843    1.3033   -0.2942 H   0  0  0  0  0  0  0  0  0  0  0  0
    1.2143   -0.2457    0.4680 H   0  0  0  0  0  0  0  0  0  0  0  0
    1.3533   -0.2402   -1.6856 C   0  0  0  0  0  0  0  0  0  0  0  0
    1.2415   -1.3236   -1.7704 H   0  0  0  0  0  0  0  0  0  0  0  0
    0.8301    0.2345   -2.5190 H   0  0  0  0  0  0  0  0  0  0  0  0
    2.7870    0.1127   -1.7374 N   0  3  0  0  0  0  0  0  0  0  0  0
    3.1517    0.6361   -0.9600 H   0  0  0  0  0  0  0  0  0  0  0  0
    3.6330   -0.1942   -2.7065 C   0  0  0  0  0  0  0  0  0  0  0  0
    3.2655   -0.8692   -3.7594 N   0  0  0  0  0  0  0  0  0  0  0  0
    2.3086   -1.1660   -3.8341 H   0  0  0  0  0  0  0  0  0  0  0  0
    3.9201   -1.0935   -4.4861 H   0  0  0  0  0  0  0  0  0  0  0  0
    4.8798    0.1768   -2.6361 N   0  0  0  0  0  0  0  0  0  0  0  0
    5.2104    0.6992   -1.8431 H   0  0  0  0  0  0  0  0  0  0  0  0
    5.5183   -0.0582   -3.3735 H   0  0  0  0  0  0  0  0  0  0  0  0
   -1.6547    1.3413    1.4779 C   0  0  0  0  0  0  0  0  0  0  0  0
   -2.5654    1.9858    0.9716 O   0  0  0  0  0  0  0  0  0  0  0  0
   -0.8107    1.8504    2.3808 N   0  0  0  0  0  0  0  0  0  0  0  0
   -0.1136    1.2381    2.7719 H   0  0  0  0  0  0  0  0  0  0  0  0
   -0.8954    3.2155    2.9026 C   0  0  0  0  0  0  0  0  0  0  0  0
   -1.8299    3.3430    3.4532 H   0  0  0  0  0  0  0  0  0  0  0  0
   -0.0581    3.4194    3.5712 H   0  0  0  0  0  0  0  0  0  0  0  0
   -0.8804    3.9320    2.0784 H   0  0  0  0  0  0  0  0  0  0  0  0
  5  6  2  0  0  0  0
  5  7  1  0  0  0  0
  2  3  1  0  0  0  0
  2  4  1  0  0  0  0
  2  5  1  0  0  0  0
  1  2  1  0  0  0  0
 29 30  2  0  0  0  0
 29 31  1  0  0  0  0
 26 27  1  0  0  0  0
 26 28  1  0  0  0  0
 23 24  1  0  0  0  0
 23 25  1  0  0  0  0
 22 23  1  0  0  0  0
 22 26  1  0  0  0  0
 20 21  1  0  0  0  0
 20 22  2  0  0  0  0
 17 18  1  0  0  0  0
 17 19  1  0  0  0  0
 17 20  1  0  0  0  0
 14 15  1  0  0  0  0
 14 16  1  0  0  0  0
 14 17  1  0  0  0  0
 11 12  1  0  0  0  0
 11 13  1  0  0  0  0
 11 14  1  0  0  0  0
  9 10  1  0  0  0  0
  9 11  1  0  0  0  0
  9 29  1  0  0  0  0
  7  8  1  0  0  0  0
  7  9  1  0  0  0  0
 33 34  1  0  0  0  0
 33 35  1  0  0  0  0
 33 36  1  0  0  0  0
 31 32  1  0  0  0  0
 31 33  1  0  0  0  0
M  CHG  1  20   1
M  END
$$$$
default_name
  -OEChem-02102213163D

 36 35  0     1  0  0  0  0  0999 V2000
   -4.2256   -3.6731    1.8584 H   0  0  0  0  0  0  0  0  0  0  0  0
   -4.2396   -2.6781    1.4144 C   0  0  0  0  0  0  0  0  0  0  0  0
   -4.9506   -2.0521    1.9514 H   0  0  0  0  0  0  0  0  0  0  0  0
   -4.5266   -2.7521    0.3674 H   0  0  0  0  0  0  0  0  0  0  0  0
   -2.8576   -2.0761    1.5184 C   0  0  0  0  0  0  0  0  0  0  0  0
   -1.9456   -2.7051    2.0404 O   0  0  0  0  0  0  0  0  0  0  0  0
   -2.6926   -0.8481    1.0174 N   0  0  0  0  0  0  0  0  0  0  0  0
   -3.4926   -0.3971    0.5954 H   0  0  0  0  0  0  0  0  0  0  0  0
   -1.4216   -0.1071    1.0434 C   0  0  1  0  0  0  0  0  0  0  0  0
   -0.7579   -0.5878    1.7640 H   0  0  0  0  0  0  0  0  0  0  0  0
   -0.7791   -0.1912   -0.3557 C   0  0  0  0  0  0  0  0  0  0  0  0
   -1.0839   -1.1296   -0.8232 H   0  0  0  0  0  0  0  0  0  0  0  0
   -1.1530    0.6308   -0.9700 H   0  0  0  0  0  0  0  0  0  0  0  0
    0.7555   -0.1421   -0.3277 C   0  0  0  0  0  0  0  0  0  0  0  0
    1.0865    0.7934    0.1255 H   0  0  0  0  0  0  0  0  0  0  0  0
    1.1326   -0.9801    0.2595 H   0  0  0  0  0  0  0  0  0  0  0  0
    1.3073   -0.2311   -1.7570 C   0  0  0  0  0  0  0  0  0  0  0  0
    0.9492   -1.1575   -2.2120 H   0  0  0  0  0  0  0  0  0  0  0  0
    0.9231    0.6152   -2.3313 H   0  0  0  0  0  0  0  0  0  0  0  0
    2.7844   -0.2114   -1.7768 N   0  3  0  0  0  0  0  0  0  0  0  0
    3.2466   -0.0979   -0.8908 H   0  0  0  0  0  0  0  0  0  0  0  0
    3.5534   -0.3289   -2.8463 C   0  0  0  0  0  0  0  0  0  0  0  0
    3.0584   -0.4801   -4.0427 N   0  0  0  0  0  0  0  0  0  0  0  0
    2.0602   -0.5095   -4.1531 H   0  0  0  0  0  0  0  0  0  0  0  0
    3.6561   -0.5674   -4.8440 H   0  0  0  0  0  0  0  0  0  0  0  0
    4.8508   -0.2952   -2.7331 N   0  0  0  0  0  0  0  0  0  0  0  0
    5.2793   -0.1806   -1.8307 H   0  0  0  0  0  0  0  0  0  0  0  0
    5.4305   -0.3847   -3.5470 H   0  0  0  0  0  0  0  0  0  0  0  0
   -1.6547    1.3413    1.4779 C   0  0  0  0  0  0  0  0  0  0  0  0
   -2.5654    1.9858    0.9716 O   0  0  0  0  0  0  0  0  0  0  0  0
   -0.8107    1.8504    2.3808 N   0  0  0  0  0  0  0  0  0  0  0  0
   -0.1136    1.2381    2.7719 H   0  0  0  0  0  0  0  0  0  0  0  0
   -0.8954    3.2155    2.9026 C   0  0  0  0  0  0  0  0  0  0  0  0
   -1.8299    3.3430    3.4532 H   0  0  0  0  0  0  0  0  0  0  0  0
   -0.0581    3.4194    3.5712 H   0  0  0  0  0  0  0  0  0  0  0  0
   -0.8804    3.9320    2.0784 H   0  0  0  0  0  0  0  0  0  0  0  0
  5  6  2  0  0  0  0
  5  7  1  0  0  0  0
  2  3  1  0  0  0  0
  2  4  1  0  0  0  0
  2  5  1  0  0  0  0
  1  2  1  0  0  0  0
 29 30  2  0  0  0  0
 29 31  1  0  0  0  0
 26 27  1  0  0  0  0
 26 28  1  0  0  0  0
 23 24  1  0  0  0  0
 23 25  1  0  0  0  0
 22 23  1  0  0  0  0
 22 26  1  0  0  0  0
 20 21  1  0  0  0  0
 20 22  2  0  0  0  0
 17 18  1  0  0  0  0
 17 19  1  0  0  0  0
 17 20  1  0  0  0  0
 14 15  1  0  0  0  0
 14 16  1  0  0  0  0
 14 17  1  0  0  0  0
 11 12  1  0  0  0  0
 11 13  1  0  0  0  0
 11 14  1  0  0  0  0
  9 10  1  0  0  0  0
  9 11  1  0  0  0  0
  9 29  1  0  0  0  0
  7  8  1  0  0  0  0
  7  9  1  0  0  0  0
 33 34  1  0  0  0  0
 33 35  1  0  0  0  0
 33 36  1  0  0  0  0
 31 32  1  0  0  0  0
 31 33  1  0  0  0  0
M  CHG  1  20   1
M  END
$$$$
default_name
  -OEChem-02102213163D

 36 35  0     1  0  0  0  0  0999 V2000
   -4.2256   -3.6731    1.8584 H   0  0  0  0  0  0  0  0  0  0  0  0
   -4.2396   -2.6781    1.4144 C   0  0  0  0  0  0  0  0  0  0  0  0
   -4.9506   -2.0521    1.9514 H   0  0  0  0  0  0  0  0  0  0  0  0
   -4.5266   -2.7521    0.3674 H   0  0  0  0  0  0  0  0  0  0  0  0
   -2.8576   -2.0761    1.5184 C   0  0  0  0  0  0  0  0  0  0  0  0
   -1.9456   -2.7051    2.0404 O   0  0  0  0  0  0  0  0  0  0  0  0
   -2.6926   -0.8481    1.0174 N   0  0  0  0  0  0  0  0  0  0  0  0
   -3.4926   -0.3971    0.5954 H   0  0  0  0  0  0  0  0  0  0  0  0
   -1.4216   -0.1071    1.0434 C   0  0  1  0  0  0  0  0  0  0  0  0
   -0.7579   -0.5878    1.7640 H   0  0  0  0  0  0  0  0  0  0  0  0
   -0.7791   -0.1912   -0.3557 C   0  0  0  0  0  0  0  0  0  0  0  0
   -1.0839   -1.1296   -0.8232 H   0  0  0  0  0  0  0  0  0  0  0  0
   -1.1530    0.6308   -0.9700 H   0  0  0  0  0  0  0  0  0  0  0  0
    0.7555   -0.1421   -0.3277 C   0  0  0  0  0  0  0  0  0  0  0  0
    1.0871    0.6463    0.3495 H   0  0  0  0  0  0  0  0  0  0  0  0
    1.1408   -1.1012    0.0198 H   0  0  0  0  0  0  0  0  0  0  0  0
    1.2949    0.1448   -1.7356 C   0  0  0  0  0  0  0  0  0  0  0  0
    0.9361   -0.6345   -2.4119 H   0  0  0  0  0  0  0  0  0  0  0  0
    0.9025    1.1086   -2.0685 H   0  0  0  0  0  0  0  0  0  0  0  0
    2.7717    0.1775   -1.7609 N   0  3  0  0  0  0  0  0  0  0  0  0
    3.2413    0.0607   -0.8793 H   0  0  0  0  0  0  0  0  0  0  0  0
    3.5316    0.3451   -2.8302 C   0  0  0  0  0  0  0  0  0  0  0  0
    3.0265    0.5056   -4.0212 N   0  0  0  0  0  0  0  0  0  0  0  0
    2.0275    0.5000   -4.1278 H   0  0  0  0  0  0  0  0  0  0  0  0
    3.6174    0.6319   -4.8223 H   0  0  0  0  0  0  0  0  0  0  0  0
    4.8298    0.3559   -2.7221 N   0  0  0  0  0  0  0  0  0  0  0  0
    5.2658    0.2358   -1.8241 H   0  0  0  0  0  0  0  0  0  0  0  0
    5.4026    0.4833   -3.5359 H   0  0  0  0  0  0  0  0  0  0  0  0
   -1.6547    1.3413    1.4779 C   0  0  0  0  0  0  0  0  0  0  0  0
   -2.5654    1.9858    0.9716 O   0  0  0  0  0  0  0  0  0  0  0  0
   -0.8107    1.8504    2.3808 N   0  0  0  0  0  0  0  0  0  0  0  0
   -0.1136    1.2381    2.7719 H   0  0  0  0  0  0  0  0  0  0  0  0
   -0.8954    3.2155    2.9026 C   0  0  0  0  0  0  0  0  0  0  0  0
   -1.8299    3.3430    3.4532 H   0  0  0  0  0  0  0  0  0  0  0  0
   -0.0581    3.4194    3.5712 H   0  0  0  0  0  0  0  0  0  0  0  0
   -0.8804    3.9320    2.0784 H   0  0  0  0  0  0  0  0  0  0  0  0
  5  6  2  0  0  0  0
  5  7  1  0  0  0  0
  2  3  1  0  0  0  0
  2  4  1  0  0  0  0
  2  5  1  0  0  0  0
  1  2  1  0  0  0  0
 29 30  2  0  0  0  0
 29 31  1  0  0  0  0
 26 27  1  0  0  0  0
 26 28  1  0  0  0  0
 23 24  1  0  0  0  0
 23 25  1  0  0  0  0
 22 23  1  0  0  0  0
 22 26  1  0  0  0  0
 20 21  1  0  0  0  0
 20 22  2  0  0  0  0
 17 18  1  0  0  0  0
 17 19  1  0  0  0  0
 17 20  1  0  0  0  0
 14 15  1  0  0  0  0
 14 16  1  0  0  0  0
 14 17  1  0  0  0  0
 11 12  1  0  0  0  0
 11 13  1  0  0  0  0
 11 14  1  0  0  0  0
  9 10  1  0  0  0  0
  9 11  1  0  0  0  0
  9 29  1  0  0  0  0
  7  8  1  0  0  0  0
  7  9  1  0  0  0  0
 33 34  1  0  0  0  0
 33 35  1  0  0  0  0
 33 36  1  0  0  0  0
 31 32  1  0  0  0  0
 31 33  1  0  0  0  0
M  CHG  1  20   1
M  END
$$$$
default_name
  -OEChem-02102213163D

 36 35  0     1  0  0  0  0  0999 V2000
   -4.2256   -3.6731    1.8584 H   0  0  0  0  0  0  0  0  0  0  0  0
   -4.2396   -2.6781    1.4144 C   0  0  0  0  0  0  0  0  0  0  0  0
   -4.9506   -2.0521    1.9514 H   0  0  0  0  0  0  0  0  0  0  0  0
   -4.5266   -2.7521    0.3674 H   0  0  0  0  0  0  0  0  0  0  0  0
   -2.8576   -2.0761    1.5184 C   0  0  0  0  0  0  0  0  0  0  0  0
   -1.9456   -2.7051    2.0404 O   0  0  0  0  0  0  0  0  0  0  0  0
   -2.6926   -0.8481    1.0174 N   0  0  0  0  0  0  0  0  0  0  0  0
   -3.4926   -0.3971    0.5954 H   0  0  0  0  0  0  0  0  0  0  0  0
   -1.4216   -0.1071    1.0434 C   0  0  1  0  0  0  0  0  0  0  0  0
   -0.7579   -0.5878    1.7640 H   0  0  0  0  0  0  0  0  0  0  0  0
   -0.7791   -0.1912   -0.3557 C   0  0  0  0  0  0  0  0  0  0  0  0
   -1.0839   -1.1296   -0.8232 H   0  0  0  0  0  0  0  0  0  0  0  0
   -1.1530    0.6308   -0.9700 H   0  0  0  0  0  0  0  0  0  0  0  0
    0.7555   -0.1421   -0.3277 C   0  0  0  0  0  0  0  0  0  0  0  0
    1.0903    0.4462    0.5278 H   0  0  0  0  0  0  0  0  0  0  0  0
    1.1474   -1.1562   -0.2430 H   0  0  0  0  0  0  0  0  0  0  0  0
    1.2813    0.5023   -1.6175 C   0  0  0  0  0  0  0  0  0  0  0  0
    0.9193   -0.0776   -2.4696 H   0  0  0  0  0  0  0  0  0  0  0  0
    0.8825    1.5171   -1.6868 H   0  0  0  0  0  0  0  0  0  0  0  0
    2.7577    0.5490   -1.6448 N   0  3  0  0  0  0  0  0  0  0  0  0
    3.2355    0.2109   -0.8270 H   0  0  0  0  0  0  0  0  0  0  0  0
    3.5074    0.9919   -2.6402 C   0  0  0  0  0  0  0  0  0  0  0  0
    2.9912    1.4520   -3.7452 N   0  0  0  0  0  0  0  0  0  0  0  0
    1.9913    1.4683   -3.8420 H   0  0  0  0  0  0  0  0  0  0  0  0
    3.5745    1.7846   -4.4909 H   0  0  0  0  0  0  0  0  0  0  0  0
    4.8065    0.9819   -2.5428 N   0  0  0  0  0  0  0  0  0  0  0  0
    5.2510    0.6361   -1.7099 H   0  0  0  0  0  0  0  0  0  0  0  0
    5.3716    1.3187   -3.3004 H   0  0  0  0  0  0  0  0  0  0  0  0
   -1.6547    1.3413    1.4779 C   0  0  0  0  0  0  0  0  0  0  0  0
   -2.5654    1.9858    0.9716 O   0  0  0  0  0  0  0  0  0  0  0  0
   -0.8107    1.8504    2.3808 N   0  0  0  0  0  0  0  0  0  0  0  0
   -0.1136    1.2381    2.7719 H   0  0  0  0  0  0  0  0  0  0  0  0
   -0.8954    3.2155    2.9026 C   0  0  0  0  0  0  0  0  0  0  0  0
   -1.8299    3.3430    3.4532 H   0  0  0  0  0  0  0  0  0  0  0  0
   -0.0581    3.4194    3.5712 H   0  0  0  0  0  0  0  0  0  0  0  0
   -0.8804    3.9320    2.0784 H   0  0  0  0  0  0  0  0  0  0  0  0
  5  6  2  0  0  0  0
  5  7  1  0  0  0  0
  2  3  1  0  0  0  0
  2  4  1  0  0  0  0
  2  5  1  0  0  0  0
  1  2  1  0  0  0  0
 29 30  2  0  0  0  0
 29 31  1  0  0  0  0
 26 27  1  0  0  0  0
 26 28  1  0  0  0  0
 23 24  1  0  0  0  0
 23 25  1  0  0  0  0
 22 23  1  0  0  0  0
 22 26  1  0  0  0  0
 20 21  1  0  0  0  0
 20 22  2  0  0  0  0
 17 18  1  0  0  0  0
 17 19  1  0  0  0  0
 17 20  1  0  0  0  0
 14 15  1  0  0  0  0
 14 16  1  0  0  0  0
 14 17  1  0  0  0  0
 11 12  1  0  0  0  0
 11 13  1  0  0  0  0
 11 14  1  0  0  0  0
  9 10  1  0  0  0  0
  9 11  1  0  0  0  0
  9 29  1  0  0  0  0
  7  8  1  0  0  0  0
  7  9  1  0  0  0  0
 33 34  1  0  0  0  0
 33 35  1  0  0  0  0
 33 36  1  0  0  0  0
 31 32  1  0  0  0  0
 31 33  1  0  0  0  0
M  CHG  1  20   1
M  END
$$$$
default_name
  -OEChem-02102213163D

 36 35  0     1  0  0  0  0  0999 V2000
   -4.2256   -3.6731    1.8584 H   0  0  0  0  0  0  0  0  0  0  0  0
   -4.2396   -2.6781    1.4144 C   0  0  0  0  0  0  0  0  0  0  0  0
   -4.9506   -2.0521    1.9514 H   0  0  0  0  0  0  0  0  0  0  0  0
   -4.5266   -2.7521    0.3674 H   0  0  0  0  0  0  0  0  0  0  0  0
   -2.8576   -2.0761    1.5184 C   0  0  0  0  0  0  0  0  0  0  0  0
   -1.9456   -2.7051    2.0404 O   0  0  0  0  0  0  0  0  0  0  0  0
   -2.6926   -0.8481    1.0174 N   0  0  0  0  0  0  0  0  0  0  0  0
   -3.4926   -0.3971    0.5954 H   0  0  0  0  0  0  0  0  0  0  0  0
   -1.4216   -0.1071    1.0434 C   0  0  1  0  0  0  0  0  0  0  0  0
   -0.7579   -0.5878    1.7640 H   0  0  0  0  0  0  0  0  0  0  0  0
   -0.7791   -0.1912   -0.3557 C   0  0  0  0  0  0  0  0  0  0  0  0
   -1.0839   -1.1296   -0.8232 H   0  0  0  0  0  0  0  0  0  0  0  0
   -1.1530    0.6308   -0.9700 H   0  0  0  0  0  0  0  0  0  0  0  0
    0.7555   -0.1421   -0.3277 C   0  0  0  0  0  0  0  0  0  0  0  0
    1.0957    0.2069    0.6483 H   0  0  0  0  0  0  0  0  0  0  0  0
    1.1518   -1.1413   -0.5112 H   0  0  0  0  0  0  0  0  0  0  0  0
    1.2675    0.8170   -1.4110 C   0  0  0  0  0  0  0  0  0  0  0  0
    0.9001    0.4751   -2.3813 H   0  0  0  0  0  0  0  0  0  0  0  0
    0.8644    1.8128   -1.2123 H   0  0  0  0  0  0  0  0  0  0  0  0
    2.7434    0.8778   -1.4365 N   0  3  0  0  0  0  0  0  0  0  0  0
    3.2297    0.3425   -0.7377 H   0  0  0  0  0  0  0  0  0  0  0  0
    3.4826    1.5673   -2.2892 C   0  0  0  0  0  0  0  0  0  0  0  0
    2.9549    2.2946   -3.2336 N   0  0  0  0  0  0  0  0  0  0  0  0
    1.9542    2.3296   -3.3152 H   0  0  0  0  0  0  0  0  0  0  0  0
    3.5304    2.8121   -3.8723 H   0  0  0  0  0  0  0  0  0  0  0  0
    4.7826    1.5401   -2.2076 N   0  0  0  0  0  0  0  0  0  0  0  0
    5.2356    0.9932   -1.4959 H   0  0  0  0  0  0  0  0  0  0  0  0
    5.3396    2.0646   -2.8566 H   0  0  0  0  0  0  0  0  0  0  0  0
   -1.6547    1.3413    1.4779 C   0  0  0  0  0  0  0  0  0  0  0  0
   -2.5654    1.9858    0.9716 O   0  0  0  0  0  0  0  0  0  0  0  0
   -0.8107    1.8504    2.3808 N   0  0  0  0  0  0  0  0  0  0  0  0
   -0.1136    1.2381    2.7719 H   0  0  0  0  0  0  0  0  0  0  0  0
   -0.8954    3.2155    2.9026 C   0  0  0  0  0  0  0  0  0  0  0  0
   -1.8299    3.3430    3.4532 H   0  0  0  0  0  0  0  0  0  0  0  0
   -0.0581    3.4194    3.5712 H   0  0  0  0  0  0  0  0  0  0  0  0
   -0.8804    3.9320    2.0784 H   0  0  0  0  0  0  0  0  0  0  0  0
  5  6  2  0  0  0  0
  5  7  1  0  0  0  0
  2  3  1  0  0  0  0
  2  4  1  0  0  0  0
  2  5  1  0  0  0  0
  1  2  1  0  0  0  0
 29 30  2  0  0  0  0
 29 31  1  0  0  0  0
 26 27  1  0  0  0  0
 26 28  1  0  0  0  0
 23 24  1  0  0  0  0
 23 25  1  0  0  0  0
 22 23  1  0  0  0  0
 22 26  1  0  0  0  0
 20 21  1  0  0  0  0
 20 22  2  0  0  0  0
 17 18  1  0  0  0  0
 17 19  1  0  0  0  0
 17 20  1  0  0  0  0
 14 15  1  0  0  0  0
 14 16  1  0  0  0  0
 14 17  1  0  0  0  0
 11 12  1  0  0  0  0
 11 13  1  0  0  0  0
 11 14  1  0  0  0  0
  9 10  1  0  0  0  0
  9 11  1  0  0  0  0
  9 29  1  0  0  0  0
  7  8  1  0  0  0  0
  7  9  1  0  0  0  0
 33 34  1  0  0  0  0
 33 35  1  0  0  0  0
 33 36  1  0  0  0  0
 31 32  1  0  0  0  0
 31 33  1  0  0  0  0
M  CHG  1  20   1
M  END
$$$$
default_name
  -OEChem-02102213163D

 36 35  0     1  0  0  0  0  0999 V2000
   -4.2256   -3.6731    1.8584 H   0  0  0  0  0  0  0  0  0  0  0  0
   -4.2396   -2.6781    1.4144 C   0  0  0  0  0  0  0  0  0  0  0  0
   -4.9506   -2.0521    1.9514 H   0  0  0  0  0  0  0  0  0  0  0  0
   -4.5266   -2.7521    0.3674 H   0  0  0  0  0  0  0  0  0  0  0  0
   -2.8576   -2.0761    1.5184 C   0  0  0  0  0  0  0  0  0  0  0  0
   -1.9456   -2.7051    2.0404 O   0  0  0  0  0  0  0  0  0  0  0  0
   -2.6926   -0.8481    1.0174 N   0  0  0  0  0  0  0  0  0  0  0  0
   -3.4926   -0.3971    0.5954 H   0  0  0  0  0  0  0  0  0  0  0  0
   -1.4216   -0.1071    1.0434 C   0  0  1  0  0  0  0  0  0  0  0  0
   -0.7579   -0.5878    1.7640 H   0  0  0  0  0  0  0  0  0  0  0  0
   -0.7791   -0.1912   -0.3557 C   0  0  0  0  0  0  0  0  0  0  0  0
   -1.0839   -1.1296   -0.8232 H   0  0  0  0  0  0  0  0  0  0  0  0
   -1.1530    0.6308   -0.9700 H   0  0  0  0  0  0  0  0  0  0  0  0
    0.7555   -0.1421   -0.3277 C   0  0  0  0  0  0  0  0  0  0  0  0
    1.1031   -0.0554    0.7027 H   0  0  0  0  0  0  0  0  0  0  0  0
    1.1538   -1.0575   -0.7665 H   0  0  0  0  0  0  0  0  0  0  0  0
    1.2543    1.0675   -1.1299 C   0  0  0  0  0  0  0  0  0  0  0  0
    0.8796    0.9860   -2.1528 H   0  0  0  0  0  0  0  0  0  0  0  0
    0.8494    1.9757   -0.6773 H   0  0  0  0  0  0  0  0  0  0  0  0
    2.7298    1.1413   -1.1501 N   0  3  0  0  0  0  0  0  0  0  0  0
    3.2242    0.4464   -0.6173 H   0  0  0  0  0  0  0  0  0  0  0  0
    3.4589    2.0323   -1.8010 C   0  0  0  0  0  0  0  0  0  0  0  0
    2.9202    2.9759   -2.5211 N   0  0  0  0  0  0  0  0  0  0  0  0
    1.9186    3.0250   -2.5833 H   0  0  0  0  0  0  0  0  0  0  0  0
    3.4880    3.6444   -3.0086 H   0  0  0  0  0  0  0  0  0  0  0  0
    4.7596    1.9924   -1.7393 N   0  0  0  0  0  0  0  0  0  0  0  0
    5.2209    1.2827   -1.1967 H   0  0  0  0  0  0  0  0  0  0  0  0
    5.3089    2.6701   -2.2347 H   0  0  0  0  0  0  0  0  0  0  0  0
   -1.6547    1.3413    1.4779 C   0  0  0  0  0  0  0  0  0  0  0  0
   -2.5654    1.9858    0.9716 O   0  0  0  0  0  0  0  0  0  0  0  0
   -0.8107    1.8504    2.3808 N   0  0  0  0  0  0  0  0  0  0  0  0
   -0.1136    1.2381    2.7719 H   0  0  0  0  0  0  0  0  0  0  0  0
   -0.8954    3.2155    2.9026 C   0  0  0  0  0  0  0  0  0  0  0  0
   -1.8299    3.3430    3.4532 H   0  0  0  0  0  0  0  0  0  0  0  0
   -0.0581    3.4194    3.5712 H   0  0  0  0  0  0  0  0  0  0  0  0
   -0.8804    3.9320    2.0784 H   0  0  0  0  0  0  0  0  0  0  0  0
  5  6  2  0  0  0  0
  5  7  1  0  0  0  0
  2  3  1  0  0  0  0
  2  4  1  0  0  0  0
  2  5  1  0  0  0  0
  1  2  1  0  0  0  0
 29 30  2  0  0  0  0
 29 31  1  0  0  0  0
 26 27  1  0  0  0  0
 26 28  1  0  0  0  0
 23 24  1  0  0  0  0
 23 25  1  0  0  0  0
 22 23  1  0  0  0  0
 22 26  1  0  0  0  0
 20 21  1  0  0  0  0
 20 22  2  0  0  0  0
 17 18  1  0  0  0  0
 17 19  1  0  0  0  0
 17 20  1  0  0  0  0
 14 15  1  0  0  0  0
 14 16  1  0  0  0  0
 14 17  1  0  0  0  0
 11 12  1  0  0  0  0
 11 13  1  0  0  0  0
 11 14  1  0  0  0  0
  9 10  1  0  0  0  0
  9 11  1  0  0  0  0
  9 29  1  0  0  0  0
  7  8  1  0  0  0  0
  7  9  1  0  0  0  0
 33 34  1  0  0  0  0
 33 35  1  0  0  0  0
 33 36  1  0  0  0  0
 31 32  1  0  0  0  0
 31 33  1  0  0  0  0
M  CHG  1  20   1
M  END
$$$$
default_name
  -OEChem-02102213163D

 36 35  0     1  0  0  0  0  0999 V2000
   -4.2256   -3.6731    1.8584 H   0  0  0  0  0  0  0  0  0  0  0  0
   -4.2396   -2.6781    1.4144 C   0  0  0  0  0  0  0  0  0  0  0  0
   -4.9506   -2.0521    1.9514 H   0  0  0  0  0  0  0  0  0  0  0  0
   -4.5266   -2.7521    0.3674 H   0  0  0  0  0  0  0  0  0  0  0  0
   -2.8576   -2.0761    1.5184 C   0  0  0  0  0  0  0  0  0  0  0  0
   -1.9456   -2.7051    2.0404 O   0  0  0  0  0  0  0  0  0  0  0  0
   -2.6926   -0.8481    1.0174 N   0  0  0  0  0  0  0  0  0  0  0  0
   -3.4926   -0.3971    0.5954 H   0  0  0  0  0  0  0  0  0  0  0  0
   -1.4216   -0.1071    1.0434 C   0  0  1  0  0  0  0  0  0  0  0  0
   -0.7579   -0.5878    1.7640 H   0  0  0  0  0  0  0  0  0  0  0  0
   -0.7791   -0.1912   -0.3557 C   0  0  0  0  0  0  0  0  0  0  0  0
   -1.0839   -1.1296   -0.8232 H   0  0  0  0  0  0  0  0  0  0  0  0
   -1.1530    0.6308   -0.9700 H   0  0  0  0  0  0  0  0  0  0  0  0
    0.7555   -0.1421   -0.3277 C   0  0  0  0  0  0  0  0  0  0  0  0
    1.1119   -0.3228    0.6874 H   0  0  0  0  0  0  0  0  0  0  0  0
    1.1532   -0.9105   -0.9913 H   0  0  0  0  0  0  0  0  0  0  0  0
    1.2428    1.2367   -0.7935 C   0  0  0  0  0  0  0  0  0  0  0  0
    0.8592    1.4204   -1.7998 H   0  0  0  0  0  0  0  0  0  0  0  0
    0.8386    1.9946   -0.1183 H   0  0  0  0  0  0  0  0  0  0  0  0
    2.7177    1.3218   -0.8052 N   0  3  0  0  0  0  0  0  0  0  0  0
    3.2193    0.5156   -0.4741 H   0  0  0  0  0  0  0  0  0  0  0  0
    3.4377    2.3550   -1.2091 C   0  0  0  0  0  0  0  0  0  0  0  0
    2.8892    3.4496   -1.6565 N   0  0  0  0  0  0  0  0  0  0  0  0
    1.8870    3.5074   -1.6961 H   0  0  0  0  0  0  0  0  0  0  0  0
    3.4503    4.2247   -1.9587 H   0  0  0  0  0  0  0  0  0  0  0  0
    4.7391    2.3081   -1.1697 N   0  0  0  0  0  0  0  0  0  0  0  0
    5.2078    1.4848   -0.8327 H   0  0  0  0  0  0  0  0  0  0  0  0
    5.2816    3.0941   -1.4771 H   0  0  0  0  0  0  0  0  0  0  0  0
   -1.6547    1.3413    1.4779 C   0  0  0  0  0  0  0  0  0  0  0  0
   -2.5654    1.9858    0.9716 O   0  0  0  0  0  0  0  0  0  0  0  0
   -0.8107    1.8504    2.3808 N   0  0  0  0  0  0  0  0  0  0  0  0
   -0.1136    1.2381    2.7719 H   0  0  0  0  0  0  0  0  0  0  0  0
   -0.8954    3.2155    2.9026 C   0  0  0  0  0  0  0  0  0  0  0  0
   -1.8299    3.3430    3.4532 H   0  0  0  0  0  0  0  0  0  0  0  0
   -0.0581    3.4194    3.5712 H   0  0  0  0  0  0  0  0  0  0  0  0
   -0.8804    3.9320    2.0784 H   0  0  0  0  0  0  0  0  0  0  0  0
  5  6  2  0  0  0  0
  5  7  1  0  0  0  0
  2  3  1  0  0  0  0
  2  4  1  0  0  0  0
  2  5  1  0  0  0  0
  1  2  1  0  0  0  0
 29 30  2  0  0  0  0
 29 31  1  0  0  0  0
 26 27  1  0  0  0  0
 26 28  1  0  0  0  0
 23 24  1  0  0  0  0
 23 25  1  0  0  0  0
 22 23  1  0  0  0  0
 22 26  1  0  0  0  0
 20 21  1  0  0  0  0
 20 22  2  0  0  0  0
 17 18  1  0  0  0  0
 17 19  1  0  0  0  0
 17 20  1  0  0  0  0
 14 15  1  0  0  0  0
 14 16  1  0  0  0  0
 14 17  1  0  0  0  0
 11 12  1  0  0  0  0
 11 13  1  0  0  0  0
 11 14  1  0  0  0  0
  9 10  1  0  0  0  0
  9 11  1  0  0  0  0
  9 29  1  0  0  0  0
  7  8  1  0  0  0  0
  7  9  1  0  0  0  0
 33 34  1  0  0  0  0
 33 35  1  0  0  0  0
 33 36  1  0  0  0  0
 31 32  1  0  0  0  0
 31 33  1  0  0  0  0
M  CHG  1  20   1
M  END
$$$$
default_name
  -OEChem-02102213163D

 36 35  0     1  0  0  0  0  0999 V2000
   -4.2256   -3.6731    1.8584 H   0  0  0  0  0  0  0  0  0  0  0  0
   -4.2396   -2.6781    1.4144 C   0  0  0  0  0  0  0  0  0  0  0  0
   -4.9506   -2.0521    1.9514 H   0  0  0  0  0  0  0  0  0  0  0  0
   -4.5266   -2.7521    0.3674 H   0  0  0  0  0  0  0  0  0  0  0  0
   -2.8576   -2.0761    1.5184 C   0  0  0  0  0  0  0  0  0  0  0  0
   -1.9456   -2.7051    2.0404 O   0  0  0  0  0  0  0  0  0  0  0  0
   -2.6926   -0.8481    1.0174 N   0  0  0  0  0  0  0  0  0  0  0  0
   -3.4926   -0.3971    0.5954 H   0  0  0  0  0  0  0  0  0  0  0  0
   -1.4216   -0.1071    1.0434 C   0  0  1  0  0  0  0  0  0  0  0  0
   -0.7579   -0.5878    1.7640 H   0  0  0  0  0  0  0  0  0  0  0  0
   -0.7791   -0.1912   -0.3557 C   0  0  0  0  0  0  0  0  0  0  0  0
   -1.0839   -1.1296   -0.8232 H   0  0  0  0  0  0  0  0  0  0  0  0
   -1.1530    0.6308   -0.9700 H   0  0  0  0  0  0  0  0  0  0  0  0
    0.7555   -0.1421   -0.3277 C   0  0  0  0  0  0  0  0  0  0  0  0
    1.1216   -0.5771    0.6034 H   0  0  0  0  0  0  0  0  0  0  0  0
    1.1500   -0.7104   -1.1705 H   0  0  0  0  0  0  0  0  0  0  0  0
    1.2336    1.3131   -0.4247 C   0  0  0  0  0  0  0  0  0  0  0  0
    0.8405    1.7485   -1.3462 H   0  0  0  0  0  0  0  0  0  0  0  0
    0.8327    1.8682    0.4266 H   0  0  0  0  0  0  0  0  0  0  0  0
    2.7080    1.4069   -0.4253 N   0  3  0  0  0  0  0  0  0  0  0  0
    3.2155    0.5454   -0.3178 H   0  0  0  0  0  0  0  0  0  0  0  0
    3.4207    2.5135   -0.5537 C   0  0  0  0  0  0  0  0  0  0  0  0
    2.8643    3.6834   -0.6985 N   0  0  0  0  0  0  0  0  0  0  0  0
    1.8615    3.7436   -0.7142 H   0  0  0  0  0  0  0  0  0  0  0  0
    3.4198    4.5136   -0.7942 H   0  0  0  0  0  0  0  0  0  0  0  0
    4.7225    2.4656   -0.5377 N   0  0  0  0  0  0  0  0  0  0  0  0
    5.1972    1.5859   -0.4287 H   0  0  0  0  0  0  0  0  0  0  0  0
    5.2594    3.3075   -0.6355 H   0  0  0  0  0  0  0  0  0  0  0  0
   -1.6547    1.3413    1.4779 C   0  0  0  0  0  0  0  0  0  0  0  0
   -2.5654    1.9858    0.9716 O   0  0  0  0  0  0  0  0  0  0  0  0
   -0.8107    1.8504    2.3808 N   0  0  0  0  0  0  0  0  0  0  0  0
   -0.1136    1.2381    2.7719 H   0  0  0  0  0  0  0  0  0  0  0  0
   -0.8954    3.2155    2.9026 C   0  0  0  0  0  0  0  0  0  0  0  0
   -1.8299    3.3430    3.4532 H   0  0  0  0  0  0  0  0  0  0  0  0
   -0.0581    3.4194    3.5712 H   0  0  0  0  0  0  0  0  0  0  0  0
   -0.8804    3.9320    2.0784 H   0  0  0  0  0  0  0  0  0  0  0  0
  5  6  2  0  0  0  0
  5  7  1  0  0  0  0
  2  3  1  0  0  0  0
  2  4  1  0  0  0  0
  2  5  1  0  0  0  0
  1  2  1  0  0  0  0
 29 30  2  0  0  0  0
 29 31  1  0  0  0  0
 26 27  1  0  0  0  0
 26 28  1  0  0  0  0
 23 24  1  0  0  0  0
 23 25  1  0  0  0  0
 22 23  1  0  0  0  0
 22 26  1  0  0  0  0
 20 21  1  0  0  0  0
 20 22  2  0  0  0  0
 17 18  1  0  0  0  0
 17 19  1  0  0  0  0
 17 20  1  0  0  0  0
 14 15  1  0  0  0  0
 14 16  1  0  0  0  0
 14 17  1  0  0  0  0
 11 12  1  0  0  0  0
 11 13  1  0  0  0  0
 11 14  1  0  0  0  0
  9 10  1  0  0  0  0
  9 11  1  0  0  0  0
  9 29  1  0  0  0  0
  7  8  1  0  0  0  0
  7  9  1  0  0  0  0
 33 34  1  0  0  0  0
 33 35  1  0  0  0  0
 33 36  1  0  0  0  0
 31 32  1  0  0  0  0
 31 33  1  0  0  0  0
M  CHG  1  20   1
M  END
$$$$
default_name
  -OEChem-02102213163D

 36 35  0     1  0  0  0  0  0999 V2000
   -4.2256   -3.6731    1.8584 H   0  0  0  0  0  0  0  0  0  0  0  0
   -4.2396   -2.6781    1.4144 C   0  0  0  0  0  0  0  0  0  0  0  0
   -4.9506   -2.0521    1.9514 H   0  0  0  0  0  0  0  0  0  0  0  0
   -4.5266   -2.7521    0.3674 H   0  0  0  0  0  0  0  0  0  0  0  0
   -2.8576   -2.0761    1.5184 C   0  0  0  0  0  0  0  0  0  0  0  0
   -1.9456   -2.7051    2.0404 O   0  0  0  0  0  0  0  0  0  0  0  0
   -2.6926   -0.8481    1.0174 N   0  0  0  0  0  0  0  0  0  0  0  0
   -3.4926   -0.3971    0.5954 H   0  0  0  0  0  0  0  0  0  0  0  0
   -1.4216   -0.1071    1.0434 C   0  0  1  0  0  0  0  0  0  0  0  0
   -0.7579   -0.5878    1.7640 H   0  0  0  0  0  0  0  0  0  0  0  0
   -0.7791   -0.1912   -0.3557 C   0  0  0  0  0  0  0  0  0  0  0  0
   -1.0839   -1.1296   -0.8232 H   0  0  0  0  0  0  0  0  0  0  0  0
   -1.1530    0.6308   -0.9700 H   0  0  0  0  0  0  0  0  0  0  0  0
    0.7555   -0.1421   -0.3277 C   0  0  0  0  0  0  0  0  0  0  0  0
    1.1314   -0.8010    0.4563 H   0  0  0  0  0  0  0  0  0  0  0  0
    1.1446   -0.4708   -1.2918 H   0  0  0  0  0  0  0  0  0  0  0  0
    1.2275    1.2914   -0.0487 C   0  0  0  0  0  0  0  0  0  0  0  0
    0.8246    1.9481   -0.8232 H   0  0  0  0  0  0  0  0  0  0  0  0
    0.8321    1.6052    0.9203 H   0  0  0  0  0  0  0  0  0  0  0  0
    2.7015    1.3907   -0.0362 N   0  3  0  0  0  0  0  0  0  0  0  0
    3.2130    0.5337   -0.1591 H   0  0  0  0  0  0  0  0  0  0  0  0
    3.4089    2.4971    0.1206 C   0  0  0  0  0  0  0  0  0  0  0  0
    2.8470    3.6614    0.2876 N   0  0  0  0  0  0  0  0  0  0  0  0
    1.8439    3.7177    0.2956 H   0  0  0  0  0  0  0  0  0  0  0  0
    3.3986    4.4912    0.4055 H   0  0  0  0  0  0  0  0  0  0  0  0
    4.7110    2.4542    0.1136 N   0  0  0  0  0  0  0  0  0  0  0  0
    5.1899    1.5790   -0.0122 H   0  0  0  0  0  0  0  0  0  0  0  0
    5.2439    3.2958    0.2328 H   0  0  0  0  0  0  0  0  0  0  0  0
   -1.6547    1.3413    1.4779 C   0  0  0  0  0  0  0  0  0  0  0  0
   -2.5654    1.9858    0.9716 O   0  0  0  0  0  0  0  0  0  0  0  0
   -0.8107    1.8504    2.3808 N   0  0  0  0  0  0  0  0  0  0  0  0
   -0.1136    1.2381    2.7719 H   0  0  0  0  0  0  0  0  0  0  0  0
   -0.8954    3.2155    2.9026 C   0  0  0  0  0  0  0  0  0  0  0  0
   -1.8299    3.3430    3.4532 H   0  0  0  0  0  0  0  0  0  0  0  0
   -0.0581    3.4194    3.5712 H   0  0  0  0  0  0  0  0  0  0  0  0
   -0.8804    3.9320    2.0784 H   0  0  0  0  0  0  0  0  0  0  0  0
  5  6  2  0  0  0  0
  5  7  1  0  0  0  0
  2  3  1  0  0  0  0
  2  4  1  0  0  0  0
  2  5  1  0  0  0  0
  1  2  1  0  0  0  0
 29 30  2  0  0  0  0
 29 31  1  0  0  0  0
 26 27  1  0  0  0  0
 26 28  1  0  0  0  0
 23 24  1  0  0  0  0
 23 25  1  0  0  0  0
 22 23  1  0  0  0  0
 22 26  1  0  0  0  0
 20 21  1  0  0  0  0
 20 22  2  0  0  0  0
 17 18  1  0  0  0  0
 17 19  1  0  0  0  0
 17 20  1  0  0  0  0
 14 15  1  0  0  0  0
 14 16  1  0  0  0  0
 14 17  1  0  0  0  0
 11 12  1  0  0  0  0
 11 13  1  0  0  0  0
 11 14  1  0  0  0  0
  9 10  1  0  0  0  0
  9 11  1  0  0  0  0
  9 29  1  0  0  0  0
  7  8  1  0  0  0  0
  7  9  1  0  0  0  0
 33 34  1  0  0  0  0
 33 35  1  0  0  0  0
 33 36  1  0  0  0  0
 31 32  1  0  0  0  0
 31 33  1  0  0  0  0
M  CHG  1  20   1
M  END
$$$$
default_name
  -OEChem-02102213163D

 36 35  0     1  0  0  0  0  0999 V2000
   -4.2256   -3.6731    1.8584 H   0  0  0  0  0  0  0  0  0  0  0  0
   -4.2396   -2.6781    1.4144 C   0  0  0  0  0  0  0  0  0  0  0  0
   -4.9506   -2.0521    1.9514 H   0  0  0  0  0  0  0  0  0  0  0  0
   -4.5266   -2.7521    0.3674 H   0  0  0  0  0  0  0  0  0  0  0  0
   -2.8576   -2.0761    1.5184 C   0  0  0  0  0  0  0  0  0  0  0  0
   -1.9456   -2.7051    2.0404 O   0  0  0  0  0  0  0  0  0  0  0  0
   -2.6926   -0.8481    1.0174 N   0  0  0  0  0  0  0  0  0  0  0  0
   -3.4926   -0.3971    0.5954 H   0  0  0  0  0  0  0  0  0  0  0  0
   -1.4216   -0.1071    1.0434 C   0  0  1  0  0  0  0  0  0  0  0  0
   -0.7579   -0.5878    1.7640 H   0  0  0  0  0  0  0  0  0  0  0  0
   -0.7791   -0.1912   -0.3557 C   0  0  0  0  0  0  0  0  0  0  0  0
   -1.0839   -1.1296   -0.8232 H   0  0  0  0  0  0  0  0  0  0  0  0
   -1.1530    0.6308   -0.9700 H   0  0  0  0  0  0  0  0  0  0  0  0
    0.7555   -0.1421   -0.3277 C   0  0  0  0  0  0  0  0  0  0  0  0
    1.1408   -0.9791    0.2563 H   0  0  0  0  0  0  0  0  0  0  0  0
    1.1372   -0.2080   -1.3470 H   0  0  0  0  0  0  0  0  0  0  0  0
    1.2247    1.1732    0.3090 C   0  0  0  0  0  0  0  0  0  0  0  0
    0.8126    2.0055   -0.2662 H   0  0  0  0  0  0  0  0  0  0  0  0
    0.8369    1.2234    1.3292 H   0  0  0  0  0  0  0  0  0  0  0  0
    2.6984    1.2745    0.3355 N   0  3  0  0  0  0  0  0  0  0  0  0
    3.2119    0.4814   -0.0089 H   0  0  0  0  0  0  0  0  0  0  0  0
    3.4032    2.3067    0.7677 C   0  0  0  0  0  0  0  0  0  0  0  0
    2.8386    3.3849    1.2344 N   0  0  0  0  0  0  0  0  0  0  0  0
    1.8354    3.4315    1.2645 H   0  0  0  0  0  0  0  0  0  0  0  0
    3.3882    4.1592    1.5588 H   0  0  0  0  0  0  0  0  0  0  0  0
    4.7053    2.2746    0.7399 N   0  0  0  0  0  0  0  0  0  0  0  0
    5.1862    1.4646    0.3883 H   0  0  0  0  0  0  0  0  0  0  0  0
    5.2362    3.0599    1.0687 H   0  0  0  0  0  0  0  0  0  0  0  0
   -1.6547    1.3413    1.4779 C   0  0  0  0  0  0  0  0  0  0  0  0
   -2.5654    1.9858    0.9716 O   0  0  0  0  0  0  0  0  0  0  0  0
   -0.8107    1.8504    2.3808 N   0  0  0  0  0  0  0  0  0  0  0  0
   -0.1136    1.2381    2.7719 H   0  0  0  0  0  0  0  0  0  0  0  0
   -0.8954    3.2155    2.9026 C   0  0  0  0  0  0  0  0  0  0  0  0
   -1.8299    3.3430    3.4532 H   0  0  0  0  0  0  0  0  0  0  0  0
   -0.0581    3.4194    3.5712 H   0  0  0  0  0  0  0  0  0  0  0  0
   -0.8804    3.9320    2.0784 H   0  0  0  0  0  0  0  0  0  0  0  0
  5  6  2  0  0  0  0
  5  7  1  0  0  0  0
  2  3  1  0  0  0  0
  2  4  1  0  0  0  0
  2  5  1  0  0  0  0
  1  2  1  0  0  0  0
 29 30  2  0  0  0  0
 29 31  1  0  0  0  0
 26 27  1  0  0  0  0
 26 28  1  0  0  0  0
 23 24  1  0  0  0  0
 23 25  1  0  0  0  0
 22 23  1  0  0  0  0
 22 26  1  0  0  0  0
 20 21  1  0  0  0  0
 20 22  2  0  0  0  0
 17 18  1  0  0  0  0
 17 19  1  0  0  0  0
 17 20  1  0  0  0  0
 14 15  1  0  0  0  0
 14 16  1  0  0  0  0
 14 17  1  0  0  0  0
 11 12  1  0  0  0  0
 11 13  1  0  0  0  0
 11 14  1  0  0  0  0
  9 10  1  0  0  0  0
  9 11  1  0  0  0  0
  9 29  1  0  0  0  0
  7  8  1  0  0  0  0
  7  9  1  0  0  0  0
 33 34  1  0  0  0  0
 33 35  1  0  0  0  0
 33 36  1  0  0  0  0
 31 32  1  0  0  0  0
 31 33  1  0  0  0  0
M  CHG  1  20   1
M  END
$$$$
default_name
  -OEChem-02102213163D

 36 35  0     1  0  0  0  0  0999 V2000
   -4.2256   -3.6731    1.8584 H   0  0  0  0  0  0  0  0  0  0  0  0
   -4.2396   -2.6781    1.4144 C   0  0  0  0  0  0  0  0  0  0  0  0
   -4.9506   -2.0521    1.9514 H   0  0  0  0  0  0  0  0  0  0  0  0
   -4.5266   -2.7521    0.3674 H   0  0  0  0  0  0  0  0  0  0  0  0
   -2.8576   -2.0761    1.5184 C   0  0  0  0  0  0  0  0  0  0  0  0
   -1.9456   -2.7051    2.0404 O   0  0  0  0  0  0  0  0  0  0  0  0
   -2.6926   -0.8481    1.0174 N   0  0  0  0  0  0  0  0  0  0  0  0
   -3.4926   -0.3971    0.5954 H   0  0  0  0  0  0  0  0  0  0  0  0
   -1.4216   -0.1071    1.0434 C   0  0  1  0  0  0  0  0  0  0  0  0
   -0.7579   -0.5878    1.7640 H   0  0  0  0  0  0  0  0  0  0  0  0
   -0.7791   -0.1912   -0.3557 C   0  0  0  0  0  0  0  0  0  0  0  0
   -1.0839   -1.1296   -0.8232 H   0  0  0  0  0  0  0  0  0  0  0  0
   -1.1530    0.6308   -0.9700 H   0  0  0  0  0  0  0  0  0  0  0  0
    0.7555   -0.1421   -0.3277 C   0  0  0  0  0  0  0  0  0  0  0  0
    1.1490   -1.0994    0.0170 H   0  0  0  0  0  0  0  0  0  0  0  0
    1.1284    0.0601   -1.3322 H   0  0  0  0  0  0  0  0  0  0  0  0
    1.2256    0.9665    0.6239 C   0  0  0  0  0  0  0  0  0  0  0  0
    0.8053    1.9168    0.2868 H   0  0  0  0  0  0  0  0  0  0  0  0
    0.8466    0.7489    1.6253 H   0  0  0  0  0  0  0  0  0  0  0  0
    2.6991    1.0661    0.6644 N   0  3  0  0  0  0  0  0  0  0  0  0
    3.2124    0.3920    0.1228 H   0  0  0  0  0  0  0  0  0  0  0  0
    3.4039    1.9555    1.3435 C   0  0  0  0  0  0  0  0  0  0  0  0
    2.8396    2.8730    2.0776 N   0  0  0  0  0  0  0  0  0  0  0  0
    1.8365    2.9043    2.1263 H   0  0  0  0  0  0  0  0  0  0  0  0
    3.3892    3.5402    2.5870 H   0  0  0  0  0  0  0  0  0  0  0  0
    4.7059    1.9392    1.2984 N   0  0  0  0  0  0  0  0  0  0  0  0
    5.1865    1.2505    0.7456 H   0  0  0  0  0  0  0  0  0  0  0  0
    5.2368    2.6158    1.8151 H   0  0  0  0  0  0  0  0  0  0  0  0
   -1.6547    1.3413    1.4779 C   0  0  0  0  0  0  0  0  0  0  0  0
   -2.5654    1.9858    0.9716 O   0  0  0  0  0  0  0  0  0  0  0  0
   -0.8107    1.8504    2.3808 N   0  0  0  0  0  0  0  0  0  0  0  0
   -0.1136    1.2381    2.7719 H   0  0  0  0  0  0  0  0  0  0  0  0
   -0.8954    3.2155    2.9026 C   0  0  0  0  0  0  0  0  0  0  0  0
   -1.8299    3.3430    3.4532 H   0  0  0  0  0  0  0  0  0  0  0  0
   -0.0581    3.4194    3.5712 H   0  0  0  0  0  0  0  0  0  0  0  0
   -0.8804    3.9320    2.0784 H   0  0  0  0  0  0  0  0  0  0  0  0
  5  6  2  0  0  0  0
  5  7  1  0  0  0  0
  2  3  1  0  0  0  0
  2  4  1  0  0  0  0
  2  5  1  0  0  0  0
  1  2  1  0  0  0  0
 29 30  2  0  0  0  0
 29 31  1  0  0  0  0
 26 27  1  0  0  0  0
 26 28  1  0  0  0  0
 23 24  1  0  0  0  0
 23 25  1  0  0  0  0
 22 23  1  0  0  0  0
 22 26  1  0  0  0  0
 20 21  1  0  0  0  0
 20 22  2  0  0  0  0
 17 18  1  0  0  0  0
 17 19  1  0  0  0  0
 17 20  1  0  0  0  0
 14 15  1  0  0  0  0
 14 16  1  0  0  0  0
 14 17  1  0  0  0  0
 11 12  1  0  0  0  0
 11 13  1  0  0  0  0
 11 14  1  0  0  0  0
  9 10  1  0  0  0  0
  9 11  1  0  0  0  0
  9 29  1  0  0  0  0
  7  8  1  0  0  0  0
  7  9  1  0  0  0  0
 33 34  1  0  0  0  0
 33 35  1  0  0  0  0
 33 36  1  0  0  0  0
 31 32  1  0  0  0  0
 31 33  1  0  0  0  0
M  CHG  1  20   1
M  END
$$$$
default_name
  -OEChem-02102213163D

 36 35  0     1  0  0  0  0  0999 V2000
   -4.2256   -3.6731    1.8584 H   0  0  0  0  0  0  0  0  0  0  0  0
   -4.2396   -2.6781    1.4144 C   0  0  0  0  0  0  0  0  0  0  0  0
   -4.9506   -2.0521    1.9514 H   0  0  0  0  0  0  0  0  0  0  0  0
   -4.5266   -2.7521    0.3674 H   0  0  0  0  0  0  0  0  0  0  0  0
   -2.8576   -2.0761    1.5184 C   0  0  0  0  0  0  0  0  0  0  0  0
   -1.9456   -2.7051    2.0404 O   0  0  0  0  0  0  0  0  0  0  0  0
   -2.6926   -0.8481    1.0174 N   0  0  0  0  0  0  0  0  0  0  0  0
   -3.4926   -0.3971    0.5954 H   0  0  0  0  0  0  0  0  0  0  0  0
   -1.4216   -0.1071    1.0434 C   0  0  1  0  0  0  0  0  0  0  0  0
   -0.7579   -0.5878    1.7640 H   0  0  0  0  0  0  0  0  0  0  0  0
   -0.7791   -0.1912   -0.3557 C   0  0  0  0  0  0  0  0  0  0  0  0
   -1.0839   -1.1296   -0.8232 H   0  0  0  0  0  0  0  0  0  0  0  0
   -1.1530    0.6308   -0.9700 H   0  0  0  0  0  0  0  0  0  0  0  0
    0.7555   -0.1421   -0.3277 C   0  0  0  0  0  0  0  0  0  0  0  0
    1.1555   -1.1537   -0.2454 H   0  0  0  0  0  0  0  0  0  0  0  0
    1.1187    0.3152   -1.2486 H   0  0  0  0  0  0  0  0  0  0  0  0
    1.2300    0.6854    0.8747 C   0  0  0  0  0  0  0  0  0  0  0  0
    0.8033    1.6881    0.7981 H   0  0  0  0  0  0  0  0  0  0  0  0
    0.8608    0.2140    1.7886 H   0  0  0  0  0  0  0  0  0  0  0  0
    2.7034    0.7796    0.9283 N   0  3  0  0  0  0  0  0  0  0  0  0
    3.2144    0.2716    0.2268 H   0  0  0  0  0  0  0  0  0  0  0  0
    3.4111    1.4672    1.8089 C   0  0  0  0  0  0  0  0  0  0  0  0
    2.8499    2.1604    2.7596 N   0  0  0  0  0  0  0  0  0  0  0  0
    1.8472    2.1723    2.8225 H   0  0  0  0  0  0  0  0  0  0  0  0
    3.4017    2.6764    3.4201 H   0  0  0  0  0  0  0  0  0  0  0  0
    4.7126    1.4707    1.7512 N   0  0  0  0  0  0  0  0  0  0  0  0
    5.1908    0.9512    1.0354 H   0  0  0  0  0  0  0  0  0  0  0  0
    5.2456    1.9938    2.4212 H   0  0  0  0  0  0  0  0  0  0  0  0
   -1.6547    1.3413    1.4779 C   0  0  0  0  0  0  0  0  0  0  0  0
   -2.5654    1.9858    0.9716 O   0  0  0  0  0  0  0  0  0  0  0  0
   -0.8107    1.8504    2.3808 N   0  0  0  0  0  0  0  0  0  0  0  0
   -0.1136    1.2381    2.7719 H   0  0  0  0  0  0  0  0  0  0  0  0
   -0.8954    3.2155    2.9026 C   0  0  0  0  0  0  0  0  0  0  0  0
   -1.8299    3.3430    3.4532 H   0  0  0  0  0  0  0  0  0  0  0  0
   -0.0581    3.4194    3.5712 H   0  0  0  0  0  0  0  0  0  0  0  0
   -0.8804    3.9320    2.0784 H   0  0  0  0  0  0  0  0  0  0  0  0
  5  6  2  0  0  0  0
  5  7  1  0  0  0  0
  2  3  1  0  0  0  0
  2  4  1  0  0  0  0
  2  5  1  0  0  0  0
  1  2  1  0  0  0  0
 29 30  2  0  0  0  0
 29 31  1  0  0  0  0
 26 27  1  0  0  0  0
 26 28  1  0  0  0  0
 23 24  1  0  0  0  0
 23 25  1  0  0  0  0
 22 23  1  0  0  0  0
 22 26  1  0  0  0  0
 20 21  1  0  0  0  0
 20 22  2  0  0  0  0
 17 18  1  0  0  0  0
 17 19  1  0  0  0  0
 17 20  1  0  0  0  0
 14 15  1  0  0  0  0
 14 16  1  0  0  0  0
 14 17  1  0  0  0  0
 11 12  1  0  0  0  0
 11 13  1  0  0  0  0
 11 14  1  0  0  0  0
  9 10  1  0  0  0  0
  9 11  1  0  0  0  0
  9 29  1  0  0  0  0
  7  8  1  0  0  0  0
  7  9  1  0  0  0  0
 33 34  1  0  0  0  0
 33 35  1  0  0  0  0
 33 36  1  0  0  0  0
 31 32  1  0  0  0  0
 31 33  1  0  0  0  0
M  CHG  1  20   1
M  END
$$$$
default_name
  -OEChem-02102213163D

 36 35  0     1  0  0  0  0  0999 V2000
   -4.2256   -3.6731    1.8584 H   0  0  0  0  0  0  0  0  0  0  0  0
   -4.2396   -2.6781    1.4144 C   0  0  0  0  0  0  0  0  0  0  0  0
   -4.9506   -2.0521    1.9514 H   0  0  0  0  0  0  0  0  0  0  0  0
   -4.5266   -2.7521    0.3674 H   0  0  0  0  0  0  0  0  0  0  0  0
   -2.8576   -2.0761    1.5184 C   0  0  0  0  0  0  0  0  0  0  0  0
   -1.9456   -2.7051    2.0404 O   0  0  0  0  0  0  0  0  0  0  0  0
   -2.6926   -0.8481    1.0174 N   0  0  0  0  0  0  0  0  0  0  0  0
   -3.4926   -0.3971    0.5954 H   0  0  0  0  0  0  0  0  0  0  0  0
   -1.4216   -0.1071    1.0434 C   0  0  1  0  0  0  0  0  0  0  0  0
   -0.7579   -0.5878    1.7640 H   0  0  0  0  0  0  0  0  0  0  0  0
   -0.7791   -0.1912   -0.3557 C   0  0  0  0  0  0  0  0  0  0  0  0
   -1.0839   -1.1296   -0.8232 H   0  0  0  0  0  0  0  0  0  0  0  0
   -1.1530    0.6308   -0.9700 H   0  0  0  0  0  0  0  0  0  0  0  0
    0.7555   -0.1421   -0.3277 C   0  0  0  0  0  0  0  0  0  0  0  0
    1.1599   -1.1382   -0.5129 H   0  0  0  0  0  0  0  0  0  0  0  0
    1.1088    0.5399   -1.1017 H   0  0  0  0  0  0  0  0  0  0  0  0
    1.2376    0.3490    1.0441 C   0  0  0  0  0  0  0  0  0  0  0  0
    0.8066    1.3349    1.2327 H   0  0  0  0  0  0  0  0  0  0  0  0
    0.8783   -0.3448    1.8078 H   0  0  0  0  0  0  0  0  0  0  0  0
    2.7111    0.4347    1.1090 N   0  3  0  0  0  0  0  0  0  0  0  0
    3.2177    0.1284    0.2961 H   0  0  0  0  0  0  0  0  0  0  0  0
    3.4241    0.8753    2.1321 C   0  0  0  0  0  0  0  0  0  0  0  0
    2.8689    1.2957    3.2340 N   0  0  0  0  0  0  0  0  0  0  0  0
    1.8668    1.2851    3.3055 H   0  0  0  0  0  0  0  0  0  0  0  0
    3.4246    1.6265    4.0012 H   0  0  0  0  0  0  0  0  0  0  0  0
    4.7250    0.9012    2.0673 N   0  0  0  0  0  0  0  0  0  0  0  0
    5.1988    0.5873    1.2379 H   0  0  0  0  0  0  0  0  0  0  0  0
    5.2621    1.2362    2.8457 H   0  0  0  0  0  0  0  0  0  0  0  0
   -1.6547    1.3413    1.4779 C   0  0  0  0  0  0  0  0  0  0  0  0
   -2.5654    1.9858    0.9716 O   0  0  0  0  0  0  0  0  0  0  0  0
   -0.8107    1.8504    2.3808 N   0  0  0  0  0  0  0  0  0  0  0  0
   -0.1136    1.2381    2.7719 H   0  0  0  0  0  0  0  0  0  0  0  0
   -0.8954    3.2155    2.9026 C   0  0  0  0  0  0  0  0  0  0  0  0
   -1.8299    3.3430    3.4532 H   0  0  0  0  0  0  0  0  0  0  0  0
   -0.0581    3.4194    3.5712 H   0  0  0  0  0  0  0  0  0  0  0  0
   -0.8804    3.9320    2.0784 H   0  0  0  0  0  0  0  0  0  0  0  0
  5  6  2  0  0  0  0
  5  7  1  0  0  0  0
  2  3  1  0  0  0  0
  2  4  1  0  0  0  0
  2  5  1  0  0  0  0
  1  2  1  0  0  0  0
 29 30  2  0  0  0  0
 29 31  1  0  0  0  0
 26 27  1  0  0  0  0
 26 28  1  0  0  0  0
 23 24  1  0  0  0  0
 23 25  1  0  0  0  0
 22 23  1  0  0  0  0
 22 26  1  0  0  0  0
 20 21  1  0  0  0  0
 20 22  2  0  0  0  0
 17 18  1  0  0  0  0
 17 19  1  0  0  0  0
 17 20  1  0  0  0  0
 14 15  1  0  0  0  0
 14 16  1  0  0  0  0
 14 17  1  0  0  0  0
 11 12  1  0  0  0  0
 11 13  1  0  0  0  0
 11 14  1  0  0  0  0
  9 10  1  0  0  0  0
  9 11  1  0  0  0  0
  9 29  1  0  0  0  0
  7  8  1  0  0  0  0
  7  9  1  0  0  0  0
 33 34  1  0  0  0  0
 33 35  1  0  0  0  0
 33 36  1  0  0  0  0
 31 32  1  0  0  0  0
 31 33  1  0  0  0  0
M  CHG  1  20   1
M  END
$$$$
default_name
  -OEChem-02102213163D

 36 35  0     1  0  0  0  0  0999 V2000
   -4.2256   -3.6731    1.8584 H   0  0  0  0  0  0  0  0  0  0  0  0
   -4.2396   -2.6781    1.4144 C   0  0  0  0  0  0  0  0  0  0  0  0
   -4.9506   -2.0521    1.9514 H   0  0  0  0  0  0  0  0  0  0  0  0
   -4.5266   -2.7521    0.3674 H   0  0  0  0  0  0  0  0  0  0  0  0
   -2.8576   -2.0761    1.5184 C   0  0  0  0  0  0  0  0  0  0  0  0
   -1.9456   -2.7051    2.0404 O   0  0  0  0  0  0  0  0  0  0  0  0
   -2.6926   -0.8481    1.0174 N   0  0  0  0  0  0  0  0  0  0  0  0
   -3.4926   -0.3971    0.5954 H   0  0  0  0  0  0  0  0  0  0  0  0
   -1.4216   -0.1071    1.0434 C   0  0  1  0  0  0  0  0  0  0  0  0
   -0.7579   -0.5878    1.7640 H   0  0  0  0  0  0  0  0  0  0  0  0
   -0.7791   -0.1912   -0.3557 C   0  0  0  0  0  0  0  0  0  0  0  0
   -1.0839   -1.1296   -0.8232 H   0  0  0  0  0  0  0  0  0  0  0  0
   -1.1530    0.6308   -0.9700 H   0  0  0  0  0  0  0  0  0  0  0  0
    0.7555   -0.1421   -0.3277 C   0  0  0  0  0  0  0  0  0  0  0  0
    1.1619   -1.0540   -0.7673 H   0  0  0  0  0  0  0  0  0  0  0  0
    1.0994    0.7189   -0.9016 H   0  0  0  0  0  0  0  0  0  0  0  0
    1.2480   -0.0197    1.1208 C   0  0  0  0  0  0  0  0  0  0  0  0
    0.8152    0.8814    1.5613 H   0  0  0  0  0  0  0  0  0  0  0  0
    0.8980   -0.8895    1.6817 H   0  0  0  0  0  0  0  0  0  0  0  0
    2.7217    0.0549    1.1944 N   0  3  0  0  0  0  0  0  0  0  0  0
    3.2221   -0.0279    0.3260 H   0  0  0  0  0  0  0  0  0  0  0  0
    3.4421    0.2200    2.2911 C   0  0  0  0  0  0  0  0  0  0  0  0
    2.8952    0.3379    3.4685 N   0  0  0  0  0  0  0  0  0  0  0  0
    1.8938    0.3034    3.5424 H   0  0  0  0  0  0  0  0  0  0  0  0
    3.4565    0.4623    4.2908 H   0  0  0  0  0  0  0  0  0  0  0  0
    4.7423    0.2693    2.2252 N   0  0  0  0  0  0  0  0  0  0  0  0
    5.2098    0.1833    1.3392 H   0  0  0  0  0  0  0  0  0  0  0  0
    5.2851    0.3948    3.0597 H   0  0  0  0  0  0  0  0  0  0  0  0
   -1.6547    1.3413    1.4779 C   0  0  0  0  0  0  0  0  0  0  0  0
   -2.5654    1.9858    0.9716 O   0  0  0  0  0  0  0  0  0  0  0  0
   -0.8107    1.8504    2.3808 N   0  0  0  0  0  0  0  0  0  0  0  0
   -0.1136    1.2381    2.7719 H   0  0  0  0  0  0  0  0  0  0  0  0
   -0.8954    3.2155    2.9026 C   0  0  0  0  0  0  0  0  0  0  0  0
   -1.8299    3.3430    3.4532 H   0  0  0  0  0  0  0  0  0  0  0  0
   -0.0581    3.4194    3.5712 H   0  0  0  0  0  0  0  0  0  0  0  0
   -0.8804    3.9320    2.0784 H   0  0  0  0  0  0  0  0  0  0  0  0
  5  6  2  0  0  0  0
  5  7  1  0  0  0  0
  2  3  1  0  0  0  0
  2  4  1  0  0  0  0
  2  5  1  0  0  0  0
  1  2  1  0  0  0  0
 29 30  2  0  0  0  0
 29 31  1  0  0  0  0
 26 27  1  0  0  0  0
 26 28  1  0  0  0  0
 23 24  1  0  0  0  0
 23 25  1  0  0  0  0
 22 23  1  0  0  0  0
 22 26  1  0  0  0  0
 20 21  1  0  0  0  0
 20 22  2  0  0  0  0
 17 18  1  0  0  0  0
 17 19  1  0  0  0  0
 17 20  1  0  0  0  0
 14 15  1  0  0  0  0
 14 16  1  0  0  0  0
 14 17  1  0  0  0  0
 11 12  1  0  0  0  0
 11 13  1  0  0  0  0
 11 14  1  0  0  0  0
  9 10  1  0  0  0  0
  9 11  1  0  0  0  0
  9 29  1  0  0  0  0
  7  8  1  0  0  0  0
  7  9  1  0  0  0  0
 33 34  1  0  0  0  0
 33 35  1  0  0  0  0
 33 36  1  0  0  0  0
 31 32  1  0  0  0  0
 31 33  1  0  0  0  0
M  CHG  1  20   1
M  END
$$$$
default_name
  -OEChem-02102213163D

 36 35  0     1  0  0  0  0  0999 V2000
   -4.2256   -3.6731    1.8584 H   0  0  0  0  0  0  0  0  0  0  0  0
   -4.2396   -2.6781    1.4144 C   0  0  0  0  0  0  0  0  0  0  0  0
   -4.9506   -2.0521    1.9514 H   0  0  0  0  0  0  0  0  0  0  0  0
   -4.5266   -2.7521    0.3674 H   0  0  0  0  0  0  0  0  0  0  0  0
   -2.8576   -2.0761    1.5184 C   0  0  0  0  0  0  0  0  0  0  0  0
   -1.9456   -2.7051    2.0404 O   0  0  0  0  0  0  0  0  0  0  0  0
   -2.6926   -0.8481    1.0174 N   0  0  0  0  0  0  0  0  0  0  0  0
   -3.4926   -0.3971    0.5954 H   0  0  0  0  0  0  0  0  0  0  0  0
   -1.4216   -0.1071    1.0434 C   0  0  1  0  0  0  0  0  0  0  0  0
   -0.7579   -0.5878    1.7640 H   0  0  0  0  0  0  0  0  0  0  0  0
   -0.7791   -0.1912   -0.3557 C   0  0  0  0  0  0  0  0  0  0  0  0
   -1.0839   -1.1296   -0.8232 H   0  0  0  0  0  0  0  0  0  0  0  0
   -1.1530    0.6308   -0.9700 H   0  0  0  0  0  0  0  0  0  0  0  0
    0.7555   -0.1421   -0.3277 C   0  0  0  0  0  0  0  0  0  0  0  0
    1.1612   -0.9069   -0.9913 H   0  0  0  0  0  0  0  0  0  0  0  0
    1.0912    0.8401   -0.6620 H   0  0  0  0  0  0  0  0  0  0  0  0
    1.2604   -0.3956    1.0993 C   0  0  0  0  0  0  0  0  0  0  0  0
    0.8282    0.3584    1.7612 H   0  0  0  0  0  0  0  0  0  0  0  0
    0.9185   -1.3829    1.4188 H   0  0  0  0  0  0  0  0  0  0  0  0
    2.7344   -0.3340    1.1784 N   0  3  0  0  0  0  0  0  0  0  0  0
    3.2274   -0.1865    0.3144 H   0  0  0  0  0  0  0  0  0  0  0  0
    3.4640   -0.4540    2.2750 C   0  0  0  0  0  0  0  0  0  0  0  0
    2.9271   -0.6478    3.4469 N   0  0  0  0  0  0  0  0  0  0  0  0
    1.9266   -0.7061    3.5171 H   0  0  0  0  0  0  0  0  0  0  0  0
    3.4953   -0.7371    4.2692 H   0  0  0  0  0  0  0  0  0  0  0  0
    4.7633   -0.3818    2.2142 N   0  0  0  0  0  0  0  0  0  0  0  0
    5.2232   -0.2330    1.3326 H   0  0  0  0  0  0  0  0  0  0  0  0
    5.3130   -0.4732    3.0485 H   0  0  0  0  0  0  0  0  0  0  0  0
   -1.6547    1.3413    1.4779 C   0  0  0  0  0  0  0  0  0  0  0  0
   -2.5654    1.9858    0.9716 O   0  0  0  0  0  0  0  0  0  0  0  0
   -0.8107    1.8504    2.3808 N   0  0  0  0  0  0  0  0  0  0  0  0
   -0.1136    1.2381    2.7719 H   0  0  0  0  0  0  0  0  0  0  0  0
   -0.8954    3.2155    2.9026 C   0  0  0  0  0  0  0  0  0  0  0  0
   -1.8299    3.3430    3.4532 H   0  0  0  0  0  0  0  0  0  0  0  0
   -0.0581    3.4194    3.5712 H   0  0  0  0  0  0  0  0  0  0  0  0
   -0.8804    3.9320    2.0784 H   0  0  0  0  0  0  0  0  0  0  0  0
  5  6  2  0  0  0  0
  5  7  1  0  0  0  0
  2  3  1  0  0  0  0
  2  4  1  0  0  0  0
  2  5  1  0  0  0  0
  1  2  1  0  0  0  0
 29 30  2  0  0  0  0
 29 31  1  0  0  0  0
 26 27  1  0  0  0  0
 26 28  1  0  0  0  0
 23 24  1  0  0  0  0
 23 25  1  0  0  0  0
 22 23  1  0  0  0  0
 22 26  1  0  0  0  0
 20 21  1  0  0  0  0
 20 22  2  0  0  0  0
 17 18  1  0  0  0  0
 17 19  1  0  0  0  0
 17 20  1  0  0  0  0
 14 15  1  0  0  0  0
 14 16  1  0  0  0  0
 14 17  1  0  0  0  0
 11 12  1  0  0  0  0
 11 13  1  0  0  0  0
 11 14  1  0  0  0  0
  9 10  1  0  0  0  0
  9 11  1  0  0  0  0
  9 29  1  0  0  0  0
  7  8  1  0  0  0  0
  7  9  1  0  0  0  0
 33 34  1  0  0  0  0
 33 35  1  0  0  0  0
 33 36  1  0  0  0  0
 31 32  1  0  0  0  0
 31 33  1  0  0  0  0
M  CHG  1  20   1
M  END
$$$$
default_name
  -OEChem-02102213163D

 36 35  0     1  0  0  0  0  0999 V2000
   -4.2256   -3.6731    1.8584 H   0  0  0  0  0  0  0  0  0  0  0  0
   -4.2396   -2.6781    1.4144 C   0  0  0  0  0  0  0  0  0  0  0  0
   -4.9506   -2.0521    1.9514 H   0  0  0  0  0  0  0  0  0  0  0  0
   -4.5266   -2.7521    0.3674 H   0  0  0  0  0  0  0  0  0  0  0  0
   -2.8576   -2.0761    1.5184 C   0  0  0  0  0  0  0  0  0  0  0  0
   -1.9456   -2.7051    2.0404 O   0  0  0  0  0  0  0  0  0  0  0  0
   -2.6926   -0.8481    1.0174 N   0  0  0  0  0  0  0  0  0  0  0  0
   -3.4926   -0.3971    0.5954 H   0  0  0  0  0  0  0  0  0  0  0  0
   -1.4216   -0.1071    1.0434 C   0  0  1  0  0  0  0  0  0  0  0  0
   -0.7579   -0.5878    1.7640 H   0  0  0  0  0  0  0  0  0  0  0  0
   -0.7791   -0.1912   -0.3557 C   0  0  0  0  0  0  0  0  0  0  0  0
   -1.0839   -1.1296   -0.8232 H   0  0  0  0  0  0  0  0  0  0  0  0
   -1.1530    0.6308   -0.9700 H   0  0  0  0  0  0  0  0  0  0  0  0
    0.7555   -0.1421   -0.3277 C   0  0  0  0  0  0  0  0  0  0  0  0
    1.1581   -0.7069   -1.1697 H   0  0  0  0  0  0  0  0  0  0  0  0
    1.0846    0.8950   -0.3991 H   0  0  0  0  0  0  0  0  0  0  0  0
    1.2740   -0.7531    0.9813 C   0  0  0  0  0  0  0  0  0  0  0  0
    0.8450   -0.1984    1.8190 H   0  0  0  0  0  0  0  0  0  0  0  0
    0.9386   -1.7914    1.0372 H   0  0  0  0  0  0  0  0  0  0  0  0
    2.7484   -0.7055    1.0624 N   0  3  0  0  0  0  0  0  0  0  0  0
    3.2332   -0.3367    0.2622 H   0  0  0  0  0  0  0  0  0  0  0  0
    3.4881   -1.1007    2.0849 C   0  0  0  0  0  0  0  0  0  0  0  0
    2.9624   -1.5942    3.1710 N   0  0  0  0  0  0  0  0  0  0  0  0
    1.9627   -1.6744    3.2313 H   0  0  0  0  0  0  0  0  0  0  0  0
    3.5382   -1.8898    3.9378 H   0  0  0  0  0  0  0  0  0  0  0  0
    4.7866   -1.0077    2.0350 N   0  0  0  0  0  0  0  0  0  0  0  0
    5.2381   -0.6333    1.2183 H   0  0  0  0  0  0  0  0  0  0  0  0
    5.3440   -1.3087    2.8130 H   0  0  0  0  0  0  0  0  0  0  0  0
   -1.6547    1.3413    1.4779 C   0  0  0  0  0  0  0  0  0  0  0  0
   -2.5654    1.9858    0.9716 O   0  0  0  0  0  0  0  0  0  0  0  0
   -0.8107    1.8504    2.3808 N   0  0  0  0  0  0  0  0  0  0  0  0
   -0.1136    1.2381    2.7719 H   0  0  0  0  0  0  0  0  0  0  0  0
   -0.8954    3.2155    2.9026 C   0  0  0  0  0  0  0  0  0  0  0  0
   -1.8299    3.3430    3.4532 H   0  0  0  0  0  0  0  0  0  0  0  0
   -0.0581    3.4194    3.5712 H   0  0  0  0  0  0  0  0  0  0  0  0
   -0.8804    3.9320    2.0784 H   0  0  0  0  0  0  0  0  0  0  0  0
  5  6  2  0  0  0  0
  5  7  1  0  0  0  0
  2  3  1  0  0  0  0
  2  4  1  0  0  0  0
  2  5  1  0  0  0  0
  1  2  1  0  0  0  0
 29 30  2  0  0  0  0
 29 31  1  0  0  0  0
 26 27  1  0  0  0  0
 26 28  1  0  0  0  0
 23 24  1  0  0  0  0
 23 25  1  0  0  0  0
 22 23  1  0  0  0  0
 22 26  1  0  0  0  0
 20 21  1  0  0  0  0
 20 22  2  0  0  0  0
 17 18  1  0  0  0  0
 17 19  1  0  0  0  0
 17 20  1  0  0  0  0
 14 15  1  0  0  0  0
 14 16  1  0  0  0  0
 14 17  1  0  0  0  0
 11 12  1  0  0  0  0
 11 13  1  0  0  0  0
 11 14  1  0  0  0  0
  9 10  1  0  0  0  0
  9 11  1  0  0  0  0
  9 29  1  0  0  0  0
  7  8  1  0  0  0  0
  7  9  1  0  0  0  0
 33 34  1  0  0  0  0
 33 35  1  0  0  0  0
 33 36  1  0  0  0  0
 31 32  1  0  0  0  0
 31 33  1  0  0  0  0
M  CHG  1  20   1
M  END
$$$$
default_name
  -OEChem-02102213163D

 36 35  0     1  0  0  0  0  0999 V2000
   -4.2256   -3.6731    1.8584 H   0  0  0  0  0  0  0  0  0  0  0  0
   -4.2396   -2.6781    1.4144 C   0  0  0  0  0  0  0  0  0  0  0  0
   -4.9506   -2.0521    1.9514 H   0  0  0  0  0  0  0  0  0  0  0  0
   -4.5266   -2.7521    0.3674 H   0  0  0  0  0  0  0  0  0  0  0  0
   -2.8576   -2.0761    1.5184 C   0  0  0  0  0  0  0  0  0  0  0  0
   -1.9456   -2.7051    2.0404 O   0  0  0  0  0  0  0  0  0  0  0  0
   -2.6926   -0.8481    1.0174 N   0  0  0  0  0  0  0  0  0  0  0  0
   -3.4926   -0.3971    0.5954 H   0  0  0  0  0  0  0  0  0  0  0  0
   -1.4216   -0.1071    1.0434 C   0  0  1  0  0  0  0  0  0  0  0  0
   -0.7579   -0.5878    1.7640 H   0  0  0  0  0  0  0  0  0  0  0  0
   -0.7791   -0.1912   -0.3557 C   0  0  0  0  0  0  0  0  0  0  0  0
   -1.0839   -1.1296   -0.8232 H   0  0  0  0  0  0  0  0  0  0  0  0
   -1.1530    0.6308   -0.9700 H   0  0  0  0  0  0  0  0  0  0  0  0
    0.7555   -0.1421   -0.3277 C   0  0  0  0  0  0  0  0  0  0  0  0
    1.1526   -0.4675   -1.2902 H   0  0  0  0  0  0  0  0  0  0  0  0
    1.0802    0.8801   -0.1309 H   0  0  0  0  0  0  0  0  0  0  0  0
    1.2878   -1.0678    0.7747 C   0  0  0  0  0  0  0  0  0  0  0  0
    0.8642   -0.7512    1.7306 H   0  0  0  0  0  0  0  0  0  0  0  0
    0.9567   -2.0871    0.5627 H   0  0  0  0  0  0  0  0  0  0  0  0
    2.7627   -1.0342    0.8540 N   0  3  0  0  0  0  0  0  0  0  0  0
    3.2390   -0.4682    0.1728 H   0  0  0  0  0  0  0  0  0  0  0  0
    3.5129   -1.6762    1.7339 C   0  0  0  0  0  0  0  0  0  0  0  0
    2.9987   -2.4367    2.6593 N   0  0  0  0  0  0  0  0  0  0  0  0
    1.9999   -2.5357    2.7045 H   0  0  0  0  0  0  0  0  0  0  0  0
    3.5823   -2.9173    3.3191 H   0  0  0  0  0  0  0  0  0  0  0  0
    4.8106   -1.5659    1.6998 N   0  0  0  0  0  0  0  0  0  0  0  0
    5.2534   -0.9904    1.0043 H   0  0  0  0  0  0  0  0  0  0  0  0
    5.3760   -2.0546    2.3692 H   0  0  0  0  0  0  0  0  0  0  0  0
   -1.6547    1.3413    1.4779 C   0  0  0  0  0  0  0  0  0  0  0  0
   -2.5654    1.9858    0.9716 O   0  0  0  0  0  0  0  0  0  0  0  0
   -0.8107    1.8504    2.3808 N   0  0  0  0  0  0  0  0  0  0  0  0
   -0.1136    1.2381    2.7719 H   0  0  0  0  0  0  0  0  0  0  0  0
   -0.8954    3.2155    2.9026 C   0  0  0  0  0  0  0  0  0  0  0  0
   -1.8299    3.3430    3.4532 H   0  0  0  0  0  0  0  0  0  0  0  0
   -0.0581    3.4194    3.5712 H   0  0  0  0  0  0  0  0  0  0  0  0
   -0.8804    3.9320    2.0784 H   0  0  0  0  0  0  0  0  0  0  0  0
  5  6  2  0  0  0  0
  5  7  1  0  0  0  0
  2  3  1  0  0  0  0
  2  4  1  0  0  0  0
  2  5  1  0  0  0  0
  1  2  1  0  0  0  0
 29 30  2  0  0  0  0
 29 31  1  0  0  0  0
 26 27  1  0  0  0  0
 26 28  1  0  0  0  0
 23 24  1  0  0  0  0
 23 25  1  0  0  0  0
 22 23  1  0  0  0  0
 22 26  1  0  0  0  0
 20 21  1  0  0  0  0
 20 22  2  0  0  0  0
 17 18  1  0  0  0  0
 17 19  1  0  0  0  0
 17 20  1  0  0  0  0
 14 15  1  0  0  0  0
 14 16  1  0  0  0  0
 14 17  1  0  0  0  0
 11 12  1  0  0  0  0
 11 13  1  0  0  0  0
 11 14  1  0  0  0  0
  9 10  1  0  0  0  0
  9 11  1  0  0  0  0
  9 29  1  0  0  0  0
  7  8  1  0  0  0  0
  7  9  1  0  0  0  0
 33 34  1  0  0  0  0
 33 35  1  0  0  0  0
 33 36  1  0  0  0  0
 31 32  1  0  0  0  0
 31 33  1  0  0  0  0
M  CHG  1  20   1
M  END
$$$$
default_name
  -OEChem-02102213163D

 36 35  0     1  0  0  0  0  0999 V2000
   -4.2256   -3.6731    1.8584 H   0  0  0  0  0  0  0  0  0  0  0  0
   -4.2396   -2.6781    1.4144 C   0  0  0  0  0  0  0  0  0  0  0  0
   -4.9506   -2.0521    1.9514 H   0  0  0  0  0  0  0  0  0  0  0  0
   -4.5266   -2.7521    0.3674 H   0  0  0  0  0  0  0  0  0  0  0  0
   -2.8576   -2.0761    1.5184 C   0  0  0  0  0  0  0  0  0  0  0  0
   -1.9456   -2.7051    2.0404 O   0  0  0  0  0  0  0  0  0  0  0  0
   -2.6926   -0.8481    1.0174 N   0  0  0  0  0  0  0  0  0  0  0  0
   -3.4926   -0.3971    0.5954 H   0  0  0  0  0  0  0  0  0  0  0  0
   -1.4216   -0.1071    1.0434 C   0  0  1  0  0  0  0  0  0  0  0  0
   -0.7579   -0.5878    1.7640 H   0  0  0  0  0  0  0  0  0  0  0  0
   -0.7791   -0.1912   -0.3557 C   0  0  0  0  0  0  0  0  0  0  0  0
   -1.0839   -1.1296   -0.8232 H   0  0  0  0  0  0  0  0  0  0  0  0
   -1.1530    0.6308   -0.9700 H   0  0  0  0  0  0  0  0  0  0  0  0
    0.7555   -0.1421   -0.3277 C   0  0  0  0  0  0  0  0  0  0  0  0
    1.1453   -0.2052   -1.3446 H   0  0  0  0  0  0  0  0  0  0  0  0
    1.0782    0.7963    0.1243 H   0  0  0  0  0  0  0  0  0  0  0  0
    1.3010   -1.3183    0.4936 C   0  0  0  0  0  0  0  0  0  0  0  0
    0.8847   -1.2621    1.5021 H   0  0  0  0  0  0  0  0  0  0  0  0
    0.9716   -2.2500    0.0277 H   0  0  0  0  0  0  0  0  0  0  0  0
    2.7764   -1.2978    0.5677 N   0  3  0  0  0  0  0  0  0  0  0  0
    3.2445   -0.5721    0.0524 H   0  0  0  0  0  0  0  0  0  0  0  0
    3.5367   -2.1411    1.2458 C   0  0  0  0  0  0  0  0  0  0  0  0
    3.0334   -3.1181    1.9469 N   0  0  0  0  0  0  0  0  0  0  0  0
    2.0355   -3.2311    1.9726 H   0  0  0  0  0  0  0  0  0  0  0  0
    3.6247   -3.7495    2.4555 H   0  0  0  0  0  0  0  0  0  0  0  0
    4.8336   -2.0182    1.2314 N   0  0  0  0  0  0  0  0  0  0  0  0
    5.2682   -1.2799    0.7052 H   0  0  0  0  0  0  0  0  0  0  0  0
    5.4067   -2.6601    1.7473 H   0  0  0  0  0  0  0  0  0  0  0  0
   -1.6547    1.3413    1.4779 C   0  0  0  0  0  0  0  0  0  0  0  0
   -2.5654    1.9858    0.9716 O   0  0  0  0  0  0  0  0  0  0  0  0
   -0.8107    1.8504    2.3808 N   0  0  0  0  0  0  0  0  0  0  0  0
   -0.1136    1.2381    2.7719 H   0  0  0  0  0  0  0  0  0  0  0  0
   -0.8954    3.2155    2.9026 C   0  0  0  0  0  0  0  0  0  0  0  0
   -1.8299    3.3430    3.4532 H   0  0  0  0  0  0  0  0  0  0  0  0
   -0.0581    3.4194    3.5712 H   0  0  0  0  0  0  0  0  0  0  0  0
   -0.8804    3.9320    2.0784 H   0  0  0  0  0  0  0  0  0  0  0  0
  5  6  2  0  0  0  0
  5  7  1  0  0  0  0
  2  3  1  0  0  0  0
  2  4  1  0  0  0  0
  2  5  1  0  0  0  0
  1  2  1  0  0  0  0
 29 30  2  0  0  0  0
 29 31  1  0  0  0  0
 26 27  1  0  0  0  0
 26 28  1  0  0  0  0
 23 24  1  0  0  0  0
 23 25  1  0  0  0  0
 22 23  1  0  0  0  0
 22 26  1  0  0  0  0
 20 21  1  0  0  0  0
 20 22  2  0  0  0  0
 17 18  1  0  0  0  0
 17 19  1  0  0  0  0
 17 20  1  0  0  0  0
 14 15  1  0  0  0  0
 14 16  1  0  0  0  0
 14 17  1  0  0  0  0
 11 12  1  0  0  0  0
 11 13  1  0  0  0  0
 11 14  1  0  0  0  0
  9 10  1  0  0  0  0
  9 11  1  0  0  0  0
  9 29  1  0  0  0  0
  7  8  1  0  0  0  0
  7  9  1  0  0  0  0
 33 34  1  0  0  0  0
 33 35  1  0  0  0  0
 33 36  1  0  0  0  0
 31 32  1  0  0  0  0
 31 33  1  0  0  0  0
M  CHG  1  20   1
M  END
$$$$
default_name
  -OEChem-02102213163D

 36 35  0     1  0  0  0  0  0999 V2000
   -4.2256   -3.6731    1.8584 H   0  0  0  0  0  0  0  0  0  0  0  0
   -4.2396   -2.6781    1.4144 C   0  0  0  0  0  0  0  0  0  0  0  0
   -4.9506   -2.0521    1.9514 H   0  0  0  0  0  0  0  0  0  0  0  0
   -4.5266   -2.7521    0.3674 H   0  0  0  0  0  0  0  0  0  0  0  0
   -2.8576   -2.0761    1.5184 C   0  0  0  0  0  0  0  0  0  0  0  0
   -1.9456   -2.7051    2.0404 O   0  0  0  0  0  0  0  0  0  0  0  0
   -2.6926   -0.8481    1.0174 N   0  0  0  0  0  0  0  0  0  0  0  0
   -3.4926   -0.3971    0.5954 H   0  0  0  0  0  0  0  0  0  0  0  0
   -1.4216   -0.1071    1.0434 C   0  0  1  0  0  0  0  0  0  0  0  0
   -0.7579   -0.5878    1.7640 H   0  0  0  0  0  0  0  0  0  0  0  0
   -0.7791   -0.1912   -0.3557 C   0  0  0  0  0  0  0  0  0  0  0  0
   -1.0839   -1.1296   -0.8232 H   0  0  0  0  0  0  0  0  0  0  0  0
   -1.1530    0.6308   -0.9700 H   0  0  0  0  0  0  0  0  0  0  0  0
    0.7555   -0.1421   -0.3277 C   0  0  0  0  0  0  0  0  0  0  0  0
    1.1364    0.0622   -1.3293 H   0  0  0  0  0  0  0  0  0  0  0  0
    1.0788    0.6494    0.3492 H   0  0  0  0  0  0  0  0  0  0  0  0
    1.3125   -1.4875    0.1572 C   0  0  0  0  0  0  0  0  0  0  0  0
    0.9051   -1.6965    1.1491 H   0  0  0  0  0  0  0  0  0  0  0  0
    0.9824   -2.2689   -0.5313 H   0  0  0  0  0  0  0  0  0  0  0  0
    2.7884   -1.4783    0.2228 N   0  3  0  0  0  0  0  0  0  0  0  0
    3.2493   -0.6413   -0.0908 H   0  0  0  0  0  0  0  0  0  0  0  0
    3.5578   -2.4639    0.6538 C   0  0  0  0  0  0  0  0  0  0  0  0
    3.0644   -3.5918    1.0822 N   0  0  0  0  0  0  0  0  0  0  0  0
    2.0671   -3.7135    1.0854 H   0  0  0  0  0  0  0  0  0  0  0  0
    3.6624   -4.3299    1.4056 H   0  0  0  0  0  0  0  0  0  0  0  0
    4.8541   -2.3339    0.6618 N   0  0  0  0  0  0  0  0  0  0  0  0
    5.2813   -1.4821    0.3412 H   0  0  0  0  0  0  0  0  0  0  0  0
    5.4340   -3.0840    0.9897 H   0  0  0  0  0  0  0  0  0  0  0  0
   -1.6547    1.3413    1.4779 C   0  0  0  0  0  0  0  0  0  0  0  0
   -2.5654    1.9858    0.9716 O   0  0  0  0  0  0  0  0  0  0  0  0
   -0.8107    1.8504    2.3808 N   0  0  0  0  0  0  0  0  0  0  0  0
   -0.1136    1.2381    2.7719 H   0  0  0  0  0  0  0  0  0  0  0  0
   -0.8954    3.2155    2.9026 C   0  0  0  0  0  0  0  0  0  0  0  0
   -1.8299    3.3430    3.4532 H   0  0  0  0  0  0  0  0  0  0  0  0
   -0.0581    3.4194    3.5712 H   0  0  0  0  0  0  0  0  0  0  0  0
   -0.8804    3.9320    2.0784 H   0  0  0  0  0  0  0  0  0  0  0  0
  5  6  2  0  0  0  0
  5  7  1  0  0  0  0
  2  3  1  0  0  0  0
  2  4  1  0  0  0  0
  2  5  1  0  0  0  0
  1  2  1  0  0  0  0
 29 30  2  0  0  0  0
 29 31  1  0  0  0  0
 26 27  1  0  0  0  0
 26 28  1  0  0  0  0
 23 24  1  0  0  0  0
 23 25  1  0  0  0  0
 22 23  1  0  0  0  0
 22 26  1  0  0  0  0
 20 21  1  0  0  0  0
 20 22  2  0  0  0  0
 17 18  1  0  0  0  0
 17 19  1  0  0  0  0
 17 20  1  0  0  0  0
 14 15  1  0  0  0  0
 14 16  1  0  0  0  0
 14 17  1  0  0  0  0
 11 12  1  0  0  0  0
 11 13  1  0  0  0  0
 11 14  1  0  0  0  0
  9 10  1  0  0  0  0
  9 11  1  0  0  0  0
  9 29  1  0  0  0  0
  7  8  1  0  0  0  0
  7  9  1  0  0  0  0
 33 34  1  0  0  0  0
 33 35  1  0  0  0  0
 33 36  1  0  0  0  0
 31 32  1  0  0  0  0
 31 33  1  0  0  0  0
M  CHG  1  20   1
M  END
$$$$
default_name
  -OEChem-02102213163D

 36 35  0     1  0  0  0  0  0999 V2000
   -4.2256   -3.6731    1.8584 H   0  0  0  0  0  0  0  0  0  0  0  0
   -4.2396   -2.6781    1.4144 C   0  0  0  0  0  0  0  0  0  0  0  0
   -4.9506   -2.0521    1.9514 H   0  0  0  0  0  0  0  0  0  0  0  0
   -4.5266   -2.7521    0.3674 H   0  0  0  0  0  0  0  0  0  0  0  0
   -2.8576   -2.0761    1.5184 C   0  0  0  0  0  0  0  0  0  0  0  0
   -1.9456   -2.7051    2.0404 O   0  0  0  0  0  0  0  0  0  0  0  0
   -2.6926   -0.8481    1.0174 N   0  0  0  0  0  0  0  0  0  0  0  0
   -3.4926   -0.3971    0.5954 H   0  0  0  0  0  0  0  0  0  0  0  0
   -1.4216   -0.1071    1.0434 C   0  0  1  0  0  0  0  0  0  0  0  0
   -0.7579   -0.5878    1.7640 H   0  0  0  0  0  0  0  0  0  0  0  0
   -0.7791   -0.1912   -0.3557 C   0  0  0  0  0  0  0  0  0  0  0  0
   -1.0839   -1.1296   -0.8232 H   0  0  0  0  0  0  0  0  0  0  0  0
   -1.1530    0.6308   -0.9700 H   0  0  0  0  0  0  0  0  0  0  0  0
    0.7555   -0.1421   -0.3277 C   0  0  0  0  0  0  0  0  0  0  0  0
    1.1268    0.3165   -1.2452 H   0  0  0  0  0  0  0  0  0  0  0  0
    1.0820    0.4493    0.5284 H   0  0  0  0  0  0  0  0  0  0  0  0
    1.3217   -1.5639   -0.2115 C   0  0  0  0  0  0  0  0  0  0  0  0
    0.9238   -2.0246    0.6956 H   0  0  0  0  0  0  0  0  0  0  0  0
    0.9883   -2.1425   -1.0762 H   0  0  0  0  0  0  0  0  0  0  0  0
    2.7981   -1.5634   -0.1572 N   0  3  0  0  0  0  0  0  0  0  0  0
    3.2531   -0.6711   -0.2471 H   0  0  0  0  0  0  0  0  0  0  0  0
    3.5748   -2.6224   -0.0016 C   0  0  0  0  0  0  0  0  0  0  0  0
    3.0893   -3.8256    0.1242 N   0  0  0  0  0  0  0  0  0  0  0  0
    2.0925   -3.9497    0.1034 H   0  0  0  0  0  0  0  0  0  0  0  0
    3.6928   -4.6187    0.2411 H   0  0  0  0  0  0  0  0  0  0  0  0
    4.8706   -2.4914    0.0298 N   0  0  0  0  0  0  0  0  0  0  0  0
    5.2919   -1.5831   -0.0628 H   0  0  0  0  0  0  0  0  0  0  0  0
    5.4562   -3.2974    0.1481 H   0  0  0  0  0  0  0  0  0  0  0  0
   -1.6547    1.3413    1.4779 C   0  0  0  0  0  0  0  0  0  0  0  0
   -2.5654    1.9858    0.9716 O   0  0  0  0  0  0  0  0  0  0  0  0
   -0.8107    1.8504    2.3808 N   0  0  0  0  0  0  0  0  0  0  0  0
   -0.1136    1.2381    2.7719 H   0  0  0  0  0  0  0  0  0  0  0  0
   -0.8954    3.2155    2.9026 C   0  0  0  0  0  0  0  0  0  0  0  0
   -1.8299    3.3430    3.4532 H   0  0  0  0  0  0  0  0  0  0  0  0
   -0.0581    3.4194    3.5712 H   0  0  0  0  0  0  0  0  0  0  0  0
   -0.8804    3.9320    2.0784 H   0  0  0  0  0  0  0  0  0  0  0  0
  5  6  2  0  0  0  0
  5  7  1  0  0  0  0
  2  3  1  0  0  0  0
  2  4  1  0  0  0  0
  2  5  1  0  0  0  0
  1  2  1  0  0  0  0
 29 30  2  0  0  0  0
 29 31  1  0  0  0  0
 26 27  1  0  0  0  0
 26 28  1  0  0  0  0
 23 24  1  0  0  0  0
 23 25  1  0  0  0  0
 22 23  1  0  0  0  0
 22 26  1  0  0  0  0
 20 21  1  0  0  0  0
 20 22  2  0  0  0  0
 17 18  1  0  0  0  0
 17 19  1  0  0  0  0
 17 20  1  0  0  0  0
 14 15  1  0  0  0  0
 14 16  1  0  0  0  0
 14 17  1  0  0  0  0
 11 12  1  0  0  0  0
 11 13  1  0  0  0  0
 11 14  1  0  0  0  0
  9 10  1  0  0  0  0
  9 11  1  0  0  0  0
  9 29  1  0  0  0  0
  7  8  1  0  0  0  0
  7  9  1  0  0  0  0
 33 34  1  0  0  0  0
 33 35  1  0  0  0  0
 33 36  1  0  0  0  0
 31 32  1  0  0  0  0
 31 33  1  0  0  0  0
M  CHG  1  20   1
M  END
$$$$
default_name
  -OEChem-02102213163D

 36 35  0     1  0  0  0  0  0999 V2000
   -4.2256   -3.6731    1.8584 H   0  0  0  0  0  0  0  0  0  0  0  0
   -4.2396   -2.6781    1.4144 C   0  0  0  0  0  0  0  0  0  0  0  0
   -4.9506   -2.0521    1.9514 H   0  0  0  0  0  0  0  0  0  0  0  0
   -4.5266   -2.7521    0.3674 H   0  0  0  0  0  0  0  0  0  0  0  0
   -2.8576   -2.0761    1.5184 C   0  0  0  0  0  0  0  0  0  0  0  0
   -1.9456   -2.7051    2.0404 O   0  0  0  0  0  0  0  0  0  0  0  0
   -2.6926   -0.8481    1.0174 N   0  0  0  0  0  0  0  0  0  0  0  0
   -3.4926   -0.3971    0.5954 H   0  0  0  0  0  0  0  0  0  0  0  0
   -1.4216   -0.1071    1.0434 C   0  0  1  0  0  0  0  0  0  0  0  0
   -0.7579   -0.5878    1.7640 H   0  0  0  0  0  0  0  0  0  0  0  0
   -0.7791   -0.1912   -0.3557 C   0  0  0  0  0  0  0  0  0  0  0  0
   -1.0839   -1.1296   -0.8232 H   0  0  0  0  0  0  0  0  0  0  0  0
   -1.1530    0.6308   -0.9700 H   0  0  0  0  0  0  0  0  0  0  0  0
    0.7555   -0.1421   -0.3277 C   0  0  0  0  0  0  0  0  0  0  0  0
    1.1169    0.5403   -1.0982 H   0  0  0  0  0  0  0  0  0  0  0  0
    1.0874    0.2097    0.6497 H   0  0  0  0  0  0  0  0  0  0  0  0
    1.3279   -1.5422   -0.5876 C   0  0  0  0  0  0  0  0  0  0  0  0
    0.9398   -2.2242    0.1725 H   0  0  0  0  0  0  0  0  0  0  0  0
    0.9889   -1.8795   -1.5700 H   0  0  0  0  0  0  0  0  0  0  0  0
    2.8047   -1.5472   -0.5462 N   0  3  0  0  0  0  0  0  0  0  0  0
    3.2557   -0.6594   -0.4057 H   0  0  0  0  0  0  0  0  0  0  0  0
    3.5866   -2.6059   -0.6758 C   0  0  0  0  0  0  0  0  0  0  0  0
    3.1066   -3.8036   -0.8618 N   0  0  0  0  0  0  0  0  0  0  0  0
    2.1101   -3.9238   -0.9064 H   0  0  0  0  0  0  0  0  0  0  0  0
    3.7140   -4.5964   -0.9586 H   0  0  0  0  0  0  0  0  0  0  0  0
    4.8822   -2.4800   -0.6215 N   0  0  0  0  0  0  0  0  0  0  0  0
    5.2992   -1.5762   -0.4793 H   0  0  0  0  0  0  0  0  0  0  0  0
    5.4717   -3.2858   -0.7202 H   0  0  0  0  0  0  0  0  0  0  0  0
   -1.6547    1.3413    1.4779 C   0  0  0  0  0  0  0  0  0  0  0  0
   -2.5654    1.9858    0.9716 O   0  0  0  0  0  0  0  0  0  0  0  0
   -0.8107    1.8504    2.3808 N   0  0  0  0  0  0  0  0  0  0  0  0
   -0.1136    1.2381    2.7719 H   0  0  0  0  0  0  0  0  0  0  0  0
   -0.8954    3.2155    2.9026 C   0  0  0  0  0  0  0  0  0  0  0  0
   -1.8299    3.3430    3.4532 H   0  0  0  0  0  0  0  0  0  0  0  0
   -0.0581    3.4194    3.5712 H   0  0  0  0  0  0  0  0  0  0  0  0
   -0.8804    3.9320    2.0784 H   0  0  0  0  0  0  0  0  0  0  0  0
  5  6  2  0  0  0  0
  5  7  1  0  0  0  0
  2  3  1  0  0  0  0
  2  4  1  0  0  0  0
  2  5  1  0  0  0  0
  1  2  1  0  0  0  0
 29 30  2  0  0  0  0
 29 31  1  0  0  0  0
 26 27  1  0  0  0  0
 26 28  1  0  0  0  0
 23 24  1  0  0  0  0
 23 25  1  0  0  0  0
 22 23  1  0  0  0  0
 22 26  1  0  0  0  0
 20 21  1  0  0  0  0
 20 22  2  0  0  0  0
 17 18  1  0  0  0  0
 17 19  1  0  0  0  0
 17 20  1  0  0  0  0
 14 15  1  0  0  0  0
 14 16  1  0  0  0  0
 14 17  1  0  0  0  0
 11 12  1  0  0  0  0
 11 13  1  0  0  0  0
 11 14  1  0  0  0  0
  9 10  1  0  0  0  0
  9 11  1  0  0  0  0
  9 29  1  0  0  0  0
  7  8  1  0  0  0  0
  7  9  1  0  0  0  0
 33 34  1  0  0  0  0
 33 35  1  0  0  0  0
 33 36  1  0  0  0  0
 31 32  1  0  0  0  0
 31 33  1  0  0  0  0
M  CHG  1  20   1
M  END
$$$$
default_name
  -OEChem-02102213163D

 36 35  0     1  0  0  0  0  0999 V2000
   -4.2256   -3.6731    1.8584 H   0  0  0  0  0  0  0  0  0  0  0  0
   -4.2396   -2.6781    1.4144 C   0  0  0  0  0  0  0  0  0  0  0  0
   -4.9506   -2.0521    1.9514 H   0  0  0  0  0  0  0  0  0  0  0  0
   -4.5266   -2.7521    0.3674 H   0  0  0  0  0  0  0  0  0  0  0  0
   -2.8576   -2.0761    1.5184 C   0  0  0  0  0  0  0  0  0  0  0  0
   -1.9456   -2.7051    2.0404 O   0  0  0  0  0  0  0  0  0  0  0  0
   -2.6926   -0.8481    1.0174 N   0  0  0  0  0  0  0  0  0  0  0  0
   -3.4926   -0.3971    0.5954 H   0  0  0  0  0  0  0  0  0  0  0  0
   -1.4216   -0.1071    1.0434 C   0  0  1  0  0  0  0  0  0  0  0  0
   -0.7579   -0.5878    1.7640 H   0  0  0  0  0  0  0  0  0  0  0  0
   -0.7791   -0.1912   -0.3557 C   0  0  0  0  0  0  0  0  0  0  0  0
   -1.0839   -1.1296   -0.8232 H   0  0  0  0  0  0  0  0  0  0  0  0
   -1.1530    0.6308   -0.9700 H   0  0  0  0  0  0  0  0  0  0  0  0
    0.7555   -0.1421   -0.3277 C   0  0  0  0  0  0  0  0  0  0  0  0
    1.1076    0.7185   -0.8982 H   0  0  0  0  0  0  0  0  0  0  0  0
    1.0948   -0.0532    0.7048 H   0  0  0  0  0  0  0  0  0  0  0  0
    1.3306   -1.4240   -0.9453 C   0  0  0  0  0  0  0  0  0  0  0  0
    0.9518   -2.2816   -0.3845 H   0  0  0  0  0  0  0  0  0  0  0  0
    0.9842   -1.4977   -1.9788 H   0  0  0  0  0  0  0  0  0  0  0  0
    2.8077   -1.4310   -0.9179 N   0  3  0  0  0  0  0  0  0  0  0  0
    3.2567   -0.6071   -0.5560 H   0  0  0  0  0  0  0  0  0  0  0  0
    3.5923   -2.4156   -1.3229 C   0  0  0  0  0  0  0  0  0  0  0  0
    3.1150   -3.5271   -1.8087 N   0  0  0  0  0  0  0  0  0  0  0  0
    2.1187   -3.6376   -1.8752 H   0  0  0  0  0  0  0  0  0  0  0  0
    3.7244   -4.2644   -2.1119 H   0  0  0  0  0  0  0  0  0  0  0  0
    4.8878   -2.3005   -1.2478 N   0  0  0  0  0  0  0  0  0  0  0  0
    5.3029   -1.4618   -0.8798 H   0  0  0  0  0  0  0  0  0  0  0  0
    5.4794   -3.0499   -1.5560 H   0  0  0  0  0  0  0  0  0  0  0  0
   -1.6547    1.3413    1.4779 C   0  0  0  0  0  0  0  0  0  0  0  0
   -2.5654    1.9858    0.9716 O   0  0  0  0  0  0  0  0  0  0  0  0
   -0.8107    1.8504    2.3808 N   0  0  0  0  0  0  0  0  0  0  0  0
   -0.1136    1.2381    2.7719 H   0  0  0  0  0  0  0  0  0  0  0  0
   -0.8954    3.2155    2.9026 C   0  0  0  0  0  0  0  0  0  0  0  0
   -1.8299    3.3430    3.4532 H   0  0  0  0  0  0  0  0  0  0  0  0
   -0.0581    3.4194    3.5712 H   0  0  0  0  0  0  0  0  0  0  0  0
   -0.8804    3.9320    2.0784 H   0  0  0  0  0  0  0  0  0  0  0  0
  5  6  2  0  0  0  0
  5  7  1  0  0  0  0
  2  3  1  0  0  0  0
  2  4  1  0  0  0  0
  2  5  1  0  0  0  0
  1  2  1  0  0  0  0
 29 30  2  0  0  0  0
 29 31  1  0  0  0  0
 26 27  1  0  0  0  0
 26 28  1  0  0  0  0
 23 24  1  0  0  0  0
 23 25  1  0  0  0  0
 22 23  1  0  0  0  0
 22 26  1  0  0  0  0
 20 21  1  0  0  0  0
 20 22  2  0  0  0  0
 17 18  1  0  0  0  0
 17 19  1  0  0  0  0
 17 20  1  0  0  0  0
 14 15  1  0  0  0  0
 14 16  1  0  0  0  0
 14 17  1  0  0  0  0
 11 12  1  0  0  0  0
 11 13  1  0  0  0  0
 11 14  1  0  0  0  0
  9 10  1  0  0  0  0
  9 11  1  0  0  0  0
  9 29  1  0  0  0  0
  7  8  1  0  0  0  0
  7  9  1  0  0  0  0
 33 34  1  0  0  0  0
 33 35  1  0  0  0  0
 33 36  1  0  0  0  0
 31 32  1  0  0  0  0
 31 33  1  0  0  0  0
M  CHG  1  20   1
M  END
$$$$
default_name
  -OEChem-02102213163D

 36 35  0     1  0  0  0  0  0999 V2000
   -4.2256   -3.6731    1.8584 H   0  0  0  0  0  0  0  0  0  0  0  0
   -4.2396   -2.6781    1.4144 C   0  0  0  0  0  0  0  0  0  0  0  0
   -4.9506   -2.0521    1.9514 H   0  0  0  0  0  0  0  0  0  0  0  0
   -4.5266   -2.7521    0.3674 H   0  0  0  0  0  0  0  0  0  0  0  0
   -2.8576   -2.0761    1.5184 C   0  0  0  0  0  0  0  0  0  0  0  0
   -1.9456   -2.7051    2.0404 O   0  0  0  0  0  0  0  0  0  0  0  0
   -2.6926   -0.8481    1.0174 N   0  0  0  0  0  0  0  0  0  0  0  0
   -3.4926   -0.3971    0.5954 H   0  0  0  0  0  0  0  0  0  0  0  0
   -1.4216   -0.1071    1.0434 C   0  0  1  0  0  0  0  0  0  0  0  0
   -0.7579   -0.5878    1.7640 H   0  0  0  0  0  0  0  0  0  0  0  0
   -0.7791   -0.1912   -0.3557 C   0  0  0  0  0  0  0  0  0  0  0  0
   -1.0839   -1.1296   -0.8232 H   0  0  0  0  0  0  0  0  0  0  0  0
   -1.1530    0.6308   -0.9700 H   0  0  0  0  0  0  0  0  0  0  0  0
    0.7555   -0.1421   -0.3277 C   0  0  0  0  0  0  0  0  0  0  0  0
    1.0994    0.8388   -0.6588 H   0  0  0  0  0  0  0  0  0  0  0  0
    1.1036   -0.3212    0.6901 H   0  0  0  0  0  0  0  0  0  0  0  0
    1.3297   -1.2173   -1.2602 C   0  0  0  0  0  0  0  0  0  0  0  0
    0.9590   -2.1929   -0.9375 H   0  0  0  0  0  0  0  0  0  0  0  0
    0.9744   -1.0232   -2.2750 H   0  0  0  0  0  0  0  0  0  0  0  0
    2.8071   -1.2225   -1.2469 N   0  3  0  0  0  0  0  0  0  0  0  0
    3.2563   -0.5177   -0.6876 H   0  0  0  0  0  0  0  0  0  0  0  0
    3.5916   -2.0643   -1.8988 C   0  0  0  0  0  0  0  0  0  0  0  0
    3.1141   -3.0152   -2.6519 N   0  0  0  0  0  0  0  0  0  0  0  0
    2.1175   -3.1104   -2.7371 H   0  0  0  0  0  0  0  0  0  0  0  0
    3.7234   -3.6454   -3.1401 H   0  0  0  0  0  0  0  0  0  0  0  0
    4.8873   -1.9650   -1.8063 N   0  0  0  0  0  0  0  0  0  0  0  0
    5.3026   -1.2477   -1.2371 H   0  0  0  0  0  0  0  0  0  0  0  0
    5.4788   -2.6058   -2.3025 H   0  0  0  0  0  0  0  0  0  0  0  0
   -1.6547    1.3413    1.4779 C   0  0  0  0  0  0  0  0  0  0  0  0
   -2.5654    1.9858    0.9716 O   0  0  0  0  0  0  0  0  0  0  0  0
   -0.8107    1.8504    2.3808 N   0  0  0  0  0  0  0  0  0  0  0  0
   -0.1136    1.2381    2.7719 H   0  0  0  0  0  0  0  0  0  0  0  0
   -0.8954    3.2155    2.9026 C   0  0  0  0  0  0  0  0  0  0  0  0
   -1.8299    3.3430    3.4532 H   0  0  0  0  0  0  0  0  0  0  0  0
   -0.0581    3.4194    3.5712 H   0  0  0  0  0  0  0  0  0  0  0  0
   -0.8804    3.9320    2.0784 H   0  0  0  0  0  0  0  0  0  0  0  0
  5  6  2  0  0  0  0
  5  7  1  0  0  0  0
  2  3  1  0  0  0  0
  2  4  1  0  0  0  0
  2  5  1  0  0  0  0
  1  2  1  0  0  0  0
 29 30  2  0  0  0  0
 29 31  1  0  0  0  0
 26 27  1  0  0  0  0
 26 28  1  0  0  0  0
 23 24  1  0  0  0  0
 23 25  1  0  0  0  0
 22 23  1  0  0  0  0
 22 26  1  0  0  0  0
 20 21  1  0  0  0  0
 20 22  2  0  0  0  0
 17 18  1  0  0  0  0
 17 19  1  0  0  0  0
 17 20  1  0  0  0  0
 14 15  1  0  0  0  0
 14 16  1  0  0  0  0
 14 17  1  0  0  0  0
 11 12  1  0  0  0  0
 11 13  1  0  0  0  0
 11 14  1  0  0  0  0
  9 10  1  0  0  0  0
  9 11  1  0  0  0  0
  9 29  1  0  0  0  0
  7  8  1  0  0  0  0
  7  9  1  0  0  0  0
 33 34  1  0  0  0  0
 33 35  1  0  0  0  0
 33 36  1  0  0  0  0
 31 32  1  0  0  0  0
 31 33  1  0  0  0  0
M  CHG  1  20   1
M  END
$$$$
default_name
  -OEChem-02102213163D

 36 35  0     1  0  0  0  0  0999 V2000
   -4.2256   -3.6731    1.8584 H   0  0  0  0  0  0  0  0  0  0  0  0
   -4.2396   -2.6781    1.4144 C   0  0  0  0  0  0  0  0  0  0  0  0
   -4.9506   -2.0521    1.9514 H   0  0  0  0  0  0  0  0  0  0  0  0
   -4.5266   -2.7521    0.3674 H   0  0  0  0  0  0  0  0  0  0  0  0
   -2.8576   -2.0761    1.5184 C   0  0  0  0  0  0  0  0  0  0  0  0
   -1.9456   -2.7051    2.0404 O   0  0  0  0  0  0  0  0  0  0  0  0
   -2.6926   -0.8481    1.0174 N   0  0  0  0  0  0  0  0  0  0  0  0
   -3.4926   -0.3971    0.5954 H   0  0  0  0  0  0  0  0  0  0  0  0
   -1.4216   -0.1071    1.0434 C   0  0  1  0  0  0  0  0  0  0  0  0
   -0.7579   -0.5878    1.7640 H   0  0  0  0  0  0  0  0  0  0  0  0
   -0.7791   -0.1912   -0.3557 C   0  0  0  0  0  0  0  0  0  0  0  0
   -1.0839   -1.1296   -0.8232 H   0  0  0  0  0  0  0  0  0  0  0  0
   -1.1530    0.6308   -0.9700 H   0  0  0  0  0  0  0  0  0  0  0  0
    0.7555   -0.1421   -0.3277 C   0  0  0  0  0  0  0  0  0  0  0  0
    1.0928    0.8930   -0.3965 H   0  0  0  0  0  0  0  0  0  0  0  0
    1.1133   -0.5763    0.6064 H   0  0  0  0  0  0  0  0  0  0  0  0
    1.3253   -0.9362   -1.5109 C   0  0  0  0  0  0  0  0  0  0  0  0
    0.9610   -1.9642   -1.4487 H   0  0  0  0  0  0  0  0  0  0  0  0
    0.9603   -0.4883   -2.4382 H   0  0  0  0  0  0  0  0  0  0  0  0
    2.8027   -0.9361   -1.5107 N   0  3  0  0  0  0  0  0  0  0  0  0
    3.2543   -0.3973   -0.7916 H   0  0  0  0  0  0  0  0  0  0  0  0
    3.5845   -1.5761   -2.3642 C   0  0  0  0  0  0  0  0  0  0  0  0
    3.1037   -2.3026   -3.3339 N   0  0  0  0  0  0  0  0  0  0  0  0
    2.1068   -2.3784   -3.4332 H   0  0  0  0  0  0  0  0  0  0  0  0
    3.7110   -2.7815   -3.9732 H   0  0  0  0  0  0  0  0  0  0  0  0
    4.8806   -1.4966   -2.2591 N   0  0  0  0  0  0  0  0  0  0  0  0
    5.2983   -0.9484   -1.5269 H   0  0  0  0  0  0  0  0  0  0  0  0
    5.4700   -1.9837   -2.9086 H   0  0  0  0  0  0  0  0  0  0  0  0
   -1.6547    1.3413    1.4779 C   0  0  0  0  0  0  0  0  0  0  0  0
   -2.5654    1.9858    0.9716 O   0  0  0  0  0  0  0  0  0  0  0  0
   -0.8107    1.8504    2.3808 N   0  0  0  0  0  0  0  0  0  0  0  0
   -0.1136    1.2381    2.7719 H   0  0  0  0  0  0  0  0  0  0  0  0
   -0.8954    3.2155    2.9026 C   0  0  0  0  0  0  0  0  0  0  0  0
   -1.8299    3.3430    3.4532 H   0  0  0  0  0  0  0  0  0  0  0  0
   -0.0581    3.4194    3.5712 H   0  0  0  0  0  0  0  0  0  0  0  0
   -0.8804    3.9320    2.0784 H   0  0  0  0  0  0  0  0  0  0  0  0
  5  6  2  0  0  0  0
  5  7  1  0  0  0  0
  2  3  1  0  0  0  0
  2  4  1  0  0  0  0
  2  5  1  0  0  0  0
  1  2  1  0  0  0  0
 29 30  2  0  0  0  0
 29 31  1  0  0  0  0
 26 27  1  0  0  0  0
 26 28  1  0  0  0  0
 23 24  1  0  0  0  0
 23 25  1  0  0  0  0
 22 23  1  0  0  0  0
 22 26  1  0  0  0  0
 20 21  1  0  0  0  0
 20 22  2  0  0  0  0
 17 18  1  0  0  0  0
 17 19  1  0  0  0  0
 17 20  1  0  0  0  0
 14 15  1  0  0  0  0
 14 16  1  0  0  0  0
 14 17  1  0  0  0  0
 11 12  1  0  0  0  0
 11 13  1  0  0  0  0
 11 14  1  0  0  0  0
  9 10  1  0  0  0  0
  9 11  1  0  0  0  0
  9 29  1  0  0  0  0
  7  8  1  0  0  0  0
  7  9  1  0  0  0  0
 33 34  1  0  0  0  0
 33 35  1  0  0  0  0
 33 36  1  0  0  0  0
 31 32  1  0  0  0  0
 31 33  1  0  0  0  0
M  CHG  1  20   1
M  END
$$$$
default_name
  -OEChem-02102213163D

 36 35  0     1  0  0  0  0  0999 V2000
   -4.2256   -3.6731    1.8584 H   0  0  0  0  0  0  0  0  0  0  0  0
   -4.2396   -2.6781    1.4144 C   0  0  0  0  0  0  0  0  0  0  0  0
   -4.9506   -2.0521    1.9514 H   0  0  0  0  0  0  0  0  0  0  0  0
   -4.5266   -2.7521    0.3674 H   0  0  0  0  0  0  0  0  0  0  0  0
   -2.8576   -2.0761    1.5184 C   0  0  0  0  0  0  0  0  0  0  0  0
   -1.9456   -2.7051    2.0404 O   0  0  0  0  0  0  0  0  0  0  0  0
   -2.6926   -0.8481    1.0174 N   0  0  0  0  0  0  0  0  0  0  0  0
   -3.4926   -0.3971    0.5954 H   0  0  0  0  0  0  0  0  0  0  0  0
   -1.4216   -0.1071    1.0434 C   0  0  1  0  0  0  0  0  0  0  0  0
   -0.7579   -0.5878    1.7640 H   0  0  0  0  0  0  0  0  0  0  0  0
   -0.7791   -0.1912   -0.3557 C   0  0  0  0  0  0  0  0  0  0  0  0
   -1.0839   -1.1296   -0.8232 H   0  0  0  0  0  0  0  0  0  0  0  0
   -1.1530    0.6308   -0.9700 H   0  0  0  0  0  0  0  0  0  0  0  0
    0.7555   -0.1421   -0.3277 C   0  0  0  0  0  0  0  0  0  0  0  0
    1.0885    0.8776   -0.1290 H   0  0  0  0  0  0  0  0  0  0  0  0
    1.1232   -0.8011    0.4595 H   0  0  0  0  0  0  0  0  0  0  0  0
    1.3177   -0.5998   -1.6804 C   0  0  0  0  0  0  0  0  0  0  0  0
    0.9577   -1.6110   -1.8834 H   0  0  0  0  0  0  0  0  0  0  0  0
    0.9428    0.0705   -2.4574 H   0  0  0  0  0  0  0  0  0  0  0  0
    2.7950   -0.5912   -1.6915 N   0  3  0  0  0  0  0  0  0  0  0  0
    3.2510   -0.2541   -0.8610 H   0  0  0  0  0  0  0  0  0  0  0  0
    3.5714   -0.9842   -2.6873 C   0  0  0  0  0  0  0  0  0  0  0  0
    3.0847   -1.4379   -3.8083 N   0  0  0  0  0  0  0  0  0  0  0  0
    2.0873   -1.4912   -3.9162 H   0  0  0  0  0  0  0  0  0  0  0  0
    3.6880   -1.7317   -4.5543 H   0  0  0  0  0  0  0  0  0  0  0  0
    4.8682   -0.9270   -2.5752 N   0  0  0  0  0  0  0  0  0  0  0  0
    5.2903   -0.5845   -1.7294 H   0  0  0  0  0  0  0  0  0  0  0  0
    5.4535   -1.2262   -3.3331 H   0  0  0  0  0  0  0  0  0  0  0  0
   -1.6547    1.3413    1.4779 C   0  0  0  0  0  0  0  0  0  0  0  0
   -2.5654    1.9858    0.9716 O   0  0  0  0  0  0  0  0  0  0  0  0
   -0.8107    1.8504    2.3808 N   0  0  0  0  0  0  0  0  0  0  0  0
   -0.1136    1.2381    2.7719 H   0  0  0  0  0  0  0  0  0  0  0  0
   -0.8954    3.2155    2.9026 C   0  0  0  0  0  0  0  0  0  0  0  0
   -1.8299    3.3430    3.4532 H   0  0  0  0  0  0  0  0  0  0  0  0
   -0.0581    3.4194    3.5712 H   0  0  0  0  0  0  0  0  0  0  0  0
   -0.8804    3.9320    2.0784 H   0  0  0  0  0  0  0  0  0  0  0  0
  5  6  2  0  0  0  0
  5  7  1  0  0  0  0
  2  3  1  0  0  0  0
  2  4  1  0  0  0  0
  2  5  1  0  0  0  0
  1  2  1  0  0  0  0
 29 30  2  0  0  0  0
 29 31  1  0  0  0  0
 26 27  1  0  0  0  0
 26 28  1  0  0  0  0
 23 24  1  0  0  0  0
 23 25  1  0  0  0  0
 22 23  1  0  0  0  0
 22 26  1  0  0  0  0
 20 21  1  0  0  0  0
 20 22  2  0  0  0  0
 17 18  1  0  0  0  0
 17 19  1  0  0  0  0
 17 20  1  0  0  0  0
 14 15  1  0  0  0  0
 14 16  1  0  0  0  0
 14 17  1  0  0  0  0
 11 12  1  0  0  0  0
 11 13  1  0  0  0  0
 11 14  1  0  0  0  0
  9 10  1  0  0  0  0
  9 11  1  0  0  0  0
  9 29  1  0  0  0  0
  7  8  1  0  0  0  0
  7  9  1  0  0  0  0
 33 34  1  0  0  0  0
 33 35  1  0  0  0  0
 33 36  1  0  0  0  0
 31 32  1  0  0  0  0
 31 33  1  0  0  0  0
M  CHG  1  20   1
M  END
$$$$
default_name
  -OEChem-02102213163D

 36 35  0     1  0  0  0  0  0999 V2000
   -4.2256   -3.6731    1.8584 H   0  0  0  0  0  0  0  0  0  0  0  0
   -4.2396   -2.6781    1.4144 C   0  0  0  0  0  0  0  0  0  0  0  0
   -4.9506   -2.0521    1.9514 H   0  0  0  0  0  0  0  0  0  0  0  0
   -4.5266   -2.7521    0.3674 H   0  0  0  0  0  0  0  0  0  0  0  0
   -2.8576   -2.0761    1.5184 C   0  0  0  0  0  0  0  0  0  0  0  0
   -1.9456   -2.7051    2.0404 O   0  0  0  0  0  0  0  0  0  0  0  0
   -2.6926   -0.8481    1.0174 N   0  0  0  0  0  0  0  0  0  0  0  0
   -3.4926   -0.3971    0.5954 H   0  0  0  0  0  0  0  0  0  0  0  0
   -1.4216   -0.1071    1.0434 C   0  0  1  0  0  0  0  0  0  0  0  0
   -0.7579   -0.5878    1.7640 H   0  0  0  0  0  0  0  0  0  0  0  0
   -0.7791   -0.1912   -0.3557 C   0  0  0  0  0  0  0  0  0  0  0  0
   -1.2823   -0.9763   -0.9235 H   0  0  0  0  0  0  0  0  0  0  0  0
   -0.9335    0.7562   -0.8768 H   0  0  0  0  0  0  0  0  0  0  0  0
    0.7230   -0.5083   -0.3206 C   0  0  0  0  0  0  0  0  0  0  0  0
    1.2515    0.2693    0.2327 H   0  0  0  0  0  0  0  0  0  0  0  0
    0.8775   -1.4690    0.1717 H   0  0  0  0  0  0  0  0  0  0  0  0
    1.2770   -0.5726   -1.7504 C   0  0  0  0  0  0  0  0  0  0  0  0
    0.7244   -1.3349   -2.3045 H   0  0  0  0  0  0  0  0  0  0  0  0
    1.1172    0.3964   -2.2291 H   0  0  0  0  0  0  0  0  0  0  0  0
    2.7177   -0.8995   -1.7661 N   0  3  0  0  0  0  0  0  0  0  0  0
    3.1695   -0.9928   -0.8725 H   0  0  0  0  0  0  0  0  0  0  0  0
    3.4664   -1.0807   -2.8411 C   0  0  0  0  0  0  0  0  0  0  0  0
    2.9822   -0.9831   -4.0475 N   0  0  0  0  0  0  0  0  0  0  0  0
    2.0082   -0.7646   -4.1617 H   0  0  0  0  0  0  0  0  0  0  0  0
    3.5643   -1.1232   -4.8528 H   0  0  0  0  0  0  0  0  0  0  0  0
    4.7321   -1.3658   -2.7233 N   0  0  0  0  0  0  0  0  0  0  0  0
    5.1510   -1.4519   -1.8133 H   0  0  0  0  0  0  0  0  0  0  0  0
    5.2965   -1.5026   -3.5415 H   0  0  0  0  0  0  0  0  0  0  0  0
   -1.6547    1.3413    1.4779 C   0  0  0  0  0  0  0  0  0  0  0  0
   -2.5654    1.9858    0.9716 O   0  0  0  0  0  0  0  0  0  0  0  0
   -0.8107    1.8504    2.3808 N   0  0  0  0  0  0  0  0  0  0  0  0
   -0.1136    1.2381    2.7719 H   0  0  0  0  0  0  0  0  0  0  0  0
   -0.8954    3.2155    2.9026 C   0  0  0  0  0  0  0  0  0  0  0  0
   -1.8299    3.3430    3.4532 H   0  0  0  0  0  0  0  0  0  0  0  0
   -0.0581    3.4194    3.5712 H   0  0  0  0  0  0  0  0  0  0  0  0
   -0.8804    3.9320    2.0784 H   0  0  0  0  0  0  0  0  0  0  0  0
  5  6  2  0  0  0  0
  5  7  1  0  0  0  0
  2  3  1  0  0  0  0
  2  4  1  0  0  0  0
  2  5  1  0  0  0  0
  1  2  1  0  0  0  0
 29 30  2  0  0  0  0
 29 31  1  0  0  0  0
 26 27  1  0  0  0  0
 26 28  1  0  0  0  0
 23 24  1  0  0  0  0
 23 25  1  0  0  0  0
 22 23  1  0  0  0  0
 22 26  1  0  0  0  0
 20 21  1  0  0  0  0
 20 22  2  0  0  0  0
 17 18  1  0  0  0  0
 17 19  1  0  0  0  0
 17 20  1  0  0  0  0
 14 15  1  0  0  0  0
 14 16  1  0  0  0  0
 14 17  1  0  0  0  0
 11 12  1  0  0  0  0
 11 13  1  0  0  0  0
 11 14  1  0  0  0  0
  9 10  1  0  0  0  0
  9 11  1  0  0  0  0
  9 29  1  0  0  0  0
  7  8  1  0  0  0  0
  7  9  1  0  0  0  0
 33 34  1  0  0  0  0
 33 35  1  0  0  0  0
 33 36  1  0  0  0  0
 31 32  1  0  0  0  0
 31 33  1  0  0  0  0
M  CHG  1  20   1
M  END
$$$$
default_name
  -OEChem-02102213163D

 36 35  0     1  0  0  0  0  0999 V2000
   -4.2256   -3.6731    1.8584 H   0  0  0  0  0  0  0  0  0  0  0  0
   -4.2396   -2.6781    1.4144 C   0  0  0  0  0  0  0  0  0  0  0  0
   -4.9506   -2.0521    1.9514 H   0  0  0  0  0  0  0  0  0  0  0  0
   -4.5266   -2.7521    0.3674 H   0  0  0  0  0  0  0  0  0  0  0  0
   -2.8576   -2.0761    1.5184 C   0  0  0  0  0  0  0  0  0  0  0  0
   -1.9456   -2.7051    2.0404 O   0  0  0  0  0  0  0  0  0  0  0  0
   -2.6926   -0.8481    1.0174 N   0  0  0  0  0  0  0  0  0  0  0  0
   -3.4926   -0.3971    0.5954 H   0  0  0  0  0  0  0  0  0  0  0  0
   -1.4216   -0.1071    1.0434 C   0  0  1  0  0  0  0  0  0  0  0  0
   -0.7579   -0.5878    1.7640 H   0  0  0  0  0  0  0  0  0  0  0  0
   -0.7791   -0.1912   -0.3557 C   0  0  0  0  0  0  0  0  0  0  0  0
   -1.2823   -0.9763   -0.9235 H   0  0  0  0  0  0  0  0  0  0  0  0
   -0.9335    0.7562   -0.8768 H   0  0  0  0  0  0  0  0  0  0  0  0
    0.7230   -0.5083   -0.3206 C   0  0  0  0  0  0  0  0  0  0  0  0
    1.2116    0.1032    0.4392 H   0  0  0  0  0  0  0  0  0  0  0  0
    0.8636   -1.5625   -0.0798 H   0  0  0  0  0  0  0  0  0  0  0  0
    1.3524   -0.2089   -1.6880 C   0  0  0  0  0  0  0  0  0  0  0  0
    0.8395   -0.8053   -2.4460 H   0  0  0  0  0  0  0  0  0  0  0  0
    1.2056    0.8500   -1.9138 H   0  0  0  0  0  0  0  0  0  0  0  0
    2.7959   -0.5225   -1.7077 N   0  3  0  0  0  0  0  0  0  0  0  0
    3.2012   -0.8396   -0.8436 H   0  0  0  0  0  0  0  0  0  0  0  0
    3.6025   -0.4262   -2.7514 C   0  0  0  0  0  0  0  0  0  0  0  0
    3.1813   -0.0257   -3.9182 N   0  0  0  0  0  0  0  0  0  0  0  0
    2.2120    0.2156   -4.0260 H   0  0  0  0  0  0  0  0  0  0  0  0
    3.8068    0.0422   -4.6999 H   0  0  0  0  0  0  0  0  0  0  0  0
    4.8638   -0.7331   -2.6411 N   0  0  0  0  0  0  0  0  0  0  0  0
    5.2352   -1.0473   -1.7611 H   0  0  0  0  0  0  0  0  0  0  0  0
    5.4722   -0.6586   -3.4354 H   0  0  0  0  0  0  0  0  0  0  0  0
   -1.6547    1.3413    1.4779 C   0  0  0  0  0  0  0  0  0  0  0  0
   -2.5654    1.9858    0.9716 O   0  0  0  0  0  0  0  0  0  0  0  0
   -0.8107    1.8504    2.3808 N   0  0  0  0  0  0  0  0  0  0  0  0
   -0.1136    1.2381    2.7719 H   0  0  0  0  0  0  0  0  0  0  0  0
   -0.8954    3.2155    2.9026 C   0  0  0  0  0  0  0  0  0  0  0  0
   -1.8299    3.3430    3.4532 H   0  0  0  0  0  0  0  0  0  0  0  0
   -0.0581    3.4194    3.5712 H   0  0  0  0  0  0  0  0  0  0  0  0
   -0.8804    3.9320    2.0784 H   0  0  0  0  0  0  0  0  0  0  0  0
  5  6  2  0  0  0  0
  5  7  1  0  0  0  0
  2  3  1  0  0  0  0
  2  4  1  0  0  0  0
  2  5  1  0  0  0  0
  1  2  1  0  0  0  0
 29 30  2  0  0  0  0
 29 31  1  0  0  0  0
 26 27  1  0  0  0  0
 26 28  1  0  0  0  0
 23 24  1  0  0  0  0
 23 25  1  0  0  0  0
 22 23  1  0  0  0  0
 22 26  1  0  0  0  0
 20 21  1  0  0  0  0
 20 22  2  0  0  0  0
 17 18  1  0  0  0  0
 17 19  1  0  0  0  0
 17 20  1  0  0  0  0
 14 15  1  0  0  0  0
 14 16  1  0  0  0  0
 14 17  1  0  0  0  0
 11 12  1  0  0  0  0
 11 13  1  0  0  0  0
 11 14  1  0  0  0  0
  9 10  1  0  0  0  0
  9 11  1  0  0  0  0
  9 29  1  0  0  0  0
  7  8  1  0  0  0  0
  7  9  1  0  0  0  0
 33 34  1  0  0  0  0
 33 35  1  0  0  0  0
 33 36  1  0  0  0  0
 31 32  1  0  0  0  0
 31 33  1  0  0  0  0
M  CHG  1  20   1
M  END
$$$$
default_name
  -OEChem-02102213163D

 36 35  0     1  0  0  0  0  0999 V2000
   -4.2256   -3.6731    1.8584 H   0  0  0  0  0  0  0  0  0  0  0  0
   -4.2396   -2.6781    1.4144 C   0  0  0  0  0  0  0  0  0  0  0  0
   -4.9506   -2.0521    1.9514 H   0  0  0  0  0  0  0  0  0  0  0  0
   -4.5266   -2.7521    0.3674 H   0  0  0  0  0  0  0  0  0  0  0  0
   -2.8576   -2.0761    1.5184 C   0  0  0  0  0  0  0  0  0  0  0  0
   -1.9456   -2.7051    2.0404 O   0  0  0  0  0  0  0  0  0  0  0  0
   -2.6926   -0.8481    1.0174 N   0  0  0  0  0  0  0  0  0  0  0  0
   -3.4926   -0.3971    0.5954 H   0  0  0  0  0  0  0  0  0  0  0  0
   -1.4216   -0.1071    1.0434 C   0  0  1  0  0  0  0  0  0  0  0  0
   -0.7579   -0.5878    1.7640 H   0  0  0  0  0  0  0  0  0  0  0  0
   -0.7791   -0.1912   -0.3557 C   0  0  0  0  0  0  0  0  0  0  0  0
   -1.2823   -0.9763   -0.9235 H   0  0  0  0  0  0  0  0  0  0  0  0
   -0.9335    0.7562   -0.8768 H   0  0  0  0  0  0  0  0  0  0  0  0
    0.7230   -0.5083   -0.3206 C   0  0  0  0  0  0  0  0  0  0  0  0
    1.1630   -0.1097    0.5946 H   0  0  0  0  0  0  0  0  0  0  0  0
    0.8642   -1.5893   -0.3471 H   0  0  0  0  0  0  0  0  0  0  0  0
    1.4197    0.1272   -1.5315 C   0  0  0  0  0  0  0  0  0  0  0  0
    0.9551   -0.2573   -2.4424 H   0  0  0  0  0  0  0  0  0  0  0  0
    1.2715    1.2088   -1.4897 H   0  0  0  0  0  0  0  0  0  0  0  0
    2.8662   -0.1727   -1.5516 N   0  3  0  0  0  0  0  0  0  0  0  0
    3.2293   -0.6987   -0.7752 H   0  0  0  0  0  0  0  0  0  0  0  0
    3.7253    0.1841   -2.4917 C   0  0  0  0  0  0  0  0  0  0  0  0
    3.3611    0.8676   -3.5403 N   0  0  0  0  0  0  0  0  0  0  0  0
    2.3958    1.1292   -3.6359 H   0  0  0  0  0  0  0  0  0  0  0  0
    4.0260    1.1306   -4.2443 H   0  0  0  0  0  0  0  0  0  0  0  0
    4.9829   -0.1419   -2.3944 N   0  0  0  0  0  0  0  0  0  0  0  0
    5.3114   -0.6691   -1.6037 H   0  0  0  0  0  0  0  0  0  0  0  0
    5.6313    0.1307   -3.1098 H   0  0  0  0  0  0  0  0  0  0  0  0
   -1.6547    1.3413    1.4779 C   0  0  0  0  0  0  0  0  0  0  0  0
   -2.5654    1.9858    0.9716 O   0  0  0  0  0  0  0  0  0  0  0  0
   -0.8107    1.8504    2.3808 N   0  0  0  0  0  0  0  0  0  0  0  0
   -0.1136    1.2381    2.7719 H   0  0  0  0  0  0  0  0  0  0  0  0
   -0.8954    3.2155    2.9026 C   0  0  0  0  0  0  0  0  0  0  0  0
   -1.8299    3.3430    3.4532 H   0  0  0  0  0  0  0  0  0  0  0  0
   -0.0581    3.4194    3.5712 H   0  0  0  0  0  0  0  0  0  0  0  0
   -0.8804    3.9320    2.0784 H   0  0  0  0  0  0  0  0  0  0  0  0
  5  6  2  0  0  0  0
  5  7  1  0  0  0  0
  2  3  1  0  0  0  0
  2  4  1  0  0  0  0
  2  5  1  0  0  0  0
  1  2  1  0  0  0  0
 29 30  2  0  0  0  0
 29 31  1  0  0  0  0
 26 27  1  0  0  0  0
 26 28  1  0  0  0  0
 23 24  1  0  0  0  0
 23 25  1  0  0  0  0
 22 23  1  0  0  0  0
 22 26  1  0  0  0  0
 20 21  1  0  0  0  0
 20 22  2  0  0  0  0
 17 18  1  0  0  0  0
 17 19  1  0  0  0  0
 17 20  1  0  0  0  0
 14 15  1  0  0  0  0
 14 16  1  0  0  0  0
 14 17  1  0  0  0  0
 11 12  1  0  0  0  0
 11 13  1  0  0  0  0
 11 14  1  0  0  0  0
  9 10  1  0  0  0  0
  9 11  1  0  0  0  0
  9 29  1  0  0  0  0
  7  8  1  0  0  0  0
  7  9  1  0  0  0  0
 33 34  1  0  0  0  0
 33 35  1  0  0  0  0
 33 36  1  0  0  0  0
 31 32  1  0  0  0  0
 31 33  1  0  0  0  0
M  CHG  1  20   1
M  END
$$$$
default_name
  -OEChem-02102213163D

 36 35  0     1  0  0  0  0  0999 V2000
   -4.2256   -3.6731    1.8584 H   0  0  0  0  0  0  0  0  0  0  0  0
   -4.2396   -2.6781    1.4144 C   0  0  0  0  0  0  0  0  0  0  0  0
   -4.9506   -2.0521    1.9514 H   0  0  0  0  0  0  0  0  0  0  0  0
   -4.5266   -2.7521    0.3674 H   0  0  0  0  0  0  0  0  0  0  0  0
   -2.8576   -2.0761    1.5184 C   0  0  0  0  0  0  0  0  0  0  0  0
   -1.9456   -2.7051    2.0404 O   0  0  0  0  0  0  0  0  0  0  0  0
   -2.6926   -0.8481    1.0174 N   0  0  0  0  0  0  0  0  0  0  0  0
   -3.4926   -0.3971    0.5954 H   0  0  0  0  0  0  0  0  0  0  0  0
   -1.4216   -0.1071    1.0434 C   0  0  1  0  0  0  0  0  0  0  0  0
   -0.7579   -0.5878    1.7640 H   0  0  0  0  0  0  0  0  0  0  0  0
   -0.7791   -0.1912   -0.3557 C   0  0  0  0  0  0  0  0  0  0  0  0
   -1.2823   -0.9763   -0.9235 H   0  0  0  0  0  0  0  0  0  0  0  0
   -0.9335    0.7562   -0.8768 H   0  0  0  0  0  0  0  0  0  0  0  0
    0.7230   -0.5083   -0.3206 C   0  0  0  0  0  0  0  0  0  0  0  0
    1.1090   -0.3550    0.6881 H   0  0  0  0  0  0  0  0  0  0  0  0
    0.8792   -1.5475   -0.6120 H   0  0  0  0  0  0  0  0  0  0  0  0
    1.4743    0.4125   -1.2917 C   0  0  0  0  0  0  0  0  0  0  0  0
    1.0634    0.2718   -2.2941 H   0  0  0  0  0  0  0  0  0  0  0  0
    1.3103    1.4484   -0.9857 H   0  0  0  0  0  0  0  0  0  0  0  0
    2.9236    0.1262   -1.3086 N   0  3  0  0  0  0  0  0  0  0  0  0
    3.2520   -0.5797   -0.6720 H   0  0  0  0  0  0  0  0  0  0  0  0
    3.8264    0.7086   -2.0797 C   0  0  0  0  0  0  0  0  0  0  0  0
    3.5093    1.6358   -2.9395 N   0  0  0  0  0  0  0  0  0  0  0  0
    2.5471    1.9140   -3.0180 H   0  0  0  0  0  0  0  0  0  0  0  0
    4.2069    2.0679   -3.5169 H   0  0  0  0  0  0  0  0  0  0  0  0
    5.0812    0.3673   -2.0001 N   0  0  0  0  0  0  0  0  0  0  0  0
    5.3743   -0.3433   -1.3519 H   0  0  0  0  0  0  0  0  0  0  0  0
    5.7629    0.8117   -2.5870 H   0  0  0  0  0  0  0  0  0  0  0  0
   -1.6547    1.3413    1.4779 C   0  0  0  0  0  0  0  0  0  0  0  0
   -2.5654    1.9858    0.9716 O   0  0  0  0  0  0  0  0  0  0  0  0
   -0.8107    1.8504    2.3808 N   0  0  0  0  0  0  0  0  0  0  0  0
   -0.1136    1.2381    2.7719 H   0  0  0  0  0  0  0  0  0  0  0  0
   -0.8954    3.2155    2.9026 C   0  0  0  0  0  0  0  0  0  0  0  0
   -1.8299    3.3430    3.4532 H   0  0  0  0  0  0  0  0  0  0  0  0
   -0.0581    3.4194    3.5712 H   0  0  0  0  0  0  0  0  0  0  0  0
   -0.8804    3.9320    2.0784 H   0  0  0  0  0  0  0  0  0  0  0  0
  5  6  2  0  0  0  0
  5  7  1  0  0  0  0
  2  3  1  0  0  0  0
  2  4  1  0  0  0  0
  2  5  1  0  0  0  0
  1  2  1  0  0  0  0
 29 30  2  0  0  0  0
 29 31  1  0  0  0  0
 26 27  1  0  0  0  0
 26 28  1  0  0  0  0
 23 24  1  0  0  0  0
 23 25  1  0  0  0  0
 22 23  1  0  0  0  0
 22 26  1  0  0  0  0
 20 21  1  0  0  0  0
 20 22  2  0  0  0  0
 17 18  1  0  0  0  0
 17 19  1  0  0  0  0
 17 20  1  0  0  0  0
 14 15  1  0  0  0  0
 14 16  1  0  0  0  0
 14 17  1  0  0  0  0
 11 12  1  0  0  0  0
 11 13  1  0  0  0  0
 11 14  1  0  0  0  0
  9 10  1  0  0  0  0
  9 11  1  0  0  0  0
  9 29  1  0  0  0  0
  7  8  1  0  0  0  0
  7  9  1  0  0  0  0
 33 34  1  0  0  0  0
 33 35  1  0  0  0  0
 33 36  1  0  0  0  0
 31 32  1  0  0  0  0
 31 33  1  0  0  0  0
M  CHG  1  20   1
M  END
$$$$
default_name
  -OEChem-02102213163D

 36 35  0     1  0  0  0  0  0999 V2000
   -4.2256   -3.6731    1.8584 H   0  0  0  0  0  0  0  0  0  0  0  0
   -4.2396   -2.6781    1.4144 C   0  0  0  0  0  0  0  0  0  0  0  0
   -4.9506   -2.0521    1.9514 H   0  0  0  0  0  0  0  0  0  0  0  0
   -4.5266   -2.7521    0.3674 H   0  0  0  0  0  0  0  0  0  0  0  0
   -2.8576   -2.0761    1.5184 C   0  0  0  0  0  0  0  0  0  0  0  0
   -1.9456   -2.7051    2.0404 O   0  0  0  0  0  0  0  0  0  0  0  0
   -2.6926   -0.8481    1.0174 N   0  0  0  0  0  0  0  0  0  0  0  0
   -3.4926   -0.3971    0.5954 H   0  0  0  0  0  0  0  0  0  0  0  0
   -1.4216   -0.1071    1.0434 C   0  0  1  0  0  0  0  0  0  0  0  0
   -0.7579   -0.5878    1.7640 H   0  0  0  0  0  0  0  0  0  0  0  0
   -0.7791   -0.1912   -0.3557 C   0  0  0  0  0  0  0  0  0  0  0  0
   -1.2823   -0.9763   -0.9235 H   0  0  0  0  0  0  0  0  0  0  0  0
   -0.9335    0.7562   -0.8768 H   0  0  0  0  0  0  0  0  0  0  0  0
    0.7230   -0.5083   -0.3206 C   0  0  0  0  0  0  0  0  0  0  0  0
    1.0533   -0.6159    0.7135 H   0  0  0  0  0  0  0  0  0  0  0  0
    0.9076   -1.4399   -0.8565 H   0  0  0  0  0  0  0  0  0  0  0  0
    1.5126    0.6278   -0.9849 C   0  0  0  0  0  0  0  0  0  0  0  0
    1.1569    0.7460   -2.0110 H   0  0  0  0  0  0  0  0  0  0  0  0
    1.3195    1.5525   -0.4361 H   0  0  0  0  0  0  0  0  0  0  0  0
    2.9643    0.3536   -0.9951 N   0  3  0  0  0  0  0  0  0  0  0  0
    3.2677   -0.4908   -0.5410 H   0  0  0  0  0  0  0  0  0  0  0  0
    3.8990    1.1115   -1.5436 C   0  0  0  0  0  0  0  0  0  0  0  0
    3.6158    2.2265   -2.1567 N   0  0  0  0  0  0  0  0  0  0  0  0
    2.6556    2.5166   -2.2143 H   0  0  0  0  0  0  0  0  0  0  0  0
    4.3373    2.7902   -2.5673 H   0  0  0  0  0  0  0  0  0  0  0  0
    5.1521    0.7600   -1.4850 N   0  0  0  0  0  0  0  0  0  0  0  0
    5.4197   -0.0919   -1.0229 H   0  0  0  0  0  0  0  0  0  0  0  0
    5.8580    1.3379   -1.9026 H   0  0  0  0  0  0  0  0  0  0  0  0
   -1.6547    1.3413    1.4779 C   0  0  0  0  0  0  0  0  0  0  0  0
   -2.5654    1.9858    0.9716 O   0  0  0  0  0  0  0  0  0  0  0  0
   -0.8107    1.8504    2.3808 N   0  0  0  0  0  0  0  0  0  0  0  0
   -0.1136    1.2381    2.7719 H   0  0  0  0  0  0  0  0  0  0  0  0
   -0.8954    3.2155    2.9026 C   0  0  0  0  0  0  0  0  0  0  0  0
   -1.8299    3.3430    3.4532 H   0  0  0  0  0  0  0  0  0  0  0  0
   -0.0581    3.4194    3.5712 H   0  0  0  0  0  0  0  0  0  0  0  0
   -0.8804    3.9320    2.0784 H   0  0  0  0  0  0  0  0  0  0  0  0
  5  6  2  0  0  0  0
  5  7  1  0  0  0  0
  2  3  1  0  0  0  0
  2  4  1  0  0  0  0
  2  5  1  0  0  0  0
  1  2  1  0  0  0  0
 29 30  2  0  0  0  0
 29 31  1  0  0  0  0
 26 27  1  0  0  0  0
 26 28  1  0  0  0  0
 23 24  1  0  0  0  0
 23 25  1  0  0  0  0
 22 23  1  0  0  0  0
 22 26  1  0  0  0  0
 20 21  1  0  0  0  0
 20 22  2  0  0  0  0
 17 18  1  0  0  0  0
 17 19  1  0  0  0  0
 17 20  1  0  0  0  0
 14 15  1  0  0  0  0
 14 16  1  0  0  0  0
 14 17  1  0  0  0  0
 11 12  1  0  0  0  0
 11 13  1  0  0  0  0
 11 14  1  0  0  0  0
  9 10  1  0  0  0  0
  9 11  1  0  0  0  0
  9 29  1  0  0  0  0
  7  8  1  0  0  0  0
  7  9  1  0  0  0  0
 33 34  1  0  0  0  0
 33 35  1  0  0  0  0
 33 36  1  0  0  0  0
 31 32  1  0  0  0  0
 31 33  1  0  0  0  0
M  CHG  1  20   1
M  END
$$$$
default_name
  -OEChem-02102213163D

 36 35  0     1  0  0  0  0  0999 V2000
   -4.2256   -3.6731    1.8584 H   0  0  0  0  0  0  0  0  0  0  0  0
   -4.2396   -2.6781    1.4144 C   0  0  0  0  0  0  0  0  0  0  0  0
   -4.9506   -2.0521    1.9514 H   0  0  0  0  0  0  0  0  0  0  0  0
   -4.5266   -2.7521    0.3674 H   0  0  0  0  0  0  0  0  0  0  0  0
   -2.8576   -2.0761    1.5184 C   0  0  0  0  0  0  0  0  0  0  0  0
   -1.9456   -2.7051    2.0404 O   0  0  0  0  0  0  0  0  0  0  0  0
   -2.6926   -0.8481    1.0174 N   0  0  0  0  0  0  0  0  0  0  0  0
   -3.4926   -0.3971    0.5954 H   0  0  0  0  0  0  0  0  0  0  0  0
   -1.4216   -0.1071    1.0434 C   0  0  1  0  0  0  0  0  0  0  0  0
   -0.7579   -0.5878    1.7640 H   0  0  0  0  0  0  0  0  0  0  0  0
   -0.7791   -0.1912   -0.3557 C   0  0  0  0  0  0  0  0  0  0  0  0
   -1.2823   -0.9763   -0.9235 H   0  0  0  0  0  0  0  0  0  0  0  0
   -0.9335    0.7562   -0.8768 H   0  0  0  0  0  0  0  0  0  0  0  0
    0.7230   -0.5083   -0.3206 C   0  0  0  0  0  0  0  0  0  0  0  0
    0.9997   -0.8747    0.6690 H   0  0  0  0  0  0  0  0  0  0  0  0
    0.9475   -1.2739   -1.0639 H   0  0  0  0  0  0  0  0  0  0  0  0
    1.5319    0.7582   -0.6320 C   0  0  0  0  0  0  0  0  0  0  0  0
    1.2293    1.1329   -1.6126 H   0  0  0  0  0  0  0  0  0  0  0  0
    1.2983    1.5140    0.1216 H   0  0  0  0  0  0  0  0  0  0  0  0
    2.9855    0.4942   -0.6325 N   0  3  0  0  0  0  0  0  0  0  0  0
    3.2754   -0.4380   -0.3911 H   0  0  0  0  0  0  0  0  0  0  0  0
    3.9380    1.3655   -0.9199 C   0  0  0  0  0  0  0  0  0  0  0  0
    3.6733    2.5997   -1.2454 N   0  0  0  0  0  0  0  0  0  0  0  0
    2.7139    2.8958   -1.2797 H   0  0  0  0  0  0  0  0  0  0  0  0
    4.4081    3.2483   -1.4603 H   0  0  0  0  0  0  0  0  0  0  0  0
    5.1907    1.0093   -0.8843 N   0  0  0  0  0  0  0  0  0  0  0  0
    5.4444    0.0678   -0.6389 H   0  0  0  0  0  0  0  0  0  0  0  0
    5.9102    1.6734   -1.1032 H   0  0  0  0  0  0  0  0  0  0  0  0
   -1.6547    1.3413    1.4779 C   0  0  0  0  0  0  0  0  0  0  0  0
   -2.5654    1.9858    0.9716 O   0  0  0  0  0  0  0  0  0  0  0  0
   -0.8107    1.8504    2.3808 N   0  0  0  0  0  0  0  0  0  0  0  0
   -0.1136    1.2381    2.7719 H   0  0  0  0  0  0  0  0  0  0  0  0
   -0.8954    3.2155    2.9026 C   0  0  0  0  0  0  0  0  0  0  0  0
   -1.8299    3.3430    3.4532 H   0  0  0  0  0  0  0  0  0  0  0  0
   -0.0581    3.4194    3.5712 H   0  0  0  0  0  0  0  0  0  0  0  0
   -0.8804    3.9320    2.0784 H   0  0  0  0  0  0  0  0  0  0  0  0
  5  6  2  0  0  0  0
  5  7  1  0  0  0  0
  2  3  1  0  0  0  0
  2  4  1  0  0  0  0
  2  5  1  0  0  0  0
  1  2  1  0  0  0  0
 29 30  2  0  0  0  0
 29 31  1  0  0  0  0
 26 27  1  0  0  0  0
 26 28  1  0  0  0  0
 23 24  1  0  0  0  0
 23 25  1  0  0  0  0
 22 23  1  0  0  0  0
 22 26  1  0  0  0  0
 20 21  1  0  0  0  0
 20 22  2  0  0  0  0
 17 18  1  0  0  0  0
 17 19  1  0  0  0  0
 17 20  1  0  0  0  0
 14 15  1  0  0  0  0
 14 16  1  0  0  0  0
 14 17  1  0  0  0  0
 11 12  1  0  0  0  0
 11 13  1  0  0  0  0
 11 14  1  0  0  0  0
  9 10  1  0  0  0  0
  9 11  1  0  0  0  0
  9 29  1  0  0  0  0
  7  8  1  0  0  0  0
  7  9  1  0  0  0  0
 33 34  1  0  0  0  0
 33 35  1  0  0  0  0
 33 36  1  0  0  0  0
 31 32  1  0  0  0  0
 31 33  1  0  0  0  0
M  CHG  1  20   1
M  END
$$$$
default_name
  -OEChem-02102213163D

 36 35  0     1  0  0  0  0  0999 V2000
   -4.2256   -3.6731    1.8584 H   0  0  0  0  0  0  0  0  0  0  0  0
   -4.2396   -2.6781    1.4144 C   0  0  0  0  0  0  0  0  0  0  0  0
   -4.9506   -2.0521    1.9514 H   0  0  0  0  0  0  0  0  0  0  0  0
   -4.5266   -2.7521    0.3674 H   0  0  0  0  0  0  0  0  0  0  0  0
   -2.8576   -2.0761    1.5184 C   0  0  0  0  0  0  0  0  0  0  0  0
   -1.9456   -2.7051    2.0404 O   0  0  0  0  0  0  0  0  0  0  0  0
   -2.6926   -0.8481    1.0174 N   0  0  0  0  0  0  0  0  0  0  0  0
   -3.4926   -0.3971    0.5954 H   0  0  0  0  0  0  0  0  0  0  0  0
   -1.4216   -0.1071    1.0434 C   0  0  1  0  0  0  0  0  0  0  0  0
   -0.7579   -0.5878    1.7640 H   0  0  0  0  0  0  0  0  0  0  0  0
   -0.7791   -0.1912   -0.3557 C   0  0  0  0  0  0  0  0  0  0  0  0
   -1.2823   -0.9763   -0.9235 H   0  0  0  0  0  0  0  0  0  0  0  0
   -0.9335    0.7562   -0.8768 H   0  0  0  0  0  0  0  0  0  0  0  0
    0.7230   -0.5083   -0.3206 C   0  0  0  0  0  0  0  0  0  0  0  0
    0.9519   -1.1137    0.5576 H   0  0  0  0  0  0  0  0  0  0  0  0
    0.9961   -1.0608   -1.2202 H   0  0  0  0  0  0  0  0  0  0  0  0
    1.5309    0.7950   -0.2571 C   0  0  0  0  0  0  0  0  0  0  0  0
    1.2756    1.4061   -1.1259 H   0  0  0  0  0  0  0  0  0  0  0  0
    1.2483    1.3354    0.6494 H   0  0  0  0  0  0  0  0  0  0  0  0
    2.9858    0.5383   -0.2456 N   0  3  0  0  0  0  0  0  0  0  0  0
    3.2744   -0.4250   -0.2325 H   0  0  0  0  0  0  0  0  0  0  0  0
    3.9409    1.4530   -0.2511 C   0  0  0  0  0  0  0  0  0  0  0  0
    3.6779    2.7297   -0.2676 N   0  0  0  0  0  0  0  0  0  0  0  0
    2.7179    3.0258   -0.2778 H   0  0  0  0  0  0  0  0  0  0  0  0
    4.4147    3.4109   -0.2712 H   0  0  0  0  0  0  0  0  0  0  0  0
    5.1944    1.0983   -0.2389 N   0  0  0  0  0  0  0  0  0  0  0  0
    5.4469    0.1251   -0.2263 H   0  0  0  0  0  0  0  0  0  0  0  0
    5.9159    1.7954   -0.2433 H   0  0  0  0  0  0  0  0  0  0  0  0
   -1.6547    1.3413    1.4779 C   0  0  0  0  0  0  0  0  0  0  0  0
   -2.5654    1.9858    0.9716 O   0  0  0  0  0  0  0  0  0  0  0  0
   -0.8107    1.8504    2.3808 N   0  0  0  0  0  0  0  0  0  0  0  0
   -0.1136    1.2381    2.7719 H   0  0  0  0  0  0  0  0  0  0  0  0
   -0.8954    3.2155    2.9026 C   0  0  0  0  0  0  0  0  0  0  0  0
   -1.8299    3.3430    3.4532 H   0  0  0  0  0  0  0  0  0  0  0  0
   -0.0581    3.4194    3.5712 H   0  0  0  0  0  0  0  0  0  0  0  0
   -0.8804    3.9320    2.0784 H   0  0  0  0  0  0  0  0  0  0  0  0
  5  6  2  0  0  0  0
  5  7  1  0  0  0  0
  2  3  1  0  0  0  0
  2  4  1  0  0  0  0
  2  5  1  0  0  0  0
  1  2  1  0  0  0  0
 29 30  2  0  0  0  0
 29 31  1  0  0  0  0
 26 27  1  0  0  0  0
 26 28  1  0  0  0  0
 23 24  1  0  0  0  0
 23 25  1  0  0  0  0
 22 23  1  0  0  0  0
 22 26  1  0  0  0  0
 20 21  1  0  0  0  0
 20 22  2  0  0  0  0
 17 18  1  0  0  0  0
 17 19  1  0  0  0  0
 17 20  1  0  0  0  0
 14 15  1  0  0  0  0
 14 16  1  0  0  0  0
 14 17  1  0  0  0  0
 11 12  1  0  0  0  0
 11 13  1  0  0  0  0
 11 14  1  0  0  0  0
  9 10  1  0  0  0  0
  9 11  1  0  0  0  0
  9 29  1  0  0  0  0
  7  8  1  0  0  0  0
  7  9  1  0  0  0  0
 33 34  1  0  0  0  0
 33 35  1  0  0  0  0
 33 36  1  0  0  0  0
 31 32  1  0  0  0  0
 31 33  1  0  0  0  0
M  CHG  1  20   1
M  END
$$$$
default_name
  -OEChem-02102213163D

 36 35  0     1  0  0  0  0  0999 V2000
   -4.2256   -3.6731    1.8584 H   0  0  0  0  0  0  0  0  0  0  0  0
   -4.2396   -2.6781    1.4144 C   0  0  0  0  0  0  0  0  0  0  0  0
   -4.9506   -2.0521    1.9514 H   0  0  0  0  0  0  0  0  0  0  0  0
   -4.5266   -2.7521    0.3674 H   0  0  0  0  0  0  0  0  0  0  0  0
   -2.8576   -2.0761    1.5184 C   0  0  0  0  0  0  0  0  0  0  0  0
   -1.9456   -2.7051    2.0404 O   0  0  0  0  0  0  0  0  0  0  0  0
   -2.6926   -0.8481    1.0174 N   0  0  0  0  0  0  0  0  0  0  0  0
   -3.4926   -0.3971    0.5954 H   0  0  0  0  0  0  0  0  0  0  0  0
   -1.4216   -0.1071    1.0434 C   0  0  1  0  0  0  0  0  0  0  0  0
   -0.7579   -0.5878    1.7640 H   0  0  0  0  0  0  0  0  0  0  0  0
   -0.7791   -0.1912   -0.3557 C   0  0  0  0  0  0  0  0  0  0  0  0
   -1.2823   -0.9763   -0.9235 H   0  0  0  0  0  0  0  0  0  0  0  0
   -0.9335    0.7562   -0.8768 H   0  0  0  0  0  0  0  0  0  0  0  0
    0.7230   -0.5083   -0.3206 C   0  0  0  0  0  0  0  0  0  0  0  0
    0.9130   -1.3166    0.3870 H   0  0  0  0  0  0  0  0  0  0  0  0
    1.0502   -0.8152   -1.3145 H   0  0  0  0  0  0  0  0  0  0  0  0
    1.5097    0.7356    0.1143 C   0  0  0  0  0  0  0  0  0  0  0  0
    1.2928    1.5472   -0.5841 H   0  0  0  0  0  0  0  0  0  0  0  0
    1.1728    1.0290    1.1113 H   0  0  0  0  0  0  0  0  0  0  0  0
    2.9651    0.4830    0.1394 N   0  3  0  0  0  0  0  0  0  0  0  0
    3.2650   -0.4525   -0.0761 H   0  0  0  0  0  0  0  0  0  0  0  0
    3.9074    1.3683    0.4172 C   0  0  0  0  0  0  0  0  0  0  0  0
    3.6294    2.6078    0.7101 N   0  0  0  0  0  0  0  0  0  0  0  0
    2.6675    2.8977    0.7230 H   0  0  0  0  0  0  0  0  0  0  0  0
    4.3565    3.2669    0.9189 H   0  0  0  0  0  0  0  0  0  0  0  0
    5.1630    1.0208    0.4072 N   0  0  0  0  0  0  0  0  0  0  0  0
    5.4269    0.0759    0.1869 H   0  0  0  0  0  0  0  0  0  0  0  0
    5.8747    1.6957    0.6185 H   0  0  0  0  0  0  0  0  0  0  0  0
   -1.6547    1.3413    1.4779 C   0  0  0  0  0  0  0  0  0  0  0  0
   -2.5654    1.9858    0.9716 O   0  0  0  0  0  0  0  0  0  0  0  0
   -0.8107    1.8504    2.3808 N   0  0  0  0  0  0  0  0  0  0  0  0
   -0.1136    1.2381    2.7719 H   0  0  0  0  0  0  0  0  0  0  0  0
   -0.8954    3.2155    2.9026 C   0  0  0  0  0  0  0  0  0  0  0  0
   -1.8299    3.3430    3.4532 H   0  0  0  0  0  0  0  0  0  0  0  0
   -0.0581    3.4194    3.5712 H   0  0  0  0  0  0  0  0  0  0  0  0
   -0.8804    3.9320    2.0784 H   0  0  0  0  0  0  0  0  0  0  0  0
  5  6  2  0  0  0  0
  5  7  1  0  0  0  0
  2  3  1  0  0  0  0
  2  4  1  0  0  0  0
  2  5  1  0  0  0  0
  1  2  1  0  0  0  0
 29 30  2  0  0  0  0
 29 31  1  0  0  0  0
 26 27  1  0  0  0  0
 26 28  1  0  0  0  0
 23 24  1  0  0  0  0
 23 25  1  0  0  0  0
 22 23  1  0  0  0  0
 22 26  1  0  0  0  0
 20 21  1  0  0  0  0
 20 22  2  0  0  0  0
 17 18  1  0  0  0  0
 17 19  1  0  0  0  0
 17 20  1  0  0  0  0
 14 15  1  0  0  0  0
 14 16  1  0  0  0  0
 14 17  1  0  0  0  0
 11 12  1  0  0  0  0
 11 13  1  0  0  0  0
 11 14  1  0  0  0  0
  9 10  1  0  0  0  0
  9 11  1  0  0  0  0
  9 29  1  0  0  0  0
  7  8  1  0  0  0  0
  7  9  1  0  0  0  0
 33 34  1  0  0  0  0
 33 35  1  0  0  0  0
 33 36  1  0  0  0  0
 31 32  1  0  0  0  0
 31 33  1  0  0  0  0
M  CHG  1  20   1
M  END
$$$$
default_name
  -OEChem-02102213163D

 36 35  0     1  0  0  0  0  0999 V2000
   -4.2256   -3.6731    1.8584 H   0  0  0  0  0  0  0  0  0  0  0  0
   -4.2396   -2.6781    1.4144 C   0  0  0  0  0  0  0  0  0  0  0  0
   -4.9506   -2.0521    1.9514 H   0  0  0  0  0  0  0  0  0  0  0  0
   -4.5266   -2.7521    0.3674 H   0  0  0  0  0  0  0  0  0  0  0  0
   -2.8576   -2.0761    1.5184 C   0  0  0  0  0  0  0  0  0  0  0  0
   -1.9456   -2.7051    2.0404 O   0  0  0  0  0  0  0  0  0  0  0  0
   -2.6926   -0.8481    1.0174 N   0  0  0  0  0  0  0  0  0  0  0  0
   -3.4926   -0.3971    0.5954 H   0  0  0  0  0  0  0  0  0  0  0  0
   -1.4216   -0.1071    1.0434 C   0  0  1  0  0  0  0  0  0  0  0  0
   -0.7579   -0.5878    1.7640 H   0  0  0  0  0  0  0  0  0  0  0  0
   -0.7791   -0.1912   -0.3557 C   0  0  0  0  0  0  0  0  0  0  0  0
   -1.2823   -0.9763   -0.9235 H   0  0  0  0  0  0  0  0  0  0  0  0
   -0.9335    0.7562   -0.8768 H   0  0  0  0  0  0  0  0  0  0  0  0
    0.7230   -0.5083   -0.3206 C   0  0  0  0  0  0  0  0  0  0  0  0
    0.8858   -1.4697    0.1687 H   0  0  0  0  0  0  0  0  0  0  0  0
    1.1060   -0.5537   -1.3405 H   0  0  0  0  0  0  0  0  0  0  0  0
    1.4697    0.5841    0.4569 C   0  0  0  0  0  0  0  0  0  0  0  0
    1.2795    1.5463   -0.0242 H   0  0  0  0  0  0  0  0  0  0  0  0
    1.0770    0.6157    1.4759 H   0  0  0  0  0  0  0  0  0  0  0  0
    2.9249    0.3319    0.4961 N   0  3  0  0  0  0  0  0  0  0  0  0
    3.2476   -0.5187    0.0676 H   0  0  0  0  0  0  0  0  0  0  0  0
    3.8399    1.1171    1.0396 C   0  0  0  0  0  0  0  0  0  0  0  0
    3.5309    2.2422    1.6210 N   0  0  0  0  0  0  0  0  0  0  0  0
    2.5661    2.5203    1.6547 H   0  0  0  0  0  0  0  0  0  0  0  0
    4.2376    2.8262    2.0289 H   0  0  0  0  0  0  0  0  0  0  0  0
    5.0985    0.7822    1.0101 N   0  0  0  0  0  0  0  0  0  0  0  0
    5.3857   -0.0762    0.5724 H   0  0  0  0  0  0  0  0  0  0  0  0
    5.7894    1.3808    1.4235 H   0  0  0  0  0  0  0  0  0  0  0  0
   -1.6547    1.3413    1.4779 C   0  0  0  0  0  0  0  0  0  0  0  0
   -2.5654    1.9858    0.9716 O   0  0  0  0  0  0  0  0  0  0  0  0
   -0.8107    1.8504    2.3808 N   0  0  0  0  0  0  0  0  0  0  0  0
   -0.1136    1.2381    2.7719 H   0  0  0  0  0  0  0  0  0  0  0  0
   -0.8954    3.2155    2.9026 C   0  0  0  0  0  0  0  0  0  0  0  0
   -1.8299    3.3430    3.4532 H   0  0  0  0  0  0  0  0  0  0  0  0
   -0.0581    3.4194    3.5712 H   0  0  0  0  0  0  0  0  0  0  0  0
   -0.8804    3.9320    2.0784 H   0  0  0  0  0  0  0  0  0  0  0  0
  5  6  2  0  0  0  0
  5  7  1  0  0  0  0
  2  3  1  0  0  0  0
  2  4  1  0  0  0  0
  2  5  1  0  0  0  0
  1  2  1  0  0  0  0
 29 30  2  0  0  0  0
 29 31  1  0  0  0  0
 26 27  1  0  0  0  0
 26 28  1  0  0  0  0
 23 24  1  0  0  0  0
 23 25  1  0  0  0  0
 22 23  1  0  0  0  0
 22 26  1  0  0  0  0
 20 21  1  0  0  0  0
 20 22  2  0  0  0  0
 17 18  1  0  0  0  0
 17 19  1  0  0  0  0
 17 20  1  0  0  0  0
 14 15  1  0  0  0  0
 14 16  1  0  0  0  0
 14 17  1  0  0  0  0
 11 12  1  0  0  0  0
 11 13  1  0  0  0  0
 11 14  1  0  0  0  0
  9 10  1  0  0  0  0
  9 11  1  0  0  0  0
  9 29  1  0  0  0  0
  7  8  1  0  0  0  0
  7  9  1  0  0  0  0
 33 34  1  0  0  0  0
 33 35  1  0  0  0  0
 33 36  1  0  0  0  0
 31 32  1  0  0  0  0
 31 33  1  0  0  0  0
M  CHG  1  20   1
M  END
$$$$
default_name
  -OEChem-02102213163D

 36 35  0     1  0  0  0  0  0999 V2000
   -4.2256   -3.6731    1.8584 H   0  0  0  0  0  0  0  0  0  0  0  0
   -4.2396   -2.6781    1.4144 C   0  0  0  0  0  0  0  0  0  0  0  0
   -4.9506   -2.0521    1.9514 H   0  0  0  0  0  0  0  0  0  0  0  0
   -4.5266   -2.7521    0.3674 H   0  0  0  0  0  0  0  0  0  0  0  0
   -2.8576   -2.0761    1.5184 C   0  0  0  0  0  0  0  0  0  0  0  0
   -1.9456   -2.7051    2.0404 O   0  0  0  0  0  0  0  0  0  0  0  0
   -2.6926   -0.8481    1.0174 N   0  0  0  0  0  0  0  0  0  0  0  0
   -3.4926   -0.3971    0.5954 H   0  0  0  0  0  0  0  0  0  0  0  0
   -1.4216   -0.1071    1.0434 C   0  0  1  0  0  0  0  0  0  0  0  0
   -0.7579   -0.5878    1.7640 H   0  0  0  0  0  0  0  0  0  0  0  0
   -0.7791   -0.1912   -0.3557 C   0  0  0  0  0  0  0  0  0  0  0  0
   -1.2823   -0.9763   -0.9235 H   0  0  0  0  0  0  0  0  0  0  0  0
   -0.9335    0.7562   -0.8768 H   0  0  0  0  0  0  0  0  0  0  0  0
    0.7230   -0.5083   -0.3206 C   0  0  0  0  0  0  0  0  0  0  0  0
    0.8720   -1.5624   -0.0824 H   0  0  0  0  0  0  0  0  0  0  0  0
    1.1598   -0.2942   -1.2965 H   0  0  0  0  0  0  0  0  0  0  0  0
    1.4137    0.3508    0.7473 C   0  0  0  0  0  0  0  0  0  0  0  0
    1.2368    1.4037    0.5157 H   0  0  0  0  0  0  0  0  0  0  0  0
    0.9675    0.1236    1.7183 H   0  0  0  0  0  0  0  0  0  0  0  0
    2.8679    0.0955    0.8002 N   0  3  0  0  0  0  0  0  0  0  0  0
    3.2236   -0.6192    0.1886 H   0  0  0  0  0  0  0  0  0  0  0  0
    3.7428    0.7165    1.5735 C   0  0  0  0  0  0  0  0  0  0  0  0
    3.3893    1.6579    2.4030 N   0  0  0  0  0  0  0  0  0  0  0  0
    2.4205    1.9194    2.4536 H   0  0  0  0  0  0  0  0  0  0  0  0
    4.0659    2.1189    2.9831 H   0  0  0  0  0  0  0  0  0  0  0  0
    5.0055    0.3988    1.5285 N   0  0  0  0  0  0  0  0  0  0  0  0
    5.3263   -0.3211    0.9042 H   0  0  0  0  0  0  0  0  0  0  0  0
    5.6659    0.8725    2.1168 H   0  0  0  0  0  0  0  0  0  0  0  0
   -1.6547    1.3413    1.4779 C   0  0  0  0  0  0  0  0  0  0  0  0
   -2.5654    1.9858    0.9716 O   0  0  0  0  0  0  0  0  0  0  0  0
   -0.8107    1.8504    2.3808 N   0  0  0  0  0  0  0  0  0  0  0  0
   -0.1136    1.2381    2.7719 H   0  0  0  0  0  0  0  0  0  0  0  0
   -0.8954    3.2155    2.9026 C   0  0  0  0  0  0  0  0  0  0  0  0
   -1.8299    3.3430    3.4532 H   0  0  0  0  0  0  0  0  0  0  0  0
   -0.0581    3.4194    3.5712 H   0  0  0  0  0  0  0  0  0  0  0  0
   -0.8804    3.9320    2.0784 H   0  0  0  0  0  0  0  0  0  0  0  0
  5  6  2  0  0  0  0
  5  7  1  0  0  0  0
  2  3  1  0  0  0  0
  2  4  1  0  0  0  0
  2  5  1  0  0  0  0
  1  2  1  0  0  0  0
 29 30  2  0  0  0  0
 29 31  1  0  0  0  0
 26 27  1  0  0  0  0
 26 28  1  0  0  0  0
 23 24  1  0  0  0  0
 23 25  1  0  0  0  0
 22 23  1  0  0  0  0
 22 26  1  0  0  0  0
 20 21  1  0  0  0  0
 20 22  2  0  0  0  0
 17 18  1  0  0  0  0
 17 19  1  0  0  0  0
 17 20  1  0  0  0  0
 14 15  1  0  0  0  0
 14 16  1  0  0  0  0
 14 17  1  0  0  0  0
 11 12  1  0  0  0  0
 11 13  1  0  0  0  0
 11 14  1  0  0  0  0
  9 10  1  0  0  0  0
  9 11  1  0  0  0  0
  9 29  1  0  0  0  0
  7  8  1  0  0  0  0
  7  9  1  0  0  0  0
 33 34  1  0  0  0  0
 33 35  1  0  0  0  0
 33 36  1  0  0  0  0
 31 32  1  0  0  0  0
 31 33  1  0  0  0  0
M  CHG  1  20   1
M  END
$$$$
default_name
  -OEChem-02102213163D

 36 35  0     1  0  0  0  0  0999 V2000
   -4.2256   -3.6731    1.8584 H   0  0  0  0  0  0  0  0  0  0  0  0
   -4.2396   -2.6781    1.4144 C   0  0  0  0  0  0  0  0  0  0  0  0
   -4.9506   -2.0521    1.9514 H   0  0  0  0  0  0  0  0  0  0  0  0
   -4.5266   -2.7521    0.3674 H   0  0  0  0  0  0  0  0  0  0  0  0
   -2.8576   -2.0761    1.5184 C   0  0  0  0  0  0  0  0  0  0  0  0
   -1.9456   -2.7051    2.0404 O   0  0  0  0  0  0  0  0  0  0  0  0
   -2.6926   -0.8481    1.0174 N   0  0  0  0  0  0  0  0  0  0  0  0
   -3.4926   -0.3971    0.5954 H   0  0  0  0  0  0  0  0  0  0  0  0
   -1.4216   -0.1071    1.0434 C   0  0  1  0  0  0  0  0  0  0  0  0
   -0.7579   -0.5878    1.7640 H   0  0  0  0  0  0  0  0  0  0  0  0
   -0.7791   -0.1912   -0.3557 C   0  0  0  0  0  0  0  0  0  0  0  0
   -1.2823   -0.9763   -0.9235 H   0  0  0  0  0  0  0  0  0  0  0  0
   -0.9335    0.7562   -0.8768 H   0  0  0  0  0  0  0  0  0  0  0  0
    0.7230   -0.5083   -0.3206 C   0  0  0  0  0  0  0  0  0  0  0  0
    0.8728   -1.5885   -0.3491 H   0  0  0  0  0  0  0  0  0  0  0  0
    1.2079   -0.0544   -1.1854 H   0  0  0  0  0  0  0  0  0  0  0  0
    1.3454    0.0516    0.9657 C   0  0  0  0  0  0  0  0  0  0  0  0
    1.1675    1.1289    0.9989 H   0  0  0  0  0  0  0  0  0  0  0  0
    0.8516   -0.4138    1.8220 H   0  0  0  0  0  0  0  0  0  0  0  0
    2.7979   -0.2102    1.0311 N   0  3  0  0  0  0  0  0  0  0  0  0
    3.1945   -0.7470    0.2788 H   0  0  0  0  0  0  0  0  0  0  0  0
    3.6229    0.1938    1.9826 C   0  0  0  0  0  0  0  0  0  0  0  0
    3.2141    0.8947    3.0029 N   0  0  0  0  0  0  0  0  0  0  0  0
    2.2408    1.1357    3.0654 H   0  0  0  0  0  0  0  0  0  0  0  0
    3.8533    1.1930    3.7165 H   0  0  0  0  0  0  0  0  0  0  0  0
    4.8901   -0.1034    1.9272 N   0  0  0  0  0  0  0  0  0  0  0  0
    5.2526   -0.6420    1.1594 H   0  0  0  0  0  0  0  0  0  0  0  0
    5.5125    0.2051    2.6511 H   0  0  0  0  0  0  0  0  0  0  0  0
   -1.6547    1.3413    1.4779 C   0  0  0  0  0  0  0  0  0  0  0  0
   -2.5654    1.9858    0.9716 O   0  0  0  0  0  0  0  0  0  0  0  0
   -0.8107    1.8504    2.3808 N   0  0  0  0  0  0  0  0  0  0  0  0
   -0.1136    1.2381    2.7719 H   0  0  0  0  0  0  0  0  0  0  0  0
   -0.8954    3.2155    2.9026 C   0  0  0  0  0  0  0  0  0  0  0  0
   -1.8299    3.3430    3.4532 H   0  0  0  0  0  0  0  0  0  0  0  0
   -0.0581    3.4194    3.5712 H   0  0  0  0  0  0  0  0  0  0  0  0
   -0.8804    3.9320    2.0784 H   0  0  0  0  0  0  0  0  0  0  0  0
  5  6  2  0  0  0  0
  5  7  1  0  0  0  0
  2  3  1  0  0  0  0
  2  4  1  0  0  0  0
  2  5  1  0  0  0  0
  1  2  1  0  0  0  0
 29 30  2  0  0  0  0
 29 31  1  0  0  0  0
 26 27  1  0  0  0  0
 26 28  1  0  0  0  0
 23 24  1  0  0  0  0
 23 25  1  0  0  0  0
 22 23  1  0  0  0  0
 22 26  1  0  0  0  0
 20 21  1  0  0  0  0
 20 22  2  0  0  0  0
 17 18  1  0  0  0  0
 17 19  1  0  0  0  0
 17 20  1  0  0  0  0
 14 15  1  0  0  0  0
 14 16  1  0  0  0  0
 14 17  1  0  0  0  0
 11 12  1  0  0  0  0
 11 13  1  0  0  0  0
 11 14  1  0  0  0  0
  9 10  1  0  0  0  0
  9 11  1  0  0  0  0
  9 29  1  0  0  0  0
  7  8  1  0  0  0  0
  7  9  1  0  0  0  0
 33 34  1  0  0  0  0
 33 35  1  0  0  0  0
 33 36  1  0  0  0  0
 31 32  1  0  0  0  0
 31 33  1  0  0  0  0
M  CHG  1  20   1
M  END
$$$$
default_name
  -OEChem-02102213163D

 36 35  0     1  0  0  0  0  0999 V2000
   -4.2256   -3.6731    1.8584 H   0  0  0  0  0  0  0  0  0  0  0  0
   -4.2396   -2.6781    1.4144 C   0  0  0  0  0  0  0  0  0  0  0  0
   -4.9506   -2.0521    1.9514 H   0  0  0  0  0  0  0  0  0  0  0  0
   -4.5266   -2.7521    0.3674 H   0  0  0  0  0  0  0  0  0  0  0  0
   -2.8576   -2.0761    1.5184 C   0  0  0  0  0  0  0  0  0  0  0  0
   -1.9456   -2.7051    2.0404 O   0  0  0  0  0  0  0  0  0  0  0  0
   -2.6926   -0.8481    1.0174 N   0  0  0  0  0  0  0  0  0  0  0  0
   -3.4926   -0.3971    0.5954 H   0  0  0  0  0  0  0  0  0  0  0  0
   -1.4216   -0.1071    1.0434 C   0  0  1  0  0  0  0  0  0  0  0  0
   -0.7579   -0.5878    1.7640 H   0  0  0  0  0  0  0  0  0  0  0  0
   -0.7791   -0.1912   -0.3557 C   0  0  0  0  0  0  0  0  0  0  0  0
   -1.2823   -0.9763   -0.9235 H   0  0  0  0  0  0  0  0  0  0  0  0
   -0.9335    0.7562   -0.8768 H   0  0  0  0  0  0  0  0  0  0  0  0
    0.7230   -0.5083   -0.3206 C   0  0  0  0  0  0  0  0  0  0  0  0
    0.8879   -1.5462   -0.6133 H   0  0  0  0  0  0  0  0  0  0  0  0
    1.2469    0.1494   -1.0148 H   0  0  0  0  0  0  0  0  0  0  0  0
    1.2695   -0.2932    1.0973 C   0  0  0  0  0  0  0  0  0  0  0  0
    1.0764    0.7408    1.3923 H   0  0  0  0  0  0  0  0  0  0  0  0
    0.7373   -0.9598    1.7800 H   0  0  0  0  0  0  0  0  0  0  0  0
    2.7198   -0.5644    1.1730 N   0  3  0  0  0  0  0  0  0  0  0  0
    3.1623   -0.8934    0.3320 H   0  0  0  0  0  0  0  0  0  0  0  0
    3.4882   -0.4154    2.2391 C   0  0  0  0  0  0  0  0  0  0  0  0
    3.0173    0.0046    3.3797 N   0  0  0  0  0  0  0  0  0  0  0  0
    2.0391    0.2229    3.4484 H   0  0  0  0  0  0  0  0  0  0  0  0
    3.6142    0.1117    4.1792 H   0  0  0  0  0  0  0  0  0  0  0  0
    4.7603   -0.6901    2.1791 N   0  0  0  0  0  0  0  0  0  0  0  0
    5.1696   -1.0169    1.3208 H   0  0  0  0  0  0  0  0  0  0  0  0
    5.3397   -0.5756    2.9901 H   0  0  0  0  0  0  0  0  0  0  0  0
   -1.6547    1.3413    1.4779 C   0  0  0  0  0  0  0  0  0  0  0  0
   -2.5654    1.9858    0.9716 O   0  0  0  0  0  0  0  0  0  0  0  0
   -0.8107    1.8504    2.3808 N   0  0  0  0  0  0  0  0  0  0  0  0
   -0.1136    1.2381    2.7719 H   0  0  0  0  0  0  0  0  0  0  0  0
   -0.8954    3.2155    2.9026 C   0  0  0  0  0  0  0  0  0  0  0  0
   -1.8299    3.3430    3.4532 H   0  0  0  0  0  0  0  0  0  0  0  0
   -0.0581    3.4194    3.5712 H   0  0  0  0  0  0  0  0  0  0  0  0
   -0.8804    3.9320    2.0784 H   0  0  0  0  0  0  0  0  0  0  0  0
  5  6  2  0  0  0  0
  5  7  1  0  0  0  0
  2  3  1  0  0  0  0
  2  4  1  0  0  0  0
  2  5  1  0  0  0  0
  1  2  1  0  0  0  0
 29 30  2  0  0  0  0
 29 31  1  0  0  0  0
 26 27  1  0  0  0  0
 26 28  1  0  0  0  0
 23 24  1  0  0  0  0
 23 25  1  0  0  0  0
 22 23  1  0  0  0  0
 22 26  1  0  0  0  0
 20 21  1  0  0  0  0
 20 22  2  0  0  0  0
 17 18  1  0  0  0  0
 17 19  1  0  0  0  0
 17 20  1  0  0  0  0
 14 15  1  0  0  0  0
 14 16  1  0  0  0  0
 14 17  1  0  0  0  0
 11 12  1  0  0  0  0
 11 13  1  0  0  0  0
 11 14  1  0  0  0  0
  9 10  1  0  0  0  0
  9 11  1  0  0  0  0
  9 29  1  0  0  0  0
  7  8  1  0  0  0  0
  7  9  1  0  0  0  0
 33 34  1  0  0  0  0
 33 35  1  0  0  0  0
 33 36  1  0  0  0  0
 31 32  1  0  0  0  0
 31 33  1  0  0  0  0
M  CHG  1  20   1
M  END
$$$$
default_name
  -OEChem-02102213163D

 36 35  0     1  0  0  0  0  0999 V2000
   -4.2256   -3.6731    1.8584 H   0  0  0  0  0  0  0  0  0  0  0  0
   -4.2396   -2.6781    1.4144 C   0  0  0  0  0  0  0  0  0  0  0  0
   -4.9506   -2.0521    1.9514 H   0  0  0  0  0  0  0  0  0  0  0  0
   -4.5266   -2.7521    0.3674 H   0  0  0  0  0  0  0  0  0  0  0  0
   -2.8576   -2.0761    1.5184 C   0  0  0  0  0  0  0  0  0  0  0  0
   -1.9456   -2.7051    2.0404 O   0  0  0  0  0  0  0  0  0  0  0  0
   -2.6926   -0.8481    1.0174 N   0  0  0  0  0  0  0  0  0  0  0  0
   -3.4926   -0.3971    0.5954 H   0  0  0  0  0  0  0  0  0  0  0  0
   -1.4216   -0.1071    1.0434 C   0  0  1  0  0  0  0  0  0  0  0  0
   -0.7579   -0.5878    1.7640 H   0  0  0  0  0  0  0  0  0  0  0  0
   -0.7791   -0.1912   -0.3557 C   0  0  0  0  0  0  0  0  0  0  0  0
   -1.2823   -0.9763   -0.9235 H   0  0  0  0  0  0  0  0  0  0  0  0
   -0.9335    0.7562   -0.8768 H   0  0  0  0  0  0  0  0  0  0  0  0
    0.7230   -0.5083   -0.3206 C   0  0  0  0  0  0  0  0  0  0  0  0
    0.9163   -1.4384   -0.8570 H   0  0  0  0  0  0  0  0  0  0  0  0
    1.2743    0.3033   -0.7964 H   0  0  0  0  0  0  0  0  0  0  0  0
    1.1912   -0.6599    1.1331 C   0  0  0  0  0  0  0  0  0  0  0  0
    0.9696    0.2658    1.6691 H   0  0  0  0  0  0  0  0  0  0  0  0
    0.6323   -1.4772    1.5950 H   0  0  0  0  0  0  0  0  0  0  0  0
    2.6389   -0.9429    1.2162 N   0  3  0  0  0  0  0  0  0  0  0  0
    3.1293   -1.0486    0.3446 H   0  0  0  0  0  0  0  0  0  0  0  0
    3.3481   -1.0696    2.3253 C   0  0  0  0  0  0  0  0  0  0  0  0
    2.8124   -0.9518    3.5079 N   0  0  0  0  0  0  0  0  0  0  0  0
    1.8291   -0.7571    3.5764 H   0  0  0  0  0  0  0  0  0  0  0  0
    3.3648   -1.0512    4.3396 H   0  0  0  0  0  0  0  0  0  0  0  0
    4.6250   -1.3213    2.2669 N   0  0  0  0  0  0  0  0  0  0  0  0
    5.0831   -1.4205    1.3773 H   0  0  0  0  0  0  0  0  0  0  0  0
    5.1593   -1.4166    3.1107 H   0  0  0  0  0  0  0  0  0  0  0  0
   -1.6547    1.3413    1.4779 C   0  0  0  0  0  0  0  0  0  0  0  0
   -2.5654    1.9858    0.9716 O   0  0  0  0  0  0  0  0  0  0  0  0
   -0.8107    1.8504    2.3808 N   0  0  0  0  0  0  0  0  0  0  0  0
   -0.1136    1.2381    2.7719 H   0  0  0  0  0  0  0  0  0  0  0  0
   -0.8954    3.2155    2.9026 C   0  0  0  0  0  0  0  0  0  0  0  0
   -1.8299    3.3430    3.4532 H   0  0  0  0  0  0  0  0  0  0  0  0
   -0.0581    3.4194    3.5712 H   0  0  0  0  0  0  0  0  0  0  0  0
   -0.8804    3.9320    2.0784 H   0  0  0  0  0  0  0  0  0  0  0  0
  5  6  2  0  0  0  0
  5  7  1  0  0  0  0
  2  3  1  0  0  0  0
  2  4  1  0  0  0  0
  2  5  1  0  0  0  0
  1  2  1  0  0  0  0
 29 30  2  0  0  0  0
 29 31  1  0  0  0  0
 26 27  1  0  0  0  0
 26 28  1  0  0  0  0
 23 24  1  0  0  0  0
 23 25  1  0  0  0  0
 22 23  1  0  0  0  0
 22 26  1  0  0  0  0
 20 21  1  0  0  0  0
 20 22  2  0  0  0  0
 17 18  1  0  0  0  0
 17 19  1  0  0  0  0
 17 20  1  0  0  0  0
 14 15  1  0  0  0  0
 14 16  1  0  0  0  0
 14 17  1  0  0  0  0
 11 12  1  0  0  0  0
 11 13  1  0  0  0  0
 11 14  1  0  0  0  0
  9 10  1  0  0  0  0
  9 11  1  0  0  0  0
  9 29  1  0  0  0  0
  7  8  1  0  0  0  0
  7  9  1  0  0  0  0
 33 34  1  0  0  0  0
 33 35  1  0  0  0  0
 33 36  1  0  0  0  0
 31 32  1  0  0  0  0
 31 33  1  0  0  0  0
M  CHG  1  20   1
M  END
$$$$
default_name
  -OEChem-02102213163D

 36 35  0     1  0  0  0  0  0999 V2000
   -4.2256   -3.6731    1.8584 H   0  0  0  0  0  0  0  0  0  0  0  0
   -4.2396   -2.6781    1.4144 C   0  0  0  0  0  0  0  0  0  0  0  0
   -4.9506   -2.0521    1.9514 H   0  0  0  0  0  0  0  0  0  0  0  0
   -4.5266   -2.7521    0.3674 H   0  0  0  0  0  0  0  0  0  0  0  0
   -2.8576   -2.0761    1.5184 C   0  0  0  0  0  0  0  0  0  0  0  0
   -1.9456   -2.7051    2.0404 O   0  0  0  0  0  0  0  0  0  0  0  0
   -2.6926   -0.8481    1.0174 N   0  0  0  0  0  0  0  0  0  0  0  0
   -3.4926   -0.3971    0.5954 H   0  0  0  0  0  0  0  0  0  0  0  0
   -1.4216   -0.1071    1.0434 C   0  0  1  0  0  0  0  0  0  0  0  0
   -0.7579   -0.5878    1.7640 H   0  0  0  0  0  0  0  0  0  0  0  0
   -0.7791   -0.1912   -0.3557 C   0  0  0  0  0  0  0  0  0  0  0  0
   -1.2823   -0.9763   -0.9235 H   0  0  0  0  0  0  0  0  0  0  0  0
   -0.9335    0.7562   -0.8768 H   0  0  0  0  0  0  0  0  0  0  0  0
    0.7230   -0.5083   -0.3206 C   0  0  0  0  0  0  0  0  0  0  0  0
    0.9562   -1.2723   -1.0636 H   0  0  0  0  0  0  0  0  0  0  0  0
    1.2882    0.3968   -0.5449 H   0  0  0  0  0  0  0  0  0  0  0  0
    1.1159   -1.0237    1.0707 C   0  0  0  0  0  0  0  0  0  0  0  0
    0.8545   -0.2637    1.8106 H   0  0  0  0  0  0  0  0  0  0  0  0
    0.5439   -1.9308    1.2797 H   0  0  0  0  0  0  0  0  0  0  0  0
    2.5607   -1.3199    1.1578 N   0  3  0  0  0  0  0  0  0  0  0  0
    3.0976   -1.2018    0.3158 H   0  0  0  0  0  0  0  0  0  0  0  0
    3.2120   -1.7241    2.2355 C   0  0  0  0  0  0  0  0  0  0  0  0
    2.6133   -1.9092    3.3786 N   0  0  0  0  0  0  0  0  0  0  0  0
    1.6253   -1.7372    3.4407 H   0  0  0  0  0  0  0  0  0  0  0  0
    3.1223   -2.2167    4.1868 H   0  0  0  0  0  0  0  0  0  0  0  0
    4.4933   -1.9541    2.1846 N   0  0  0  0  0  0  0  0  0  0  0  0
    4.9989   -1.8251    1.3251 H   0  0  0  0  0  0  0  0  0  0  0  0
    4.9836   -2.2605    3.0046 H   0  0  0  0  0  0  0  0  0  0  0  0
   -1.6547    1.3413    1.4779 C   0  0  0  0  0  0  0  0  0  0  0  0
   -2.5654    1.9858    0.9716 O   0  0  0  0  0  0  0  0  0  0  0  0
   -0.8107    1.8504    2.3808 N   0  0  0  0  0  0  0  0  0  0  0  0
   -0.1136    1.2381    2.7719 H   0  0  0  0  0  0  0  0  0  0  0  0
   -0.8954    3.2155    2.9026 C   0  0  0  0  0  0  0  0  0  0  0  0
   -1.8299    3.3430    3.4532 H   0  0  0  0  0  0  0  0  0  0  0  0
   -0.0581    3.4194    3.5712 H   0  0  0  0  0  0  0  0  0  0  0  0
   -0.8804    3.9320    2.0784 H   0  0  0  0  0  0  0  0  0  0  0  0
  5  6  2  0  0  0  0
  5  7  1  0  0  0  0
  2  3  1  0  0  0  0
  2  4  1  0  0  0  0
  2  5  1  0  0  0  0
  1  2  1  0  0  0  0
 29 30  2  0  0  0  0
 29 31  1  0  0  0  0
 26 27  1  0  0  0  0
 26 28  1  0  0  0  0
 23 24  1  0  0  0  0
 23 25  1  0  0  0  0
 22 23  1  0  0  0  0
 22 26  1  0  0  0  0
 20 21  1  0  0  0  0
 20 22  2  0  0  0  0
 17 18  1  0  0  0  0
 17 19  1  0  0  0  0
 17 20  1  0  0  0  0
 14 15  1  0  0  0  0
 14 16  1  0  0  0  0
 14 17  1  0  0  0  0
 11 12  1  0  0  0  0
 11 13  1  0  0  0  0
 11 14  1  0  0  0  0
  9 10  1  0  0  0  0
  9 11  1  0  0  0  0
  9 29  1  0  0  0  0
  7  8  1  0  0  0  0
  7  9  1  0  0  0  0
 33 34  1  0  0  0  0
 33 35  1  0  0  0  0
 33 36  1  0  0  0  0
 31 32  1  0  0  0  0
 31 33  1  0  0  0  0
M  CHG  1  20   1
M  END
$$$$
default_name
  -OEChem-02102213163D

 36 35  0     1  0  0  0  0  0999 V2000
   -4.2256   -3.6731    1.8584 H   0  0  0  0  0  0  0  0  0  0  0  0
   -4.2396   -2.6781    1.4144 C   0  0  0  0  0  0  0  0  0  0  0  0
   -4.9506   -2.0521    1.9514 H   0  0  0  0  0  0  0  0  0  0  0  0
   -4.5266   -2.7521    0.3674 H   0  0  0  0  0  0  0  0  0  0  0  0
   -2.8576   -2.0761    1.5184 C   0  0  0  0  0  0  0  0  0  0  0  0
   -1.9456   -2.7051    2.0404 O   0  0  0  0  0  0  0  0  0  0  0  0
   -2.6926   -0.8481    1.0174 N   0  0  0  0  0  0  0  0  0  0  0  0
   -3.4926   -0.3971    0.5954 H   0  0  0  0  0  0  0  0  0  0  0  0
   -1.4216   -0.1071    1.0434 C   0  0  1  0  0  0  0  0  0  0  0  0
   -0.7579   -0.5878    1.7640 H   0  0  0  0  0  0  0  0  0  0  0  0
   -0.7791   -0.1912   -0.3557 C   0  0  0  0  0  0  0  0  0  0  0  0
   -1.2823   -0.9763   -0.9235 H   0  0  0  0  0  0  0  0  0  0  0  0
   -0.9335    0.7562   -0.8768 H   0  0  0  0  0  0  0  0  0  0  0  0
    0.7230   -0.5083   -0.3206 C   0  0  0  0  0  0  0  0  0  0  0  0
    1.0048   -1.0594   -1.2189 H   0  0  0  0  0  0  0  0  0  0  0  0
    1.2876    0.4236   -0.2776 H   0  0  0  0  0  0  0  0  0  0  0  0
    1.0486   -1.3597    0.9142 C   0  0  0  0  0  0  0  0  0  0  0  0
    0.7388   -0.8117    1.8071 H   0  0  0  0  0  0  0  0  0  0  0  0
    0.4780   -2.2896    0.8556 H   0  0  0  0  0  0  0  0  0  0  0  0
    2.4904   -1.6698    1.0018 N   0  3  0  0  0  0  0  0  0  0  0  0
    3.0694   -1.3427    0.2474 H   0  0  0  0  0  0  0  0  0  0  0  0
    3.0892   -2.3344    1.9758 C   0  0  0  0  0  0  0  0  0  0  0  0
    2.4335   -2.8025    3.0006 N   0  0  0  0  0  0  0  0  0  0  0  0
    1.4415   -2.6509    3.0506 H   0  0  0  0  0  0  0  0  0  0  0  0
    2.9031   -3.3051    3.7312 H   0  0  0  0  0  0  0  0  0  0  0  0
    4.3742   -2.5453    1.9379 N   0  0  0  0  0  0  0  0  0  0  0  0
    4.9227   -2.2032    1.1678 H   0  0  0  0  0  0  0  0  0  0  0  0
    4.8245   -3.0499    2.6790 H   0  0  0  0  0  0  0  0  0  0  0  0
   -1.6547    1.3413    1.4779 C   0  0  0  0  0  0  0  0  0  0  0  0
   -2.5654    1.9858    0.9716 O   0  0  0  0  0  0  0  0  0  0  0  0
   -0.8107    1.8504    2.3808 N   0  0  0  0  0  0  0  0  0  0  0  0
   -0.1136    1.2381    2.7719 H   0  0  0  0  0  0  0  0  0  0  0  0
   -0.8954    3.2155    2.9026 C   0  0  0  0  0  0  0  0  0  0  0  0
   -1.8299    3.3430    3.4532 H   0  0  0  0  0  0  0  0  0  0  0  0
   -0.0581    3.4194    3.5712 H   0  0  0  0  0  0  0  0  0  0  0  0
   -0.8804    3.9320    2.0784 H   0  0  0  0  0  0  0  0  0  0  0  0
  5  6  2  0  0  0  0
  5  7  1  0  0  0  0
  2  3  1  0  0  0  0
  2  4  1  0  0  0  0
  2  5  1  0  0  0  0
  1  2  1  0  0  0  0
 29 30  2  0  0  0  0
 29 31  1  0  0  0  0
 26 27  1  0  0  0  0
 26 28  1  0  0  0  0
 23 24  1  0  0  0  0
 23 25  1  0  0  0  0
 22 23  1  0  0  0  0
 22 26  1  0  0  0  0
 20 21  1  0  0  0  0
 20 22  2  0  0  0  0
 17 18  1  0  0  0  0
 17 19  1  0  0  0  0
 17 20  1  0  0  0  0
 14 15  1  0  0  0  0
 14 16  1  0  0  0  0
 14 17  1  0  0  0  0
 11 12  1  0  0  0  0
 11 13  1  0  0  0  0
 11 14  1  0  0  0  0
  9 10  1  0  0  0  0
  9 11  1  0  0  0  0
  9 29  1  0  0  0  0
  7  8  1  0  0  0  0
  7  9  1  0  0  0  0
 33 34  1  0  0  0  0
 33 35  1  0  0  0  0
 33 36  1  0  0  0  0
 31 32  1  0  0  0  0
 31 33  1  0  0  0  0
M  CHG  1  20   1
M  END
$$$$
default_name
  -OEChem-02102213163D

 36 35  0     1  0  0  0  0  0999 V2000
   -4.2256   -3.6731    1.8584 H   0  0  0  0  0  0  0  0  0  0  0  0
   -4.2396   -2.6781    1.4144 C   0  0  0  0  0  0  0  0  0  0  0  0
   -4.9506   -2.0521    1.9514 H   0  0  0  0  0  0  0  0  0  0  0  0
   -4.5266   -2.7521    0.3674 H   0  0  0  0  0  0  0  0  0  0  0  0
   -2.8576   -2.0761    1.5184 C   0  0  0  0  0  0  0  0  0  0  0  0
   -1.9456   -2.7051    2.0404 O   0  0  0  0  0  0  0  0  0  0  0  0
   -2.6926   -0.8481    1.0174 N   0  0  0  0  0  0  0  0  0  0  0  0
   -3.4926   -0.3971    0.5954 H   0  0  0  0  0  0  0  0  0  0  0  0
   -1.4216   -0.1071    1.0434 C   0  0  1  0  0  0  0  0  0  0  0  0
   -0.7579   -0.5878    1.7640 H   0  0  0  0  0  0  0  0  0  0  0  0
   -0.7791   -0.1912   -0.3557 C   0  0  0  0  0  0  0  0  0  0  0  0
   -1.2823   -0.9763   -0.9235 H   0  0  0  0  0  0  0  0  0  0  0  0
   -0.9335    0.7562   -0.8768 H   0  0  0  0  0  0  0  0  0  0  0  0
    0.7230   -0.5083   -0.3206 C   0  0  0  0  0  0  0  0  0  0  0  0
    1.0588   -0.8141   -1.3124 H   0  0  0  0  0  0  0  0  0  0  0  0
    1.2726    0.3818   -0.0127 H   0  0  0  0  0  0  0  0  0  0  0  0
    0.9939   -1.6450    0.6744 C   0  0  0  0  0  0  0  0  0  0  0  0
    0.6306   -1.3409    1.6587 H   0  0  0  0  0  0  0  0  0  0  0  0
    0.4392   -2.5292    0.3516 H   0  0  0  0  0  0  0  0  0  0  0  0
    2.4330   -1.9686    0.7587 N   0  3  0  0  0  0  0  0  0  0  0  0
    3.0467   -1.4617    0.1442 H   0  0  0  0  0  0  0  0  0  0  0  0
    2.9880   -2.8589    1.5639 C   0  0  0  0  0  0  0  0  0  0  0  0
    2.2853   -3.5707    2.3998 N   0  0  0  0  0  0  0  0  0  0  0  0
    1.2902   -3.4357    2.4327 H   0  0  0  0  0  0  0  0  0  0  0  0
    2.7222   -4.2424    3.0038 H   0  0  0  0  0  0  0  0  0  0  0  0
    4.2759   -3.0545    1.5436 N   0  0  0  0  0  0  0  0  0  0  0  0
    4.8598   -2.5291    0.9160 H   0  0  0  0  0  0  0  0  0  0  0  0
    4.6929   -3.7309    2.1562 H   0  0  0  0  0  0  0  0  0  0  0  0
   -1.6547    1.3413    1.4779 C   0  0  0  0  0  0  0  0  0  0  0  0
   -2.5654    1.9858    0.9716 O   0  0  0  0  0  0  0  0  0  0  0  0
   -0.8107    1.8504    2.3808 N   0  0  0  0  0  0  0  0  0  0  0  0
   -0.1136    1.2381    2.7719 H   0  0  0  0  0  0  0  0  0  0  0  0
   -0.8954    3.2155    2.9026 C   0  0  0  0  0  0  0  0  0  0  0  0
   -1.8299    3.3430    3.4532 H   0  0  0  0  0  0  0  0  0  0  0  0
   -0.0581    3.4194    3.5712 H   0  0  0  0  0  0  0  0  0  0  0  0
   -0.8804    3.9320    2.0784 H   0  0  0  0  0  0  0  0  0  0  0  0
  5  6  2  0  0  0  0
  5  7  1  0  0  0  0
  2  3  1  0  0  0  0
  2  4  1  0  0  0  0
  2  5  1  0  0  0  0
  1  2  1  0  0  0  0
 29 30  2  0  0  0  0
 29 31  1  0  0  0  0
 26 27  1  0  0  0  0
 26 28  1  0  0  0  0
 23 24  1  0  0  0  0
 23 25  1  0  0  0  0
 22 23  1  0  0  0  0
 22 26  1  0  0  0  0
 20 21  1  0  0  0  0
 20 22  2  0  0  0  0
 17 18  1  0  0  0  0
 17 19  1  0  0  0  0
 17 20  1  0  0  0  0
 14 15  1  0  0  0  0
 14 16  1  0  0  0  0
 14 17  1  0  0  0  0
 11 12  1  0  0  0  0
 11 13  1  0  0  0  0
 11 14  1  0  0  0  0
  9 10  1  0  0  0  0
  9 11  1  0  0  0  0
  9 29  1  0  0  0  0
  7  8  1  0  0  0  0
  7  9  1  0  0  0  0
 33 34  1  0  0  0  0
 33 35  1  0  0  0  0
 33 36  1  0  0  0  0
 31 32  1  0  0  0  0
 31 33  1  0  0  0  0
M  CHG  1  20   1
M  END
$$$$
default_name
  -OEChem-02102213163D

 36 35  0     1  0  0  0  0  0999 V2000
   -4.2256   -3.6731    1.8584 H   0  0  0  0  0  0  0  0  0  0  0  0
   -4.2396   -2.6781    1.4144 C   0  0  0  0  0  0  0  0  0  0  0  0
   -4.9506   -2.0521    1.9514 H   0  0  0  0  0  0  0  0  0  0  0  0
   -4.5266   -2.7521    0.3674 H   0  0  0  0  0  0  0  0  0  0  0  0
   -2.8576   -2.0761    1.5184 C   0  0  0  0  0  0  0  0  0  0  0  0
   -1.9456   -2.7051    2.0404 O   0  0  0  0  0  0  0  0  0  0  0  0
   -2.6926   -0.8481    1.0174 N   0  0  0  0  0  0  0  0  0  0  0  0
   -3.4926   -0.3971    0.5954 H   0  0  0  0  0  0  0  0  0  0  0  0
   -1.4216   -0.1071    1.0434 C   0  0  1  0  0  0  0  0  0  0  0  0
   -0.7579   -0.5878    1.7640 H   0  0  0  0  0  0  0  0  0  0  0  0
   -0.7791   -0.1912   -0.3557 C   0  0  0  0  0  0  0  0  0  0  0  0
   -1.2823   -0.9763   -0.9235 H   0  0  0  0  0  0  0  0  0  0  0  0
   -0.9335    0.7562   -0.8768 H   0  0  0  0  0  0  0  0  0  0  0  0
    0.7230   -0.5083   -0.3206 C   0  0  0  0  0  0  0  0  0  0  0  0
    1.1145   -0.5532   -1.3378 H   0  0  0  0  0  0  0  0  0  0  0  0
    1.2442    0.2742    0.2318 H   0  0  0  0  0  0  0  0  0  0  0  0
    0.9556   -1.8603    0.3676 C   0  0  0  0  0  0  0  0  0  0  0  0
    0.5371   -1.8150    1.3756 H   0  0  0  0  0  0  0  0  0  0  0  0
    0.4301   -2.6333   -0.1980 H   0  0  0  0  0  0  0  0  0  0  0  0
    2.3923   -2.1960    0.4452 N   0  3  0  0  0  0  0  0  0  0  0  0
    3.0310   -1.5506    0.0131 H   0  0  0  0  0  0  0  0  0  0  0  0
    2.9155   -3.2618    1.0278 C   0  0  0  0  0  0  0  0  0  0  0  0
    2.1788   -4.1615    1.6171 N   0  0  0  0  0  0  0  0  0  0  0  0
    1.1818   -4.0382    1.6290 H   0  0  0  0  0  0  0  0  0  0  0  0
    2.5918   -4.9647    2.0542 H   0  0  0  0  0  0  0  0  0  0  0  0
    4.2050   -3.4472    1.0286 N   0  0  0  0  0  0  0  0  0  0  0  0
    4.8144   -2.7804    0.5869 H   0  0  0  0  0  0  0  0  0  0  0  0
    4.5978   -4.2570    1.4718 H   0  0  0  0  0  0  0  0  0  0  0  0
   -1.6547    1.3413    1.4779 C   0  0  0  0  0  0  0  0  0  0  0  0
   -2.5654    1.9858    0.9716 O   0  0  0  0  0  0  0  0  0  0  0  0
   -0.8107    1.8504    2.3808 N   0  0  0  0  0  0  0  0  0  0  0  0
   -0.1136    1.2381    2.7719 H   0  0  0  0  0  0  0  0  0  0  0  0
   -0.8954    3.2155    2.9026 C   0  0  0  0  0  0  0  0  0  0  0  0
   -1.8299    3.3430    3.4532 H   0  0  0  0  0  0  0  0  0  0  0  0
   -0.0581    3.4194    3.5712 H   0  0  0  0  0  0  0  0  0  0  0  0
   -0.8804    3.9320    2.0784 H   0  0  0  0  0  0  0  0  0  0  0  0
  5  6  2  0  0  0  0
  5  7  1  0  0  0  0
  2  3  1  0  0  0  0
  2  4  1  0  0  0  0
  2  5  1  0  0  0  0
  1  2  1  0  0  0  0
 29 30  2  0  0  0  0
 29 31  1  0  0  0  0
 26 27  1  0  0  0  0
 26 28  1  0  0  0  0
 23 24  1  0  0  0  0
 23 25  1  0  0  0  0
 22 23  1  0  0  0  0
 22 26  1  0  0  0  0
 20 21  1  0  0  0  0
 20 22  2  0  0  0  0
 17 18  1  0  0  0  0
 17 19  1  0  0  0  0
 17 20  1  0  0  0  0
 14 15  1  0  0  0  0
 14 16  1  0  0  0  0
 14 17  1  0  0  0  0
 11 12  1  0  0  0  0
 11 13  1  0  0  0  0
 11 14  1  0  0  0  0
  9 10  1  0  0  0  0
  9 11  1  0  0  0  0
  9 29  1  0  0  0  0
  7  8  1  0  0  0  0
  7  9  1  0  0  0  0
 33 34  1  0  0  0  0
 33 35  1  0  0  0  0
 33 36  1  0  0  0  0
 31 32  1  0  0  0  0
 31 33  1  0  0  0  0
M  CHG  1  20   1
M  END
$$$$
default_name
  -OEChem-02102213163D

 36 35  0     1  0  0  0  0  0999 V2000
   -4.2256   -3.6731    1.8584 H   0  0  0  0  0  0  0  0  0  0  0  0
   -4.2396   -2.6781    1.4144 C   0  0  0  0  0  0  0  0  0  0  0  0
   -4.9506   -2.0521    1.9514 H   0  0  0  0  0  0  0  0  0  0  0  0
   -4.5266   -2.7521    0.3674 H   0  0  0  0  0  0  0  0  0  0  0  0
   -2.8576   -2.0761    1.5184 C   0  0  0  0  0  0  0  0  0  0  0  0
   -1.9456   -2.7051    2.0404 O   0  0  0  0  0  0  0  0  0  0  0  0
   -2.6926   -0.8481    1.0174 N   0  0  0  0  0  0  0  0  0  0  0  0
   -3.4926   -0.3971    0.5954 H   0  0  0  0  0  0  0  0  0  0  0  0
   -1.4216   -0.1071    1.0434 C   0  0  1  0  0  0  0  0  0  0  0  0
   -0.7579   -0.5878    1.7640 H   0  0  0  0  0  0  0  0  0  0  0  0
   -0.7791   -0.1912   -0.3557 C   0  0  0  0  0  0  0  0  0  0  0  0
   -1.2823   -0.9763   -0.9235 H   0  0  0  0  0  0  0  0  0  0  0  0
   -0.9335    0.7562   -0.8768 H   0  0  0  0  0  0  0  0  0  0  0  0
    0.7230   -0.5083   -0.3206 C   0  0  0  0  0  0  0  0  0  0  0  0
    1.1681   -0.2944   -1.2933 H   0  0  0  0  0  0  0  0  0  0  0  0
    1.2043    0.1082    0.4393 H   0  0  0  0  0  0  0  0  0  0  0  0
    0.9363   -1.9908    0.0147 C   0  0  0  0  0  0  0  0  0  0  0  0
    0.4647   -2.2019    0.9772 H   0  0  0  0  0  0  0  0  0  0  0  0
    0.4512   -2.5948   -0.7557 H   0  0  0  0  0  0  0  0  0  0  0  0
    2.3711   -2.3366    0.0827 N   0  3  0  0  0  0  0  0  0  0  0  0
    3.0234   -1.6034   -0.1368 H   0  0  0  0  0  0  0  0  0  0  0  0
    2.8764   -3.5157    0.4041 C   0  0  0  0  0  0  0  0  0  0  0  0
    2.1213   -4.5346    0.7058 N   0  0  0  0  0  0  0  0  0  0  0  0
    1.1235   -4.4174    0.6944 H   0  0  0  0  0  0  0  0  0  0  0  0
    2.5210   -5.4228    0.9471 H   0  0  0  0  0  0  0  0  0  0  0  0
    4.1664   -3.6965    0.4279 N   0  0  0  0  0  0  0  0  0  0  0  0
    4.7896   -2.9402    0.2030 H   0  0  0  0  0  0  0  0  0  0  0  0
    4.5456   -4.5926    0.6724 H   0  0  0  0  0  0  0  0  0  0  0  0
   -1.6547    1.3413    1.4779 C   0  0  0  0  0  0  0  0  0  0  0  0
   -2.5654    1.9858    0.9716 O   0  0  0  0  0  0  0  0  0  0  0  0
   -0.8107    1.8504    2.3808 N   0  0  0  0  0  0  0  0  0  0  0  0
   -0.1136    1.2381    2.7719 H   0  0  0  0  0  0  0  0  0  0  0  0
   -0.8954    3.2155    2.9026 C   0  0  0  0  0  0  0  0  0  0  0  0
   -1.8299    3.3430    3.4532 H   0  0  0  0  0  0  0  0  0  0  0  0
   -0.0581    3.4194    3.5712 H   0  0  0  0  0  0  0  0  0  0  0  0
   -0.8804    3.9320    2.0784 H   0  0  0  0  0  0  0  0  0  0  0  0
  5  6  2  0  0  0  0
  5  7  1  0  0  0  0
  2  3  1  0  0  0  0
  2  4  1  0  0  0  0
  2  5  1  0  0  0  0
  1  2  1  0  0  0  0
 29 30  2  0  0  0  0
 29 31  1  0  0  0  0
 26 27  1  0  0  0  0
 26 28  1  0  0  0  0
 23 24  1  0  0  0  0
 23 25  1  0  0  0  0
 22 23  1  0  0  0  0
 22 26  1  0  0  0  0
 20 21  1  0  0  0  0
 20 22  2  0  0  0  0
 17 18  1  0  0  0  0
 17 19  1  0  0  0  0
 17 20  1  0  0  0  0
 14 15  1  0  0  0  0
 14 16  1  0  0  0  0
 14 17  1  0  0  0  0
 11 12  1  0  0  0  0
 11 13  1  0  0  0  0
 11 14  1  0  0  0  0
  9 10  1  0  0  0  0
  9 11  1  0  0  0  0
  9 29  1  0  0  0  0
  7  8  1  0  0  0  0
  7  9  1  0  0  0  0
 33 34  1  0  0  0  0
 33 35  1  0  0  0  0
 33 36  1  0  0  0  0
 31 32  1  0  0  0  0
 31 33  1  0  0  0  0
M  CHG  1  20   1
M  END
$$$$
default_name
  -OEChem-02102213163D

 36 35  0     1  0  0  0  0  0999 V2000
   -4.2256   -3.6731    1.8584 H   0  0  0  0  0  0  0  0  0  0  0  0
   -4.2396   -2.6781    1.4144 C   0  0  0  0  0  0  0  0  0  0  0  0
   -4.9506   -2.0521    1.9514 H   0  0  0  0  0  0  0  0  0  0  0  0
   -4.5266   -2.7521    0.3674 H   0  0  0  0  0  0  0  0  0  0  0  0
   -2.8576   -2.0761    1.5184 C   0  0  0  0  0  0  0  0  0  0  0  0
   -1.9456   -2.7051    2.0404 O   0  0  0  0  0  0  0  0  0  0  0  0
   -2.6926   -0.8481    1.0174 N   0  0  0  0  0  0  0  0  0  0  0  0
   -3.4926   -0.3971    0.5954 H   0  0  0  0  0  0  0  0  0  0  0  0
   -1.4216   -0.1071    1.0434 C   0  0  1  0  0  0  0  0  0  0  0  0
   -0.7579   -0.5878    1.7640 H   0  0  0  0  0  0  0  0  0  0  0  0
   -0.7791   -0.1912   -0.3557 C   0  0  0  0  0  0  0  0  0  0  0  0
   -1.2823   -0.9763   -0.9235 H   0  0  0  0  0  0  0  0  0  0  0  0
   -0.9335    0.7562   -0.8768 H   0  0  0  0  0  0  0  0  0  0  0  0
    0.7230   -0.5083   -0.3206 C   0  0  0  0  0  0  0  0  0  0  0  0
    1.2159   -0.0554   -1.1819 H   0  0  0  0  0  0  0  0  0  0  0  0
    1.1556   -0.1049    0.5955 H   0  0  0  0  0  0  0  0  0  0  0  0
    0.9373   -2.0275   -0.3602 C   0  0  0  0  0  0  0  0  0  0  0  0
    0.4183   -2.4752    0.4905 H   0  0  0  0  0  0  0  0  0  0  0  0
    0.5012   -2.4162   -1.2835 H   0  0  0  0  0  0  0  0  0  0  0  0
    2.3708   -2.3807   -0.3043 N   0  3  0  0  0  0  0  0  0  0  0  0
    3.0243   -1.6164   -0.2954 H   0  0  0  0  0  0  0  0  0  0  0  0
    2.8735   -3.6033   -0.2647 C   0  0  0  0  0  0  0  0  0  0  0  0
    2.1167   -4.6646   -0.2720 N   0  0  0  0  0  0  0  0  0  0  0  0
    1.1195   -4.5474   -0.3075 H   0  0  0  0  0  0  0  0  0  0  0  0
    2.5144   -5.5854   -0.2419 H   0  0  0  0  0  0  0  0  0  0  0  0
    4.1627   -3.7854   -0.2175 N   0  0  0  0  0  0  0  0  0  0  0  0
    4.7872   -2.9975   -0.2096 H   0  0  0  0  0  0  0  0  0  0  0  0
    4.5399   -4.7146   -0.1875 H   0  0  0  0  0  0  0  0  0  0  0  0
   -1.6547    1.3413    1.4779 C   0  0  0  0  0  0  0  0  0  0  0  0
   -2.5654    1.9858    0.9716 O   0  0  0  0  0  0  0  0  0  0  0  0
   -0.8107    1.8504    2.3808 N   0  0  0  0  0  0  0  0  0  0  0  0
   -0.1136    1.2381    2.7719 H   0  0  0  0  0  0  0  0  0  0  0  0
   -0.8954    3.2155    2.9026 C   0  0  0  0  0  0  0  0  0  0  0  0
   -1.8299    3.3430    3.4532 H   0  0  0  0  0  0  0  0  0  0  0  0
   -0.0581    3.4194    3.5712 H   0  0  0  0  0  0  0  0  0  0  0  0
   -0.8804    3.9320    2.0784 H   0  0  0  0  0  0  0  0  0  0  0  0
  5  6  2  0  0  0  0
  5  7  1  0  0  0  0
  2  3  1  0  0  0  0
  2  4  1  0  0  0  0
  2  5  1  0  0  0  0
  1  2  1  0  0  0  0
 29 30  2  0  0  0  0
 29 31  1  0  0  0  0
 26 27  1  0  0  0  0
 26 28  1  0  0  0  0
 23 24  1  0  0  0  0
 23 25  1  0  0  0  0
 22 23  1  0  0  0  0
 22 26  1  0  0  0  0
 20 21  1  0  0  0  0
 20 22  2  0  0  0  0
 17 18  1  0  0  0  0
 17 19  1  0  0  0  0
 17 20  1  0  0  0  0
 14 15  1  0  0  0  0
 14 16  1  0  0  0  0
 14 17  1  0  0  0  0
 11 12  1  0  0  0  0
 11 13  1  0  0  0  0
 11 14  1  0  0  0  0
  9 10  1  0  0  0  0
  9 11  1  0  0  0  0
  9 29  1  0  0  0  0
  7  8  1  0  0  0  0
  7  9  1  0  0  0  0
 33 34  1  0  0  0  0
 33 35  1  0  0  0  0
 33 36  1  0  0  0  0
 31 32  1  0  0  0  0
 31 33  1  0  0  0  0
M  CHG  1  20   1
M  END
$$$$
default_name
  -OEChem-02102213163D

 36 35  0     1  0  0  0  0  0999 V2000
   -4.2256   -3.6731    1.8584 H   0  0  0  0  0  0  0  0  0  0  0  0
   -4.2396   -2.6781    1.4144 C   0  0  0  0  0  0  0  0  0  0  0  0
   -4.9506   -2.0521    1.9514 H   0  0  0  0  0  0  0  0  0  0  0  0
   -4.5266   -2.7521    0.3674 H   0  0  0  0  0  0  0  0  0  0  0  0
   -2.8576   -2.0761    1.5184 C   0  0  0  0  0  0  0  0  0  0  0  0
   -1.9456   -2.7051    2.0404 O   0  0  0  0  0  0  0  0  0  0  0  0
   -2.6926   -0.8481    1.0174 N   0  0  0  0  0  0  0  0  0  0  0  0
   -3.4926   -0.3971    0.5954 H   0  0  0  0  0  0  0  0  0  0  0  0
   -1.4216   -0.1071    1.0434 C   0  0  1  0  0  0  0  0  0  0  0  0
   -0.7579   -0.5878    1.7640 H   0  0  0  0  0  0  0  0  0  0  0  0
   -0.7791   -0.1912   -0.3557 C   0  0  0  0  0  0  0  0  0  0  0  0
   -1.2823   -0.9763   -0.9235 H   0  0  0  0  0  0  0  0  0  0  0  0
   -0.9335    0.7562   -0.8768 H   0  0  0  0  0  0  0  0  0  0  0  0
    0.7230   -0.5083   -0.3206 C   0  0  0  0  0  0  0  0  0  0  0  0
    1.2548    0.1475   -1.0113 H   0  0  0  0  0  0  0  0  0  0  0  0
    1.1015   -0.3505    0.6898 H   0  0  0  0  0  0  0  0  0  0  0  0
    0.9585   -1.9682   -0.7316 C   0  0  0  0  0  0  0  0  0  0  0  0
    0.4012   -2.6162   -0.0513 H   0  0  0  0  0  0  0  0  0  0  0  0
    0.5767   -2.1098   -1.7454 H   0  0  0  0  0  0  0  0  0  0  0  0
    2.3915   -2.3254   -0.6892 N   0  3  0  0  0  0  0  0  0  0  0  0
    3.0338   -1.5889   -0.4518 H   0  0  0  0  0  0  0  0  0  0  0  0
    2.9070   -3.5186   -0.9330 C   0  0  0  0  0  0  0  0  0  0  0  0
    2.1652   -4.5427   -1.2497 N   0  0  0  0  0  0  0  0  0  0  0  0
    1.1699   -4.4194   -1.3083 H   0  0  0  0  0  0  0  0  0  0  0  0
    2.5726   -5.4414   -1.4320 H   0  0  0  0  0  0  0  0  0  0  0  0
    4.1941   -3.7080   -0.8637 N   0  0  0  0  0  0  0  0  0  0  0  0
    4.8072   -2.9483   -0.6228 H   0  0  0  0  0  0  0  0  0  0  0  0
    4.5811   -4.6148   -1.0493 H   0  0  0  0  0  0  0  0  0  0  0  0
   -1.6547    1.3413    1.4779 C   0  0  0  0  0  0  0  0  0  0  0  0
   -2.5654    1.9858    0.9716 O   0  0  0  0  0  0  0  0  0  0  0  0
   -0.8107    1.8504    2.3808 N   0  0  0  0  0  0  0  0  0  0  0  0
   -0.1136    1.2381    2.7719 H   0  0  0  0  0  0  0  0  0  0  0  0
   -0.8954    3.2155    2.9026 C   0  0  0  0  0  0  0  0  0  0  0  0
   -1.8299    3.3430    3.4532 H   0  0  0  0  0  0  0  0  0  0  0  0
   -0.0581    3.4194    3.5712 H   0  0  0  0  0  0  0  0  0  0  0  0
   -0.8804    3.9320    2.0784 H   0  0  0  0  0  0  0  0  0  0  0  0
  5  6  2  0  0  0  0
  5  7  1  0  0  0  0
  2  3  1  0  0  0  0
  2  4  1  0  0  0  0
  2  5  1  0  0  0  0
  1  2  1  0  0  0  0
 29 30  2  0  0  0  0
 29 31  1  0  0  0  0
 26 27  1  0  0  0  0
 26 28  1  0  0  0  0
 23 24  1  0  0  0  0
 23 25  1  0  0  0  0
 22 23  1  0  0  0  0
 22 26  1  0  0  0  0
 20 21  1  0  0  0  0
 20 22  2  0  0  0  0
 17 18  1  0  0  0  0
 17 19  1  0  0  0  0
 17 20  1  0  0  0  0
 14 15  1  0  0  0  0
 14 16  1  0  0  0  0
 14 17  1  0  0  0  0
 11 12  1  0  0  0  0
 11 13  1  0  0  0  0
 11 14  1  0  0  0  0
  9 10  1  0  0  0  0
  9 11  1  0  0  0  0
  9 29  1  0  0  0  0
  7  8  1  0  0  0  0
  7  9  1  0  0  0  0
 33 34  1  0  0  0  0
 33 35  1  0  0  0  0
 33 36  1  0  0  0  0
 31 32  1  0  0  0  0
 31 33  1  0  0  0  0
M  CHG  1  20   1
M  END
$$$$
default_name
  -OEChem-02102213163D

 36 35  0     1  0  0  0  0  0999 V2000
   -4.2256   -3.6731    1.8584 H   0  0  0  0  0  0  0  0  0  0  0  0
   -4.2396   -2.6781    1.4144 C   0  0  0  0  0  0  0  0  0  0  0  0
   -4.9506   -2.0521    1.9514 H   0  0  0  0  0  0  0  0  0  0  0  0
   -4.5266   -2.7521    0.3674 H   0  0  0  0  0  0  0  0  0  0  0  0
   -2.8576   -2.0761    1.5184 C   0  0  0  0  0  0  0  0  0  0  0  0
   -1.9456   -2.7051    2.0404 O   0  0  0  0  0  0  0  0  0  0  0  0
   -2.6926   -0.8481    1.0174 N   0  0  0  0  0  0  0  0  0  0  0  0
   -3.4926   -0.3971    0.5954 H   0  0  0  0  0  0  0  0  0  0  0  0
   -1.4216   -0.1071    1.0434 C   0  0  1  0  0  0  0  0  0  0  0  0
   -0.7579   -0.5878    1.7640 H   0  0  0  0  0  0  0  0  0  0  0  0
   -0.7791   -0.1912   -0.3557 C   0  0  0  0  0  0  0  0  0  0  0  0
   -1.2823   -0.9763   -0.9235 H   0  0  0  0  0  0  0  0  0  0  0  0
   -0.9335    0.7562   -0.8768 H   0  0  0  0  0  0  0  0  0  0  0  0
    0.7230   -0.5083   -0.3206 C   0  0  0  0  0  0  0  0  0  0  0  0
    1.2820    0.3006   -0.7930 H   0  0  0  0  0  0  0  0  0  0  0  0
    1.0457   -0.6120    0.7159 H   0  0  0  0  0  0  0  0  0  0  0  0
    0.9985   -1.8167   -1.0742 C   0  0  0  0  0  0  0  0  0  0  0  0
    0.4145   -2.6153   -0.6112 H   0  0  0  0  0  0  0  0  0  0  0  0
    0.6725   -1.6965   -2.1100 H   0  0  0  0  0  0  0  0  0  0  0  0
    2.4317   -2.1744   -1.0459 N   0  3  0  0  0  0  0  0  0  0  0  0
    3.0511   -1.5227   -0.5954 H   0  0  0  0  0  0  0  0  0  0  0  0
    2.9746   -3.2674   -1.5554 C   0  0  0  0  0  0  0  0  0  0  0  0
    2.2637   -4.1771   -2.1606 N   0  0  0  0  0  0  0  0  0  0  0  0
    1.2713   -4.0420   -2.2400 H   0  0  0  0  0  0  0  0  0  0  0  0
    2.6915   -5.0007   -2.5420 H   0  0  0  0  0  0  0  0  0  0  0  0
    4.2586   -3.4694   -1.4665 N   0  0  0  0  0  0  0  0  0  0  0  0
    4.8483   -2.7961   -1.0084 H   0  0  0  0  0  0  0  0  0  0  0  0
    4.6664   -4.3000   -1.8543 H   0  0  0  0  0  0  0  0  0  0  0  0
   -1.6547    1.3413    1.4779 C   0  0  0  0  0  0  0  0  0  0  0  0
   -2.5654    1.9858    0.9716 O   0  0  0  0  0  0  0  0  0  0  0  0
   -0.8107    1.8504    2.3808 N   0  0  0  0  0  0  0  0  0  0  0  0
   -0.1136    1.2381    2.7719 H   0  0  0  0  0  0  0  0  0  0  0  0
   -0.8954    3.2155    2.9026 C   0  0  0  0  0  0  0  0  0  0  0  0
   -1.8299    3.3430    3.4532 H   0  0  0  0  0  0  0  0  0  0  0  0
   -0.0581    3.4194    3.5712 H   0  0  0  0  0  0  0  0  0  0  0  0
   -0.8804    3.9320    2.0784 H   0  0  0  0  0  0  0  0  0  0  0  0
  5  6  2  0  0  0  0
  5  7  1  0  0  0  0
  2  3  1  0  0  0  0
  2  4  1  0  0  0  0
  2  5  1  0  0  0  0
  1  2  1  0  0  0  0
 29 30  2  0  0  0  0
 29 31  1  0  0  0  0
 26 27  1  0  0  0  0
 26 28  1  0  0  0  0
 23 24  1  0  0  0  0
 23 25  1  0  0  0  0
 22 23  1  0  0  0  0
 22 26  1  0  0  0  0
 20 21  1  0  0  0  0
 20 22  2  0  0  0  0
 17 18  1  0  0  0  0
 17 19  1  0  0  0  0
 17 20  1  0  0  0  0
 14 15  1  0  0  0  0
 14 16  1  0  0  0  0
 14 17  1  0  0  0  0
 11 12  1  0  0  0  0
 11 13  1  0  0  0  0
 11 14  1  0  0  0  0
  9 10  1  0  0  0  0
  9 11  1  0  0  0  0
  9 29  1  0  0  0  0
  7  8  1  0  0  0  0
  7  9  1  0  0  0  0
 33 34  1  0  0  0  0
 33 35  1  0  0  0  0
 33 36  1  0  0  0  0
 31 32  1  0  0  0  0
 31 33  1  0  0  0  0
M  CHG  1  20   1
M  END
$$$$
default_name
  -OEChem-02102213163D

 36 35  0     1  0  0  0  0  0999 V2000
   -4.2256   -3.6731    1.8584 H   0  0  0  0  0  0  0  0  0  0  0  0
   -4.2396   -2.6781    1.4144 C   0  0  0  0  0  0  0  0  0  0  0  0
   -4.9506   -2.0521    1.9514 H   0  0  0  0  0  0  0  0  0  0  0  0
   -4.5266   -2.7521    0.3674 H   0  0  0  0  0  0  0  0  0  0  0  0
   -2.8576   -2.0761    1.5184 C   0  0  0  0  0  0  0  0  0  0  0  0
   -1.9456   -2.7051    2.0404 O   0  0  0  0  0  0  0  0  0  0  0  0
   -2.6926   -0.8481    1.0174 N   0  0  0  0  0  0  0  0  0  0  0  0
   -3.4926   -0.3971    0.5954 H   0  0  0  0  0  0  0  0  0  0  0  0
   -1.4216   -0.1071    1.0434 C   0  0  1  0  0  0  0  0  0  0  0  0
   -0.7579   -0.5878    1.7640 H   0  0  0  0  0  0  0  0  0  0  0  0
   -0.7791   -0.1912   -0.3557 C   0  0  0  0  0  0  0  0  0  0  0  0
   -1.2823   -0.9763   -0.9235 H   0  0  0  0  0  0  0  0  0  0  0  0
   -0.9335    0.7562   -0.8768 H   0  0  0  0  0  0  0  0  0  0  0  0
    0.7230   -0.5083   -0.3206 C   0  0  0  0  0  0  0  0  0  0  0  0
    1.2957    0.3933   -0.5419 H   0  0  0  0  0  0  0  0  0  0  0  0
    0.9920   -0.8715    0.6718 H   0  0  0  0  0  0  0  0  0  0  0  0
    1.0546   -1.5833   -1.3646 C   0  0  0  0  0  0  0  0  0  0  0  0
    0.4572   -2.4727   -1.1511 H   0  0  0  0  0  0  0  0  0  0  0  0
    0.7821   -1.2044   -2.3524 H   0  0  0  0  0  0  0  0  0  0  0  0
    2.4887   -1.9379   -1.3501 N   0  3  0  0  0  0  0  0  0  0  0  0
    3.0752   -1.4222   -0.7165 H   0  0  0  0  0  0  0  0  0  0  0  0
    3.0717   -2.8668   -2.0893 C   0  0  0  0  0  0  0  0  0  0  0  0
    2.4053   -3.5928   -2.9426 N   0  0  0  0  0  0  0  0  0  0  0  0
    1.4169   -3.4410   -3.0389 H   0  0  0  0  0  0  0  0  0  0  0  0
    2.8632   -4.2934   -3.4962 H   0  0  0  0  0  0  0  0  0  0  0  0
    4.3517   -3.0860   -1.9850 N   0  0  0  0  0  0  0  0  0  0  0  0
    4.9078   -2.5513   -1.3401 H   0  0  0  0  0  0  0  0  0  0  0  0
    4.7899   -3.7916   -2.5476 H   0  0  0  0  0  0  0  0  0  0  0  0
   -1.6547    1.3413    1.4779 C   0  0  0  0  0  0  0  0  0  0  0  0
   -2.5654    1.9858    0.9716 O   0  0  0  0  0  0  0  0  0  0  0  0
   -0.8107    1.8504    2.3808 N   0  0  0  0  0  0  0  0  0  0  0  0
   -0.1136    1.2381    2.7719 H   0  0  0  0  0  0  0  0  0  0  0  0
   -0.8954    3.2155    2.9026 C   0  0  0  0  0  0  0  0  0  0  0  0
   -1.8299    3.3430    3.4532 H   0  0  0  0  0  0  0  0  0  0  0  0
   -0.0581    3.4194    3.5712 H   0  0  0  0  0  0  0  0  0  0  0  0
   -0.8804    3.9320    2.0784 H   0  0  0  0  0  0  0  0  0  0  0  0
  5  6  2  0  0  0  0
  5  7  1  0  0  0  0
  2  3  1  0  0  0  0
  2  4  1  0  0  0  0
  2  5  1  0  0  0  0
  1  2  1  0  0  0  0
 29 30  2  0  0  0  0
 29 31  1  0  0  0  0
 26 27  1  0  0  0  0
 26 28  1  0  0  0  0
 23 24  1  0  0  0  0
 23 25  1  0  0  0  0
 22 23  1  0  0  0  0
 22 26  1  0  0  0  0
 20 21  1  0  0  0  0
 20 22  2  0  0  0  0
 17 18  1  0  0  0  0
 17 19  1  0  0  0  0
 17 20  1  0  0  0  0
 14 15  1  0  0  0  0
 14 16  1  0  0  0  0
 14 17  1  0  0  0  0
 11 12  1  0  0  0  0
 11 13  1  0  0  0  0
 11 14  1  0  0  0  0
  9 10  1  0  0  0  0
  9 11  1  0  0  0  0
  9 29  1  0  0  0  0
  7  8  1  0  0  0  0
  7  9  1  0  0  0  0
 33 34  1  0  0  0  0
 33 35  1  0  0  0  0
 33 36  1  0  0  0  0
 31 32  1  0  0  0  0
 31 33  1  0  0  0  0
M  CHG  1  20   1
M  END
$$$$
default_name
  -OEChem-02102213163D

 36 35  0     1  0  0  0  0  0999 V2000
   -4.2256   -3.6731    1.8584 H   0  0  0  0  0  0  0  0  0  0  0  0
   -4.2396   -2.6781    1.4144 C   0  0  0  0  0  0  0  0  0  0  0  0
   -4.9506   -2.0521    1.9514 H   0  0  0  0  0  0  0  0  0  0  0  0
   -4.5266   -2.7521    0.3674 H   0  0  0  0  0  0  0  0  0  0  0  0
   -2.8576   -2.0761    1.5184 C   0  0  0  0  0  0  0  0  0  0  0  0
   -1.9456   -2.7051    2.0404 O   0  0  0  0  0  0  0  0  0  0  0  0
   -2.6926   -0.8481    1.0174 N   0  0  0  0  0  0  0  0  0  0  0  0
   -3.4926   -0.3971    0.5954 H   0  0  0  0  0  0  0  0  0  0  0  0
   -1.4216   -0.1071    1.0434 C   0  0  1  0  0  0  0  0  0  0  0  0
   -0.7579   -0.5878    1.7640 H   0  0  0  0  0  0  0  0  0  0  0  0
   -0.7791   -0.1912   -0.3557 C   0  0  0  0  0  0  0  0  0  0  0  0
   -1.2823   -0.9763   -0.9235 H   0  0  0  0  0  0  0  0  0  0  0  0
   -0.9335    0.7562   -0.8768 H   0  0  0  0  0  0  0  0  0  0  0  0
    0.7230   -0.5083   -0.3206 C   0  0  0  0  0  0  0  0  0  0  0  0
    1.2950    0.4194   -0.2752 H   0  0  0  0  0  0  0  0  0  0  0  0
    0.9439   -1.1113    0.5608 H   0  0  0  0  0  0  0  0  0  0  0  0
    1.1228   -1.2841   -1.5830 C   0  0  0  0  0  0  0  0  0  0  0  0
    0.5265   -2.1980   -1.6342 H   0  0  0  0  0  0  0  0  0  0  0  0
    0.8980   -0.6670   -2.4561 H   0  0  0  0  0  0  0  0  0  0  0  0
    2.5587   -1.6322   -1.5810 N   0  3  0  0  0  0  0  0  0  0  0  0
    3.1043   -1.2944   -0.8067 H   0  0  0  0  0  0  0  0  0  0  0  0
    3.1916   -2.3440   -2.4984 C   0  0  0  0  0  0  0  0  0  0  0  0
    2.5805   -2.8296   -3.5425 N   0  0  0  0  0  0  0  0  0  0  0  0
    1.5966   -2.6574   -3.6507 H   0  0  0  0  0  0  0  0  0  0  0  0
    3.0758   -3.3675   -4.2297 H   0  0  0  0  0  0  0  0  0  0  0  0
    4.4670   -2.5838   -2.3837 N   0  0  0  0  0  0  0  0  0  0  0  0
    4.9815   -2.2304   -1.5954 H   0  0  0  0  0  0  0  0  0  0  0  0
    4.9433   -3.1243   -3.0819 H   0  0  0  0  0  0  0  0  0  0  0  0
   -1.6547    1.3413    1.4779 C   0  0  0  0  0  0  0  0  0  0  0  0
   -2.5654    1.9858    0.9716 O   0  0  0  0  0  0  0  0  0  0  0  0
   -0.8107    1.8504    2.3808 N   0  0  0  0  0  0  0  0  0  0  0  0
   -0.1136    1.2381    2.7719 H   0  0  0  0  0  0  0  0  0  0  0  0
   -0.8954    3.2155    2.9026 C   0  0  0  0  0  0  0  0  0  0  0  0
   -1.8299    3.3430    3.4532 H   0  0  0  0  0  0  0  0  0  0  0  0
   -0.0581    3.4194    3.5712 H   0  0  0  0  0  0  0  0  0  0  0  0
   -0.8804    3.9320    2.0784 H   0  0  0  0  0  0  0  0  0  0  0  0
  5  6  2  0  0  0  0
  5  7  1  0  0  0  0
  2  3  1  0  0  0  0
  2  4  1  0  0  0  0
  2  5  1  0  0  0  0
  1  2  1  0  0  0  0
 29 30  2  0  0  0  0
 29 31  1  0  0  0  0
 26 27  1  0  0  0  0
 26 28  1  0  0  0  0
 23 24  1  0  0  0  0
 23 25  1  0  0  0  0
 22 23  1  0  0  0  0
 22 26  1  0  0  0  0
 20 21  1  0  0  0  0
 20 22  2  0  0  0  0
 17 18  1  0  0  0  0
 17 19  1  0  0  0  0
 17 20  1  0  0  0  0
 14 15  1  0  0  0  0
 14 16  1  0  0  0  0
 14 17  1  0  0  0  0
 11 12  1  0  0  0  0
 11 13  1  0  0  0  0
 11 14  1  0  0  0  0
  9 10  1  0  0  0  0
  9 11  1  0  0  0  0
  9 29  1  0  0  0  0
  7  8  1  0  0  0  0
  7  9  1  0  0  0  0
 33 34  1  0  0  0  0
 33 35  1  0  0  0  0
 33 36  1  0  0  0  0
 31 32  1  0  0  0  0
 31 33  1  0  0  0  0
M  CHG  1  20   1
M  END
$$$$
default_name
  -OEChem-02102213163D

 36 35  0     1  0  0  0  0  0999 V2000
   -4.2256   -3.6731    1.8584 H   0  0  0  0  0  0  0  0  0  0  0  0
   -4.2396   -2.6781    1.4144 C   0  0  0  0  0  0  0  0  0  0  0  0
   -4.9506   -2.0521    1.9514 H   0  0  0  0  0  0  0  0  0  0  0  0
   -4.5266   -2.7521    0.3674 H   0  0  0  0  0  0  0  0  0  0  0  0
   -2.8576   -2.0761    1.5184 C   0  0  0  0  0  0  0  0  0  0  0  0
   -1.9456   -2.7051    2.0404 O   0  0  0  0  0  0  0  0  0  0  0  0
   -2.6926   -0.8481    1.0174 N   0  0  0  0  0  0  0  0  0  0  0  0
   -3.4926   -0.3971    0.5954 H   0  0  0  0  0  0  0  0  0  0  0  0
   -1.4216   -0.1071    1.0434 C   0  0  1  0  0  0  0  0  0  0  0  0
   -0.7579   -0.5878    1.7640 H   0  0  0  0  0  0  0  0  0  0  0  0
   -0.7791   -0.1912   -0.3557 C   0  0  0  0  0  0  0  0  0  0  0  0
   -1.2823   -0.9763   -0.9235 H   0  0  0  0  0  0  0  0  0  0  0  0
   -0.9335    0.7562   -0.8768 H   0  0  0  0  0  0  0  0  0  0  0  0
    0.7230   -0.5083   -0.3206 C   0  0  0  0  0  0  0  0  0  0  0  0
    1.2799    0.3771   -0.0110 H   0  0  0  0  0  0  0  0  0  0  0  0
    0.9049   -1.3151    0.3902 H   0  0  0  0  0  0  0  0  0  0  0  0
    1.1987   -0.9394   -1.7146 C   0  0  0  0  0  0  0  0  0  0  0  0
    0.6176   -1.8099   -2.0276 H   0  0  0  0  0  0  0  0  0  0  0  0
    1.0123   -0.1210   -2.4140 H   0  0  0  0  0  0  0  0  0  0  0  0
    2.6368   -1.2780   -1.7229 N   0  3  0  0  0  0  0  0  0  0  0  0
    3.1364   -1.1479   -0.8599 H   0  0  0  0  0  0  0  0  0  0  0  0
    3.3262   -1.7349   -2.7549 C   0  0  0  0  0  0  0  0  0  0  0  0
    2.7773   -1.9395   -3.9194 N   0  0  0  0  0  0  0  0  0  0  0  0
    1.7983   -1.7445   -4.0337 H   0  0  0  0  0  0  0  0  0  0  0  0
    3.3149   -2.2862   -4.6924 H   0  0  0  0  0  0  0  0  0  0  0  0
    4.5968   -1.9971   -2.6355 N   0  0  0  0  0  0  0  0  0  0  0  0
    5.0644   -1.8554   -1.7568 H   0  0  0  0  0  0  0  0  0  0  0  0
    5.1161   -2.3436   -3.4209 H   0  0  0  0  0  0  0  0  0  0  0  0
   -1.6547    1.3413    1.4779 C   0  0  0  0  0  0  0  0  0  0  0  0
   -2.5654    1.9858    0.9716 O   0  0  0  0  0  0  0  0  0  0  0  0
   -0.8107    1.8504    2.3808 N   0  0  0  0  0  0  0  0  0  0  0  0
   -0.1136    1.2381    2.7719 H   0  0  0  0  0  0  0  0  0  0  0  0
   -0.8954    3.2155    2.9026 C   0  0  0  0  0  0  0  0  0  0  0  0
   -1.8299    3.3430    3.4532 H   0  0  0  0  0  0  0  0  0  0  0  0
   -0.0581    3.4194    3.5712 H   0  0  0  0  0  0  0  0  0  0  0  0
   -0.8804    3.9320    2.0784 H   0  0  0  0  0  0  0  0  0  0  0  0
  5  6  2  0  0  0  0
  5  7  1  0  0  0  0
  2  3  1  0  0  0  0
  2  4  1  0  0  0  0
  2  5  1  0  0  0  0
  1  2  1  0  0  0  0
 29 30  2  0  0  0  0
 29 31  1  0  0  0  0
 26 27  1  0  0  0  0
 26 28  1  0  0  0  0
 23 24  1  0  0  0  0
 23 25  1  0  0  0  0
 22 23  1  0  0  0  0
 22 26  1  0  0  0  0
 20 21  1  0  0  0  0
 20 22  2  0  0  0  0
 17 18  1  0  0  0  0
 17 19  1  0  0  0  0
 17 20  1  0  0  0  0
 14 15  1  0  0  0  0
 14 16  1  0  0  0  0
 14 17  1  0  0  0  0
 11 12  1  0  0  0  0
 11 13  1  0  0  0  0
 11 14  1  0  0  0  0
  9 10  1  0  0  0  0
  9 11  1  0  0  0  0
  9 29  1  0  0  0  0
  7  8  1  0  0  0  0
  7  9  1  0  0  0  0
 33 34  1  0  0  0  0
 33 35  1  0  0  0  0
 33 36  1  0  0  0  0
 31 32  1  0  0  0  0
 31 33  1  0  0  0  0
M  CHG  1  20   1
M  END
$$$$
default_name
  -OEChem-02102213163D

 36 35  0     1  0  0  0  0  0999 V2000
   -4.2256   -3.6731    1.8584 H   0  0  0  0  0  0  0  0  0  0  0  0
   -4.2396   -2.6781    1.4144 C   0  0  0  0  0  0  0  0  0  0  0  0
   -4.9506   -2.0521    1.9514 H   0  0  0  0  0  0  0  0  0  0  0  0
   -4.5266   -2.7521    0.3674 H   0  0  0  0  0  0  0  0  0  0  0  0
   -2.8576   -2.0761    1.5184 C   0  0  0  0  0  0  0  0  0  0  0  0
   -1.9456   -2.7051    2.0404 O   0  0  0  0  0  0  0  0  0  0  0  0
   -2.6926   -0.8481    1.0174 N   0  0  0  0  0  0  0  0  0  0  0  0
   -3.4926   -0.3971    0.5954 H   0  0  0  0  0  0  0  0  0  0  0  0
   -1.4216   -0.1071    1.0434 C   0  0  1  0  0  0  0  0  0  0  0  0
   -0.7579   -0.5878    1.7640 H   0  0  0  0  0  0  0  0  0  0  0  0
   -0.7791   -0.1912   -0.3557 C   0  0  0  0  0  0  0  0  0  0  0  0
   -1.4366   -0.7708   -1.0067 H   0  0  0  0  0  0  0  0  0  0  0  0
   -0.6933    0.8157   -0.7701 H   0  0  0  0  0  0  0  0  0  0  0  0
    0.6055   -0.8552   -0.3537 C   0  0  0  0  0  0  0  0  0  0  0  0
    1.2862   -0.2873    0.2821 H   0  0  0  0  0  0  0  0  0  0  0  0
    0.5174   -1.8719    0.0306 H   0  0  0  0  0  0  0  0  0  0  0  0
    1.1674   -0.8961   -1.7813 C   0  0  0  0  0  0  0  0  0  0  0  0
    0.4669   -1.4434   -2.4162 H   0  0  0  0  0  0  0  0  0  0  0  0
    1.2519    0.1285   -2.1511 H   0  0  0  0  0  0  0  0  0  0  0  0
    2.4915   -1.5497   -1.8309 N   0  3  0  0  0  0  0  0  0  0  0  0
    2.8846   -1.8411   -0.9524 H   0  0  0  0  0  0  0  0  0  0  0  0
    3.2057   -1.7870   -2.9184 C   0  0  0  0  0  0  0  0  0  0  0  0
    2.7905   -1.4506   -4.1074 N   0  0  0  0  0  0  0  0  0  0  0  0
    1.8982   -0.9979   -4.1982 H   0  0  0  0  0  0  0  0  0  0  0  0
    3.3451   -1.6376   -4.9225 H   0  0  0  0  0  0  0  0  0  0  0  0
    4.3658   -2.3732   -2.8310 N   0  0  0  0  0  0  0  0  0  0  0  0
    4.7282   -2.6516   -1.9354 H   0  0  0  0  0  0  0  0  0  0  0  0
    4.9044   -2.5514   -3.6585 H   0  0  0  0  0  0  0  0  0  0  0  0
   -1.6547    1.3413    1.4779 C   0  0  0  0  0  0  0  0  0  0  0  0
   -2.5654    1.9858    0.9716 O   0  0  0  0  0  0  0  0  0  0  0  0
   -0.8107    1.8504    2.3808 N   0  0  0  0  0  0  0  0  0  0  0  0
   -0.1136    1.2381    2.7719 H   0  0  0  0  0  0  0  0  0  0  0  0
   -0.8954    3.2155    2.9026 C   0  0  0  0  0  0  0  0  0  0  0  0
   -1.8299    3.3430    3.4532 H   0  0  0  0  0  0  0  0  0  0  0  0
   -0.0581    3.4194    3.5712 H   0  0  0  0  0  0  0  0  0  0  0  0
   -0.8804    3.9320    2.0784 H   0  0  0  0  0  0  0  0  0  0  0  0
  5  6  2  0  0  0  0
  5  7  1  0  0  0  0
  2  3  1  0  0  0  0
  2  4  1  0  0  0  0
  2  5  1  0  0  0  0
  1  2  1  0  0  0  0
 29 30  2  0  0  0  0
 29 31  1  0  0  0  0
 26 27  1  0  0  0  0
 26 28  1  0  0  0  0
 23 24  1  0  0  0  0
 23 25  1  0  0  0  0
 22 23  1  0  0  0  0
 22 26  1  0  0  0  0
 20 21  1  0  0  0  0
 20 22  2  0  0  0  0
 17 18  1  0  0  0  0
 17 19  1  0  0  0  0
 17 20  1  0  0  0  0
 14 15  1  0  0  0  0
 14 16  1  0  0  0  0
 14 17  1  0  0  0  0
 11 12  1  0  0  0  0
 11 13  1  0  0  0  0
 11 14  1  0  0  0  0
  9 10  1  0  0  0  0
  9 11  1  0  0  0  0
  9 29  1  0  0  0  0
  7  8  1  0  0  0  0
  7  9  1  0  0  0  0
 33 34  1  0  0  0  0
 33 35  1  0  0  0  0
 33 36  1  0  0  0  0
 31 32  1  0  0  0  0
 31 33  1  0  0  0  0
M  CHG  1  20   1
M  END
$$$$
default_name
  -OEChem-02102213163D

 36 35  0     1  0  0  0  0  0999 V2000
   -4.2256   -3.6731    1.8584 H   0  0  0  0  0  0  0  0  0  0  0  0
   -4.2396   -2.6781    1.4144 C   0  0  0  0  0  0  0  0  0  0  0  0
   -4.9506   -2.0521    1.9514 H   0  0  0  0  0  0  0  0  0  0  0  0
   -4.5266   -2.7521    0.3674 H   0  0  0  0  0  0  0  0  0  0  0  0
   -2.8576   -2.0761    1.5184 C   0  0  0  0  0  0  0  0  0  0  0  0
   -1.9456   -2.7051    2.0404 O   0  0  0  0  0  0  0  0  0  0  0  0
   -2.6926   -0.8481    1.0174 N   0  0  0  0  0  0  0  0  0  0  0  0
   -3.4926   -0.3971    0.5954 H   0  0  0  0  0  0  0  0  0  0  0  0
   -1.4216   -0.1071    1.0434 C   0  0  1  0  0  0  0  0  0  0  0  0
   -0.7579   -0.5878    1.7640 H   0  0  0  0  0  0  0  0  0  0  0  0
   -0.7791   -0.1912   -0.3557 C   0  0  0  0  0  0  0  0  0  0  0  0
   -1.4366   -0.7708   -1.0067 H   0  0  0  0  0  0  0  0  0  0  0  0
   -0.6933    0.8157   -0.7701 H   0  0  0  0  0  0  0  0  0  0  0  0
    0.6055   -0.8552   -0.3537 C   0  0  0  0  0  0  0  0  0  0  0  0
    1.2030   -0.4602    0.4691 H   0  0  0  0  0  0  0  0  0  0  0  0
    0.4889   -1.9323   -0.2296 H   0  0  0  0  0  0  0  0  0  0  0  0
    1.3241   -0.5691   -1.6793 C   0  0  0  0  0  0  0  0  0  0  0  0
    0.7066   -0.9439   -2.4987 H   0  0  0  0  0  0  0  0  0  0  0  0
    1.4355    0.5124   -1.7879 H   0  0  0  0  0  0  0  0  0  0  0  0
    2.6542   -1.2101   -1.7315 N   0  3  0  0  0  0  0  0  0  0  0  0
    2.9505   -1.7036   -0.9068 H   0  0  0  0  0  0  0  0  0  0  0  0
    3.4887   -1.1963   -2.7573 C   0  0  0  0  0  0  0  0  0  0  0  0
    3.2047   -0.5863   -3.8738 N   0  0  0  0  0  0  0  0  0  0  0  0
    2.3221   -0.1134   -3.9557 H   0  0  0  0  0  0  0  0  0  0  0  0
    3.8495   -0.5852   -4.6426 H   0  0  0  0  0  0  0  0  0  0  0  0
    4.6397   -1.8017   -2.6798 N   0  0  0  0  0  0  0  0  0  0  0  0
    4.9034   -2.2861   -1.8391 H   0  0  0  0  0  0  0  0  0  0  0  0
    5.2698   -1.7888   -3.4604 H   0  0  0  0  0  0  0  0  0  0  0  0
   -1.6547    1.3413    1.4779 C   0  0  0  0  0  0  0  0  0  0  0  0
   -2.5654    1.9858    0.9716 O   0  0  0  0  0  0  0  0  0  0  0  0
   -0.8107    1.8504    2.3808 N   0  0  0  0  0  0  0  0  0  0  0  0
   -0.1136    1.2381    2.7719 H   0  0  0  0  0  0  0  0  0  0  0  0
   -0.8954    3.2155    2.9026 C   0  0  0  0  0  0  0  0  0  0  0  0
   -1.8299    3.3430    3.4532 H   0  0  0  0  0  0  0  0  0  0  0  0
   -0.0581    3.4194    3.5712 H   0  0  0  0  0  0  0  0  0  0  0  0
   -0.8804    3.9320    2.0784 H   0  0  0  0  0  0  0  0  0  0  0  0
  5  6  2  0  0  0  0
  5  7  1  0  0  0  0
  2  3  1  0  0  0  0
  2  4  1  0  0  0  0
  2  5  1  0  0  0  0
  1  2  1  0  0  0  0
 29 30  2  0  0  0  0
 29 31  1  0  0  0  0
 26 27  1  0  0  0  0
 26 28  1  0  0  0  0
 23 24  1  0  0  0  0
 23 25  1  0  0  0  0
 22 23  1  0  0  0  0
 22 26  1  0  0  0  0
 20 21  1  0  0  0  0
 20 22  2  0  0  0  0
 17 18  1  0  0  0  0
 17 19  1  0  0  0  0
 17 20  1  0  0  0  0
 14 15  1  0  0  0  0
 14 16  1  0  0  0  0
 14 17  1  0  0  0  0
 11 12  1  0  0  0  0
 11 13  1  0  0  0  0
 11 14  1  0  0  0  0
  9 10  1  0  0  0  0
  9 11  1  0  0  0  0
  9 29  1  0  0  0  0
  7  8  1  0  0  0  0
  7  9  1  0  0  0  0
 33 34  1  0  0  0  0
 33 35  1  0  0  0  0
 33 36  1  0  0  0  0
 31 32  1  0  0  0  0
 31 33  1  0  0  0  0
M  CHG  1  20   1
M  END
$$$$
default_name
  -OEChem-02102213163D

 36 35  0     1  0  0  0  0  0999 V2000
   -4.2256   -3.6731    1.8584 H   0  0  0  0  0  0  0  0  0  0  0  0
   -4.2396   -2.6781    1.4144 C   0  0  0  0  0  0  0  0  0  0  0  0
   -4.9506   -2.0521    1.9514 H   0  0  0  0  0  0  0  0  0  0  0  0
   -4.5266   -2.7521    0.3674 H   0  0  0  0  0  0  0  0  0  0  0  0
   -2.8576   -2.0761    1.5184 C   0  0  0  0  0  0  0  0  0  0  0  0
   -1.9456   -2.7051    2.0404 O   0  0  0  0  0  0  0  0  0  0  0  0
   -2.6926   -0.8481    1.0174 N   0  0  0  0  0  0  0  0  0  0  0  0
   -3.4926   -0.3971    0.5954 H   0  0  0  0  0  0  0  0  0  0  0  0
   -1.4216   -0.1071    1.0434 C   0  0  1  0  0  0  0  0  0  0  0  0
   -0.7579   -0.5878    1.7640 H   0  0  0  0  0  0  0  0  0  0  0  0
   -0.7791   -0.1912   -0.3557 C   0  0  0  0  0  0  0  0  0  0  0  0
   -1.4366   -0.7708   -1.0067 H   0  0  0  0  0  0  0  0  0  0  0  0
   -0.6933    0.8157   -0.7701 H   0  0  0  0  0  0  0  0  0  0  0  0
    0.6055   -0.8552   -0.3537 C   0  0  0  0  0  0  0  0  0  0  0  0
    1.1017   -0.6710    0.6002 H   0  0  0  0  0  0  0  0  0  0  0  0
    0.4904   -1.9299   -0.4982 H   0  0  0  0  0  0  0  0  0  0  0  0
    1.4640   -0.2769   -1.4869 C   0  0  0  0  0  0  0  0  0  0  0  0
    0.9471   -0.4422   -2.4350 H   0  0  0  0  0  0  0  0  0  0  0  0
    1.5721    0.7984   -1.3270 H   0  0  0  0  0  0  0  0  0  0  0  0
    2.8001   -0.9053   -1.5380 N   0  3  0  0  0  0  0  0  0  0  0  0
    3.0090   -1.5814   -0.8234 H   0  0  0  0  0  0  0  0  0  0  0  0
    3.7439   -0.6633   -2.4322 C   0  0  0  0  0  0  0  0  0  0  0  0
    3.5783    0.1941   -3.4001 N   0  0  0  0  0  0  0  0  0  0  0  0
    2.7040    0.6845   -3.4677 H   0  0  0  0  0  0  0  0  0  0  0  0
    4.3050    0.3663   -4.0703 H   0  0  0  0  0  0  0  0  0  0  0  0
    4.8872   -1.2849   -2.3697 N   0  0  0  0  0  0  0  0  0  0  0  0
    5.0616   -1.9555   -1.6412 H   0  0  0  0  0  0  0  0  0  0  0  0
    5.6004   -1.0984   -3.0502 H   0  0  0  0  0  0  0  0  0  0  0  0
   -1.6547    1.3413    1.4779 C   0  0  0  0  0  0  0  0  0  0  0  0
   -2.5654    1.9858    0.9716 O   0  0  0  0  0  0  0  0  0  0  0  0
   -0.8107    1.8504    2.3808 N   0  0  0  0  0  0  0  0  0  0  0  0
   -0.1136    1.2381    2.7719 H   0  0  0  0  0  0  0  0  0  0  0  0
   -0.8954    3.2155    2.9026 C   0  0  0  0  0  0  0  0  0  0  0  0
   -1.8299    3.3430    3.4532 H   0  0  0  0  0  0  0  0  0  0  0  0
   -0.0581    3.4194    3.5712 H   0  0  0  0  0  0  0  0  0  0  0  0
   -0.8804    3.9320    2.0784 H   0  0  0  0  0  0  0  0  0  0  0  0
  5  6  2  0  0  0  0
  5  7  1  0  0  0  0
  2  3  1  0  0  0  0
  2  4  1  0  0  0  0
  2  5  1  0  0  0  0
  1  2  1  0  0  0  0
 29 30  2  0  0  0  0
 29 31  1  0  0  0  0
 26 27  1  0  0  0  0
 26 28  1  0  0  0  0
 23 24  1  0  0  0  0
 23 25  1  0  0  0  0
 22 23  1  0  0  0  0
 22 26  1  0  0  0  0
 20 21  1  0  0  0  0
 20 22  2  0  0  0  0
 17 18  1  0  0  0  0
 17 19  1  0  0  0  0
 17 20  1  0  0  0  0
 14 15  1  0  0  0  0
 14 16  1  0  0  0  0
 14 17  1  0  0  0  0
 11 12  1  0  0  0  0
 11 13  1  0  0  0  0
 11 14  1  0  0  0  0
  9 10  1  0  0  0  0
  9 11  1  0  0  0  0
  9 29  1  0  0  0  0
  7  8  1  0  0  0  0
  7  9  1  0  0  0  0
 33 34  1  0  0  0  0
 33 35  1  0  0  0  0
 33 36  1  0  0  0  0
 31 32  1  0  0  0  0
 31 33  1  0  0  0  0
M  CHG  1  20   1
M  END
$$$$
default_name
  -OEChem-02102213163D

 36 35  0     1  0  0  0  0  0999 V2000
   -4.2256   -3.6731    1.8584 H   0  0  0  0  0  0  0  0  0  0  0  0
   -4.2396   -2.6781    1.4144 C   0  0  0  0  0  0  0  0  0  0  0  0
   -4.9506   -2.0521    1.9514 H   0  0  0  0  0  0  0  0  0  0  0  0
   -4.5266   -2.7521    0.3674 H   0  0  0  0  0  0  0  0  0  0  0  0
   -2.8576   -2.0761    1.5184 C   0  0  0  0  0  0  0  0  0  0  0  0
   -1.9456   -2.7051    2.0404 O   0  0  0  0  0  0  0  0  0  0  0  0
   -2.6926   -0.8481    1.0174 N   0  0  0  0  0  0  0  0  0  0  0  0
   -3.4926   -0.3971    0.5954 H   0  0  0  0  0  0  0  0  0  0  0  0
   -1.4216   -0.1071    1.0434 C   0  0  1  0  0  0  0  0  0  0  0  0
   -0.7579   -0.5878    1.7640 H   0  0  0  0  0  0  0  0  0  0  0  0
   -0.7791   -0.1912   -0.3557 C   0  0  0  0  0  0  0  0  0  0  0  0
   -1.4366   -0.7708   -1.0067 H   0  0  0  0  0  0  0  0  0  0  0  0
   -0.6933    0.8157   -0.7701 H   0  0  0  0  0  0  0  0  0  0  0  0
    0.6055   -0.8552   -0.3537 C   0  0  0  0  0  0  0  0  0  0  0  0
    0.9893   -0.9051    0.6662 H   0  0  0  0  0  0  0  0  0  0  0  0
    0.5219   -1.8649   -0.7570 H   0  0  0  0  0  0  0  0  0  0  0  0
    1.5774   -0.0396   -1.2172 C   0  0  0  0  0  0  0  0  0  0  0  0
    1.1722    0.0277   -2.2294 H   0  0  0  0  0  0  0  0  0  0  0  0
    1.6523    0.9673   -0.7997 H   0  0  0  0  0  0  0  0  0  0  0  0
    2.9193   -0.6559   -1.2636 N   0  3  0  0  0  0  0  0  0  0  0  0
    3.0561   -1.4828   -0.7078 H   0  0  0  0  0  0  0  0  0  0  0  0
    3.9539   -0.2241   -1.9652 C   0  0  0  0  0  0  0  0  0  0  0  0
    3.8859    0.8375   -2.7186 N   0  0  0  0  0  0  0  0  0  0  0  0
    3.0181    1.3414   -2.7673 H   0  0  0  0  0  0  0  0  0  0  0  0
    4.6807    1.1519   -3.2444 H   0  0  0  0  0  0  0  0  0  0  0  0
    5.0913   -0.8580   -1.9219 N   0  0  0  0  0  0  0  0  0  0  0  0
    5.1923   -1.6823   -1.3551 H   0  0  0  0  0  0  0  0  0  0  0  0
    5.8736   -0.5270   -2.4558 H   0  0  0  0  0  0  0  0  0  0  0  0
   -1.6547    1.3413    1.4779 C   0  0  0  0  0  0  0  0  0  0  0  0
   -2.5654    1.9858    0.9716 O   0  0  0  0  0  0  0  0  0  0  0  0
   -0.8107    1.8504    2.3808 N   0  0  0  0  0  0  0  0  0  0  0  0
   -0.1136    1.2381    2.7719 H   0  0  0  0  0  0  0  0  0  0  0  0
   -0.8954    3.2155    2.9026 C   0  0  0  0  0  0  0  0  0  0  0  0
   -1.8299    3.3430    3.4532 H   0  0  0  0  0  0  0  0  0  0  0  0
   -0.0581    3.4194    3.5712 H   0  0  0  0  0  0  0  0  0  0  0  0
   -0.8804    3.9320    2.0784 H   0  0  0  0  0  0  0  0  0  0  0  0
  5  6  2  0  0  0  0
  5  7  1  0  0  0  0
  2  3  1  0  0  0  0
  2  4  1  0  0  0  0
  2  5  1  0  0  0  0
  1  2  1  0  0  0  0
 29 30  2  0  0  0  0
 29 31  1  0  0  0  0
 26 27  1  0  0  0  0
 26 28  1  0  0  0  0
 23 24  1  0  0  0  0
 23 25  1  0  0  0  0
 22 23  1  0  0  0  0
 22 26  1  0  0  0  0
 20 21  1  0  0  0  0
 20 22  2  0  0  0  0
 17 18  1  0  0  0  0
 17 19  1  0  0  0  0
 17 20  1  0  0  0  0
 14 15  1  0  0  0  0
 14 16  1  0  0  0  0
 14 17  1  0  0  0  0
 11 12  1  0  0  0  0
 11 13  1  0  0  0  0
 11 14  1  0  0  0  0
  9 10  1  0  0  0  0
  9 11  1  0  0  0  0
  9 29  1  0  0  0  0
  7  8  1  0  0  0  0
  7  9  1  0  0  0  0
 33 34  1  0  0  0  0
 33 35  1  0  0  0  0
 33 36  1  0  0  0  0
 31 32  1  0  0  0  0
 31 33  1  0  0  0  0
M  CHG  1  20   1
M  END
$$$$
default_name
  -OEChem-02102213163D

 36 35  0     1  0  0  0  0  0999 V2000
   -4.2256   -3.6731    1.8584 H   0  0  0  0  0  0  0  0  0  0  0  0
   -4.2396   -2.6781    1.4144 C   0  0  0  0  0  0  0  0  0  0  0  0
   -4.9506   -2.0521    1.9514 H   0  0  0  0  0  0  0  0  0  0  0  0
   -4.5266   -2.7521    0.3674 H   0  0  0  0  0  0  0  0  0  0  0  0
   -2.8576   -2.0761    1.5184 C   0  0  0  0  0  0  0  0  0  0  0  0
   -1.9456   -2.7051    2.0404 O   0  0  0  0  0  0  0  0  0  0  0  0
   -2.6926   -0.8481    1.0174 N   0  0  0  0  0  0  0  0  0  0  0  0
   -3.4926   -0.3971    0.5954 H   0  0  0  0  0  0  0  0  0  0  0  0
   -1.4216   -0.1071    1.0434 C   0  0  1  0  0  0  0  0  0  0  0  0
   -0.7579   -0.5878    1.7640 H   0  0  0  0  0  0  0  0  0  0  0  0
   -0.7791   -0.1912   -0.3557 C   0  0  0  0  0  0  0  0  0  0  0  0
   -1.4366   -0.7708   -1.0067 H   0  0  0  0  0  0  0  0  0  0  0  0
   -0.6933    0.8157   -0.7701 H   0  0  0  0  0  0  0  0  0  0  0  0
    0.6055   -0.8552   -0.3537 C   0  0  0  0  0  0  0  0  0  0  0  0
    0.8735   -1.1467    0.6628 H   0  0  0  0  0  0  0  0  0  0  0  0
    0.5813   -1.7418   -0.9882 H   0  0  0  0  0  0  0  0  0  0  0  0
    1.6567    0.1267   -0.8886 C   0  0  0  0  0  0  0  0  0  0  0  0
    1.3664    0.4337   -1.8961 H   0  0  0  0  0  0  0  0  0  0  0  0
    1.6707    1.0073   -0.2421 H   0  0  0  0  0  0  0  0  0  0  0  0
    3.0037   -0.4791   -0.9270 N   0  3  0  0  0  0  0  0  0  0  0  0
    3.0886   -1.4145   -0.5678 H   0  0  0  0  0  0  0  0  0  0  0  0
    4.1043    0.0911   -1.3881 C   0  0  0  0  0  0  0  0  0  0  0  0
    4.1066    1.3000   -1.8757 N   0  0  0  0  0  0  0  0  0  0  0  0
    3.2429    1.8126   -1.9024 H   0  0  0  0  0  0  0  0  0  0  0  0
    4.9508    1.7181   -2.2212 H   0  0  0  0  0  0  0  0  0  0  0  0
    5.2382   -0.5500   -1.3668 N   0  0  0  0  0  0  0  0  0  0  0  0
    5.2864   -1.4851   -1.0004 H   0  0  0  0  0  0  0  0  0  0  0  0
    6.0708   -0.1138   -1.7177 H   0  0  0  0  0  0  0  0  0  0  0  0
   -1.6547    1.3413    1.4779 C   0  0  0  0  0  0  0  0  0  0  0  0
   -2.5654    1.9858    0.9716 O   0  0  0  0  0  0  0  0  0  0  0  0
   -0.8107    1.8504    2.3808 N   0  0  0  0  0  0  0  0  0  0  0  0
   -0.1136    1.2381    2.7719 H   0  0  0  0  0  0  0  0  0  0  0  0
   -0.8954    3.2155    2.9026 C   0  0  0  0  0  0  0  0  0  0  0  0
   -1.8299    3.3430    3.4532 H   0  0  0  0  0  0  0  0  0  0  0  0
   -0.0581    3.4194    3.5712 H   0  0  0  0  0  0  0  0  0  0  0  0
   -0.8804    3.9320    2.0784 H   0  0  0  0  0  0  0  0  0  0  0  0
  5  6  2  0  0  0  0
  5  7  1  0  0  0  0
  2  3  1  0  0  0  0
  2  4  1  0  0  0  0
  2  5  1  0  0  0  0
  1  2  1  0  0  0  0
 29 30  2  0  0  0  0
 29 31  1  0  0  0  0
 26 27  1  0  0  0  0
 26 28  1  0  0  0  0
 23 24  1  0  0  0  0
 23 25  1  0  0  0  0
 22 23  1  0  0  0  0
 22 26  1  0  0  0  0
 20 21  1  0  0  0  0
 20 22  2  0  0  0  0
 17 18  1  0  0  0  0
 17 19  1  0  0  0  0
 17 20  1  0  0  0  0
 14 15  1  0  0  0  0
 14 16  1  0  0  0  0
 14 17  1  0  0  0  0
 11 12  1  0  0  0  0
 11 13  1  0  0  0  0
 11 14  1  0  0  0  0
  9 10  1  0  0  0  0
  9 11  1  0  0  0  0
  9 29  1  0  0  0  0
  7  8  1  0  0  0  0
  7  9  1  0  0  0  0
 33 34  1  0  0  0  0
 33 35  1  0  0  0  0
 33 36  1  0  0  0  0
 31 32  1  0  0  0  0
 31 33  1  0  0  0  0
M  CHG  1  20   1
M  END
$$$$
default_name
  -OEChem-02102213163D

 36 35  0     1  0  0  0  0  0999 V2000
   -4.2256   -3.6731    1.8584 H   0  0  0  0  0  0  0  0  0  0  0  0
   -4.2396   -2.6781    1.4144 C   0  0  0  0  0  0  0  0  0  0  0  0
   -4.9506   -2.0521    1.9514 H   0  0  0  0  0  0  0  0  0  0  0  0
   -4.5266   -2.7521    0.3674 H   0  0  0  0  0  0  0  0  0  0  0  0
   -2.8576   -2.0761    1.5184 C   0  0  0  0  0  0  0  0  0  0  0  0
   -1.9456   -2.7051    2.0404 O   0  0  0  0  0  0  0  0  0  0  0  0
   -2.6926   -0.8481    1.0174 N   0  0  0  0  0  0  0  0  0  0  0  0
   -3.4926   -0.3971    0.5954 H   0  0  0  0  0  0  0  0  0  0  0  0
   -1.4216   -0.1071    1.0434 C   0  0  1  0  0  0  0  0  0  0  0  0
   -0.7579   -0.5878    1.7640 H   0  0  0  0  0  0  0  0  0  0  0  0
   -0.7791   -0.1912   -0.3557 C   0  0  0  0  0  0  0  0  0  0  0  0
   -1.4366   -0.7708   -1.0067 H   0  0  0  0  0  0  0  0  0  0  0  0
   -0.6933    0.8157   -0.7701 H   0  0  0  0  0  0  0  0  0  0  0  0
    0.6055   -0.8552   -0.3537 C   0  0  0  0  0  0  0  0  0  0  0  0
    0.7620   -1.3794    0.5902 H   0  0  0  0  0  0  0  0  0  0  0  0
    0.6645   -1.5688   -1.1762 H   0  0  0  0  0  0  0  0  0  0  0  0
    1.6965    0.2108   -0.5236 C   0  0  0  0  0  0  0  0  0  0  0  0
    1.5166    0.7481   -1.4575 H   0  0  0  0  0  0  0  0  0  0  0  0
    1.6261    0.9159    0.3080 H   0  0  0  0  0  0  0  0  0  0  0  0
    3.0474   -0.3868   -0.5512 N   0  3  0  0  0  0  0  0  0  0  0  0
    3.1044   -1.3813   -0.4130 H   0  0  0  0  0  0  0  0  0  0  0  0
    4.1848    0.2610   -0.7403 C   0  0  0  0  0  0  0  0  0  0  0  0
    4.2252    1.5502   -0.9290 N   0  0  0  0  0  0  0  0  0  0  0  0
    3.3630    2.0659   -0.9318 H   0  0  0  0  0  0  0  0  0  0  0  0
    5.0970    2.0264   -1.0706 H   0  0  0  0  0  0  0  0  0  0  0  0
    5.3179   -0.3821   -0.7424 N   0  0  0  0  0  0  0  0  0  0  0  0
    5.3375   -1.3774   -0.6013 H   0  0  0  0  0  0  0  0  0  0  0  0
    6.1785    0.1132   -0.8863 H   0  0  0  0  0  0  0  0  0  0  0  0
   -1.6547    1.3413    1.4779 C   0  0  0  0  0  0  0  0  0  0  0  0
   -2.5654    1.9858    0.9716 O   0  0  0  0  0  0  0  0  0  0  0  0
   -0.8107    1.8504    2.3808 N   0  0  0  0  0  0  0  0  0  0  0  0
   -0.1136    1.2381    2.7719 H   0  0  0  0  0  0  0  0  0  0  0  0
   -0.8954    3.2155    2.9026 C   0  0  0  0  0  0  0  0  0  0  0  0
   -1.8299    3.3430    3.4532 H   0  0  0  0  0  0  0  0  0  0  0  0
   -0.0581    3.4194    3.5712 H   0  0  0  0  0  0  0  0  0  0  0  0
   -0.8804    3.9320    2.0784 H   0  0  0  0  0  0  0  0  0  0  0  0
  5  6  2  0  0  0  0
  5  7  1  0  0  0  0
  2  3  1  0  0  0  0
  2  4  1  0  0  0  0
  2  5  1  0  0  0  0
  1  2  1  0  0  0  0
 29 30  2  0  0  0  0
 29 31  1  0  0  0  0
 26 27  1  0  0  0  0
 26 28  1  0  0  0  0
 23 24  1  0  0  0  0
 23 25  1  0  0  0  0
 22 23  1  0  0  0  0
 22 26  1  0  0  0  0
 20 21  1  0  0  0  0
 20 22  2  0  0  0  0
 17 18  1  0  0  0  0
 17 19  1  0  0  0  0
 17 20  1  0  0  0  0
 14 15  1  0  0  0  0
 14 16  1  0  0  0  0
 14 17  1  0  0  0  0
 11 12  1  0  0  0  0
 11 13  1  0  0  0  0
 11 14  1  0  0  0  0
  9 10  1  0  0  0  0
  9 11  1  0  0  0  0
  9 29  1  0  0  0  0
  7  8  1  0  0  0  0
  7  9  1  0  0  0  0
 33 34  1  0  0  0  0
 33 35  1  0  0  0  0
 33 36  1  0  0  0  0
 31 32  1  0  0  0  0
 31 33  1  0  0  0  0
M  CHG  1  20   1
M  END
$$$$
default_name
  -OEChem-02102213163D

 36 35  0     1  0  0  0  0  0999 V2000
   -4.2256   -3.6731    1.8584 H   0  0  0  0  0  0  0  0  0  0  0  0
   -4.2396   -2.6781    1.4144 C   0  0  0  0  0  0  0  0  0  0  0  0
   -4.9506   -2.0521    1.9514 H   0  0  0  0  0  0  0  0  0  0  0  0
   -4.5266   -2.7521    0.3674 H   0  0  0  0  0  0  0  0  0  0  0  0
   -2.8576   -2.0761    1.5184 C   0  0  0  0  0  0  0  0  0  0  0  0
   -1.9456   -2.7051    2.0404 O   0  0  0  0  0  0  0  0  0  0  0  0
   -2.6926   -0.8481    1.0174 N   0  0  0  0  0  0  0  0  0  0  0  0
   -3.4926   -0.3971    0.5954 H   0  0  0  0  0  0  0  0  0  0  0  0
   -1.4216   -0.1071    1.0434 C   0  0  1  0  0  0  0  0  0  0  0  0
   -0.7579   -0.5878    1.7640 H   0  0  0  0  0  0  0  0  0  0  0  0
   -0.7791   -0.1912   -0.3557 C   0  0  0  0  0  0  0  0  0  0  0  0
   -1.4366   -0.7708   -1.0067 H   0  0  0  0  0  0  0  0  0  0  0  0
   -0.6933    0.8157   -0.7701 H   0  0  0  0  0  0  0  0  0  0  0  0
    0.6055   -0.8552   -0.3537 C   0  0  0  0  0  0  0  0  0  0  0  0
    0.6625   -1.5872    0.4532 H   0  0  0  0  0  0  0  0  0  0  0  0
    0.7659   -1.3578   -1.3080 H   0  0  0  0  0  0  0  0  0  0  0  0
    1.6941    0.2067   -0.1469 C   0  0  0  0  0  0  0  0  0  0  0  0
    1.6125    0.9495   -0.9438 H   0  0  0  0  0  0  0  0  0  0  0  0
    1.5214    0.6991    0.8130 H   0  0  0  0  0  0  0  0  0  0  0  0
    3.0476   -0.3853   -0.1617 N   0  3  0  0  0  0  0  0  0  0  0  0
    3.1022   -1.3852   -0.2539 H   0  0  0  0  0  0  0  0  0  0  0  0
    4.1901    0.2739   -0.0659 C   0  0  0  0  0  0  0  0  0  0  0  0
    4.2338    1.5709    0.0572 N   0  0  0  0  0  0  0  0  0  0  0  0
    3.3704    2.0842    0.0783 H   0  0  0  0  0  0  0  0  0  0  0  0
    5.1094    2.0557    0.1292 H   0  0  0  0  0  0  0  0  0  0  0  0
    5.3249   -0.3655   -0.0911 N   0  0  0  0  0  0  0  0  0  0  0  0
    5.3421   -1.3664   -0.1849 H   0  0  0  0  0  0  0  0  0  0  0  0
    6.1893    0.1385   -0.0182 H   0  0  0  0  0  0  0  0  0  0  0  0
   -1.6547    1.3413    1.4779 C   0  0  0  0  0  0  0  0  0  0  0  0
   -2.5654    1.9858    0.9716 O   0  0  0  0  0  0  0  0  0  0  0  0
   -0.8107    1.8504    2.3808 N   0  0  0  0  0  0  0  0  0  0  0  0
   -0.1136    1.2381    2.7719 H   0  0  0  0  0  0  0  0  0  0  0  0
   -0.8954    3.2155    2.9026 C   0  0  0  0  0  0  0  0  0  0  0  0
   -1.8299    3.3430    3.4532 H   0  0  0  0  0  0  0  0  0  0  0  0
   -0.0581    3.4194    3.5712 H   0  0  0  0  0  0  0  0  0  0  0  0
   -0.8804    3.9320    2.0784 H   0  0  0  0  0  0  0  0  0  0  0  0
  5  6  2  0  0  0  0
  5  7  1  0  0  0  0
  2  3  1  0  0  0  0
  2  4  1  0  0  0  0
  2  5  1  0  0  0  0
  1  2  1  0  0  0  0
 29 30  2  0  0  0  0
 29 31  1  0  0  0  0
 26 27  1  0  0  0  0
 26 28  1  0  0  0  0
 23 24  1  0  0  0  0
 23 25  1  0  0  0  0
 22 23  1  0  0  0  0
 22 26  1  0  0  0  0
 20 21  1  0  0  0  0
 20 22  2  0  0  0  0
 17 18  1  0  0  0  0
 17 19  1  0  0  0  0
 17 20  1  0  0  0  0
 14 15  1  0  0  0  0
 14 16  1  0  0  0  0
 14 17  1  0  0  0  0
 11 12  1  0  0  0  0
 11 13  1  0  0  0  0
 11 14  1  0  0  0  0
  9 10  1  0  0  0  0
  9 11  1  0  0  0  0
  9 29  1  0  0  0  0
  7  8  1  0  0  0  0
  7  9  1  0  0  0  0
 33 34  1  0  0  0  0
 33 35  1  0  0  0  0
 33 36  1  0  0  0  0
 31 32  1  0  0  0  0
 31 33  1  0  0  0  0
M  CHG  1  20   1
M  END
$$$$
default_name
  -OEChem-02102213163D

 36 35  0     1  0  0  0  0  0999 V2000
   -4.2256   -3.6731    1.8584 H   0  0  0  0  0  0  0  0  0  0  0  0
   -4.2396   -2.6781    1.4144 C   0  0  0  0  0  0  0  0  0  0  0  0
   -4.9506   -2.0521    1.9514 H   0  0  0  0  0  0  0  0  0  0  0  0
   -4.5266   -2.7521    0.3674 H   0  0  0  0  0  0  0  0  0  0  0  0
   -2.8576   -2.0761    1.5184 C   0  0  0  0  0  0  0  0  0  0  0  0
   -1.9456   -2.7051    2.0404 O   0  0  0  0  0  0  0  0  0  0  0  0
   -2.6926   -0.8481    1.0174 N   0  0  0  0  0  0  0  0  0  0  0  0
   -3.4926   -0.3971    0.5954 H   0  0  0  0  0  0  0  0  0  0  0  0
   -1.4216   -0.1071    1.0434 C   0  0  1  0  0  0  0  0  0  0  0  0
   -0.7579   -0.5878    1.7640 H   0  0  0  0  0  0  0  0  0  0  0  0
   -0.7791   -0.1912   -0.3557 C   0  0  0  0  0  0  0  0  0  0  0  0
   -1.4366   -0.7708   -1.0067 H   0  0  0  0  0  0  0  0  0  0  0  0
   -0.6933    0.8157   -0.7701 H   0  0  0  0  0  0  0  0  0  0  0  0
    0.6055   -0.8552   -0.3537 C   0  0  0  0  0  0  0  0  0  0  0  0
    0.5818   -1.7559    0.2613 H   0  0  0  0  0  0  0  0  0  0  0  0
    0.8785   -1.1233   -1.3748 H   0  0  0  0  0  0  0  0  0  0  0  0
    1.6495    0.1149    0.2158 C   0  0  0  0  0  0  0  0  0  0  0  0
    1.6475    1.0241   -0.3898 H   0  0  0  0  0  0  0  0  0  0  0  0
    1.3639    0.3719    1.2385 H   0  0  0  0  0  0  0  0  0  0  0  0
    3.0041   -0.4748    0.2148 N   0  3  0  0  0  0  0  0  0  0  0  0
    3.0824   -1.4262   -0.1014 H   0  0  0  0  0  0  0  0  0  0  0  0
    4.1197    0.1290    0.5891 C   0  0  0  0  0  0  0  0  0  0  0  0
    4.1317    1.3608    1.0156 N   0  0  0  0  0  0  0  0  0  0  0  0
    3.2644    1.8661    1.0590 H   0  0  0  0  0  0  0  0  0  0  0  0
    4.9870    1.8040    1.2962 H   0  0  0  0  0  0  0  0  0  0  0  0
    5.2588   -0.5015    0.5426 N   0  0  0  0  0  0  0  0  0  0  0  0
    5.3000   -1.4531    0.2204 H   0  0  0  0  0  0  0  0  0  0  0  0
    6.1027   -0.0397    0.8274 H   0  0  0  0  0  0  0  0  0  0  0  0
   -1.6547    1.3413    1.4779 C   0  0  0  0  0  0  0  0  0  0  0  0
   -2.5654    1.9858    0.9716 O   0  0  0  0  0  0  0  0  0  0  0  0
   -0.8107    1.8504    2.3808 N   0  0  0  0  0  0  0  0  0  0  0  0
   -0.1136    1.2381    2.7719 H   0  0  0  0  0  0  0  0  0  0  0  0
   -0.8954    3.2155    2.9026 C   0  0  0  0  0  0  0  0  0  0  0  0
   -1.8299    3.3430    3.4532 H   0  0  0  0  0  0  0  0  0  0  0  0
   -0.0581    3.4194    3.5712 H   0  0  0  0  0  0  0  0  0  0  0  0
   -0.8804    3.9320    2.0784 H   0  0  0  0  0  0  0  0  0  0  0  0
  5  6  2  0  0  0  0
  5  7  1  0  0  0  0
  2  3  1  0  0  0  0
  2  4  1  0  0  0  0
  2  5  1  0  0  0  0
  1  2  1  0  0  0  0
 29 30  2  0  0  0  0
 29 31  1  0  0  0  0
 26 27  1  0  0  0  0
 26 28  1  0  0  0  0
 23 24  1  0  0  0  0
 23 25  1  0  0  0  0
 22 23  1  0  0  0  0
 22 26  1  0  0  0  0
 20 21  1  0  0  0  0
 20 22  2  0  0  0  0
 17 18  1  0  0  0  0
 17 19  1  0  0  0  0
 17 20  1  0  0  0  0
 14 15  1  0  0  0  0
 14 16  1  0  0  0  0
 14 17  1  0  0  0  0
 11 12  1  0  0  0  0
 11 13  1  0  0  0  0
 11 14  1  0  0  0  0
  9 10  1  0  0  0  0
  9 11  1  0  0  0  0
  9 29  1  0  0  0  0
  7  8  1  0  0  0  0
  7  9  1  0  0  0  0
 33 34  1  0  0  0  0
 33 35  1  0  0  0  0
 33 36  1  0  0  0  0
 31 32  1  0  0  0  0
 31 33  1  0  0  0  0
M  CHG  1  20   1
M  END
$$$$
default_name
  -OEChem-02102213163D

 36 35  0     1  0  0  0  0  0999 V2000
   -4.2256   -3.6731    1.8584 H   0  0  0  0  0  0  0  0  0  0  0  0
   -4.2396   -2.6781    1.4144 C   0  0  0  0  0  0  0  0  0  0  0  0
   -4.9506   -2.0521    1.9514 H   0  0  0  0  0  0  0  0  0  0  0  0
   -4.5266   -2.7521    0.3674 H   0  0  0  0  0  0  0  0  0  0  0  0
   -2.8576   -2.0761    1.5184 C   0  0  0  0  0  0  0  0  0  0  0  0
   -1.9456   -2.7051    2.0404 O   0  0  0  0  0  0  0  0  0  0  0  0
   -2.6926   -0.8481    1.0174 N   0  0  0  0  0  0  0  0  0  0  0  0
   -3.4926   -0.3971    0.5954 H   0  0  0  0  0  0  0  0  0  0  0  0
   -1.4216   -0.1071    1.0434 C   0  0  1  0  0  0  0  0  0  0  0  0
   -0.7579   -0.5878    1.7640 H   0  0  0  0  0  0  0  0  0  0  0  0
   -0.7791   -0.1912   -0.3557 C   0  0  0  0  0  0  0  0  0  0  0  0
   -1.4366   -0.7708   -1.0067 H   0  0  0  0  0  0  0  0  0  0  0  0
   -0.6933    0.8157   -0.7701 H   0  0  0  0  0  0  0  0  0  0  0  0
    0.6055   -0.8552   -0.3537 C   0  0  0  0  0  0  0  0  0  0  0  0
    0.5254   -1.8742    0.0275 H   0  0  0  0  0  0  0  0  0  0  0  0
    0.9947   -0.8811   -1.3720 H   0  0  0  0  0  0  0  0  0  0  0  0
    1.5659   -0.0584    0.5396 C   0  0  0  0  0  0  0  0  0  0  0  0
    1.6193    0.9670    0.1666 H   0  0  0  0  0  0  0  0  0  0  0  0
    1.1642   -0.0435    1.5555 H   0  0  0  0  0  0  0  0  0  0  0  0
    2.9201   -0.6491    0.5528 N   0  3  0  0  0  0  0  0  0  0  0  0
    3.0461   -1.5013    0.0341 H   0  0  0  0  0  0  0  0  0  0  0  0
    3.9784   -0.1638    1.1801 C   0  0  0  0  0  0  0  0  0  0  0  0
    3.9258    0.9341    1.8808 N   0  0  0  0  0  0  0  0  0  0  0  0
    3.0524    1.4266    1.9436 H   0  0  0  0  0  0  0  0  0  0  0  0
    4.7383    1.2885    2.3511 H   0  0  0  0  0  0  0  0  0  0  0  0
    5.1240   -0.7808    1.1156 N   0  0  0  0  0  0  0  0  0  0  0  0
    5.2140   -1.6313    0.5870 H   0  0  0  0  0  0  0  0  0  0  0  0
    5.9244   -0.4092    1.5930 H   0  0  0  0  0  0  0  0  0  0  0  0
   -1.6547    1.3413    1.4779 C   0  0  0  0  0  0  0  0  0  0  0  0
   -2.5654    1.9858    0.9716 O   0  0  0  0  0  0  0  0  0  0  0  0
   -0.8107    1.8504    2.3808 N   0  0  0  0  0  0  0  0  0  0  0  0
   -0.1136    1.2381    2.7719 H   0  0  0  0  0  0  0  0  0  0  0  0
   -0.8954    3.2155    2.9026 C   0  0  0  0  0  0  0  0  0  0  0  0
   -1.8299    3.3430    3.4532 H   0  0  0  0  0  0  0  0  0  0  0  0
   -0.0581    3.4194    3.5712 H   0  0  0  0  0  0  0  0  0  0  0  0
   -0.8804    3.9320    2.0784 H   0  0  0  0  0  0  0  0  0  0  0  0
  5  6  2  0  0  0  0
  5  7  1  0  0  0  0
  2  3  1  0  0  0  0
  2  4  1  0  0  0  0
  2  5  1  0  0  0  0
  1  2  1  0  0  0  0
 29 30  2  0  0  0  0
 29 31  1  0  0  0  0
 26 27  1  0  0  0  0
 26 28  1  0  0  0  0
 23 24  1  0  0  0  0
 23 25  1  0  0  0  0
 22 23  1  0  0  0  0
 22 26  1  0  0  0  0
 20 21  1  0  0  0  0
 20 22  2  0  0  0  0
 17 18  1  0  0  0  0
 17 19  1  0  0  0  0
 17 20  1  0  0  0  0
 14 15  1  0  0  0  0
 14 16  1  0  0  0  0
 14 17  1  0  0  0  0
 11 12  1  0  0  0  0
 11 13  1  0  0  0  0
 11 14  1  0  0  0  0
  9 10  1  0  0  0  0
  9 11  1  0  0  0  0
  9 29  1  0  0  0  0
  7  8  1  0  0  0  0
  7  9  1  0  0  0  0
 33 34  1  0  0  0  0
 33 35  1  0  0  0  0
 33 36  1  0  0  0  0
 31 32  1  0  0  0  0
 31 33  1  0  0  0  0
M  CHG  1  20   1
M  END
$$$$
default_name
  -OEChem-02102213163D

 36 35  0     1  0  0  0  0  0999 V2000
   -4.2256   -3.6731    1.8584 H   0  0  0  0  0  0  0  0  0  0  0  0
   -4.2396   -2.6781    1.4144 C   0  0  0  0  0  0  0  0  0  0  0  0
   -4.9506   -2.0521    1.9514 H   0  0  0  0  0  0  0  0  0  0  0  0
   -4.5266   -2.7521    0.3674 H   0  0  0  0  0  0  0  0  0  0  0  0
   -2.8576   -2.0761    1.5184 C   0  0  0  0  0  0  0  0  0  0  0  0
   -1.9456   -2.7051    2.0404 O   0  0  0  0  0  0  0  0  0  0  0  0
   -2.6926   -0.8481    1.0174 N   0  0  0  0  0  0  0  0  0  0  0  0
   -3.4926   -0.3971    0.5954 H   0  0  0  0  0  0  0  0  0  0  0  0
   -1.4216   -0.1071    1.0434 C   0  0  1  0  0  0  0  0  0  0  0  0
   -0.7579   -0.5878    1.7640 H   0  0  0  0  0  0  0  0  0  0  0  0
   -0.7791   -0.1912   -0.3557 C   0  0  0  0  0  0  0  0  0  0  0  0
   -1.4366   -0.7708   -1.0067 H   0  0  0  0  0  0  0  0  0  0  0  0
   -0.6933    0.8157   -0.7701 H   0  0  0  0  0  0  0  0  0  0  0  0
    0.6055   -0.8552   -0.3537 C   0  0  0  0  0  0  0  0  0  0  0  0
    0.4972   -1.9339   -0.2322 H   0  0  0  0  0  0  0  0  0  0  0  0
    1.1065   -0.6477   -1.2998 H   0  0  0  0  0  0  0  0  0  0  0  0
    1.4490   -0.3014    0.8027 C   0  0  0  0  0  0  0  0  0  0  0  0
    1.5298    0.7820    0.6876 H   0  0  0  0  0  0  0  0  0  0  0  0
    0.9360   -0.5188    1.7425 H   0  0  0  0  0  0  0  0  0  0  0  0
    2.8011   -0.8963    0.8291 N   0  3  0  0  0  0  0  0  0  0  0  0
    2.9960   -1.6056    0.1433 H   0  0  0  0  0  0  0  0  0  0  0  0
    3.7759   -0.5847    1.6668 C   0  0  0  0  0  0  0  0  0  0  0  0
    3.6303    0.3200    2.5940 N   0  0  0  0  0  0  0  0  0  0  0  0
    2.7487    0.7955    2.6718 H   0  0  0  0  0  0  0  0  0  0  0  0
    4.3801    0.5443    3.2219 H   0  0  0  0  0  0  0  0  0  0  0  0
    4.9298   -1.1843    1.5888 N   0  0  0  0  0  0  0  0  0  0  0  0
    5.0900   -1.8891    0.8898 H   0  0  0  0  0  0  0  0  0  0  0  0
    5.6666   -0.9448    2.2263 H   0  0  0  0  0  0  0  0  0  0  0  0
   -1.6547    1.3413    1.4779 C   0  0  0  0  0  0  0  0  0  0  0  0
   -2.5654    1.9858    0.9716 O   0  0  0  0  0  0  0  0  0  0  0  0
   -0.8107    1.8504    2.3808 N   0  0  0  0  0  0  0  0  0  0  0  0
   -0.1136    1.2381    2.7719 H   0  0  0  0  0  0  0  0  0  0  0  0
   -0.8954    3.2155    2.9026 C   0  0  0  0  0  0  0  0  0  0  0  0
   -1.8299    3.3430    3.4532 H   0  0  0  0  0  0  0  0  0  0  0  0
   -0.0581    3.4194    3.5712 H   0  0  0  0  0  0  0  0  0  0  0  0
   -0.8804    3.9320    2.0784 H   0  0  0  0  0  0  0  0  0  0  0  0
  5  6  2  0  0  0  0
  5  7  1  0  0  0  0
  2  3  1  0  0  0  0
  2  4  1  0  0  0  0
  2  5  1  0  0  0  0
  1  2  1  0  0  0  0
 29 30  2  0  0  0  0
 29 31  1  0  0  0  0
 26 27  1  0  0  0  0
 26 28  1  0  0  0  0
 23 24  1  0  0  0  0
 23 25  1  0  0  0  0
 22 23  1  0  0  0  0
 22 26  1  0  0  0  0
 20 21  1  0  0  0  0
 20 22  2  0  0  0  0
 17 18  1  0  0  0  0
 17 19  1  0  0  0  0
 17 20  1  0  0  0  0
 14 15  1  0  0  0  0
 14 16  1  0  0  0  0
 14 17  1  0  0  0  0
 11 12  1  0  0  0  0
 11 13  1  0  0  0  0
 11 14  1  0  0  0  0
  9 10  1  0  0  0  0
  9 11  1  0  0  0  0
  9 29  1  0  0  0  0
  7  8  1  0  0  0  0
  7  9  1  0  0  0  0
 33 34  1  0  0  0  0
 33 35  1  0  0  0  0
 33 36  1  0  0  0  0
 31 32  1  0  0  0  0
 31 33  1  0  0  0  0
M  CHG  1  20   1
M  END
$$$$
default_name
  -OEChem-02102213163D

 36 35  0     1  0  0  0  0  0999 V2000
   -4.2256   -3.6731    1.8584 H   0  0  0  0  0  0  0  0  0  0  0  0
   -4.2396   -2.6781    1.4144 C   0  0  0  0  0  0  0  0  0  0  0  0
   -4.9506   -2.0521    1.9514 H   0  0  0  0  0  0  0  0  0  0  0  0
   -4.5266   -2.7521    0.3674 H   0  0  0  0  0  0  0  0  0  0  0  0
   -2.8576   -2.0761    1.5184 C   0  0  0  0  0  0  0  0  0  0  0  0
   -1.9456   -2.7051    2.0404 O   0  0  0  0  0  0  0  0  0  0  0  0
   -2.6926   -0.8481    1.0174 N   0  0  0  0  0  0  0  0  0  0  0  0
   -3.4926   -0.3971    0.5954 H   0  0  0  0  0  0  0  0  0  0  0  0
   -1.4216   -0.1071    1.0434 C   0  0  1  0  0  0  0  0  0  0  0  0
   -0.7579   -0.5878    1.7640 H   0  0  0  0  0  0  0  0  0  0  0  0
   -0.7791   -0.1912   -0.3557 C   0  0  0  0  0  0  0  0  0  0  0  0
   -1.4366   -0.7708   -1.0067 H   0  0  0  0  0  0  0  0  0  0  0  0
   -0.6933    0.8157   -0.7701 H   0  0  0  0  0  0  0  0  0  0  0  0
    0.6055   -0.8552   -0.3537 C   0  0  0  0  0  0  0  0  0  0  0  0
    0.4990   -1.9310   -0.5002 H   0  0  0  0  0  0  0  0  0  0  0  0
    1.2063   -0.4392   -1.1630 H   0  0  0  0  0  0  0  0  0  0  0  0
    1.3067   -0.5975    0.9870 C   0  0  0  0  0  0  0  0  0  0  0  0
    1.3851    0.4816    1.1377 H   0  0  0  0  0  0  0  0  0  0  0  0
    0.6948   -1.0216    1.7865 H   0  0  0  0  0  0  0  0  0  0  0  0
    2.6553   -1.1997    1.0251 N   0  3  0  0  0  0  0  0  0  0  0  0
    2.9354   -1.7318    0.2190 H   0  0  0  0  0  0  0  0  0  0  0  0
    3.5259   -1.1048    2.0161 C   0  0  0  0  0  0  0  0  0  0  0  0
    3.2652   -0.4397    3.1065 N   0  0  0  0  0  0  0  0  0  0  0  0
    2.3740    0.0159    3.1938 H   0  0  0  0  0  0  0  0  0  0  0  0
    3.9370   -0.3779    3.8493 H   0  0  0  0  0  0  0  0  0  0  0  0
    4.6894   -1.6846    1.9300 N   0  0  0  0  0  0  0  0  0  0  0  0
    4.9363   -2.2087    1.1083 H   0  0  0  0  0  0  0  0  0  0  0  0
    5.3469   -1.6100    2.6841 H   0  0  0  0  0  0  0  0  0  0  0  0
   -1.6547    1.3413    1.4779 C   0  0  0  0  0  0  0  0  0  0  0  0
   -2.5654    1.9858    0.9716 O   0  0  0  0  0  0  0  0  0  0  0  0
   -0.8107    1.8504    2.3808 N   0  0  0  0  0  0  0  0  0  0  0  0
   -0.1136    1.2381    2.7719 H   0  0  0  0  0  0  0  0  0  0  0  0
   -0.8954    3.2155    2.9026 C   0  0  0  0  0  0  0  0  0  0  0  0
   -1.8299    3.3430    3.4532 H   0  0  0  0  0  0  0  0  0  0  0  0
   -0.0581    3.4194    3.5712 H   0  0  0  0  0  0  0  0  0  0  0  0
   -0.8804    3.9320    2.0784 H   0  0  0  0  0  0  0  0  0  0  0  0
  5  6  2  0  0  0  0
  5  7  1  0  0  0  0
  2  3  1  0  0  0  0
  2  4  1  0  0  0  0
  2  5  1  0  0  0  0
  1  2  1  0  0  0  0
 29 30  2  0  0  0  0
 29 31  1  0  0  0  0
 26 27  1  0  0  0  0
 26 28  1  0  0  0  0
 23 24  1  0  0  0  0
 23 25  1  0  0  0  0
 22 23  1  0  0  0  0
 22 26  1  0  0  0  0
 20 21  1  0  0  0  0
 20 22  2  0  0  0  0
 17 18  1  0  0  0  0
 17 19  1  0  0  0  0
 17 20  1  0  0  0  0
 14 15  1  0  0  0  0
 14 16  1  0  0  0  0
 14 17  1  0  0  0  0
 11 12  1  0  0  0  0
 11 13  1  0  0  0  0
 11 14  1  0  0  0  0
  9 10  1  0  0  0  0
  9 11  1  0  0  0  0
  9 29  1  0  0  0  0
  7  8  1  0  0  0  0
  7  9  1  0  0  0  0
 33 34  1  0  0  0  0
 33 35  1  0  0  0  0
 33 36  1  0  0  0  0
 31 32  1  0  0  0  0
 31 33  1  0  0  0  0
M  CHG  1  20   1
M  END
$$$$
default_name
  -OEChem-02102213163D

 36 35  0     1  0  0  0  0  0999 V2000
   -4.2256   -3.6731    1.8584 H   0  0  0  0  0  0  0  0  0  0  0  0
   -4.2396   -2.6781    1.4144 C   0  0  0  0  0  0  0  0  0  0  0  0
   -4.9506   -2.0521    1.9514 H   0  0  0  0  0  0  0  0  0  0  0  0
   -4.5266   -2.7521    0.3674 H   0  0  0  0  0  0  0  0  0  0  0  0
   -2.8576   -2.0761    1.5184 C   0  0  0  0  0  0  0  0  0  0  0  0
   -1.9456   -2.7051    2.0404 O   0  0  0  0  0  0  0  0  0  0  0  0
   -2.6926   -0.8481    1.0174 N   0  0  0  0  0  0  0  0  0  0  0  0
   -3.4926   -0.3971    0.5954 H   0  0  0  0  0  0  0  0  0  0  0  0
   -1.4216   -0.1071    1.0434 C   0  0  1  0  0  0  0  0  0  0  0  0
   -0.7579   -0.5878    1.7640 H   0  0  0  0  0  0  0  0  0  0  0  0
   -0.7791   -0.1912   -0.3557 C   0  0  0  0  0  0  0  0  0  0  0  0
   -1.4366   -0.7708   -1.0067 H   0  0  0  0  0  0  0  0  0  0  0  0
   -0.6933    0.8157   -0.7701 H   0  0  0  0  0  0  0  0  0  0  0  0
    0.6055   -0.8552   -0.3537 C   0  0  0  0  0  0  0  0  0  0  0  0
    0.5307   -1.8656   -0.7581 H   0  0  0  0  0  0  0  0  0  0  0  0
    1.2874   -0.2696   -0.9711 H   0  0  0  0  0  0  0  0  0  0  0  0
    1.1487   -0.9267    1.0799 C   0  0  0  0  0  0  0  0  0  0  0  0
    1.1951    0.0864    1.4861 H   0  0  0  0  0  0  0  0  0  0  0  0
    0.4570   -1.5177    1.6848 H   0  0  0  0  0  0  0  0  0  0  0  0
    2.4927   -1.5385    1.1272 N   0  3  0  0  0  0  0  0  0  0  0  0
    2.8684   -1.8713    0.2558 H   0  0  0  0  0  0  0  0  0  0  0  0
    3.2456   -1.6888    2.2041 C   0  0  0  0  0  0  0  0  0  0  0  0
    2.8554   -1.2932    3.3833 N   0  0  0  0  0  0  0  0  0  0  0  0
    1.9540   -0.8591    3.4742 H   0  0  0  0  0  0  0  0  0  0  0  0
    3.4390   -1.4152    4.1905 H   0  0  0  0  0  0  0  0  0  0  0  0
    4.4192   -2.2475    2.1159 N   0  0  0  0  0  0  0  0  0  0  0  0
    4.7636   -2.5686    1.2275 H   0  0  0  0  0  0  0  0  0  0  0  0
    4.9871   -2.3595    2.9354 H   0  0  0  0  0  0  0  0  0  0  0  0
   -1.6547    1.3413    1.4779 C   0  0  0  0  0  0  0  0  0  0  0  0
   -2.5654    1.9858    0.9716 O   0  0  0  0  0  0  0  0  0  0  0  0
   -0.8107    1.8504    2.3808 N   0  0  0  0  0  0  0  0  0  0  0  0
   -0.1136    1.2381    2.7719 H   0  0  0  0  0  0  0  0  0  0  0  0
   -0.8954    3.2155    2.9026 C   0  0  0  0  0  0  0  0  0  0  0  0
   -1.8299    3.3430    3.4532 H   0  0  0  0  0  0  0  0  0  0  0  0
   -0.0581    3.4194    3.5712 H   0  0  0  0  0  0  0  0  0  0  0  0
   -0.8804    3.9320    2.0784 H   0  0  0  0  0  0  0  0  0  0  0  0
  5  6  2  0  0  0  0
  5  7  1  0  0  0  0
  2  3  1  0  0  0  0
  2  4  1  0  0  0  0
  2  5  1  0  0  0  0
  1  2  1  0  0  0  0
 29 30  2  0  0  0  0
 29 31  1  0  0  0  0
 26 27  1  0  0  0  0
 26 28  1  0  0  0  0
 23 24  1  0  0  0  0
 23 25  1  0  0  0  0
 22 23  1  0  0  0  0
 22 26  1  0  0  0  0
 20 21  1  0  0  0  0
 20 22  2  0  0  0  0
 17 18  1  0  0  0  0
 17 19  1  0  0  0  0
 17 20  1  0  0  0  0
 14 15  1  0  0  0  0
 14 16  1  0  0  0  0
 14 17  1  0  0  0  0
 11 12  1  0  0  0  0
 11 13  1  0  0  0  0
 11 14  1  0  0  0  0
  9 10  1  0  0  0  0
  9 11  1  0  0  0  0
  9 29  1  0  0  0  0
  7  8  1  0  0  0  0
  7  9  1  0  0  0  0
 33 34  1  0  0  0  0
 33 35  1  0  0  0  0
 33 36  1  0  0  0  0
 31 32  1  0  0  0  0
 31 33  1  0  0  0  0
M  CHG  1  20   1
M  END
$$$$
default_name
  -OEChem-02102213163D

 36 35  0     1  0  0  0  0  0999 V2000
   -4.2256   -3.6731    1.8584 H   0  0  0  0  0  0  0  0  0  0  0  0
   -4.2396   -2.6781    1.4144 C   0  0  0  0  0  0  0  0  0  0  0  0
   -4.9506   -2.0521    1.9514 H   0  0  0  0  0  0  0  0  0  0  0  0
   -4.5266   -2.7521    0.3674 H   0  0  0  0  0  0  0  0  0  0  0  0
   -2.8576   -2.0761    1.5184 C   0  0  0  0  0  0  0  0  0  0  0  0
   -1.9456   -2.7051    2.0404 O   0  0  0  0  0  0  0  0  0  0  0  0
   -2.6926   -0.8481    1.0174 N   0  0  0  0  0  0  0  0  0  0  0  0
   -3.4926   -0.3971    0.5954 H   0  0  0  0  0  0  0  0  0  0  0  0
   -1.4216   -0.1071    1.0434 C   0  0  1  0  0  0  0  0  0  0  0  0
   -0.7579   -0.5878    1.7640 H   0  0  0  0  0  0  0  0  0  0  0  0
   -0.7791   -0.1912   -0.3557 C   0  0  0  0  0  0  0  0  0  0  0  0
   -1.4366   -0.7708   -1.0067 H   0  0  0  0  0  0  0  0  0  0  0  0
   -0.6933    0.8157   -0.7701 H   0  0  0  0  0  0  0  0  0  0  0  0
    0.6055   -0.8552   -0.3537 C   0  0  0  0  0  0  0  0  0  0  0  0
    0.5902   -1.7423   -0.9885 H   0  0  0  0  0  0  0  0  0  0  0  0
    1.3441   -0.1505   -0.7371 H   0  0  0  0  0  0  0  0  0  0  0  0
    0.9859   -1.2663    1.0752 C   0  0  0  0  0  0  0  0  0  0  0  0
    0.9727   -0.3767    1.7091 H   0  0  0  0  0  0  0  0  0  0  0  0
    0.2389   -1.9732    1.4441 H   0  0  0  0  0  0  0  0  0  0  0  0
    2.3243   -1.8896    1.1286 N   0  3  0  0  0  0  0  0  0  0  0  0
    2.7996   -2.0147    0.2513 H   0  0  0  0  0  0  0  0  0  0  0  0
    2.9539   -2.2968    2.2180 C   0  0  0  0  0  0  0  0  0  0  0  0
    2.4290   -2.1824    3.4057 N   0  0  0  0  0  0  0  0  0  0  0  0
    1.5171   -1.7698    3.4939 H   0  0  0  0  0  0  0  0  0  0  0  0
    2.9201   -2.4969    4.2222 H   0  0  0  0  0  0  0  0  0  0  0  0
    4.1375   -2.8347    2.1339 N   0  0  0  0  0  0  0  0  0  0  0  0
    4.5835   -2.9440    1.2394 H   0  0  0  0  0  0  0  0  0  0  0  0
    4.6117   -3.1422    2.9628 H   0  0  0  0  0  0  0  0  0  0  0  0
   -1.6547    1.3413    1.4779 C   0  0  0  0  0  0  0  0  0  0  0  0
   -2.5654    1.9858    0.9716 O   0  0  0  0  0  0  0  0  0  0  0  0
   -0.8107    1.8504    2.3808 N   0  0  0  0  0  0  0  0  0  0  0  0
   -0.1136    1.2381    2.7719 H   0  0  0  0  0  0  0  0  0  0  0  0
   -0.8954    3.2155    2.9026 C   0  0  0  0  0  0  0  0  0  0  0  0
   -1.8299    3.3430    3.4532 H   0  0  0  0  0  0  0  0  0  0  0  0
   -0.0581    3.4194    3.5712 H   0  0  0  0  0  0  0  0  0  0  0  0
   -0.8804    3.9320    2.0784 H   0  0  0  0  0  0  0  0  0  0  0  0
  5  6  2  0  0  0  0
  5  7  1  0  0  0  0
  2  3  1  0  0  0  0
  2  4  1  0  0  0  0
  2  5  1  0  0  0  0
  1  2  1  0  0  0  0
 29 30  2  0  0  0  0
 29 31  1  0  0  0  0
 26 27  1  0  0  0  0
 26 28  1  0  0  0  0
 23 24  1  0  0  0  0
 23 25  1  0  0  0  0
 22 23  1  0  0  0  0
 22 26  1  0  0  0  0
 20 21  1  0  0  0  0
 20 22  2  0  0  0  0
 17 18  1  0  0  0  0
 17 19  1  0  0  0  0
 17 20  1  0  0  0  0
 14 15  1  0  0  0  0
 14 16  1  0  0  0  0
 14 17  1  0  0  0  0
 11 12  1  0  0  0  0
 11 13  1  0  0  0  0
 11 14  1  0  0  0  0
  9 10  1  0  0  0  0
  9 11  1  0  0  0  0
  9 29  1  0  0  0  0
  7  8  1  0  0  0  0
  7  9  1  0  0  0  0
 33 34  1  0  0  0  0
 33 35  1  0  0  0  0
 33 36  1  0  0  0  0
 31 32  1  0  0  0  0
 31 33  1  0  0  0  0
M  CHG  1  20   1
M  END
$$$$
default_name
  -OEChem-02102213163D

 36 35  0     1  0  0  0  0  0999 V2000
   -4.2256   -3.6731    1.8584 H   0  0  0  0  0  0  0  0  0  0  0  0
   -4.2396   -2.6781    1.4144 C   0  0  0  0  0  0  0  0  0  0  0  0
   -4.9506   -2.0521    1.9514 H   0  0  0  0  0  0  0  0  0  0  0  0
   -4.5266   -2.7521    0.3674 H   0  0  0  0  0  0  0  0  0  0  0  0
   -2.8576   -2.0761    1.5184 C   0  0  0  0  0  0  0  0  0  0  0  0
   -1.9456   -2.7051    2.0404 O   0  0  0  0  0  0  0  0  0  0  0  0
   -2.6926   -0.8481    1.0174 N   0  0  0  0  0  0  0  0  0  0  0  0
   -3.4926   -0.3971    0.5954 H   0  0  0  0  0  0  0  0  0  0  0  0
   -1.4216   -0.1071    1.0434 C   0  0  1  0  0  0  0  0  0  0  0  0
   -0.7579   -0.5878    1.7640 H   0  0  0  0  0  0  0  0  0  0  0  0
   -0.7791   -0.1912   -0.3557 C   0  0  0  0  0  0  0  0  0  0  0  0
   -1.4366   -0.7708   -1.0067 H   0  0  0  0  0  0  0  0  0  0  0  0
   -0.6933    0.8157   -0.7701 H   0  0  0  0  0  0  0  0  0  0  0  0
    0.6055   -0.8552   -0.3537 C   0  0  0  0  0  0  0  0  0  0  0  0
    0.6734   -1.5693   -1.1756 H   0  0  0  0  0  0  0  0  0  0  0  0
    1.3727   -0.0902   -0.4769 H   0  0  0  0  0  0  0  0  0  0  0  0
    0.8291   -1.5933    0.9732 C   0  0  0  0  0  0  0  0  0  0  0  0
    0.7330   -0.8762    1.7916 H   0  0  0  0  0  0  0  0  0  0  0  0
    0.0553   -2.3570    1.0809 H   0  0  0  0  0  0  0  0  0  0  0  0
    2.1615   -2.2292    1.0292 N   0  3  0  0  0  0  0  0  0  0  0  0
    2.7337   -2.1522    0.2058 H   0  0  0  0  0  0  0  0  0  0  0  0
    2.6708   -2.8875    2.0569 C   0  0  0  0  0  0  0  0  0  0  0  0
    2.0148   -3.0466    3.1721 N   0  0  0  0  0  0  0  0  0  0  0  0
    1.0933   -2.6543    3.2514 H   0  0  0  0  0  0  0  0  0  0  0  0
    2.4157   -3.5494    3.9424 H   0  0  0  0  0  0  0  0  0  0  0  0
    3.8636   -3.4062    1.9827 N   0  0  0  0  0  0  0  0  0  0  0  0
    4.4083   -3.3095    1.1431 H   0  0  0  0  0  0  0  0  0  0  0  0
    4.2462   -3.9048    2.7647 H   0  0  0  0  0  0  0  0  0  0  0  0
   -1.6547    1.3413    1.4779 C   0  0  0  0  0  0  0  0  0  0  0  0
   -2.5654    1.9858    0.9716 O   0  0  0  0  0  0  0  0  0  0  0  0
   -0.8107    1.8504    2.3808 N   0  0  0  0  0  0  0  0  0  0  0  0
   -0.1136    1.2381    2.7719 H   0  0  0  0  0  0  0  0  0  0  0  0
   -0.8954    3.2155    2.9026 C   0  0  0  0  0  0  0  0  0  0  0  0
   -1.8299    3.3430    3.4532 H   0  0  0  0  0  0  0  0  0  0  0  0
   -0.0581    3.4194    3.5712 H   0  0  0  0  0  0  0  0  0  0  0  0
   -0.8804    3.9320    2.0784 H   0  0  0  0  0  0  0  0  0  0  0  0
  5  6  2  0  0  0  0
  5  7  1  0  0  0  0
  2  3  1  0  0  0  0
  2  4  1  0  0  0  0
  2  5  1  0  0  0  0
  1  2  1  0  0  0  0
 29 30  2  0  0  0  0
 29 31  1  0  0  0  0
 26 27  1  0  0  0  0
 26 28  1  0  0  0  0
 23 24  1  0  0  0  0
 23 25  1  0  0  0  0
 22 23  1  0  0  0  0
 22 26  1  0  0  0  0
 20 21  1  0  0  0  0
 20 22  2  0  0  0  0
 17 18  1  0  0  0  0
 17 19  1  0  0  0  0
 17 20  1  0  0  0  0
 14 15  1  0  0  0  0
 14 16  1  0  0  0  0
 14 17  1  0  0  0  0
 11 12  1  0  0  0  0
 11 13  1  0  0  0  0
 11 14  1  0  0  0  0
  9 10  1  0  0  0  0
  9 11  1  0  0  0  0
  9 29  1  0  0  0  0
  7  8  1  0  0  0  0
  7  9  1  0  0  0  0
 33 34  1  0  0  0  0
 33 35  1  0  0  0  0
 33 36  1  0  0  0  0
 31 32  1  0  0  0  0
 31 33  1  0  0  0  0
M  CHG  1  20   1
M  END
$$$$
default_name
  -OEChem-02102213163D

 36 35  0     1  0  0  0  0  0999 V2000
   -4.2256   -3.6731    1.8584 H   0  0  0  0  0  0  0  0  0  0  0  0
   -4.2396   -2.6781    1.4144 C   0  0  0  0  0  0  0  0  0  0  0  0
   -4.9506   -2.0521    1.9514 H   0  0  0  0  0  0  0  0  0  0  0  0
   -4.5266   -2.7521    0.3674 H   0  0  0  0  0  0  0  0  0  0  0  0
   -2.8576   -2.0761    1.5184 C   0  0  0  0  0  0  0  0  0  0  0  0
   -1.9456   -2.7051    2.0404 O   0  0  0  0  0  0  0  0  0  0  0  0
   -2.6926   -0.8481    1.0174 N   0  0  0  0  0  0  0  0  0  0  0  0
   -3.4926   -0.3971    0.5954 H   0  0  0  0  0  0  0  0  0  0  0  0
   -1.4216   -0.1071    1.0434 C   0  0  1  0  0  0  0  0  0  0  0  0
   -0.7579   -0.5878    1.7640 H   0  0  0  0  0  0  0  0  0  0  0  0
   -0.7791   -0.1912   -0.3557 C   0  0  0  0  0  0  0  0  0  0  0  0
   -1.4366   -0.7708   -1.0067 H   0  0  0  0  0  0  0  0  0  0  0  0
   -0.6933    0.8157   -0.7701 H   0  0  0  0  0  0  0  0  0  0  0  0
    0.6055   -0.8552   -0.3537 C   0  0  0  0  0  0  0  0  0  0  0  0
    0.7746   -1.3586   -1.3066 H   0  0  0  0  0  0  0  0  0  0  0  0
    1.3712   -0.0926   -0.2082 H   0  0  0  0  0  0  0  0  0  0  0  0
    0.6893   -1.8855    0.7808 C   0  0  0  0  0  0  0  0  0  0  0  0
    0.4925   -1.3779    1.7279 H   0  0  0  0  0  0  0  0  0  0  0  0
   -0.0813   -2.6431    0.6200 H   0  0  0  0  0  0  0  0  0  0  0  0
    2.0156   -2.5340    0.8357 N   0  3  0  0  0  0  0  0  0  0  0  0
    2.6752   -2.2745    0.1223 H   0  0  0  0  0  0  0  0  0  0  0  0
    2.4156   -3.4206    1.7318 C   0  0  0  0  0  0  0  0  0  0  0  0
    1.6411   -3.8271    2.6984 N   0  0  0  0  0  0  0  0  0  0  0  0
    0.7113   -3.4522    2.7634 H   0  0  0  0  0  0  0  0  0  0  0  0
    1.9602   -4.5008    3.3700 H   0  0  0  0  0  0  0  0  0  0  0  0
    3.6162   -3.9231    1.6726 N   0  0  0  0  0  0  0  0  0  0  0  0
    4.2500   -3.6401    0.9452 H   0  0  0  0  0  0  0  0  0  0  0  0
    3.9156   -4.5953    2.3545 H   0  0  0  0  0  0  0  0  0  0  0  0
   -1.6547    1.3413    1.4779 C   0  0  0  0  0  0  0  0  0  0  0  0
   -2.5654    1.9858    0.9716 O   0  0  0  0  0  0  0  0  0  0  0  0
   -0.8107    1.8504    2.3808 N   0  0  0  0  0  0  0  0  0  0  0  0
   -0.1136    1.2381    2.7719 H   0  0  0  0  0  0  0  0  0  0  0  0
   -0.8954    3.2155    2.9026 C   0  0  0  0  0  0  0  0  0  0  0  0
   -1.8299    3.3430    3.4532 H   0  0  0  0  0  0  0  0  0  0  0  0
   -0.0581    3.4194    3.5712 H   0  0  0  0  0  0  0  0  0  0  0  0
   -0.8804    3.9320    2.0784 H   0  0  0  0  0  0  0  0  0  0  0  0
  5  6  2  0  0  0  0
  5  7  1  0  0  0  0
  2  3  1  0  0  0  0
  2  4  1  0  0  0  0
  2  5  1  0  0  0  0
  1  2  1  0  0  0  0
 29 30  2  0  0  0  0
 29 31  1  0  0  0  0
 26 27  1  0  0  0  0
 26 28  1  0  0  0  0
 23 24  1  0  0  0  0
 23 25  1  0  0  0  0
 22 23  1  0  0  0  0
 22 26  1  0  0  0  0
 20 21  1  0  0  0  0
 20 22  2  0  0  0  0
 17 18  1  0  0  0  0
 17 19  1  0  0  0  0
 17 20  1  0  0  0  0
 14 15  1  0  0  0  0
 14 16  1  0  0  0  0
 14 17  1  0  0  0  0
 11 12  1  0  0  0  0
 11 13  1  0  0  0  0
 11 14  1  0  0  0  0
  9 10  1  0  0  0  0
  9 11  1  0  0  0  0
  9 29  1  0  0  0  0
  7  8  1  0  0  0  0
  7  9  1  0  0  0  0
 33 34  1  0  0  0  0
 33 35  1  0  0  0  0
 33 36  1  0  0  0  0
 31 32  1  0  0  0  0
 31 33  1  0  0  0  0
M  CHG  1  20   1
M  END
$$$$
default_name
  -OEChem-02102213163D

 36 35  0     1  0  0  0  0  0999 V2000
   -4.2256   -3.6731    1.8584 H   0  0  0  0  0  0  0  0  0  0  0  0
   -4.2396   -2.6781    1.4144 C   0  0  0  0  0  0  0  0  0  0  0  0
   -4.9506   -2.0521    1.9514 H   0  0  0  0  0  0  0  0  0  0  0  0
   -4.5266   -2.7521    0.3674 H   0  0  0  0  0  0  0  0  0  0  0  0
   -2.8576   -2.0761    1.5184 C   0  0  0  0  0  0  0  0  0  0  0  0
   -1.9456   -2.7051    2.0404 O   0  0  0  0  0  0  0  0  0  0  0  0
   -2.6926   -0.8481    1.0174 N   0  0  0  0  0  0  0  0  0  0  0  0
   -3.4926   -0.3971    0.5954 H   0  0  0  0  0  0  0  0  0  0  0  0
   -1.4216   -0.1071    1.0434 C   0  0  1  0  0  0  0  0  0  0  0  0
   -0.7579   -0.5878    1.7640 H   0  0  0  0  0  0  0  0  0  0  0  0
   -0.7791   -0.1912   -0.3557 C   0  0  0  0  0  0  0  0  0  0  0  0
   -1.4366   -0.7708   -1.0067 H   0  0  0  0  0  0  0  0  0  0  0  0
   -0.6933    0.8157   -0.7701 H   0  0  0  0  0  0  0  0  0  0  0  0
    0.6055   -0.8552   -0.3537 C   0  0  0  0  0  0  0  0  0  0  0  0
    0.8870   -1.1245   -1.3727 H   0  0  0  0  0  0  0  0  0  0  0  0
    1.3397   -0.1576    0.0505 H   0  0  0  0  0  0  0  0  0  0  0  0
    0.5759   -2.1228    0.5111 C   0  0  0  0  0  0  0  0  0  0  0  0
    0.2674   -1.8478    1.5224 H   0  0  0  0  0  0  0  0  0  0  0  0
   -0.1615   -2.8119    0.0927 H   0  0  0  0  0  0  0  0  0  0  0  0
    1.8964   -2.7834    0.5613 N   0  3  0  0  0  0  0  0  0  0  0  0
    2.6281   -2.3731    0.0067 H   0  0  0  0  0  0  0  0  0  0  0  0
    2.2057   -3.8597    1.2648 C   0  0  0  0  0  0  0  0  0  0  0  0
    1.3335   -4.4705    2.0169 N   0  0  0  0  0  0  0  0  0  0  0  0
    0.3972   -4.1091    2.0631 H   0  0  0  0  0  0  0  0  0  0  0  0
    1.5846   -5.2864    2.5441 H   0  0  0  0  0  0  0  0  0  0  0  0
    3.4120   -4.3500    1.2248 N   0  0  0  0  0  0  0  0  0  0  0  0
    4.1194   -3.9133    0.6591 H   0  0  0  0  0  0  0  0  0  0  0  0
    3.6424   -5.1666    1.7601 H   0  0  0  0  0  0  0  0  0  0  0  0
   -1.6547    1.3413    1.4779 C   0  0  0  0  0  0  0  0  0  0  0  0
   -2.5654    1.9858    0.9716 O   0  0  0  0  0  0  0  0  0  0  0  0
   -0.8107    1.8504    2.3808 N   0  0  0  0  0  0  0  0  0  0  0  0
   -0.1136    1.2381    2.7719 H   0  0  0  0  0  0  0  0  0  0  0  0
   -0.8954    3.2155    2.9026 C   0  0  0  0  0  0  0  0  0  0  0  0
   -1.8299    3.3430    3.4532 H   0  0  0  0  0  0  0  0  0  0  0  0
   -0.0581    3.4194    3.5712 H   0  0  0  0  0  0  0  0  0  0  0  0
   -0.8804    3.9320    2.0784 H   0  0  0  0  0  0  0  0  0  0  0  0
  5  6  2  0  0  0  0
  5  7  1  0  0  0  0
  2  3  1  0  0  0  0
  2  4  1  0  0  0  0
  2  5  1  0  0  0  0
  1  2  1  0  0  0  0
 29 30  2  0  0  0  0
 29 31  1  0  0  0  0
 26 27  1  0  0  0  0
 26 28  1  0  0  0  0
 23 24  1  0  0  0  0
 23 25  1  0  0  0  0
 22 23  1  0  0  0  0
 22 26  1  0  0  0  0
 20 21  1  0  0  0  0
 20 22  2  0  0  0  0
 17 18  1  0  0  0  0
 17 19  1  0  0  0  0
 17 20  1  0  0  0  0
 14 15  1  0  0  0  0
 14 16  1  0  0  0  0
 14 17  1  0  0  0  0
 11 12  1  0  0  0  0
 11 13  1  0  0  0  0
 11 14  1  0  0  0  0
  9 10  1  0  0  0  0
  9 11  1  0  0  0  0
  9 29  1  0  0  0  0
  7  8  1  0  0  0  0
  7  9  1  0  0  0  0
 33 34  1  0  0  0  0
 33 35  1  0  0  0  0
 33 36  1  0  0  0  0
 31 32  1  0  0  0  0
 31 33  1  0  0  0  0
M  CHG  1  20   1
M  END
$$$$
default_name
  -OEChem-02102213163D

 36 35  0     1  0  0  0  0  0999 V2000
   -4.2256   -3.6731    1.8584 H   0  0  0  0  0  0  0  0  0  0  0  0
   -4.2396   -2.6781    1.4144 C   0  0  0  0  0  0  0  0  0  0  0  0
   -4.9506   -2.0521    1.9514 H   0  0  0  0  0  0  0  0  0  0  0  0
   -4.5266   -2.7521    0.3674 H   0  0  0  0  0  0  0  0  0  0  0  0
   -2.8576   -2.0761    1.5184 C   0  0  0  0  0  0  0  0  0  0  0  0
   -1.9456   -2.7051    2.0404 O   0  0  0  0  0  0  0  0  0  0  0  0
   -2.6926   -0.8481    1.0174 N   0  0  0  0  0  0  0  0  0  0  0  0
   -3.4926   -0.3971    0.5954 H   0  0  0  0  0  0  0  0  0  0  0  0
   -1.4216   -0.1071    1.0434 C   0  0  1  0  0  0  0  0  0  0  0  0
   -0.7579   -0.5878    1.7640 H   0  0  0  0  0  0  0  0  0  0  0  0
   -0.7791   -0.1912   -0.3557 C   0  0  0  0  0  0  0  0  0  0  0  0
   -1.4366   -0.7708   -1.0067 H   0  0  0  0  0  0  0  0  0  0  0  0
   -0.6933    0.8157   -0.7701 H   0  0  0  0  0  0  0  0  0  0  0  0
    0.6055   -0.8552   -0.3537 C   0  0  0  0  0  0  0  0  0  0  0  0
    1.0029   -0.8828   -1.3693 H   0  0  0  0  0  0  0  0  0  0  0  0
    1.2803   -0.2807    0.2817 H   0  0  0  0  0  0  0  0  0  0  0  0
    0.4966   -2.2891    0.1826 C   0  0  0  0  0  0  0  0  0  0  0  0
    0.0732   -2.2538    1.1890 H   0  0  0  0  0  0  0  0  0  0  0  0
   -0.1799   -2.8520   -0.4649 H   0  0  0  0  0  0  0  0  0  0  0  0
    1.8121   -2.9602    0.2247 N   0  3  0  0  0  0  0  0  0  0  0  0
    2.5956   -2.4413   -0.1333 H   0  0  0  0  0  0  0  0  0  0  0  0
    2.0553   -4.1749    0.6877 C   0  0  0  0  0  0  0  0  0  0  0  0
    1.1129   -4.9330    1.1740 N   0  0  0  0  0  0  0  0  0  0  0  0
    0.1724   -4.5803    1.1981 H   0  0  0  0  0  0  0  0  0  0  0  0
    1.3145   -5.8527    1.5210 H   0  0  0  0  0  0  0  0  0  0  0  0
    3.2651   -4.6579    0.6697 N   0  0  0  0  0  0  0  0  0  0  0  0
    4.0253   -4.1105    0.3045 H   0  0  0  0  0  0  0  0  0  0  0  0
    3.4453   -5.5799    1.0220 H   0  0  0  0  0  0  0  0  0  0  0  0
   -1.6547    1.3413    1.4779 C   0  0  0  0  0  0  0  0  0  0  0  0
   -2.5654    1.9858    0.9716 O   0  0  0  0  0  0  0  0  0  0  0  0
   -0.8107    1.8504    2.3808 N   0  0  0  0  0  0  0  0  0  0  0  0
   -0.1136    1.2381    2.7719 H   0  0  0  0  0  0  0  0  0  0  0  0
   -0.8954    3.2155    2.9026 C   0  0  0  0  0  0  0  0  0  0  0  0
   -1.8299    3.3430    3.4532 H   0  0  0  0  0  0  0  0  0  0  0  0
   -0.0581    3.4194    3.5712 H   0  0  0  0  0  0  0  0  0  0  0  0
   -0.8804    3.9320    2.0784 H   0  0  0  0  0  0  0  0  0  0  0  0
  5  6  2  0  0  0  0
  5  7  1  0  0  0  0
  2  3  1  0  0  0  0
  2  4  1  0  0  0  0
  2  5  1  0  0  0  0
  1  2  1  0  0  0  0
 29 30  2  0  0  0  0
 29 31  1  0  0  0  0
 26 27  1  0  0  0  0
 26 28  1  0  0  0  0
 23 24  1  0  0  0  0
 23 25  1  0  0  0  0
 22 23  1  0  0  0  0
 22 26  1  0  0  0  0
 20 21  1  0  0  0  0
 20 22  2  0  0  0  0
 17 18  1  0  0  0  0
 17 19  1  0  0  0  0
 17 20  1  0  0  0  0
 14 15  1  0  0  0  0
 14 16  1  0  0  0  0
 14 17  1  0  0  0  0
 11 12  1  0  0  0  0
 11 13  1  0  0  0  0
 11 14  1  0  0  0  0
  9 10  1  0  0  0  0
  9 11  1  0  0  0  0
  9 29  1  0  0  0  0
  7  8  1  0  0  0  0
  7  9  1  0  0  0  0
 33 34  1  0  0  0  0
 33 35  1  0  0  0  0
 33 36  1  0  0  0  0
 31 32  1  0  0  0  0
 31 33  1  0  0  0  0
M  CHG  1  20   1
M  END
$$$$
default_name
  -OEChem-02102213163D

 36 35  0     1  0  0  0  0  0999 V2000
   -4.2256   -3.6731    1.8584 H   0  0  0  0  0  0  0  0  0  0  0  0
   -4.2396   -2.6781    1.4144 C   0  0  0  0  0  0  0  0  0  0  0  0
   -4.9506   -2.0521    1.9514 H   0  0  0  0  0  0  0  0  0  0  0  0
   -4.5266   -2.7521    0.3674 H   0  0  0  0  0  0  0  0  0  0  0  0
   -2.8576   -2.0761    1.5184 C   0  0  0  0  0  0  0  0  0  0  0  0
   -1.9456   -2.7051    2.0404 O   0  0  0  0  0  0  0  0  0  0  0  0
   -2.6926   -0.8481    1.0174 N   0  0  0  0  0  0  0  0  0  0  0  0
   -3.4926   -0.3971    0.5954 H   0  0  0  0  0  0  0  0  0  0  0  0
   -1.4216   -0.1071    1.0434 C   0  0  1  0  0  0  0  0  0  0  0  0
   -0.7579   -0.5878    1.7640 H   0  0  0  0  0  0  0  0  0  0  0  0
   -0.7791   -0.1912   -0.3557 C   0  0  0  0  0  0  0  0  0  0  0  0
   -1.4366   -0.7708   -1.0067 H   0  0  0  0  0  0  0  0  0  0  0  0
   -0.6933    0.8157   -0.7701 H   0  0  0  0  0  0  0  0  0  0  0  0
    0.6055   -0.8552   -0.3537 C   0  0  0  0  0  0  0  0  0  0  0  0
    1.1144   -0.6502   -1.2966 H   0  0  0  0  0  0  0  0  0  0  0  0
    1.1970   -0.4537    0.4697 H   0  0  0  0  0  0  0  0  0  0  0  0
    0.4568   -2.3732   -0.1825 C   0  0  0  0  0  0  0  0  0  0  0  0
   -0.0770   -2.5682    0.7505 H   0  0  0  0  0  0  0  0  0  0  0  0
   -0.1353   -2.7605   -1.0150 H   0  0  0  0  0  0  0  0  0  0  0  0
    1.7683   -3.0526   -0.1511 N   0  3  0  0  0  0  0  0  0  0  0  0
    2.5798   -2.4746   -0.2881 H   0  0  0  0  0  0  0  0  0  0  0  0
    1.9747   -4.3448    0.0399 C   0  0  0  0  0  0  0  0  0  0  0  0
    0.9942   -5.1831    0.2272 N   0  0  0  0  0  0  0  0  0  0  0  0
    0.0523   -4.8336    0.2275 H   0  0  0  0  0  0  0  0  0  0  0  0
    1.1682   -6.1610    0.3703 H   0  0  0  0  0  0  0  0  0  0  0  0
    3.1855   -4.8259    0.0453 N   0  0  0  0  0  0  0  0  0  0  0  0
    3.9742   -4.2183   -0.0947 H   0  0  0  0  0  0  0  0  0  0  0  0
    3.3376   -5.8069    0.1906 H   0  0  0  0  0  0  0  0  0  0  0  0
   -1.6547    1.3413    1.4779 C   0  0  0  0  0  0  0  0  0  0  0  0
   -2.5654    1.9858    0.9716 O   0  0  0  0  0  0  0  0  0  0  0  0
   -0.8107    1.8504    2.3808 N   0  0  0  0  0  0  0  0  0  0  0  0
   -0.1136    1.2381    2.7719 H   0  0  0  0  0  0  0  0  0  0  0  0
   -0.8954    3.2155    2.9026 C   0  0  0  0  0  0  0  0  0  0  0  0
   -1.8299    3.3430    3.4532 H   0  0  0  0  0  0  0  0  0  0  0  0
   -0.0581    3.4194    3.5712 H   0  0  0  0  0  0  0  0  0  0  0  0
   -0.8804    3.9320    2.0784 H   0  0  0  0  0  0  0  0  0  0  0  0
  5  6  2  0  0  0  0
  5  7  1  0  0  0  0
  2  3  1  0  0  0  0
  2  4  1  0  0  0  0
  2  5  1  0  0  0  0
  1  2  1  0  0  0  0
 29 30  2  0  0  0  0
 29 31  1  0  0  0  0
 26 27  1  0  0  0  0
 26 28  1  0  0  0  0
 23 24  1  0  0  0  0
 23 25  1  0  0  0  0
 22 23  1  0  0  0  0
 22 26  1  0  0  0  0
 20 21  1  0  0  0  0
 20 22  2  0  0  0  0
 17 18  1  0  0  0  0
 17 19  1  0  0  0  0
 17 20  1  0  0  0  0
 14 15  1  0  0  0  0
 14 16  1  0  0  0  0
 14 17  1  0  0  0  0
 11 12  1  0  0  0  0
 11 13  1  0  0  0  0
 11 14  1  0  0  0  0
  9 10  1  0  0  0  0
  9 11  1  0  0  0  0
  9 29  1  0  0  0  0
  7  8  1  0  0  0  0
  7  9  1  0  0  0  0
 33 34  1  0  0  0  0
 33 35  1  0  0  0  0
 33 36  1  0  0  0  0
 31 32  1  0  0  0  0
 31 33  1  0  0  0  0
M  CHG  1  20   1
M  END
$$$$
default_name
  -OEChem-02102213163D

 36 35  0     1  0  0  0  0  0999 V2000
   -4.2256   -3.6731    1.8584 H   0  0  0  0  0  0  0  0  0  0  0  0
   -4.2396   -2.6781    1.4144 C   0  0  0  0  0  0  0  0  0  0  0  0
   -4.9506   -2.0521    1.9514 H   0  0  0  0  0  0  0  0  0  0  0  0
   -4.5266   -2.7521    0.3674 H   0  0  0  0  0  0  0  0  0  0  0  0
   -2.8576   -2.0761    1.5184 C   0  0  0  0  0  0  0  0  0  0  0  0
   -1.9456   -2.7051    2.0404 O   0  0  0  0  0  0  0  0  0  0  0  0
   -2.6926   -0.8481    1.0174 N   0  0  0  0  0  0  0  0  0  0  0  0
   -3.4926   -0.3971    0.5954 H   0  0  0  0  0  0  0  0  0  0  0  0
   -1.4216   -0.1071    1.0434 C   0  0  1  0  0  0  0  0  0  0  0  0
   -0.7579   -0.5878    1.7640 H   0  0  0  0  0  0  0  0  0  0  0  0
   -0.7791   -0.1912   -0.3557 C   0  0  0  0  0  0  0  0  0  0  0  0
   -1.4366   -0.7708   -1.0067 H   0  0  0  0  0  0  0  0  0  0  0  0
   -0.6933    0.8157   -0.7701 H   0  0  0  0  0  0  0  0  0  0  0  0
    0.6055   -0.8552   -0.3537 C   0  0  0  0  0  0  0  0  0  0  0  0
    1.2138   -0.4424   -1.1597 H   0  0  0  0  0  0  0  0  0  0  0  0
    1.0957   -0.6646    0.6016 H   0  0  0  0  0  0  0  0  0  0  0  0
    0.4592   -2.3691   -0.5592 C   0  0  0  0  0  0  0  0  0  0  0  0
   -0.1729   -2.7696    0.2367 H   0  0  0  0  0  0  0  0  0  0  0  0
   -0.0306   -2.5438   -1.5200 H   0  0  0  0  0  0  0  0  0  0  0  0
    1.7682   -3.0540   -0.5406 N   0  3  0  0  0  0  0  0  0  0  0  0
    2.5820   -2.4706   -0.4472 H   0  0  0  0  0  0  0  0  0  0  0  0
    1.9695   -4.3577   -0.6345 C   0  0  0  0  0  0  0  0  0  0  0  0
    0.9857   -5.2039   -0.7590 N   0  0  0  0  0  0  0  0  0  0  0  0
    0.0450   -4.8519   -0.7826 H   0  0  0  0  0  0  0  0  0  0  0  0
    1.1559   -6.1902   -0.8294 H   0  0  0  0  0  0  0  0  0  0  0  0
    3.1784   -4.8425   -0.6060 N   0  0  0  0  0  0  0  0  0  0  0  0
    3.9696   -4.2292   -0.5111 H   0  0  0  0  0  0  0  0  0  0  0  0
    3.3267   -5.8321   -0.6775 H   0  0  0  0  0  0  0  0  0  0  0  0
   -1.6547    1.3413    1.4779 C   0  0  0  0  0  0  0  0  0  0  0  0
   -2.5654    1.9858    0.9716 O   0  0  0  0  0  0  0  0  0  0  0  0
   -0.8107    1.8504    2.3808 N   0  0  0  0  0  0  0  0  0  0  0  0
   -0.1136    1.2381    2.7719 H   0  0  0  0  0  0  0  0  0  0  0  0
   -0.8954    3.2155    2.9026 C   0  0  0  0  0  0  0  0  0  0  0  0
   -1.8299    3.3430    3.4532 H   0  0  0  0  0  0  0  0  0  0  0  0
   -0.0581    3.4194    3.5712 H   0  0  0  0  0  0  0  0  0  0  0  0
   -0.8804    3.9320    2.0784 H   0  0  0  0  0  0  0  0  0  0  0  0
  5  6  2  0  0  0  0
  5  7  1  0  0  0  0
  2  3  1  0  0  0  0
  2  4  1  0  0  0  0
  2  5  1  0  0  0  0
  1  2  1  0  0  0  0
 29 30  2  0  0  0  0
 29 31  1  0  0  0  0
 26 27  1  0  0  0  0
 26 28  1  0  0  0  0
 23 24  1  0  0  0  0
 23 25  1  0  0  0  0
 22 23  1  0  0  0  0
 22 26  1  0  0  0  0
 20 21  1  0  0  0  0
 20 22  2  0  0  0  0
 17 18  1  0  0  0  0
 17 19  1  0  0  0  0
 17 20  1  0  0  0  0
 14 15  1  0  0  0  0
 14 16  1  0  0  0  0
 14 17  1  0  0  0  0
 11 12  1  0  0  0  0
 11 13  1  0  0  0  0
 11 14  1  0  0  0  0
  9 10  1  0  0  0  0
  9 11  1  0  0  0  0
  9 29  1  0  0  0  0
  7  8  1  0  0  0  0
  7  9  1  0  0  0  0
 33 34  1  0  0  0  0
 33 35  1  0  0  0  0
 33 36  1  0  0  0  0
 31 32  1  0  0  0  0
 31 33  1  0  0  0  0
M  CHG  1  20   1
M  END
$$$$
default_name
  -OEChem-02102213163D

 36 35  0     1  0  0  0  0  0999 V2000
   -4.2256   -3.6731    1.8584 H   0  0  0  0  0  0  0  0  0  0  0  0
   -4.2396   -2.6781    1.4144 C   0  0  0  0  0  0  0  0  0  0  0  0
   -4.9506   -2.0521    1.9514 H   0  0  0  0  0  0  0  0  0  0  0  0
   -4.5266   -2.7521    0.3674 H   0  0  0  0  0  0  0  0  0  0  0  0
   -2.8576   -2.0761    1.5184 C   0  0  0  0  0  0  0  0  0  0  0  0
   -1.9456   -2.7051    2.0404 O   0  0  0  0  0  0  0  0  0  0  0  0
   -2.6926   -0.8481    1.0174 N   0  0  0  0  0  0  0  0  0  0  0  0
   -3.4926   -0.3971    0.5954 H   0  0  0  0  0  0  0  0  0  0  0  0
   -1.4216   -0.1071    1.0434 C   0  0  1  0  0  0  0  0  0  0  0  0
   -0.7579   -0.5878    1.7640 H   0  0  0  0  0  0  0  0  0  0  0  0
   -0.7791   -0.1912   -0.3557 C   0  0  0  0  0  0  0  0  0  0  0  0
   -1.4366   -0.7708   -1.0067 H   0  0  0  0  0  0  0  0  0  0  0  0
   -0.6933    0.8157   -0.7701 H   0  0  0  0  0  0  0  0  0  0  0  0
    0.6055   -0.8552   -0.3537 C   0  0  0  0  0  0  0  0  0  0  0  0
    1.2945   -0.2736   -0.9678 H   0  0  0  0  0  0  0  0  0  0  0  0
    0.9831   -0.8992    0.6684 H   0  0  0  0  0  0  0  0  0  0  0  0
    0.5038   -2.2773   -0.9218 C   0  0  0  0  0  0  0  0  0  0  0  0
   -0.2079   -2.8442   -0.3173 H   0  0  0  0  0  0  0  0  0  0  0  0
    0.1269   -2.2166   -1.9455 H   0  0  0  0  0  0  0  0  0  0  0  0
    1.8116   -2.9646   -0.9171 N   0  3  0  0  0  0  0  0  0  0  0  0
    2.6018   -2.4297   -0.5997 H   0  0  0  0  0  0  0  0  0  0  0  0
    2.0399   -4.2129   -1.2895 C   0  0  0  0  0  0  0  0  0  0  0  0
    1.0878   -4.9937   -1.7173 N   0  0  0  0  0  0  0  0  0  0  0  0
    0.1509   -4.6338   -1.7633 H   0  0  0  0  0  0  0  0  0  0  0  0
    1.2782   -5.9386   -1.9965 H   0  0  0  0  0  0  0  0  0  0  0  0
    3.2446   -4.7065   -1.2397 N   0  0  0  0  0  0  0  0  0  0  0  0
    4.0117   -4.1426   -0.9164 H   0  0  0  0  0  0  0  0  0  0  0  0
    3.4134   -5.6540   -1.5231 H   0  0  0  0  0  0  0  0  0  0  0  0
   -1.6547    1.3413    1.4779 C   0  0  0  0  0  0  0  0  0  0  0  0
   -2.5654    1.9858    0.9716 O   0  0  0  0  0  0  0  0  0  0  0  0
   -0.8107    1.8504    2.3808 N   0  0  0  0  0  0  0  0  0  0  0  0
   -0.1136    1.2381    2.7719 H   0  0  0  0  0  0  0  0  0  0  0  0
   -0.8954    3.2155    2.9026 C   0  0  0  0  0  0  0  0  0  0  0  0
   -1.8299    3.3430    3.4532 H   0  0  0  0  0  0  0  0  0  0  0  0
   -0.0581    3.4194    3.5712 H   0  0  0  0  0  0  0  0  0  0  0  0
   -0.8804    3.9320    2.0784 H   0  0  0  0  0  0  0  0  0  0  0  0
  5  6  2  0  0  0  0
  5  7  1  0  0  0  0
  2  3  1  0  0  0  0
  2  4  1  0  0  0  0
  2  5  1  0  0  0  0
  1  2  1  0  0  0  0
 29 30  2  0  0  0  0
 29 31  1  0  0  0  0
 26 27  1  0  0  0  0
 26 28  1  0  0  0  0
 23 24  1  0  0  0  0
 23 25  1  0  0  0  0
 22 23  1  0  0  0  0
 22 26  1  0  0  0  0
 20 21  1  0  0  0  0
 20 22  2  0  0  0  0
 17 18  1  0  0  0  0
 17 19  1  0  0  0  0
 17 20  1  0  0  0  0
 14 15  1  0  0  0  0
 14 16  1  0  0  0  0
 14 17  1  0  0  0  0
 11 12  1  0  0  0  0
 11 13  1  0  0  0  0
 11 14  1  0  0  0  0
  9 10  1  0  0  0  0
  9 11  1  0  0  0  0
  9 29  1  0  0  0  0
  7  8  1  0  0  0  0
  7  9  1  0  0  0  0
 33 34  1  0  0  0  0
 33 35  1  0  0  0  0
 33 36  1  0  0  0  0
 31 32  1  0  0  0  0
 31 33  1  0  0  0  0
M  CHG  1  20   1
M  END
$$$$
default_name
  -OEChem-02102213163D

 36 35  0     1  0  0  0  0  0999 V2000
   -4.2256   -3.6731    1.8584 H   0  0  0  0  0  0  0  0  0  0  0  0
   -4.2396   -2.6781    1.4144 C   0  0  0  0  0  0  0  0  0  0  0  0
   -4.9506   -2.0521    1.9514 H   0  0  0  0  0  0  0  0  0  0  0  0
   -4.5266   -2.7521    0.3674 H   0  0  0  0  0  0  0  0  0  0  0  0
   -2.8576   -2.0761    1.5184 C   0  0  0  0  0  0  0  0  0  0  0  0
   -1.9456   -2.7051    2.0404 O   0  0  0  0  0  0  0  0  0  0  0  0
   -2.6926   -0.8481    1.0174 N   0  0  0  0  0  0  0  0  0  0  0  0
   -3.4926   -0.3971    0.5954 H   0  0  0  0  0  0  0  0  0  0  0  0
   -1.4216   -0.1071    1.0434 C   0  0  1  0  0  0  0  0  0  0  0  0
   -0.7579   -0.5878    1.7640 H   0  0  0  0  0  0  0  0  0  0  0  0
   -0.7791   -0.1912   -0.3557 C   0  0  0  0  0  0  0  0  0  0  0  0
   -1.4366   -0.7708   -1.0067 H   0  0  0  0  0  0  0  0  0  0  0  0
   -0.6933    0.8157   -0.7701 H   0  0  0  0  0  0  0  0  0  0  0  0
    0.6055   -0.8552   -0.3537 C   0  0  0  0  0  0  0  0  0  0  0  0
    1.3509   -0.1554   -0.7340 H   0  0  0  0  0  0  0  0  0  0  0  0
    0.8669   -1.1414    0.6656 H   0  0  0  0  0  0  0  0  0  0  0  0
    0.5873   -2.1040   -1.2457 C   0  0  0  0  0  0  0  0  0  0  0  0
   -0.1797   -2.7871   -0.8737 H   0  0  0  0  0  0  0  0  0  0  0  0
    0.3266   -1.8012   -2.2626 H   0  0  0  0  0  0  0  0  0  0  0  0
    1.8957   -2.7903   -1.2551 N   0  3  0  0  0  0  0  0  0  0  0  0
    2.6380   -2.3545   -0.7352 H   0  0  0  0  0  0  0  0  0  0  0  0
    2.1812   -3.9200   -1.8805 C   0  0  0  0  0  0  0  0  0  0  0  0
    1.2937   -4.5671   -2.5826 N   0  0  0  0  0  0  0  0  0  0  0  0
    0.3630   -4.1943   -2.6479 H   0  0  0  0  0  0  0  0  0  0  0  0
    1.5270   -5.4230   -3.0514 H   0  0  0  0  0  0  0  0  0  0  0  0
    3.3793   -4.4272   -1.8127 N   0  0  0  0  0  0  0  0  0  0  0  0
    4.0977   -3.9643   -1.2829 H   0  0  0  0  0  0  0  0  0  0  0  0
    3.5916   -5.2845   -2.2887 H   0  0  0  0  0  0  0  0  0  0  0  0
   -1.6547    1.3413    1.4779 C   0  0  0  0  0  0  0  0  0  0  0  0
   -2.5654    1.9858    0.9716 O   0  0  0  0  0  0  0  0  0  0  0  0
   -0.8107    1.8504    2.3808 N   0  0  0  0  0  0  0  0  0  0  0  0
   -0.1136    1.2381    2.7719 H   0  0  0  0  0  0  0  0  0  0  0  0
   -0.8954    3.2155    2.9026 C   0  0  0  0  0  0  0  0  0  0  0  0
   -1.8299    3.3430    3.4532 H   0  0  0  0  0  0  0  0  0  0  0  0
   -0.0581    3.4194    3.5712 H   0  0  0  0  0  0  0  0  0  0  0  0
   -0.8804    3.9320    2.0784 H   0  0  0  0  0  0  0  0  0  0  0  0
  5  6  2  0  0  0  0
  5  7  1  0  0  0  0
  2  3  1  0  0  0  0
  2  4  1  0  0  0  0
  2  5  1  0  0  0  0
  1  2  1  0  0  0  0
 29 30  2  0  0  0  0
 29 31  1  0  0  0  0
 26 27  1  0  0  0  0
 26 28  1  0  0  0  0
 23 24  1  0  0  0  0
 23 25  1  0  0  0  0
 22 23  1  0  0  0  0
 22 26  1  0  0  0  0
 20 21  1  0  0  0  0
 20 22  2  0  0  0  0
 17 18  1  0  0  0  0
 17 19  1  0  0  0  0
 17 20  1  0  0  0  0
 14 15  1  0  0  0  0
 14 16  1  0  0  0  0
 14 17  1  0  0  0  0
 11 12  1  0  0  0  0
 11 13  1  0  0  0  0
 11 14  1  0  0  0  0
  9 10  1  0  0  0  0
  9 11  1  0  0  0  0
  9 29  1  0  0  0  0
  7  8  1  0  0  0  0
  7  9  1  0  0  0  0
 33 34  1  0  0  0  0
 33 35  1  0  0  0  0
 33 36  1  0  0  0  0
 31 32  1  0  0  0  0
 31 33  1  0  0  0  0
M  CHG  1  20   1
M  END
$$$$
default_name
  -OEChem-02102213163D

 36 35  0     1  0  0  0  0  0999 V2000
   -4.2256   -3.6731    1.8584 H   0  0  0  0  0  0  0  0  0  0  0  0
   -4.2396   -2.6781    1.4144 C   0  0  0  0  0  0  0  0  0  0  0  0
   -4.9506   -2.0521    1.9514 H   0  0  0  0  0  0  0  0  0  0  0  0
   -4.5266   -2.7521    0.3674 H   0  0  0  0  0  0  0  0  0  0  0  0
   -2.8576   -2.0761    1.5184 C   0  0  0  0  0  0  0  0  0  0  0  0
   -1.9456   -2.7051    2.0404 O   0  0  0  0  0  0  0  0  0  0  0  0
   -2.6926   -0.8481    1.0174 N   0  0  0  0  0  0  0  0  0  0  0  0
   -3.4926   -0.3971    0.5954 H   0  0  0  0  0  0  0  0  0  0  0  0
   -1.4216   -0.1071    1.0434 C   0  0  1  0  0  0  0  0  0  0  0  0
   -0.7579   -0.5878    1.7640 H   0  0  0  0  0  0  0  0  0  0  0  0
   -0.7791   -0.1912   -0.3557 C   0  0  0  0  0  0  0  0  0  0  0  0
   -1.4366   -0.7708   -1.0067 H   0  0  0  0  0  0  0  0  0  0  0  0
   -0.6933    0.8157   -0.7701 H   0  0  0  0  0  0  0  0  0  0  0  0
    0.6055   -0.8552   -0.3537 C   0  0  0  0  0  0  0  0  0  0  0  0
    1.3792   -0.0957   -0.4743 H   0  0  0  0  0  0  0  0  0  0  0  0
    0.7551   -1.3748    0.5933 H   0  0  0  0  0  0  0  0  0  0  0  0
    0.7043   -1.8610   -1.5088 C   0  0  0  0  0  0  0  0  0  0  0  0
   -0.0902   -2.6021   -1.3947 H   0  0  0  0  0  0  0  0  0  0  0  0
    0.5548   -1.3259   -2.4495 H   0  0  0  0  0  0  0  0  0  0  0  0
    2.0146   -2.5430   -1.5314 N   0  3  0  0  0  0  0  0  0  0  0  0
    2.6882   -2.2503   -0.8444 H   0  0  0  0  0  0  0  0  0  0  0  0
    2.3837   -3.4992   -2.3672 C   0  0  0  0  0  0  0  0  0  0  0  0
    1.5892   -3.9530   -3.2957 N   0  0  0  0  0  0  0  0  0  0  0  0
    0.6667   -3.5632   -3.3761 H   0  0  0  0  0  0  0  0  0  0  0  0
    1.8851   -4.6788   -3.9222 H   0  0  0  0  0  0  0  0  0  0  0  0
    3.5735   -4.0236   -2.2860 N   0  0  0  0  0  0  0  0  0  0  0  0
    4.2217   -3.7066   -1.5858 H   0  0  0  0  0  0  0  0  0  0  0  0
    3.8494   -4.7489   -2.9220 H   0  0  0  0  0  0  0  0  0  0  0  0
   -1.6547    1.3413    1.4779 C   0  0  0  0  0  0  0  0  0  0  0  0
   -2.5654    1.9858    0.9716 O   0  0  0  0  0  0  0  0  0  0  0  0
   -0.8107    1.8504    2.3808 N   0  0  0  0  0  0  0  0  0  0  0  0
   -0.1136    1.2381    2.7719 H   0  0  0  0  0  0  0  0  0  0  0  0
   -0.8954    3.2155    2.9026 C   0  0  0  0  0  0  0  0  0  0  0  0
   -1.8299    3.3430    3.4532 H   0  0  0  0  0  0  0  0  0  0  0  0
   -0.0581    3.4194    3.5712 H   0  0  0  0  0  0  0  0  0  0  0  0
   -0.8804    3.9320    2.0784 H   0  0  0  0  0  0  0  0  0  0  0  0
  5  6  2  0  0  0  0
  5  7  1  0  0  0  0
  2  3  1  0  0  0  0
  2  4  1  0  0  0  0
  2  5  1  0  0  0  0
  1  2  1  0  0  0  0
 29 30  2  0  0  0  0
 29 31  1  0  0  0  0
 26 27  1  0  0  0  0
 26 28  1  0  0  0  0
 23 24  1  0  0  0  0
 23 25  1  0  0  0  0
 22 23  1  0  0  0  0
 22 26  1  0  0  0  0
 20 21  1  0  0  0  0
 20 22  2  0  0  0  0
 17 18  1  0  0  0  0
 17 19  1  0  0  0  0
 17 20  1  0  0  0  0
 14 15  1  0  0  0  0
 14 16  1  0  0  0  0
 14 17  1  0  0  0  0
 11 12  1  0  0  0  0
 11 13  1  0  0  0  0
 11 14  1  0  0  0  0
  9 10  1  0  0  0  0
  9 11  1  0  0  0  0
  9 29  1  0  0  0  0
  7  8  1  0  0  0  0
  7  9  1  0  0  0  0
 33 34  1  0  0  0  0
 33 35  1  0  0  0  0
 33 36  1  0  0  0  0
 31 32  1  0  0  0  0
 31 33  1  0  0  0  0
M  CHG  1  20   1
M  END
$$$$
default_name
  -OEChem-02102213163D

 36 35  0     1  0  0  0  0  0999 V2000
   -4.2256   -3.6731    1.8584 H   0  0  0  0  0  0  0  0  0  0  0  0
   -4.2396   -2.6781    1.4144 C   0  0  0  0  0  0  0  0  0  0  0  0
   -4.9506   -2.0521    1.9514 H   0  0  0  0  0  0  0  0  0  0  0  0
   -4.5266   -2.7521    0.3674 H   0  0  0  0  0  0  0  0  0  0  0  0
   -2.8576   -2.0761    1.5184 C   0  0  0  0  0  0  0  0  0  0  0  0
   -1.9456   -2.7051    2.0404 O   0  0  0  0  0  0  0  0  0  0  0  0
   -2.6926   -0.8481    1.0174 N   0  0  0  0  0  0  0  0  0  0  0  0
   -3.4926   -0.3971    0.5954 H   0  0  0  0  0  0  0  0  0  0  0  0
   -1.4216   -0.1071    1.0434 C   0  0  1  0  0  0  0  0  0  0  0  0
   -0.7579   -0.5878    1.7640 H   0  0  0  0  0  0  0  0  0  0  0  0
   -0.7791   -0.1912   -0.3557 C   0  0  0  0  0  0  0  0  0  0  0  0
   -1.4366   -0.7708   -1.0067 H   0  0  0  0  0  0  0  0  0  0  0  0
   -0.6933    0.8157   -0.7701 H   0  0  0  0  0  0  0  0  0  0  0  0
    0.6055   -0.8552   -0.3537 C   0  0  0  0  0  0  0  0  0  0  0  0
    1.3774   -0.0986   -0.2063 H   0  0  0  0  0  0  0  0  0  0  0  0
    0.6553   -1.5833    0.4566 H   0  0  0  0  0  0  0  0  0  0  0  0
    0.8466   -1.5649   -1.6930 C   0  0  0  0  0  0  0  0  0  0  0  0
    0.0545   -2.3017   -1.8447 H   0  0  0  0  0  0  0  0  0  0  0  0
    0.7960   -0.8230   -2.4935 H   0  0  0  0  0  0  0  0  0  0  0  0
    2.1604   -2.2397   -1.7274 N   0  3  0  0  0  0  0  0  0  0  0  0
    2.7488   -2.1241   -0.9201 H   0  0  0  0  0  0  0  0  0  0  0  0
    2.6337   -2.9791   -2.7165 C   0  0  0  0  0  0  0  0  0  0  0  0
    1.9543   -3.1933   -3.8082 N   0  0  0  0  0  0  0  0  0  0  0  0
    1.0413   -2.7836   -3.8981 H   0  0  0  0  0  0  0  0  0  0  0  0
    2.3283   -3.7567   -4.5495 H   0  0  0  0  0  0  0  0  0  0  0  0
    3.8139   -3.5234   -2.6271 N   0  0  0  0  0  0  0  0  0  0  0  0
    4.3754   -3.3869   -1.8043 H   0  0  0  0  0  0  0  0  0  0  0  0
    4.1691   -4.0837   -3.3798 H   0  0  0  0  0  0  0  0  0  0  0  0
   -1.6547    1.3413    1.4779 C   0  0  0  0  0  0  0  0  0  0  0  0
   -2.5654    1.9858    0.9716 O   0  0  0  0  0  0  0  0  0  0  0  0
   -0.8107    1.8504    2.3808 N   0  0  0  0  0  0  0  0  0  0  0  0
   -0.1136    1.2381    2.7719 H   0  0  0  0  0  0  0  0  0  0  0  0
   -0.8954    3.2155    2.9026 C   0  0  0  0  0  0  0  0  0  0  0  0
   -1.8299    3.3430    3.4532 H   0  0  0  0  0  0  0  0  0  0  0  0
   -0.0581    3.4194    3.5712 H   0  0  0  0  0  0  0  0  0  0  0  0
   -0.8804    3.9320    2.0784 H   0  0  0  0  0  0  0  0  0  0  0  0
  5  6  2  0  0  0  0
  5  7  1  0  0  0  0
  2  3  1  0  0  0  0
  2  4  1  0  0  0  0
  2  5  1  0  0  0  0
  1  2  1  0  0  0  0
 29 30  2  0  0  0  0
 29 31  1  0  0  0  0
 26 27  1  0  0  0  0
 26 28  1  0  0  0  0
 23 24  1  0  0  0  0
 23 25  1  0  0  0  0
 22 23  1  0  0  0  0
 22 26  1  0  0  0  0
 20 21  1  0  0  0  0
 20 22  2  0  0  0  0
 17 18  1  0  0  0  0
 17 19  1  0  0  0  0
 17 20  1  0  0  0  0
 14 15  1  0  0  0  0
 14 16  1  0  0  0  0
 14 17  1  0  0  0  0
 11 12  1  0  0  0  0
 11 13  1  0  0  0  0
 11 14  1  0  0  0  0
  9 10  1  0  0  0  0
  9 11  1  0  0  0  0
  9 29  1  0  0  0  0
  7  8  1  0  0  0  0
  7  9  1  0  0  0  0
 33 34  1  0  0  0  0
 33 35  1  0  0  0  0
 33 36  1  0  0  0  0
 31 32  1  0  0  0  0
 31 33  1  0  0  0  0
M  CHG  1  20   1
M  END
$$$$
default_name
  -OEChem-02102213163D

 36 35  0     1  0  0  0  0  0999 V2000
   -4.2256   -3.6731    1.8584 H   0  0  0  0  0  0  0  0  0  0  0  0
   -4.2396   -2.6781    1.4144 C   0  0  0  0  0  0  0  0  0  0  0  0
   -4.9506   -2.0521    1.9514 H   0  0  0  0  0  0  0  0  0  0  0  0
   -4.5266   -2.7521    0.3674 H   0  0  0  0  0  0  0  0  0  0  0  0
   -2.8576   -2.0761    1.5184 C   0  0  0  0  0  0  0  0  0  0  0  0
   -1.9456   -2.7051    2.0404 O   0  0  0  0  0  0  0  0  0  0  0  0
   -2.6926   -0.8481    1.0174 N   0  0  0  0  0  0  0  0  0  0  0  0
   -3.4926   -0.3971    0.5954 H   0  0  0  0  0  0  0  0  0  0  0  0
   -1.4216   -0.1071    1.0434 C   0  0  1  0  0  0  0  0  0  0  0  0
   -0.7579   -0.5878    1.7640 H   0  0  0  0  0  0  0  0  0  0  0  0
   -0.7791   -0.1912   -0.3557 C   0  0  0  0  0  0  0  0  0  0  0  0
   -1.4366   -0.7708   -1.0067 H   0  0  0  0  0  0  0  0  0  0  0  0
   -0.6933    0.8157   -0.7701 H   0  0  0  0  0  0  0  0  0  0  0  0
    0.6055   -0.8552   -0.3537 C   0  0  0  0  0  0  0  0  0  0  0  0
    1.3457   -0.1640    0.0517 H   0  0  0  0  0  0  0  0  0  0  0  0
    0.5742   -1.7529    0.2646 H   0  0  0  0  0  0  0  0  0  0  0  0
    1.0045   -1.2357   -1.7860 C   0  0  0  0  0  0  0  0  0  0  0  0
    0.2445   -1.9065   -2.1932 H   0  0  0  0  0  0  0  0  0  0  0  0
    1.0338   -0.3270   -2.3918 H   0  0  0  0  0  0  0  0  0  0  0  0
    2.3231   -1.9009   -1.8295 N   0  3  0  0  0  0  0  0  0  0  0  0
    2.8158   -1.9845   -0.9569 H   0  0  0  0  0  0  0  0  0  0  0  0
    2.9140   -2.3951   -2.9045 C   0  0  0  0  0  0  0  0  0  0  0  0
    2.3640   -2.3398   -4.0851 N   0  0  0  0  0  0  0  0  0  0  0  0
    1.4614   -1.9086   -4.1785 H   0  0  0  0  0  0  0  0  0  0  0  0
    2.8263   -2.7194   -4.8907 H   0  0  0  0  0  0  0  0  0  0  0  0
    4.0842   -2.9604   -2.8131 N   0  0  0  0  0  0  0  0  0  0  0  0
    4.5481   -3.0271   -1.9235 H   0  0  0  0  0  0  0  0  0  0  0  0
    4.5289   -3.3341   -3.6310 H   0  0  0  0  0  0  0  0  0  0  0  0
   -1.6547    1.3413    1.4779 C   0  0  0  0  0  0  0  0  0  0  0  0
   -2.5654    1.9858    0.9716 O   0  0  0  0  0  0  0  0  0  0  0  0
   -0.8107    1.8504    2.3808 N   0  0  0  0  0  0  0  0  0  0  0  0
   -0.1136    1.2381    2.7719 H   0  0  0  0  0  0  0  0  0  0  0  0
   -0.8954    3.2155    2.9026 C   0  0  0  0  0  0  0  0  0  0  0  0
   -1.8299    3.3430    3.4532 H   0  0  0  0  0  0  0  0  0  0  0  0
   -0.0581    3.4194    3.5712 H   0  0  0  0  0  0  0  0  0  0  0  0
   -0.8804    3.9320    2.0784 H   0  0  0  0  0  0  0  0  0  0  0  0
  5  6  2  0  0  0  0
  5  7  1  0  0  0  0
  2  3  1  0  0  0  0
  2  4  1  0  0  0  0
  2  5  1  0  0  0  0
  1  2  1  0  0  0  0
 29 30  2  0  0  0  0
 29 31  1  0  0  0  0
 26 27  1  0  0  0  0
 26 28  1  0  0  0  0
 23 24  1  0  0  0  0
 23 25  1  0  0  0  0
 22 23  1  0  0  0  0
 22 26  1  0  0  0  0
 20 21  1  0  0  0  0
 20 22  2  0  0  0  0
 17 18  1  0  0  0  0
 17 19  1  0  0  0  0
 17 20  1  0  0  0  0
 14 15  1  0  0  0  0
 14 16  1  0  0  0  0
 14 17  1  0  0  0  0
 11 12  1  0  0  0  0
 11 13  1  0  0  0  0
 11 14  1  0  0  0  0
  9 10  1  0  0  0  0
  9 11  1  0  0  0  0
  9 29  1  0  0  0  0
  7  8  1  0  0  0  0
  7  9  1  0  0  0  0
 33 34  1  0  0  0  0
 33 35  1  0  0  0  0
 33 36  1  0  0  0  0
 31 32  1  0  0  0  0
 31 33  1  0  0  0  0
M  CHG  1  20   1
M  END
$$$$
default_name
  -OEChem-02102213163D

 36 35  0     1  0  0  0  0  0999 V2000
   -4.2256   -3.6731    1.8584 H   0  0  0  0  0  0  0  0  0  0  0  0
   -4.2396   -2.6781    1.4144 C   0  0  0  0  0  0  0  0  0  0  0  0
   -4.9506   -2.0521    1.9514 H   0  0  0  0  0  0  0  0  0  0  0  0
   -4.5266   -2.7521    0.3674 H   0  0  0  0  0  0  0  0  0  0  0  0
   -2.8576   -2.0761    1.5184 C   0  0  0  0  0  0  0  0  0  0  0  0
   -1.9456   -2.7051    2.0404 O   0  0  0  0  0  0  0  0  0  0  0  0
   -2.6926   -0.8481    1.0174 N   0  0  0  0  0  0  0  0  0  0  0  0
   -3.4926   -0.3971    0.5954 H   0  0  0  0  0  0  0  0  0  0  0  0
   -1.4216   -0.1071    1.0434 C   0  0  1  0  0  0  0  0  0  0  0  0
   -0.7579   -0.5878    1.7640 H   0  0  0  0  0  0  0  0  0  0  0  0
   -0.7791   -0.1912   -0.3557 C   0  0  0  0  0  0  0  0  0  0  0  0
   -1.5362   -0.5270   -1.0671 H   0  0  0  0  0  0  0  0  0  0  0  0
   -0.4489    0.8053   -0.6572 H   0  0  0  0  0  0  0  0  0  0  0  0
    0.4110   -1.1591   -0.4248 C   0  0  0  0  0  0  0  0  0  0  0  0
    1.1883   -0.8384    0.2702 H   0  0  0  0  0  0  0  0  0  0  0  0
    0.0771   -2.1614   -0.1543 H   0  0  0  0  0  0  0  0  0  0  0  0
    0.9861   -1.1795   -1.8476 C   0  0  0  0  0  0  0  0  0  0  0  0
    0.1943   -1.4757   -2.5395 H   0  0  0  0  0  0  0  0  0  0  0  0
    1.3180   -0.1704   -2.1028 H   0  0  0  0  0  0  0  0  0  0  0  0
    2.1212   -2.1176   -1.9669 N   0  3  0  0  0  0  0  0  0  0  0  0
    2.4113   -2.5850   -1.1250 H   0  0  0  0  0  0  0  0  0  0  0  0
    2.7891   -2.3997   -3.0729 C   0  0  0  0  0  0  0  0  0  0  0  0
    2.4964   -1.8506   -4.2185 N   0  0  0  0  0  0  0  0  0  0  0  0
    1.7377   -1.1934   -4.2602 H   0  0  0  0  0  0  0  0  0  0  0  0
    3.0136   -2.0755   -5.0484 H   0  0  0  0  0  0  0  0  0  0  0  0
    3.7770   -3.2486   -3.0488 N   0  0  0  0  0  0  0  0  0  0  0  0
    4.0398   -3.6980   -2.1887 H   0  0  0  0  0  0  0  0  0  0  0  0
    4.2810   -3.4598   -3.8902 H   0  0  0  0  0  0  0  0  0  0  0  0
   -1.6547    1.3413    1.4779 C   0  0  0  0  0  0  0  0  0  0  0  0
   -2.5654    1.9858    0.9716 O   0  0  0  0  0  0  0  0  0  0  0  0
   -0.8107    1.8504    2.3808 N   0  0  0  0  0  0  0  0  0  0  0  0
   -0.1136    1.2381    2.7719 H   0  0  0  0  0  0  0  0  0  0  0  0
   -0.8954    3.2155    2.9026 C   0  0  0  0  0  0  0  0  0  0  0  0
   -1.8299    3.3430    3.4532 H   0  0  0  0  0  0  0  0  0  0  0  0
   -0.0581    3.4194    3.5712 H   0  0  0  0  0  0  0  0  0  0  0  0
   -0.8804    3.9320    2.0784 H   0  0  0  0  0  0  0  0  0  0  0  0
  5  6  2  0  0  0  0
  5  7  1  0  0  0  0
  2  3  1  0  0  0  0
  2  4  1  0  0  0  0
  2  5  1  0  0  0  0
  1  2  1  0  0  0  0
 29 30  2  0  0  0  0
 29 31  1  0  0  0  0
 26 27  1  0  0  0  0
 26 28  1  0  0  0  0
 23 24  1  0  0  0  0
 23 25  1  0  0  0  0
 22 23  1  0  0  0  0
 22 26  1  0  0  0  0
 20 21  1  0  0  0  0
 20 22  2  0  0  0  0
 17 18  1  0  0  0  0
 17 19  1  0  0  0  0
 17 20  1  0  0  0  0
 14 15  1  0  0  0  0
 14 16  1  0  0  0  0
 14 17  1  0  0  0  0
 11 12  1  0  0  0  0
 11 13  1  0  0  0  0
 11 14  1  0  0  0  0
  9 10  1  0  0  0  0
  9 11  1  0  0  0  0
  9 29  1  0  0  0  0
  7  8  1  0  0  0  0
  7  9  1  0  0  0  0
 33 34  1  0  0  0  0
 33 35  1  0  0  0  0
 33 36  1  0  0  0  0
 31 32  1  0  0  0  0
 31 33  1  0  0  0  0
M  CHG  1  20   1
M  END
$$$$
default_name
  -OEChem-02102213163D

 36 35  0     1  0  0  0  0  0999 V2000
   -4.2256   -3.6731    1.8584 H   0  0  0  0  0  0  0  0  0  0  0  0
   -4.2396   -2.6781    1.4144 C   0  0  0  0  0  0  0  0  0  0  0  0
   -4.9506   -2.0521    1.9514 H   0  0  0  0  0  0  0  0  0  0  0  0
   -4.5266   -2.7521    0.3674 H   0  0  0  0  0  0  0  0  0  0  0  0
   -2.8576   -2.0761    1.5184 C   0  0  0  0  0  0  0  0  0  0  0  0
   -1.9456   -2.7051    2.0404 O   0  0  0  0  0  0  0  0  0  0  0  0
   -2.6926   -0.8481    1.0174 N   0  0  0  0  0  0  0  0  0  0  0  0
   -3.4926   -0.3971    0.5954 H   0  0  0  0  0  0  0  0  0  0  0  0
   -1.4216   -0.1071    1.0434 C   0  0  1  0  0  0  0  0  0  0  0  0
   -0.7579   -0.5878    1.7640 H   0  0  0  0  0  0  0  0  0  0  0  0
   -0.7791   -0.1912   -0.3557 C   0  0  0  0  0  0  0  0  0  0  0  0
   -1.5362   -0.5270   -1.0671 H   0  0  0  0  0  0  0  0  0  0  0  0
   -0.4489    0.8053   -0.6572 H   0  0  0  0  0  0  0  0  0  0  0  0
    0.4110   -1.1591   -0.4248 C   0  0  0  0  0  0  0  0  0  0  0  0
    1.0619   -1.0057    0.4371 H   0  0  0  0  0  0  0  0  0  0  0  0
    0.0422   -2.1853   -0.4195 H   0  0  0  0  0  0  0  0  0  0  0  0
    1.2122   -0.9113   -1.7101 C   0  0  0  0  0  0  0  0  0  0  0  0
    0.5463   -1.0409   -2.5664 H   0  0  0  0  0  0  0  0  0  0  0  0
    1.5765    0.1187   -1.6996 H   0  0  0  0  0  0  0  0  0  0  0  0
    2.3561   -1.8385   -1.8306 N   0  3  0  0  0  0  0  0  0  0  0  0
    2.5063   -2.4725   -1.0646 H   0  0  0  0  0  0  0  0  0  0  0  0
    3.1981   -1.9129   -2.8478 C   0  0  0  0  0  0  0  0  0  0  0  0
    3.0950   -1.1382   -3.8911 N   0  0  0  0  0  0  0  0  0  0  0  0
    2.3501   -0.4646   -3.9218 H   0  0  0  0  0  0  0  0  0  0  0  0
    3.7426   -1.2073   -4.6544 H   0  0  0  0  0  0  0  0  0  0  0  0
    4.1728   -2.7771   -2.8356 N   0  0  0  0  0  0  0  0  0  0  0  0
    4.2930   -3.3965   -2.0527 H   0  0  0  0  0  0  0  0  0  0  0  0
    4.8093   -2.8303   -3.6093 H   0  0  0  0  0  0  0  0  0  0  0  0
   -1.6547    1.3413    1.4779 C   0  0  0  0  0  0  0  0  0  0  0  0
   -2.5654    1.9858    0.9716 O   0  0  0  0  0  0  0  0  0  0  0  0
   -0.8107    1.8504    2.3808 N   0  0  0  0  0  0  0  0  0  0  0  0
   -0.1136    1.2381    2.7719 H   0  0  0  0  0  0  0  0  0  0  0  0
   -0.8954    3.2155    2.9026 C   0  0  0  0  0  0  0  0  0  0  0  0
   -1.8299    3.3430    3.4532 H   0  0  0  0  0  0  0  0  0  0  0  0
   -0.0581    3.4194    3.5712 H   0  0  0  0  0  0  0  0  0  0  0  0
   -0.8804    3.9320    2.0784 H   0  0  0  0  0  0  0  0  0  0  0  0
  5  6  2  0  0  0  0
  5  7  1  0  0  0  0
  2  3  1  0  0  0  0
  2  4  1  0  0  0  0
  2  5  1  0  0  0  0
  1  2  1  0  0  0  0
 29 30  2  0  0  0  0
 29 31  1  0  0  0  0
 26 27  1  0  0  0  0
 26 28  1  0  0  0  0
 23 24  1  0  0  0  0
 23 25  1  0  0  0  0
 22 23  1  0  0  0  0
 22 26  1  0  0  0  0
 20 21  1  0  0  0  0
 20 22  2  0  0  0  0
 17 18  1  0  0  0  0
 17 19  1  0  0  0  0
 17 20  1  0  0  0  0
 14 15  1  0  0  0  0
 14 16  1  0  0  0  0
 14 17  1  0  0  0  0
 11 12  1  0  0  0  0
 11 13  1  0  0  0  0
 11 14  1  0  0  0  0
  9 10  1  0  0  0  0
  9 11  1  0  0  0  0
  9 29  1  0  0  0  0
  7  8  1  0  0  0  0
  7  9  1  0  0  0  0
 33 34  1  0  0  0  0
 33 35  1  0  0  0  0
 33 36  1  0  0  0  0
 31 32  1  0  0  0  0
 31 33  1  0  0  0  0
M  CHG  1  20   1
M  END
$$$$
default_name
  -OEChem-02102213163D

 36 35  0     1  0  0  0  0  0999 V2000
   -4.2256   -3.6731    1.8584 H   0  0  0  0  0  0  0  0  0  0  0  0
   -4.2396   -2.6781    1.4144 C   0  0  0  0  0  0  0  0  0  0  0  0
   -4.9506   -2.0521    1.9514 H   0  0  0  0  0  0  0  0  0  0  0  0
   -4.5266   -2.7521    0.3674 H   0  0  0  0  0  0  0  0  0  0  0  0
   -2.8576   -2.0761    1.5184 C   0  0  0  0  0  0  0  0  0  0  0  0
   -1.9456   -2.7051    2.0404 O   0  0  0  0  0  0  0  0  0  0  0  0
   -2.6926   -0.8481    1.0174 N   0  0  0  0  0  0  0  0  0  0  0  0
   -3.4926   -0.3971    0.5954 H   0  0  0  0  0  0  0  0  0  0  0  0
   -1.4216   -0.1071    1.0434 C   0  0  1  0  0  0  0  0  0  0  0  0
   -0.7579   -0.5878    1.7640 H   0  0  0  0  0  0  0  0  0  0  0  0
   -0.7791   -0.1912   -0.3557 C   0  0  0  0  0  0  0  0  0  0  0  0
   -1.5362   -0.5270   -1.0671 H   0  0  0  0  0  0  0  0  0  0  0  0
   -0.4489    0.8053   -0.6572 H   0  0  0  0  0  0  0  0  0  0  0  0
    0.4110   -1.1591   -0.4248 C   0  0  0  0  0  0  0  0  0  0  0  0
    0.9107   -1.1993    0.5442 H   0  0  0  0  0  0  0  0  0  0  0  0
    0.0515   -2.1549   -0.6863 H   0  0  0  0  0  0  0  0  0  0  0  0
    1.4113   -0.6825   -1.4867 C   0  0  0  0  0  0  0  0  0  0  0  0
    0.8959   -0.6197   -2.4479 H   0  0  0  0  0  0  0  0  0  0  0  0
    1.7637    0.3139   -1.2099 H   0  0  0  0  0  0  0  0  0  0  0  0
    2.5641   -1.5989   -1.6047 N   0  3  0  0  0  0  0  0  0  0  0  0
    2.5895   -2.3771   -0.9683 H   0  0  0  0  0  0  0  0  0  0  0  0
    3.5621   -1.4926   -2.4659 C   0  0  0  0  0  0  0  0  0  0  0  0
    3.6280   -0.5226   -3.3343 N   0  0  0  0  0  0  0  0  0  0  0  0
    2.8949    0.1643   -3.3488 H   0  0  0  0  0  0  0  0  0  0  0  0
    4.3926   -0.4563   -3.9807 H   0  0  0  0  0  0  0  0  0  0  0  0
    4.5259   -2.3691   -2.4705 N   0  0  0  0  0  0  0  0  0  0  0  0
    4.5189   -3.1354   -1.8195 H   0  0  0  0  0  0  0  0  0  0  0  0
    5.2811   -2.2847   -3.1255 H   0  0  0  0  0  0  0  0  0  0  0  0
   -1.6547    1.3413    1.4779 C   0  0  0  0  0  0  0  0  0  0  0  0
   -2.5654    1.9858    0.9716 O   0  0  0  0  0  0  0  0  0  0  0  0
   -0.8107    1.8504    2.3808 N   0  0  0  0  0  0  0  0  0  0  0  0
   -0.1136    1.2381    2.7719 H   0  0  0  0  0  0  0  0  0  0  0  0
   -0.8954    3.2155    2.9026 C   0  0  0  0  0  0  0  0  0  0  0  0
   -1.8299    3.3430    3.4532 H   0  0  0  0  0  0  0  0  0  0  0  0
   -0.0581    3.4194    3.5712 H   0  0  0  0  0  0  0  0  0  0  0  0
   -0.8804    3.9320    2.0784 H   0  0  0  0  0  0  0  0  0  0  0  0
  5  6  2  0  0  0  0
  5  7  1  0  0  0  0
  2  3  1  0  0  0  0
  2  4  1  0  0  0  0
  2  5  1  0  0  0  0
  1  2  1  0  0  0  0
 29 30  2  0  0  0  0
 29 31  1  0  0  0  0
 26 27  1  0  0  0  0
 26 28  1  0  0  0  0
 23 24  1  0  0  0  0
 23 25  1  0  0  0  0
 22 23  1  0  0  0  0
 22 26  1  0  0  0  0
 20 21  1  0  0  0  0
 20 22  2  0  0  0  0
 17 18  1  0  0  0  0
 17 19  1  0  0  0  0
 17 20  1  0  0  0  0
 14 15  1  0  0  0  0
 14 16  1  0  0  0  0
 14 17  1  0  0  0  0
 11 12  1  0  0  0  0
 11 13  1  0  0  0  0
 11 14  1  0  0  0  0
  9 10  1  0  0  0  0
  9 11  1  0  0  0  0
  9 29  1  0  0  0  0
  7  8  1  0  0  0  0
  7  9  1  0  0  0  0
 33 34  1  0  0  0  0
 33 35  1  0  0  0  0
 33 36  1  0  0  0  0
 31 32  1  0  0  0  0
 31 33  1  0  0  0  0
M  CHG  1  20   1
M  END
$$$$
default_name
  -OEChem-02102213163D

 36 35  0     1  0  0  0  0  0999 V2000
   -4.2256   -3.6731    1.8584 H   0  0  0  0  0  0  0  0  0  0  0  0
   -4.2396   -2.6781    1.4144 C   0  0  0  0  0  0  0  0  0  0  0  0
   -4.9506   -2.0521    1.9514 H   0  0  0  0  0  0  0  0  0  0  0  0
   -4.5266   -2.7521    0.3674 H   0  0  0  0  0  0  0  0  0  0  0  0
   -2.8576   -2.0761    1.5184 C   0  0  0  0  0  0  0  0  0  0  0  0
   -1.9456   -2.7051    2.0404 O   0  0  0  0  0  0  0  0  0  0  0  0
   -2.6926   -0.8481    1.0174 N   0  0  0  0  0  0  0  0  0  0  0  0
   -3.4926   -0.3971    0.5954 H   0  0  0  0  0  0  0  0  0  0  0  0
   -1.4216   -0.1071    1.0434 C   0  0  1  0  0  0  0  0  0  0  0  0
   -0.7579   -0.5878    1.7640 H   0  0  0  0  0  0  0  0  0  0  0  0
   -0.7791   -0.1912   -0.3557 C   0  0  0  0  0  0  0  0  0  0  0  0
   -1.5362   -0.5270   -1.0671 H   0  0  0  0  0  0  0  0  0  0  0  0
   -0.4489    0.8053   -0.6572 H   0  0  0  0  0  0  0  0  0  0  0  0
    0.4110   -1.1591   -0.4248 C   0  0  0  0  0  0  0  0  0  0  0  0
    0.7448   -1.4060    0.5840 H   0  0  0  0  0  0  0  0  0  0  0  0
    0.1043   -2.0720   -0.9363 H   0  0  0  0  0  0  0  0  0  0  0  0
    1.5698   -0.5086   -1.1925 C   0  0  0  0  0  0  0  0  0  0  0  0
    1.2190   -0.2406   -2.1918 H   0  0  0  0  0  0  0  0  0  0  0  0
    1.8670    0.4021   -0.6672 H   0  0  0  0  0  0  0  0  0  0  0  0
    2.7309   -1.4153   -1.3045 N   0  3  0  0  0  0  0  0  0  0  0  0
    2.6552   -2.3052   -0.8424 H   0  0  0  0  0  0  0  0  0  0  0  0
    3.8563   -1.1674   -1.9533 C   0  0  0  0  0  0  0  0  0  0  0  0
    4.0591   -0.0459   -2.5860 N   0  0  0  0  0  0  0  0  0  0  0  0
    3.3350    0.6506   -2.5804 H   0  0  0  0  0  0  0  0  0  0  0  0
    4.9193    0.1264   -3.0732 H   0  0  0  0  0  0  0  0  0  0  0  0
    4.8122   -2.0523   -1.9783 N   0  0  0  0  0  0  0  0  0  0  0  0
    4.7020   -2.9326   -1.5051 H   0  0  0  0  0  0  0  0  0  0  0  0
    5.6643   -1.8603   -2.4718 H   0  0  0  0  0  0  0  0  0  0  0  0
   -1.6547    1.3413    1.4779 C   0  0  0  0  0  0  0  0  0  0  0  0
   -2.5654    1.9858    0.9716 O   0  0  0  0  0  0  0  0  0  0  0  0
   -0.8107    1.8504    2.3808 N   0  0  0  0  0  0  0  0  0  0  0  0
   -0.1136    1.2381    2.7719 H   0  0  0  0  0  0  0  0  0  0  0  0
   -0.8954    3.2155    2.9026 C   0  0  0  0  0  0  0  0  0  0  0  0
   -1.8299    3.3430    3.4532 H   0  0  0  0  0  0  0  0  0  0  0  0
   -0.0581    3.4194    3.5712 H   0  0  0  0  0  0  0  0  0  0  0  0
   -0.8804    3.9320    2.0784 H   0  0  0  0  0  0  0  0  0  0  0  0
  5  6  2  0  0  0  0
  5  7  1  0  0  0  0
  2  3  1  0  0  0  0
  2  4  1  0  0  0  0
  2  5  1  0  0  0  0
  1  2  1  0  0  0  0
 29 30  2  0  0  0  0
 29 31  1  0  0  0  0
 26 27  1  0  0  0  0
 26 28  1  0  0  0  0
 23 24  1  0  0  0  0
 23 25  1  0  0  0  0
 22 23  1  0  0  0  0
 22 26  1  0  0  0  0
 20 21  1  0  0  0  0
 20 22  2  0  0  0  0
 17 18  1  0  0  0  0
 17 19  1  0  0  0  0
 17 20  1  0  0  0  0
 14 15  1  0  0  0  0
 14 16  1  0  0  0  0
 14 17  1  0  0  0  0
 11 12  1  0  0  0  0
 11 13  1  0  0  0  0
 11 14  1  0  0  0  0
  9 10  1  0  0  0  0
  9 11  1  0  0  0  0
  9 29  1  0  0  0  0
  7  8  1  0  0  0  0
  7  9  1  0  0  0  0
 33 34  1  0  0  0  0
 33 35  1  0  0  0  0
 33 36  1  0  0  0  0
 31 32  1  0  0  0  0
 31 33  1  0  0  0  0
M  CHG  1  20   1
M  END
$$$$
default_name
  -OEChem-02102213163D

 36 35  0     1  0  0  0  0  0999 V2000
   -4.2256   -3.6731    1.8584 H   0  0  0  0  0  0  0  0  0  0  0  0
   -4.2396   -2.6781    1.4144 C   0  0  0  0  0  0  0  0  0  0  0  0
   -4.9506   -2.0521    1.9514 H   0  0  0  0  0  0  0  0  0  0  0  0
   -4.5266   -2.7521    0.3674 H   0  0  0  0  0  0  0  0  0  0  0  0
   -2.8576   -2.0761    1.5184 C   0  0  0  0  0  0  0  0  0  0  0  0
   -1.9456   -2.7051    2.0404 O   0  0  0  0  0  0  0  0  0  0  0  0
   -2.6926   -0.8481    1.0174 N   0  0  0  0  0  0  0  0  0  0  0  0
   -3.4926   -0.3971    0.5954 H   0  0  0  0  0  0  0  0  0  0  0  0
   -1.4216   -0.1071    1.0434 C   0  0  1  0  0  0  0  0  0  0  0  0
   -0.7579   -0.5878    1.7640 H   0  0  0  0  0  0  0  0  0  0  0  0
   -0.7791   -0.1912   -0.3557 C   0  0  0  0  0  0  0  0  0  0  0  0
   -1.5362   -0.5270   -1.0671 H   0  0  0  0  0  0  0  0  0  0  0  0
   -0.4489    0.8053   -0.6572 H   0  0  0  0  0  0  0  0  0  0  0  0
    0.4110   -1.1591   -0.4248 C   0  0  0  0  0  0  0  0  0  0  0  0
    0.5757   -1.6118    0.5540 H   0  0  0  0  0  0  0  0  0  0  0  0
    0.1971   -1.9425   -1.1526 H   0  0  0  0  0  0  0  0  0  0  0  0
    1.6769   -0.4015   -0.8476 C   0  0  0  0  0  0  0  0  0  0  0  0
    1.4938    0.0704   -1.8157 H   0  0  0  0  0  0  0  0  0  0  0  0
    1.8792    0.3773   -0.1085 H   0  0  0  0  0  0  0  0  0  0  0  0
    2.8452   -1.3000   -0.9505 N   0  3  0  0  0  0  0  0  0  0  0  0
    2.6991   -2.2618   -0.6958 H   0  0  0  0  0  0  0  0  0  0  0  0
    4.0607   -0.9596   -1.3450 C   0  0  0  0  0  0  0  0  0  0  0  0
    4.3591    0.2595   -1.6973 N   0  0  0  0  0  0  0  0  0  0  0  0
    3.6404    0.9610   -1.6687 H   0  0  0  0  0  0  0  0  0  0  0  0
    5.2867    0.5012   -1.9939 H   0  0  0  0  0  0  0  0  0  0  0  0
    5.0120   -1.8484   -1.3927 N   0  0  0  0  0  0  0  0  0  0  0  0
    4.8301   -2.8019   -1.1309 H   0  0  0  0  0  0  0  0  0  0  0  0
    5.9327   -1.5859   -1.6927 H   0  0  0  0  0  0  0  0  0  0  0  0
   -1.6547    1.3413    1.4779 C   0  0  0  0  0  0  0  0  0  0  0  0
   -2.5654    1.9858    0.9716 O   0  0  0  0  0  0  0  0  0  0  0  0
   -0.8107    1.8504    2.3808 N   0  0  0  0  0  0  0  0  0  0  0  0
   -0.1136    1.2381    2.7719 H   0  0  0  0  0  0  0  0  0  0  0  0
   -0.8954    3.2155    2.9026 C   0  0  0  0  0  0  0  0  0  0  0  0
   -1.8299    3.3430    3.4532 H   0  0  0  0  0  0  0  0  0  0  0  0
   -0.0581    3.4194    3.5712 H   0  0  0  0  0  0  0  0  0  0  0  0
   -0.8804    3.9320    2.0784 H   0  0  0  0  0  0  0  0  0  0  0  0
  5  6  2  0  0  0  0
  5  7  1  0  0  0  0
  2  3  1  0  0  0  0
  2  4  1  0  0  0  0
  2  5  1  0  0  0  0
  1  2  1  0  0  0  0
 29 30  2  0  0  0  0
 29 31  1  0  0  0  0
 26 27  1  0  0  0  0
 26 28  1  0  0  0  0
 23 24  1  0  0  0  0
 23 25  1  0  0  0  0
 22 23  1  0  0  0  0
 22 26  1  0  0  0  0
 20 21  1  0  0  0  0
 20 22  2  0  0  0  0
 17 18  1  0  0  0  0
 17 19  1  0  0  0  0
 17 20  1  0  0  0  0
 14 15  1  0  0  0  0
 14 16  1  0  0  0  0
 14 17  1  0  0  0  0
 11 12  1  0  0  0  0
 11 13  1  0  0  0  0
 11 14  1  0  0  0  0
  9 10  1  0  0  0  0
  9 11  1  0  0  0  0
  9 29  1  0  0  0  0
  7  8  1  0  0  0  0
  7  9  1  0  0  0  0
 33 34  1  0  0  0  0
 33 35  1  0  0  0  0
 33 36  1  0  0  0  0
 31 32  1  0  0  0  0
 31 33  1  0  0  0  0
M  CHG  1  20   1
M  END
$$$$
default_name
  -OEChem-02102213163D

 36 35  0     1  0  0  0  0  0999 V2000
   -4.2256   -3.6731    1.8584 H   0  0  0  0  0  0  0  0  0  0  0  0
   -4.2396   -2.6781    1.4144 C   0  0  0  0  0  0  0  0  0  0  0  0
   -4.9506   -2.0521    1.9514 H   0  0  0  0  0  0  0  0  0  0  0  0
   -4.5266   -2.7521    0.3674 H   0  0  0  0  0  0  0  0  0  0  0  0
   -2.8576   -2.0761    1.5184 C   0  0  0  0  0  0  0  0  0  0  0  0
   -1.9456   -2.7051    2.0404 O   0  0  0  0  0  0  0  0  0  0  0  0
   -2.6926   -0.8481    1.0174 N   0  0  0  0  0  0  0  0  0  0  0  0
   -3.4926   -0.3971    0.5954 H   0  0  0  0  0  0  0  0  0  0  0  0
   -1.4216   -0.1071    1.0434 C   0  0  1  0  0  0  0  0  0  0  0  0
   -0.7579   -0.5878    1.7640 H   0  0  0  0  0  0  0  0  0  0  0  0
   -0.7791   -0.1912   -0.3557 C   0  0  0  0  0  0  0  0  0  0  0  0
   -1.5362   -0.5270   -1.0671 H   0  0  0  0  0  0  0  0  0  0  0  0
   -0.4489    0.8053   -0.6572 H   0  0  0  0  0  0  0  0  0  0  0  0
    0.4110   -1.1591   -0.4248 C   0  0  0  0  0  0  0  0  0  0  0  0
    0.4149   -1.8025    0.4562 H   0  0  0  0  0  0  0  0  0  0  0  0
    0.3235   -1.7751   -1.3204 H   0  0  0  0  0  0  0  0  0  0  0  0
    1.7254   -0.3684   -0.4755 C   0  0  0  0  0  0  0  0  0  0  0  0
    1.7016    0.2922   -1.3452 H   0  0  0  0  0  0  0  0  0  0  0  0
    1.7996    0.2411    0.4282 H   0  0  0  0  0  0  0  0  0  0  0  0
    2.8991   -1.2610   -0.5668 N   0  3  0  0  0  0  0  0  0  0  0  0
    2.7180   -2.2498   -0.5382 H   0  0  0  0  0  0  0  0  0  0  0  0
    4.1613   -0.8832   -0.6824 C   0  0  0  0  0  0  0  0  0  0  0  0
    4.5074    0.3727   -0.7287 N   0  0  0  0  0  0  0  0  0  0  0  0
    3.7903    1.0744   -0.6761 H   0  0  0  0  0  0  0  0  0  0  0  0
    5.4699    0.6424   -0.8162 H   0  0  0  0  0  0  0  0  0  0  0  0
    5.1120   -1.7712   -0.7535 N   0  0  0  0  0  0  0  0  0  0  0  0
    4.8942   -2.7523   -0.7223 H   0  0  0  0  0  0  0  0  0  0  0  0
    6.0681   -1.4802   -0.8413 H   0  0  0  0  0  0  0  0  0  0  0  0
   -1.6547    1.3413    1.4779 C   0  0  0  0  0  0  0  0  0  0  0  0
   -2.5654    1.9858    0.9716 O   0  0  0  0  0  0  0  0  0  0  0  0
   -0.8107    1.8504    2.3808 N   0  0  0  0  0  0  0  0  0  0  0  0
   -0.1136    1.2381    2.7719 H   0  0  0  0  0  0  0  0  0  0  0  0
   -0.8954    3.2155    2.9026 C   0  0  0  0  0  0  0  0  0  0  0  0
   -1.8299    3.3430    3.4532 H   0  0  0  0  0  0  0  0  0  0  0  0
   -0.0581    3.4194    3.5712 H   0  0  0  0  0  0  0  0  0  0  0  0
   -0.8804    3.9320    2.0784 H   0  0  0  0  0  0  0  0  0  0  0  0
  5  6  2  0  0  0  0
  5  7  1  0  0  0  0
  2  3  1  0  0  0  0
  2  4  1  0  0  0  0
  2  5  1  0  0  0  0
  1  2  1  0  0  0  0
 29 30  2  0  0  0  0
 29 31  1  0  0  0  0
 26 27  1  0  0  0  0
 26 28  1  0  0  0  0
 23 24  1  0  0  0  0
 23 25  1  0  0  0  0
 22 23  1  0  0  0  0
 22 26  1  0  0  0  0
 20 21  1  0  0  0  0
 20 22  2  0  0  0  0
 17 18  1  0  0  0  0
 17 19  1  0  0  0  0
 17 20  1  0  0  0  0
 14 15  1  0  0  0  0
 14 16  1  0  0  0  0
 14 17  1  0  0  0  0
 11 12  1  0  0  0  0
 11 13  1  0  0  0  0
 11 14  1  0  0  0  0
  9 10  1  0  0  0  0
  9 11  1  0  0  0  0
  9 29  1  0  0  0  0
  7  8  1  0  0  0  0
  7  9  1  0  0  0  0
 33 34  1  0  0  0  0
 33 35  1  0  0  0  0
 33 36  1  0  0  0  0
 31 32  1  0  0  0  0
 31 33  1  0  0  0  0
M  CHG  1  20   1
M  END
$$$$
default_name
  -OEChem-02102213163D

 36 35  0     1  0  0  0  0  0999 V2000
   -4.2256   -3.6731    1.8584 H   0  0  0  0  0  0  0  0  0  0  0  0
   -4.2396   -2.6781    1.4144 C   0  0  0  0  0  0  0  0  0  0  0  0
   -4.9506   -2.0521    1.9514 H   0  0  0  0  0  0  0  0  0  0  0  0
   -4.5266   -2.7521    0.3674 H   0  0  0  0  0  0  0  0  0  0  0  0
   -2.8576   -2.0761    1.5184 C   0  0  0  0  0  0  0  0  0  0  0  0
   -1.9456   -2.7051    2.0404 O   0  0  0  0  0  0  0  0  0  0  0  0
   -2.6926   -0.8481    1.0174 N   0  0  0  0  0  0  0  0  0  0  0  0
   -3.4926   -0.3971    0.5954 H   0  0  0  0  0  0  0  0  0  0  0  0
   -1.4216   -0.1071    1.0434 C   0  0  1  0  0  0  0  0  0  0  0  0
   -0.7579   -0.5878    1.7640 H   0  0  0  0  0  0  0  0  0  0  0  0
   -0.7791   -0.1912   -0.3557 C   0  0  0  0  0  0  0  0  0  0  0  0
   -1.5362   -0.5270   -1.0671 H   0  0  0  0  0  0  0  0  0  0  0  0
   -0.4489    0.8053   -0.6572 H   0  0  0  0  0  0  0  0  0  0  0  0
    0.4110   -1.1591   -0.4248 C   0  0  0  0  0  0  0  0  0  0  0  0
    0.2733   -1.9653    0.2972 H   0  0  0  0  0  0  0  0  0  0  0  0
    0.4750   -1.5812   -1.4282 H   0  0  0  0  0  0  0  0  0  0  0  0
    1.7119   -0.4117   -0.1015 C   0  0  0  0  0  0  0  0  0  0  0  0
    1.8280    0.4096   -0.8124 H   0  0  0  0  0  0  0  0  0  0  0  0
    1.6335    0.0027    0.9063 H   0  0  0  0  0  0  0  0  0  0  0  0
    2.8891   -1.3010   -0.1795 N   0  3  0  0  0  0  0  0  0  0  0  0
    2.7107   -2.2700   -0.3806 H   0  0  0  0  0  0  0  0  0  0  0  0
    4.1512   -0.9436   -0.0107 C   0  0  0  0  0  0  0  0  0  0  0  0
    4.4940    0.2860    0.2538 N   0  0  0  0  0  0  0  0  0  0  0  0
    3.7745    0.9831    0.3299 H   0  0  0  0  0  0  0  0  0  0  0  0
    5.4564    0.5404    0.3795 H   0  0  0  0  0  0  0  0  0  0  0  0
    5.1051   -1.8260   -0.1044 N   0  0  0  0  0  0  0  0  0  0  0  0
    4.8900   -2.7870   -0.3072 H   0  0  0  0  0  0  0  0  0  0  0  0
    6.0612   -1.5506    0.0244 H   0  0  0  0  0  0  0  0  0  0  0  0
   -1.6547    1.3413    1.4779 C   0  0  0  0  0  0  0  0  0  0  0  0
   -2.5654    1.9858    0.9716 O   0  0  0  0  0  0  0  0  0  0  0  0
   -0.8107    1.8504    2.3808 N   0  0  0  0  0  0  0  0  0  0  0  0
   -0.1136    1.2381    2.7719 H   0  0  0  0  0  0  0  0  0  0  0  0
   -0.8954    3.2155    2.9026 C   0  0  0  0  0  0  0  0  0  0  0  0
   -1.8299    3.3430    3.4532 H   0  0  0  0  0  0  0  0  0  0  0  0
   -0.0581    3.4194    3.5712 H   0  0  0  0  0  0  0  0  0  0  0  0
   -0.8804    3.9320    2.0784 H   0  0  0  0  0  0  0  0  0  0  0  0
  5  6  2  0  0  0  0
  5  7  1  0  0  0  0
  2  3  1  0  0  0  0
  2  4  1  0  0  0  0
  2  5  1  0  0  0  0
  1  2  1  0  0  0  0
 29 30  2  0  0  0  0
 29 31  1  0  0  0  0
 26 27  1  0  0  0  0
 26 28  1  0  0  0  0
 23 24  1  0  0  0  0
 23 25  1  0  0  0  0
 22 23  1  0  0  0  0
 22 26  1  0  0  0  0
 20 21  1  0  0  0  0
 20 22  2  0  0  0  0
 17 18  1  0  0  0  0
 17 19  1  0  0  0  0
 17 20  1  0  0  0  0
 14 15  1  0  0  0  0
 14 16  1  0  0  0  0
 14 17  1  0  0  0  0
 11 12  1  0  0  0  0
 11 13  1  0  0  0  0
 11 14  1  0  0  0  0
  9 10  1  0  0  0  0
  9 11  1  0  0  0  0
  9 29  1  0  0  0  0
  7  8  1  0  0  0  0
  7  9  1  0  0  0  0
 33 34  1  0  0  0  0
 33 35  1  0  0  0  0
 33 36  1  0  0  0  0
 31 32  1  0  0  0  0
 31 33  1  0  0  0  0
M  CHG  1  20   1
M  END
$$$$
default_name
  -OEChem-02102213163D

 36 35  0     1  0  0  0  0  0999 V2000
   -4.2256   -3.6731    1.8584 H   0  0  0  0  0  0  0  0  0  0  0  0
   -4.2396   -2.6781    1.4144 C   0  0  0  0  0  0  0  0  0  0  0  0
   -4.9506   -2.0521    1.9514 H   0  0  0  0  0  0  0  0  0  0  0  0
   -4.5266   -2.7521    0.3674 H   0  0  0  0  0  0  0  0  0  0  0  0
   -2.8576   -2.0761    1.5184 C   0  0  0  0  0  0  0  0  0  0  0  0
   -1.9456   -2.7051    2.0404 O   0  0  0  0  0  0  0  0  0  0  0  0
   -2.6926   -0.8481    1.0174 N   0  0  0  0  0  0  0  0  0  0  0  0
   -3.4926   -0.3971    0.5954 H   0  0  0  0  0  0  0  0  0  0  0  0
   -1.4216   -0.1071    1.0434 C   0  0  1  0  0  0  0  0  0  0  0  0
   -0.7579   -0.5878    1.7640 H   0  0  0  0  0  0  0  0  0  0  0  0
   -0.7791   -0.1912   -0.3557 C   0  0  0  0  0  0  0  0  0  0  0  0
   -1.5362   -0.5270   -1.0671 H   0  0  0  0  0  0  0  0  0  0  0  0
   -0.4489    0.8053   -0.6572 H   0  0  0  0  0  0  0  0  0  0  0  0
    0.4110   -1.1591   -0.4248 C   0  0  0  0  0  0  0  0  0  0  0  0
    0.1606   -2.0890    0.0879 H   0  0  0  0  0  0  0  0  0  0  0  0
    0.6411   -1.3740   -1.4688 H   0  0  0  0  0  0  0  0  0  0  0  0
    1.6374   -0.5284    0.2488 C   0  0  0  0  0  0  0  0  0  0  0  0
    1.8646    0.4147   -0.2535 H   0  0  0  0  0  0  0  0  0  0  0  0
    1.3923   -0.3214    1.2932 H   0  0  0  0  0  0  0  0  0  0  0  0
    2.8158   -1.4171    0.1849 N   0  3  0  0  0  0  0  0  0  0  0  0
    2.6777   -2.3211   -0.2335 H   0  0  0  0  0  0  0  0  0  0  0  0
    4.0312   -1.1365    0.6245 C   0  0  0  0  0  0  0  0  0  0  0  0
    4.3197    0.0053    1.1833 N   0  0  0  0  0  0  0  0  0  0  0  0
    3.5940    0.6933    1.2808 H   0  0  0  0  0  0  0  0  0  0  0  0
    5.2471    0.2022    1.5118 H   0  0  0  0  0  0  0  0  0  0  0  0
    4.9919   -2.0090    0.5106 N   0  0  0  0  0  0  0  0  0  0  0  0
    4.8179   -2.9038    0.0861 H   0  0  0  0  0  0  0  0  0  0  0  0
    5.9124   -1.7920    0.8453 H   0  0  0  0  0  0  0  0  0  0  0  0
   -1.6547    1.3413    1.4779 C   0  0  0  0  0  0  0  0  0  0  0  0
   -2.5654    1.9858    0.9716 O   0  0  0  0  0  0  0  0  0  0  0  0
   -0.8107    1.8504    2.3808 N   0  0  0  0  0  0  0  0  0  0  0  0
   -0.1136    1.2381    2.7719 H   0  0  0  0  0  0  0  0  0  0  0  0
   -0.8954    3.2155    2.9026 C   0  0  0  0  0  0  0  0  0  0  0  0
   -1.8299    3.3430    3.4532 H   0  0  0  0  0  0  0  0  0  0  0  0
   -0.0581    3.4194    3.5712 H   0  0  0  0  0  0  0  0  0  0  0  0
   -0.8804    3.9320    2.0784 H   0  0  0  0  0  0  0  0  0  0  0  0
  5  6  2  0  0  0  0
  5  7  1  0  0  0  0
  2  3  1  0  0  0  0
  2  4  1  0  0  0  0
  2  5  1  0  0  0  0
  1  2  1  0  0  0  0
 29 30  2  0  0  0  0
 29 31  1  0  0  0  0
 26 27  1  0  0  0  0
 26 28  1  0  0  0  0
 23 24  1  0  0  0  0
 23 25  1  0  0  0  0
 22 23  1  0  0  0  0
 22 26  1  0  0  0  0
 20 21  1  0  0  0  0
 20 22  2  0  0  0  0
 17 18  1  0  0  0  0
 17 19  1  0  0  0  0
 17 20  1  0  0  0  0
 14 15  1  0  0  0  0
 14 16  1  0  0  0  0
 14 17  1  0  0  0  0
 11 12  1  0  0  0  0
 11 13  1  0  0  0  0
 11 14  1  0  0  0  0
  9 10  1  0  0  0  0
  9 11  1  0  0  0  0
  9 29  1  0  0  0  0
  7  8  1  0  0  0  0
  7  9  1  0  0  0  0
 33 34  1  0  0  0  0
 33 35  1  0  0  0  0
 33 36  1  0  0  0  0
 31 32  1  0  0  0  0
 31 33  1  0  0  0  0
M  CHG  1  20   1
M  END
$$$$
default_name
  -OEChem-02102213163D

 36 35  0     1  0  0  0  0  0999 V2000
   -4.2256   -3.6731    1.8584 H   0  0  0  0  0  0  0  0  0  0  0  0
   -4.2396   -2.6781    1.4144 C   0  0  0  0  0  0  0  0  0  0  0  0
   -4.9506   -2.0521    1.9514 H   0  0  0  0  0  0  0  0  0  0  0  0
   -4.5266   -2.7521    0.3674 H   0  0  0  0  0  0  0  0  0  0  0  0
   -2.8576   -2.0761    1.5184 C   0  0  0  0  0  0  0  0  0  0  0  0
   -1.9456   -2.7051    2.0404 O   0  0  0  0  0  0  0  0  0  0  0  0
   -2.6926   -0.8481    1.0174 N   0  0  0  0  0  0  0  0  0  0  0  0
   -3.4926   -0.3971    0.5954 H   0  0  0  0  0  0  0  0  0  0  0  0
   -1.4216   -0.1071    1.0434 C   0  0  1  0  0  0  0  0  0  0  0  0
   -0.7579   -0.5878    1.7640 H   0  0  0  0  0  0  0  0  0  0  0  0
   -0.7791   -0.1912   -0.3557 C   0  0  0  0  0  0  0  0  0  0  0  0
   -1.5362   -0.5270   -1.0671 H   0  0  0  0  0  0  0  0  0  0  0  0
   -0.4489    0.8053   -0.6572 H   0  0  0  0  0  0  0  0  0  0  0  0
    0.4110   -1.1591   -0.4248 C   0  0  0  0  0  0  0  0  0  0  0  0
    0.0844   -2.1651   -0.1575 H   0  0  0  0  0  0  0  0  0  0  0  0
    0.8106   -1.1677   -1.4393 H   0  0  0  0  0  0  0  0  0  0  0  0
    1.5068   -0.7105    0.5517 C   0  0  0  0  0  0  0  0  0  0  0  0
    1.8088    0.3071    0.2933 H   0  0  0  0  0  0  0  0  0  0  0  0
    1.0925   -0.7093    1.5626 H   0  0  0  0  0  0  0  0  0  0  0  0
    2.6842   -1.6016    0.5017 N   0  3  0  0  0  0  0  0  0  0  0  0
    2.6212   -2.3996   -0.1071 H   0  0  0  0  0  0  0  0  0  0  0  0
    3.8094   -1.4488    1.1797 C   0  0  0  0  0  0  0  0  0  0  0  0
    3.9964   -0.4502    1.9964 N   0  0  0  0  0  0  0  0  0  0  0  0
    3.2611    0.2247    2.1117 H   0  0  0  0  0  0  0  0  0  0  0  0
    4.8562   -0.3492    2.5036 H   0  0  0  0  0  0  0  0  0  0  0  0
    4.7801   -2.3079    1.0494 N   0  0  0  0  0  0  0  0  0  0  0  0
    4.6827   -3.0946    0.4309 H   0  0  0  0  0  0  0  0  0  0  0  0
    5.6320   -2.1882    1.5656 H   0  0  0  0  0  0  0  0  0  0  0  0
   -1.6547    1.3413    1.4779 C   0  0  0  0  0  0  0  0  0  0  0  0
   -2.5654    1.9858    0.9716 O   0  0  0  0  0  0  0  0  0  0  0  0
   -0.8107    1.8504    2.3808 N   0  0  0  0  0  0  0  0  0  0  0  0
   -0.1136    1.2381    2.7719 H   0  0  0  0  0  0  0  0  0  0  0  0
   -0.8954    3.2155    2.9026 C   0  0  0  0  0  0  0  0  0  0  0  0
   -1.8299    3.3430    3.4532 H   0  0  0  0  0  0  0  0  0  0  0  0
   -0.0581    3.4194    3.5712 H   0  0  0  0  0  0  0  0  0  0  0  0
   -0.8804    3.9320    2.0784 H   0  0  0  0  0  0  0  0  0  0  0  0
  5  6  2  0  0  0  0
  5  7  1  0  0  0  0
  2  3  1  0  0  0  0
  2  4  1  0  0  0  0
  2  5  1  0  0  0  0
  1  2  1  0  0  0  0
 29 30  2  0  0  0  0
 29 31  1  0  0  0  0
 26 27  1  0  0  0  0
 26 28  1  0  0  0  0
 23 24  1  0  0  0  0
 23 25  1  0  0  0  0
 22 23  1  0  0  0  0
 22 26  1  0  0  0  0
 20 21  1  0  0  0  0
 20 22  2  0  0  0  0
 17 18  1  0  0  0  0
 17 19  1  0  0  0  0
 17 20  1  0  0  0  0
 14 15  1  0  0  0  0
 14 16  1  0  0  0  0
 14 17  1  0  0  0  0
 11 12  1  0  0  0  0
 11 13  1  0  0  0  0
 11 14  1  0  0  0  0
  9 10  1  0  0  0  0
  9 11  1  0  0  0  0
  9 29  1  0  0  0  0
  7  8  1  0  0  0  0
  7  9  1  0  0  0  0
 33 34  1  0  0  0  0
 33 35  1  0  0  0  0
 33 36  1  0  0  0  0
 31 32  1  0  0  0  0
 31 33  1  0  0  0  0
M  CHG  1  20   1
M  END
$$$$
default_name
  -OEChem-02102213163D

 36 35  0     1  0  0  0  0  0999 V2000
   -4.2256   -3.6731    1.8584 H   0  0  0  0  0  0  0  0  0  0  0  0
   -4.2396   -2.6781    1.4144 C   0  0  0  0  0  0  0  0  0  0  0  0
   -4.9506   -2.0521    1.9514 H   0  0  0  0  0  0  0  0  0  0  0  0
   -4.5266   -2.7521    0.3674 H   0  0  0  0  0  0  0  0  0  0  0  0
   -2.8576   -2.0761    1.5184 C   0  0  0  0  0  0  0  0  0  0  0  0
   -1.9456   -2.7051    2.0404 O   0  0  0  0  0  0  0  0  0  0  0  0
   -2.6926   -0.8481    1.0174 N   0  0  0  0  0  0  0  0  0  0  0  0
   -3.4926   -0.3971    0.5954 H   0  0  0  0  0  0  0  0  0  0  0  0
   -1.4216   -0.1071    1.0434 C   0  0  1  0  0  0  0  0  0  0  0  0
   -0.7579   -0.5878    1.7640 H   0  0  0  0  0  0  0  0  0  0  0  0
   -0.7791   -0.1912   -0.3557 C   0  0  0  0  0  0  0  0  0  0  0  0
   -1.5362   -0.5270   -1.0671 H   0  0  0  0  0  0  0  0  0  0  0  0
   -0.4489    0.8053   -0.6572 H   0  0  0  0  0  0  0  0  0  0  0  0
    0.4110   -1.1591   -0.4248 C   0  0  0  0  0  0  0  0  0  0  0  0
    0.0499   -2.1886   -0.4223 H   0  0  0  0  0  0  0  0  0  0  0  0
    0.9720   -0.9763   -1.3418 H   0  0  0  0  0  0  0  0  0  0  0  0
    1.3292   -0.9456    0.7864 C   0  0  0  0  0  0  0  0  0  0  0  0
    1.6645    0.0941    0.7907 H   0  0  0  0  0  0  0  0  0  0  0  0
    0.7544   -1.1346    1.6960 H   0  0  0  0  0  0  0  0  0  0  0  0
    2.5032   -1.8418    0.7491 N   0  3  0  0  0  0  0  0  0  0  0  0
    2.5451   -2.5000   -0.0100 H   0  0  0  0  0  0  0  0  0  0  0  0
    3.5009   -1.8593    1.6171 C   0  0  0  0  0  0  0  0  0  0  0  0
    3.5462   -1.0495    2.6376 N   0  0  0  0  0  0  0  0  0  0  0  0
    2.7986   -0.3907    2.7659 H   0  0  0  0  0  0  0  0  0  0  0  0
    4.3105   -1.0761    3.2872 H   0  0  0  0  0  0  0  0  0  0  0  0
    4.4841   -2.7022    1.4753 N   0  0  0  0  0  0  0  0  0  0  0  0
    4.4936   -3.3465    0.7035 H   0  0  0  0  0  0  0  0  0  0  0  0
    5.2390   -2.7121    2.1360 H   0  0  0  0  0  0  0  0  0  0  0  0
   -1.6547    1.3413    1.4779 C   0  0  0  0  0  0  0  0  0  0  0  0
   -2.5654    1.9858    0.9716 O   0  0  0  0  0  0  0  0  0  0  0  0
   -0.8107    1.8504    2.3808 N   0  0  0  0  0  0  0  0  0  0  0  0
   -0.1136    1.2381    2.7719 H   0  0  0  0  0  0  0  0  0  0  0  0
   -0.8954    3.2155    2.9026 C   0  0  0  0  0  0  0  0  0  0  0  0
   -1.8299    3.3430    3.4532 H   0  0  0  0  0  0  0  0  0  0  0  0
   -0.0581    3.4194    3.5712 H   0  0  0  0  0  0  0  0  0  0  0  0
   -0.8804    3.9320    2.0784 H   0  0  0  0  0  0  0  0  0  0  0  0
  5  6  2  0  0  0  0
  5  7  1  0  0  0  0
  2  3  1  0  0  0  0
  2  4  1  0  0  0  0
  2  5  1  0  0  0  0
  1  2  1  0  0  0  0
 29 30  2  0  0  0  0
 29 31  1  0  0  0  0
 26 27  1  0  0  0  0
 26 28  1  0  0  0  0
 23 24  1  0  0  0  0
 23 25  1  0  0  0  0
 22 23  1  0  0  0  0
 22 26  1  0  0  0  0
 20 21  1  0  0  0  0
 20 22  2  0  0  0  0
 17 18  1  0  0  0  0
 17 19  1  0  0  0  0
 17 20  1  0  0  0  0
 14 15  1  0  0  0  0
 14 16  1  0  0  0  0
 14 17  1  0  0  0  0
 11 12  1  0  0  0  0
 11 13  1  0  0  0  0
 11 14  1  0  0  0  0
  9 10  1  0  0  0  0
  9 11  1  0  0  0  0
  9 29  1  0  0  0  0
  7  8  1  0  0  0  0
  7  9  1  0  0  0  0
 33 34  1  0  0  0  0
 33 35  1  0  0  0  0
 33 36  1  0  0  0  0
 31 32  1  0  0  0  0
 31 33  1  0  0  0  0
M  CHG  1  20   1
M  END
$$$$
default_name
  -OEChem-02102213163D

 36 35  0     1  0  0  0  0  0999 V2000
   -4.2256   -3.6731    1.8584 H   0  0  0  0  0  0  0  0  0  0  0  0
   -4.2396   -2.6781    1.4144 C   0  0  0  0  0  0  0  0  0  0  0  0
   -4.9506   -2.0521    1.9514 H   0  0  0  0  0  0  0  0  0  0  0  0
   -4.5266   -2.7521    0.3674 H   0  0  0  0  0  0  0  0  0  0  0  0
   -2.8576   -2.0761    1.5184 C   0  0  0  0  0  0  0  0  0  0  0  0
   -1.9456   -2.7051    2.0404 O   0  0  0  0  0  0  0  0  0  0  0  0
   -2.6926   -0.8481    1.0174 N   0  0  0  0  0  0  0  0  0  0  0  0
   -3.4926   -0.3971    0.5954 H   0  0  0  0  0  0  0  0  0  0  0  0
   -1.4216   -0.1071    1.0434 C   0  0  1  0  0  0  0  0  0  0  0  0
   -0.7579   -0.5878    1.7640 H   0  0  0  0  0  0  0  0  0  0  0  0
   -0.7791   -0.1912   -0.3557 C   0  0  0  0  0  0  0  0  0  0  0  0
   -1.5362   -0.5270   -1.0671 H   0  0  0  0  0  0  0  0  0  0  0  0
   -0.4489    0.8053   -0.6572 H   0  0  0  0  0  0  0  0  0  0  0  0
    0.4110   -1.1591   -0.4248 C   0  0  0  0  0  0  0  0  0  0  0  0
    0.0596   -2.1577   -0.6883 H   0  0  0  0  0  0  0  0  0  0  0  0
    1.1141   -0.8129   -1.1829 H   0  0  0  0  0  0  0  0  0  0  0  0
    1.1166   -1.2178    0.9369 C   0  0  0  0  0  0  0  0  0  0  0  0
    1.4414   -0.2098    1.2050 H   0  0  0  0  0  0  0  0  0  0  0  0
    0.4010   -1.5681    1.6845 H   0  0  0  0  0  0  0  0  0  0  0  0
    2.2853   -2.1213    0.9105 N   0  3  0  0  0  0  0  0  0  0  0  0
    2.4546   -2.6157    0.0513 H   0  0  0  0  0  0  0  0  0  0  0  0
    3.1268   -2.3399    1.9070 C   0  0  0  0  0  0  0  0  0  0  0  0
    2.9997   -1.7517    3.0633 N   0  0  0  0  0  0  0  0  0  0  0  0
    2.2379   -1.1109    3.1990 H   0  0  0  0  0  0  0  0  0  0  0  0
    3.6470   -1.9292    3.8093 H   0  0  0  0  0  0  0  0  0  0  0  0
    4.1242   -3.1651    1.7594 N   0  0  0  0  0  0  0  0  0  0  0  0
    4.2636   -3.6424    0.8855 H   0  0  0  0  0  0  0  0  0  0  0  0
    4.7603   -3.3280    2.5179 H   0  0  0  0  0  0  0  0  0  0  0  0
   -1.6547    1.3413    1.4779 C   0  0  0  0  0  0  0  0  0  0  0  0
   -2.5654    1.9858    0.9716 O   0  0  0  0  0  0  0  0  0  0  0  0
   -0.8107    1.8504    2.3808 N   0  0  0  0  0  0  0  0  0  0  0  0
   -0.1136    1.2381    2.7719 H   0  0  0  0  0  0  0  0  0  0  0  0
   -0.8954    3.2155    2.9026 C   0  0  0  0  0  0  0  0  0  0  0  0
   -1.8299    3.3430    3.4532 H   0  0  0  0  0  0  0  0  0  0  0  0
   -0.0581    3.4194    3.5712 H   0  0  0  0  0  0  0  0  0  0  0  0
   -0.8804    3.9320    2.0784 H   0  0  0  0  0  0  0  0  0  0  0  0
  5  6  2  0  0  0  0
  5  7  1  0  0  0  0
  2  3  1  0  0  0  0
  2  4  1  0  0  0  0
  2  5  1  0  0  0  0
  1  2  1  0  0  0  0
 29 30  2  0  0  0  0
 29 31  1  0  0  0  0
 26 27  1  0  0  0  0
 26 28  1  0  0  0  0
 23 24  1  0  0  0  0
 23 25  1  0  0  0  0
 22 23  1  0  0  0  0
 22 26  1  0  0  0  0
 20 21  1  0  0  0  0
 20 22  2  0  0  0  0
 17 18  1  0  0  0  0
 17 19  1  0  0  0  0
 17 20  1  0  0  0  0
 14 15  1  0  0  0  0
 14 16  1  0  0  0  0
 14 17  1  0  0  0  0
 11 12  1  0  0  0  0
 11 13  1  0  0  0  0
 11 14  1  0  0  0  0
  9 10  1  0  0  0  0
  9 11  1  0  0  0  0
  9 29  1  0  0  0  0
  7  8  1  0  0  0  0
  7  9  1  0  0  0  0
 33 34  1  0  0  0  0
 33 35  1  0  0  0  0
 33 36  1  0  0  0  0
 31 32  1  0  0  0  0
 31 33  1  0  0  0  0
M  CHG  1  20   1
M  END
$$$$
default_name
  -OEChem-02102213163D

 36 35  0     1  0  0  0  0  0999 V2000
   -4.2256   -3.6731    1.8584 H   0  0  0  0  0  0  0  0  0  0  0  0
   -4.2396   -2.6781    1.4144 C   0  0  0  0  0  0  0  0  0  0  0  0
   -4.9506   -2.0521    1.9514 H   0  0  0  0  0  0  0  0  0  0  0  0
   -4.5266   -2.7521    0.3674 H   0  0  0  0  0  0  0  0  0  0  0  0
   -2.8576   -2.0761    1.5184 C   0  0  0  0  0  0  0  0  0  0  0  0
   -1.9456   -2.7051    2.0404 O   0  0  0  0  0  0  0  0  0  0  0  0
   -2.6926   -0.8481    1.0174 N   0  0  0  0  0  0  0  0  0  0  0  0
   -3.4926   -0.3971    0.5954 H   0  0  0  0  0  0  0  0  0  0  0  0
   -1.4216   -0.1071    1.0434 C   0  0  1  0  0  0  0  0  0  0  0  0
   -0.7579   -0.5878    1.7640 H   0  0  0  0  0  0  0  0  0  0  0  0
   -0.7791   -0.1912   -0.3557 C   0  0  0  0  0  0  0  0  0  0  0  0
   -1.5362   -0.5270   -1.0671 H   0  0  0  0  0  0  0  0  0  0  0  0
   -0.4489    0.8053   -0.6572 H   0  0  0  0  0  0  0  0  0  0  0  0
    0.4110   -1.1591   -0.4248 C   0  0  0  0  0  0  0  0  0  0  0  0
    0.1127   -2.0746   -0.9375 H   0  0  0  0  0  0  0  0  0  0  0  0
    1.2274   -0.6885   -0.9735 H   0  0  0  0  0  0  0  0  0  0  0  0
    0.8835   -1.5083    0.9931 C   0  0  0  0  0  0  0  0  0  0  0  0
    1.1548   -0.5837    1.5078 H   0  0  0  0  0  0  0  0  0  0  0  0
    0.0566   -1.9805    1.5287 H   0  0  0  0  0  0  0  0  0  0  0  0
    2.0451   -2.4211    0.9747 N   0  3  0  0  0  0  0  0  0  0  0  0
    2.3559   -2.7386    0.0725 H   0  0  0  0  0  0  0  0  0  0  0  0
    2.7126   -2.8580    2.0296 C   0  0  0  0  0  0  0  0  0  0  0  0
    2.3942   -2.5091    3.2446 N   0  0  0  0  0  0  0  0  0  0  0  0
    1.6173   -1.8870    3.3814 H   0  0  0  0  0  0  0  0  0  0  0  0
    2.9110   -2.8501    4.0342 H   0  0  0  0  0  0  0  0  0  0  0  0
    3.7247   -3.6649    1.8822 N   0  0  0  0  0  0  0  0  0  0  0  0
    4.0083   -3.9619    0.9644 H   0  0  0  0  0  0  0  0  0  0  0  0
    4.2284   -3.9939    2.6851 H   0  0  0  0  0  0  0  0  0  0  0  0
   -1.6547    1.3413    1.4779 C   0  0  0  0  0  0  0  0  0  0  0  0
   -2.5654    1.9858    0.9716 O   0  0  0  0  0  0  0  0  0  0  0  0
   -0.8107    1.8504    2.3808 N   0  0  0  0  0  0  0  0  0  0  0  0
   -0.1136    1.2381    2.7719 H   0  0  0  0  0  0  0  0  0  0  0  0
   -0.8954    3.2155    2.9026 C   0  0  0  0  0  0  0  0  0  0  0  0
   -1.8299    3.3430    3.4532 H   0  0  0  0  0  0  0  0  0  0  0  0
   -0.0581    3.4194    3.5712 H   0  0  0  0  0  0  0  0  0  0  0  0
   -0.8804    3.9320    2.0784 H   0  0  0  0  0  0  0  0  0  0  0  0
  5  6  2  0  0  0  0
  5  7  1  0  0  0  0
  2  3  1  0  0  0  0
  2  4  1  0  0  0  0
  2  5  1  0  0  0  0
  1  2  1  0  0  0  0
 29 30  2  0  0  0  0
 29 31  1  0  0  0  0
 26 27  1  0  0  0  0
 26 28  1  0  0  0  0
 23 24  1  0  0  0  0
 23 25  1  0  0  0  0
 22 23  1  0  0  0  0
 22 26  1  0  0  0  0
 20 21  1  0  0  0  0
 20 22  2  0  0  0  0
 17 18  1  0  0  0  0
 17 19  1  0  0  0  0
 17 20  1  0  0  0  0
 14 15  1  0  0  0  0
 14 16  1  0  0  0  0
 14 17  1  0  0  0  0
 11 12  1  0  0  0  0
 11 13  1  0  0  0  0
 11 14  1  0  0  0  0
  9 10  1  0  0  0  0
  9 11  1  0  0  0  0
  9 29  1  0  0  0  0
  7  8  1  0  0  0  0
  7  9  1  0  0  0  0
 33 34  1  0  0  0  0
 33 35  1  0  0  0  0
 33 36  1  0  0  0  0
 31 32  1  0  0  0  0
 31 33  1  0  0  0  0
M  CHG  1  20   1
M  END
$$$$
default_name
  -OEChem-02102213163D

 36 35  0     1  0  0  0  0  0999 V2000
   -4.2256   -3.6731    1.8584 H   0  0  0  0  0  0  0  0  0  0  0  0
   -4.2396   -2.6781    1.4144 C   0  0  0  0  0  0  0  0  0  0  0  0
   -4.9506   -2.0521    1.9514 H   0  0  0  0  0  0  0  0  0  0  0  0
   -4.5266   -2.7521    0.3674 H   0  0  0  0  0  0  0  0  0  0  0  0
   -2.8576   -2.0761    1.5184 C   0  0  0  0  0  0  0  0  0  0  0  0
   -1.9456   -2.7051    2.0404 O   0  0  0  0  0  0  0  0  0  0  0  0
   -2.6926   -0.8481    1.0174 N   0  0  0  0  0  0  0  0  0  0  0  0
   -3.4926   -0.3971    0.5954 H   0  0  0  0  0  0  0  0  0  0  0  0
   -1.4216   -0.1071    1.0434 C   0  0  1  0  0  0  0  0  0  0  0  0
   -0.7579   -0.5878    1.7640 H   0  0  0  0  0  0  0  0  0  0  0  0
   -0.7791   -0.1912   -0.3557 C   0  0  0  0  0  0  0  0  0  0  0  0
   -1.5362   -0.5270   -1.0671 H   0  0  0  0  0  0  0  0  0  0  0  0
   -0.4489    0.8053   -0.6572 H   0  0  0  0  0  0  0  0  0  0  0  0
    0.4110   -1.1591   -0.4248 C   0  0  0  0  0  0  0  0  0  0  0  0
    0.2056   -1.9450   -1.1529 H   0  0  0  0  0  0  0  0  0  0  0  0
    1.3041   -0.6117   -0.7277 H   0  0  0  0  0  0  0  0  0  0  0  0
    0.6459   -1.7976    0.9510 C   0  0  0  0  0  0  0  0  0  0  0  0
    0.8242   -1.0024    1.6785 H   0  0  0  0  0  0  0  0  0  0  0  0
   -0.2555   -2.3436    1.2394 H   0  0  0  0  0  0  0  0  0  0  0  0
    1.7992   -2.7208    0.9374 N   0  3  0  0  0  0  0  0  0  0  0  0
    2.2556   -2.8605    0.0523 H   0  0  0  0  0  0  0  0  0  0  0  0
    2.2864   -3.3781    1.9764 C   0  0  0  0  0  0  0  0  0  0  0  0
    1.7710   -3.2700    3.1689 N   0  0  0  0  0  0  0  0  0  0  0  0
    0.9790   -2.6659    3.3006 H   0  0  0  0  0  0  0  0  0  0  0  0
    2.1527   -3.7762    3.9466 H   0  0  0  0  0  0  0  0  0  0  0  0
    3.3130   -4.1677    1.8354 N   0  0  0  0  0  0  0  0  0  0  0  0
    3.7450   -4.2834    0.9348 H   0  0  0  0  0  0  0  0  0  0  0  0
    3.6795   -4.6645    2.6262 H   0  0  0  0  0  0  0  0  0  0  0  0
   -1.6547    1.3413    1.4779 C   0  0  0  0  0  0  0  0  0  0  0  0
   -2.5654    1.9858    0.9716 O   0  0  0  0  0  0  0  0  0  0  0  0
   -0.8107    1.8504    2.3808 N   0  0  0  0  0  0  0  0  0  0  0  0
   -0.1136    1.2381    2.7719 H   0  0  0  0  0  0  0  0  0  0  0  0
   -0.8954    3.2155    2.9026 C   0  0  0  0  0  0  0  0  0  0  0  0
   -1.8299    3.3430    3.4532 H   0  0  0  0  0  0  0  0  0  0  0  0
   -0.0581    3.4194    3.5712 H   0  0  0  0  0  0  0  0  0  0  0  0
   -0.8804    3.9320    2.0784 H   0  0  0  0  0  0  0  0  0  0  0  0
  5  6  2  0  0  0  0
  5  7  1  0  0  0  0
  2  3  1  0  0  0  0
  2  4  1  0  0  0  0
  2  5  1  0  0  0  0
  1  2  1  0  0  0  0
 29 30  2  0  0  0  0
 29 31  1  0  0  0  0
 26 27  1  0  0  0  0
 26 28  1  0  0  0  0
 23 24  1  0  0  0  0
 23 25  1  0  0  0  0
 22 23  1  0  0  0  0
 22 26  1  0  0  0  0
 20 21  1  0  0  0  0
 20 22  2  0  0  0  0
 17 18  1  0  0  0  0
 17 19  1  0  0  0  0
 17 20  1  0  0  0  0
 14 15  1  0  0  0  0
 14 16  1  0  0  0  0
 14 17  1  0  0  0  0
 11 12  1  0  0  0  0
 11 13  1  0  0  0  0
 11 14  1  0  0  0  0
  9 10  1  0  0  0  0
  9 11  1  0  0  0  0
  9 29  1  0  0  0  0
  7  8  1  0  0  0  0
  7  9  1  0  0  0  0
 33 34  1  0  0  0  0
 33 35  1  0  0  0  0
 33 36  1  0  0  0  0
 31 32  1  0  0  0  0
 31 33  1  0  0  0  0
M  CHG  1  20   1
M  END
$$$$
default_name
  -OEChem-02102213163D

 36 35  0     1  0  0  0  0  0999 V2000
   -4.2256   -3.6731    1.8584 H   0  0  0  0  0  0  0  0  0  0  0  0
   -4.2396   -2.6781    1.4144 C   0  0  0  0  0  0  0  0  0  0  0  0
   -4.9506   -2.0521    1.9514 H   0  0  0  0  0  0  0  0  0  0  0  0
   -4.5266   -2.7521    0.3674 H   0  0  0  0  0  0  0  0  0  0  0  0
   -2.8576   -2.0761    1.5184 C   0  0  0  0  0  0  0  0  0  0  0  0
   -1.9456   -2.7051    2.0404 O   0  0  0  0  0  0  0  0  0  0  0  0
   -2.6926   -0.8481    1.0174 N   0  0  0  0  0  0  0  0  0  0  0  0
   -3.4926   -0.3971    0.5954 H   0  0  0  0  0  0  0  0  0  0  0  0
   -1.4216   -0.1071    1.0434 C   0  0  1  0  0  0  0  0  0  0  0  0
   -0.7579   -0.5878    1.7640 H   0  0  0  0  0  0  0  0  0  0  0  0
   -0.7791   -0.1912   -0.3557 C   0  0  0  0  0  0  0  0  0  0  0  0
   -1.5362   -0.5270   -1.0671 H   0  0  0  0  0  0  0  0  0  0  0  0
   -0.4489    0.8053   -0.6572 H   0  0  0  0  0  0  0  0  0  0  0  0
    0.4110   -1.1591   -0.4248 C   0  0  0  0  0  0  0  0  0  0  0  0
    0.3320   -1.7777   -1.3198 H   0  0  0  0  0  0  0  0  0  0  0  0
    1.3390   -0.5878   -0.4624 H   0  0  0  0  0  0  0  0  0  0  0  0
    0.4198   -2.0657    0.8136 C   0  0  0  0  0  0  0  0  0  0  0  0
    0.4721   -1.4372    1.7055 H   0  0  0  0  0  0  0  0  0  0  0  0
   -0.5140   -2.6326    0.8361 H   0  0  0  0  0  0  0  0  0  0  0  0
    1.5643   -2.9999    0.8012 N   0  3  0  0  0  0  0  0  0  0  0  0
    2.1606   -2.9730   -0.0081 H   0  0  0  0  0  0  0  0  0  0  0  0
    1.8774   -3.8650    1.7513 C   0  0  0  0  0  0  0  0  0  0  0  0
    1.1725   -3.9825    2.8415 N   0  0  0  0  0  0  0  0  0  0  0  0
    0.3666   -3.3947    2.9622 H   0  0  0  0  0  0  0  0  0  0  0  0
    1.4237   -4.6444    3.5526 H   0  0  0  0  0  0  0  0  0  0  0  0
    2.9172   -4.6392    1.6221 N   0  0  0  0  0  0  0  0  0  0  0  0
    3.4919   -4.5850    0.7989 H   0  0  0  0  0  0  0  0  0  0  0  0
    3.1512   -5.2940    2.3453 H   0  0  0  0  0  0  0  0  0  0  0  0
   -1.6547    1.3413    1.4779 C   0  0  0  0  0  0  0  0  0  0  0  0
   -2.5654    1.9858    0.9716 O   0  0  0  0  0  0  0  0  0  0  0  0
   -0.8107    1.8504    2.3808 N   0  0  0  0  0  0  0  0  0  0  0  0
   -0.1136    1.2381    2.7719 H   0  0  0  0  0  0  0  0  0  0  0  0
   -0.8954    3.2155    2.9026 C   0  0  0  0  0  0  0  0  0  0  0  0
   -1.8299    3.3430    3.4532 H   0  0  0  0  0  0  0  0  0  0  0  0
   -0.0581    3.4194    3.5712 H   0  0  0  0  0  0  0  0  0  0  0  0
   -0.8804    3.9320    2.0784 H   0  0  0  0  0  0  0  0  0  0  0  0
  5  6  2  0  0  0  0
  5  7  1  0  0  0  0
  2  3  1  0  0  0  0
  2  4  1  0  0  0  0
  2  5  1  0  0  0  0
  1  2  1  0  0  0  0
 29 30  2  0  0  0  0
 29 31  1  0  0  0  0
 26 27  1  0  0  0  0
 26 28  1  0  0  0  0
 23 24  1  0  0  0  0
 23 25  1  0  0  0  0
 22 23  1  0  0  0  0
 22 26  1  0  0  0  0
 20 21  1  0  0  0  0
 20 22  2  0  0  0  0
 17 18  1  0  0  0  0
 17 19  1  0  0  0  0
 17 20  1  0  0  0  0
 14 15  1  0  0  0  0
 14 16  1  0  0  0  0
 14 17  1  0  0  0  0
 11 12  1  0  0  0  0
 11 13  1  0  0  0  0
 11 14  1  0  0  0  0
  9 10  1  0  0  0  0
  9 11  1  0  0  0  0
  9 29  1  0  0  0  0
  7  8  1  0  0  0  0
  7  9  1  0  0  0  0
 33 34  1  0  0  0  0
 33 35  1  0  0  0  0
 33 36  1  0  0  0  0
 31 32  1  0  0  0  0
 31 33  1  0  0  0  0
M  CHG  1  20   1
M  END
$$$$
default_name
  -OEChem-02102213163D

 36 35  0     1  0  0  0  0  0999 V2000
   -4.2256   -3.6731    1.8584 H   0  0  0  0  0  0  0  0  0  0  0  0
   -4.2396   -2.6781    1.4144 C   0  0  0  0  0  0  0  0  0  0  0  0
   -4.9506   -2.0521    1.9514 H   0  0  0  0  0  0  0  0  0  0  0  0
   -4.5266   -2.7521    0.3674 H   0  0  0  0  0  0  0  0  0  0  0  0
   -2.8576   -2.0761    1.5184 C   0  0  0  0  0  0  0  0  0  0  0  0
   -1.9456   -2.7051    2.0404 O   0  0  0  0  0  0  0  0  0  0  0  0
   -2.6926   -0.8481    1.0174 N   0  0  0  0  0  0  0  0  0  0  0  0
   -3.4926   -0.3971    0.5954 H   0  0  0  0  0  0  0  0  0  0  0  0
   -1.4216   -0.1071    1.0434 C   0  0  1  0  0  0  0  0  0  0  0  0
   -0.7579   -0.5878    1.7640 H   0  0  0  0  0  0  0  0  0  0  0  0
   -0.7791   -0.1912   -0.3557 C   0  0  0  0  0  0  0  0  0  0  0  0
   -1.5362   -0.5270   -1.0671 H   0  0  0  0  0  0  0  0  0  0  0  0
   -0.4489    0.8053   -0.6572 H   0  0  0  0  0  0  0  0  0  0  0  0
    0.4110   -1.1591   -0.4248 C   0  0  0  0  0  0  0  0  0  0  0  0
    0.4832   -1.5841   -1.4269 H   0  0  0  0  0  0  0  0  0  0  0  0
    1.3297   -0.6182   -0.1957 H   0  0  0  0  0  0  0  0  0  0  0  0
    0.2207   -2.2946    0.5902 C   0  0  0  0  0  0  0  0  0  0  0  0
    0.1226   -1.8584    1.5870 H   0  0  0  0  0  0  0  0  0  0  0  0
   -0.7012   -2.8278    0.3464 H   0  0  0  0  0  0  0  0  0  0  0  0
    1.3563   -3.2394    0.5753 N   0  3  0  0  0  0  0  0  0  0  0  0
    2.0774   -3.0684   -0.1045 H   0  0  0  0  0  0  0  0  0  0  0  0
    1.5134   -4.2853    1.3694 C   0  0  0  0  0  0  0  0  0  0  0  0
    0.6395   -4.5980    2.2847 N   0  0  0  0  0  0  0  0  0  0  0  0
   -0.1782   -4.0237    2.3893 H   0  0  0  0  0  0  0  0  0  0  0  0
    0.7737   -5.3954    2.8789 H   0  0  0  0  0  0  0  0  0  0  0  0
    2.5641   -5.0473    1.2570 N   0  0  0  0  0  0  0  0  0  0  0  0
    3.2660   -4.8461    0.5657 H   0  0  0  0  0  0  0  0  0  0  0  0
    2.6793   -5.8396    1.8615 H   0  0  0  0  0  0  0  0  0  0  0  0
   -1.6547    1.3413    1.4779 C   0  0  0  0  0  0  0  0  0  0  0  0
   -2.5654    1.9858    0.9716 O   0  0  0  0  0  0  0  0  0  0  0  0
   -0.8107    1.8504    2.3808 N   0  0  0  0  0  0  0  0  0  0  0  0
   -0.1136    1.2381    2.7719 H   0  0  0  0  0  0  0  0  0  0  0  0
   -0.8954    3.2155    2.9026 C   0  0  0  0  0  0  0  0  0  0  0  0
   -1.8299    3.3430    3.4532 H   0  0  0  0  0  0  0  0  0  0  0  0
   -0.0581    3.4194    3.5712 H   0  0  0  0  0  0  0  0  0  0  0  0
   -0.8804    3.9320    2.0784 H   0  0  0  0  0  0  0  0  0  0  0  0
  5  6  2  0  0  0  0
  5  7  1  0  0  0  0
  2  3  1  0  0  0  0
  2  4  1  0  0  0  0
  2  5  1  0  0  0  0
  1  2  1  0  0  0  0
 29 30  2  0  0  0  0
 29 31  1  0  0  0  0
 26 27  1  0  0  0  0
 26 28  1  0  0  0  0
 23 24  1  0  0  0  0
 23 25  1  0  0  0  0
 22 23  1  0  0  0  0
 22 26  1  0  0  0  0
 20 21  1  0  0  0  0
 20 22  2  0  0  0  0
 17 18  1  0  0  0  0
 17 19  1  0  0  0  0
 17 20  1  0  0  0  0
 14 15  1  0  0  0  0
 14 16  1  0  0  0  0
 14 17  1  0  0  0  0
 11 12  1  0  0  0  0
 11 13  1  0  0  0  0
 11 14  1  0  0  0  0
  9 10  1  0  0  0  0
  9 11  1  0  0  0  0
  9 29  1  0  0  0  0
  7  8  1  0  0  0  0
  7  9  1  0  0  0  0
 33 34  1  0  0  0  0
 33 35  1  0  0  0  0
 33 36  1  0  0  0  0
 31 32  1  0  0  0  0
 31 33  1  0  0  0  0
M  CHG  1  20   1
M  END
$$$$
default_name
  -OEChem-02102213163D

 36 35  0     1  0  0  0  0  0999 V2000
   -4.2256   -3.6731    1.8584 H   0  0  0  0  0  0  0  0  0  0  0  0
   -4.2396   -2.6781    1.4144 C   0  0  0  0  0  0  0  0  0  0  0  0
   -4.9506   -2.0521    1.9514 H   0  0  0  0  0  0  0  0  0  0  0  0
   -4.5266   -2.7521    0.3674 H   0  0  0  0  0  0  0  0  0  0  0  0
   -2.8576   -2.0761    1.5184 C   0  0  0  0  0  0  0  0  0  0  0  0
   -1.9456   -2.7051    2.0404 O   0  0  0  0  0  0  0  0  0  0  0  0
   -2.6926   -0.8481    1.0174 N   0  0  0  0  0  0  0  0  0  0  0  0
   -3.4926   -0.3971    0.5954 H   0  0  0  0  0  0  0  0  0  0  0  0
   -1.4216   -0.1071    1.0434 C   0  0  1  0  0  0  0  0  0  0  0  0
   -0.7579   -0.5878    1.7640 H   0  0  0  0  0  0  0  0  0  0  0  0
   -0.7791   -0.1912   -0.3557 C   0  0  0  0  0  0  0  0  0  0  0  0
   -1.5362   -0.5270   -1.0671 H   0  0  0  0  0  0  0  0  0  0  0  0
   -0.4489    0.8053   -0.6572 H   0  0  0  0  0  0  0  0  0  0  0  0
    0.4110   -1.1591   -0.4248 C   0  0  0  0  0  0  0  0  0  0  0  0
    0.6491   -1.3774   -1.4668 H   0  0  0  0  0  0  0  0  0  0  0  0
    1.2769   -0.7011    0.0543 H   0  0  0  0  0  0  0  0  0  0  0  0
    0.0622   -2.4685    0.2960 C   0  0  0  0  0  0  0  0  0  0  0  0
   -0.2005   -2.2375    1.3309 H   0  0  0  0  0  0  0  0  0  0  0  0
   -0.8045   -2.9160   -0.1962 H   0  0  0  0  0  0  0  0  0  0  0  0
    1.1895   -3.4231    0.2751 N   0  3  0  0  0  0  0  0  0  0  0  0
    2.0116   -3.1402   -0.2303 H   0  0  0  0  0  0  0  0  0  0  0  0
    1.2191   -4.6104    0.8569 C   0  0  0  0  0  0  0  0  0  0  0  0
    0.2083   -5.0747    1.5365 N   0  0  0  0  0  0  0  0  0  0  0  0
   -0.6183   -4.5099    1.6208 H   0  0  0  0  0  0  0  0  0  0  0  0
    0.2470   -5.9781    1.9715 H   0  0  0  0  0  0  0  0  0  0  0  0
    2.2779   -5.3640    0.7649 N   0  0  0  0  0  0  0  0  0  0  0  0
    3.0828   -5.0489    0.2513 H   0  0  0  0  0  0  0  0  0  0  0  0
    2.2962   -6.2641    1.2078 H   0  0  0  0  0  0  0  0  0  0  0  0
   -1.6547    1.3413    1.4779 C   0  0  0  0  0  0  0  0  0  0  0  0
   -2.5654    1.9858    0.9716 O   0  0  0  0  0  0  0  0  0  0  0  0
   -0.8107    1.8504    2.3808 N   0  0  0  0  0  0  0  0  0  0  0  0
   -0.1136    1.2381    2.7719 H   0  0  0  0  0  0  0  0  0  0  0  0
   -0.8954    3.2155    2.9026 C   0  0  0  0  0  0  0  0  0  0  0  0
   -1.8299    3.3430    3.4532 H   0  0  0  0  0  0  0  0  0  0  0  0
   -0.0581    3.4194    3.5712 H   0  0  0  0  0  0  0  0  0  0  0  0
   -0.8804    3.9320    2.0784 H   0  0  0  0  0  0  0  0  0  0  0  0
  5  6  2  0  0  0  0
  5  7  1  0  0  0  0
  2  3  1  0  0  0  0
  2  4  1  0  0  0  0
  2  5  1  0  0  0  0
  1  2  1  0  0  0  0
 29 30  2  0  0  0  0
 29 31  1  0  0  0  0
 26 27  1  0  0  0  0
 26 28  1  0  0  0  0
 23 24  1  0  0  0  0
 23 25  1  0  0  0  0
 22 23  1  0  0  0  0
 22 26  1  0  0  0  0
 20 21  1  0  0  0  0
 20 22  2  0  0  0  0
 17 18  1  0  0  0  0
 17 19  1  0  0  0  0
 17 20  1  0  0  0  0
 14 15  1  0  0  0  0
 14 16  1  0  0  0  0
 14 17  1  0  0  0  0
 11 12  1  0  0  0  0
 11 13  1  0  0  0  0
 11 14  1  0  0  0  0
  9 10  1  0  0  0  0
  9 11  1  0  0  0  0
  9 29  1  0  0  0  0
  7  8  1  0  0  0  0
  7  9  1  0  0  0  0
 33 34  1  0  0  0  0
 33 35  1  0  0  0  0
 33 36  1  0  0  0  0
 31 32  1  0  0  0  0
 31 33  1  0  0  0  0
M  CHG  1  20   1
M  END
$$$$
default_name
  -OEChem-02102213163D

 36 35  0     1  0  0  0  0  0999 V2000
   -4.2256   -3.6731    1.8584 H   0  0  0  0  0  0  0  0  0  0  0  0
   -4.2396   -2.6781    1.4144 C   0  0  0  0  0  0  0  0  0  0  0  0
   -4.9506   -2.0521    1.9514 H   0  0  0  0  0  0  0  0  0  0  0  0
   -4.5266   -2.7521    0.3674 H   0  0  0  0  0  0  0  0  0  0  0  0
   -2.8576   -2.0761    1.5184 C   0  0  0  0  0  0  0  0  0  0  0  0
   -1.9456   -2.7051    2.0404 O   0  0  0  0  0  0  0  0  0  0  0  0
   -2.6926   -0.8481    1.0174 N   0  0  0  0  0  0  0  0  0  0  0  0
   -3.4926   -0.3971    0.5954 H   0  0  0  0  0  0  0  0  0  0  0  0
   -1.4216   -0.1071    1.0434 C   0  0  1  0  0  0  0  0  0  0  0  0
   -0.7579   -0.5878    1.7640 H   0  0  0  0  0  0  0  0  0  0  0  0
   -0.7791   -0.1912   -0.3557 C   0  0  0  0  0  0  0  0  0  0  0  0
   -1.5362   -0.5270   -1.0671 H   0  0  0  0  0  0  0  0  0  0  0  0
   -0.4489    0.8053   -0.6572 H   0  0  0  0  0  0  0  0  0  0  0  0
    0.4110   -1.1591   -0.4248 C   0  0  0  0  0  0  0  0  0  0  0  0
    0.8181   -1.1716   -1.4368 H   0  0  0  0  0  0  0  0  0  0  0  0
    1.1841   -0.8306    0.2706 H   0  0  0  0  0  0  0  0  0  0  0  0
   -0.0450   -2.5756   -0.0489 C   0  0  0  0  0  0  0  0  0  0  0  0
   -0.4754   -2.5485    0.9548 H   0  0  0  0  0  0  0  0  0  0  0  0
   -0.8167   -2.8912   -0.7550 H   0  0  0  0  0  0  0  0  0  0  0  0
    1.0752   -3.5383   -0.0789 N   0  3  0  0  0  0  0  0  0  0  0  0
    1.9678   -3.1837   -0.3770 H   0  0  0  0  0  0  0  0  0  0  0  0
    1.0148   -4.8182    0.2485 C   0  0  0  0  0  0  0  0  0  0  0  0
   -0.0917   -5.3801    0.6477 N   0  0  0  0  0  0  0  0  0  0  0  0
   -0.9237   -4.8203    0.7092 H   0  0  0  0  0  0  0  0  0  0  0  0
   -0.1204   -6.3529    0.8921 H   0  0  0  0  0  0  0  0  0  0  0  0
    2.0780   -5.5680    0.1793 N   0  0  0  0  0  0  0  0  0  0  0  0
    2.9548   -5.1795   -0.1229 H   0  0  0  0  0  0  0  0  0  0  0  0
    2.0277   -6.5385    0.4287 H   0  0  0  0  0  0  0  0  0  0  0  0
   -1.6547    1.3413    1.4779 C   0  0  0  0  0  0  0  0  0  0  0  0
   -2.5654    1.9858    0.9716 O   0  0  0  0  0  0  0  0  0  0  0  0
   -0.8107    1.8504    2.3808 N   0  0  0  0  0  0  0  0  0  0  0  0
   -0.1136    1.2381    2.7719 H   0  0  0  0  0  0  0  0  0  0  0  0
   -0.8954    3.2155    2.9026 C   0  0  0  0  0  0  0  0  0  0  0  0
   -1.8299    3.3430    3.4532 H   0  0  0  0  0  0  0  0  0  0  0  0
   -0.0581    3.4194    3.5712 H   0  0  0  0  0  0  0  0  0  0  0  0
   -0.8804    3.9320    2.0784 H   0  0  0  0  0  0  0  0  0  0  0  0
  5  6  2  0  0  0  0
  5  7  1  0  0  0  0
  2  3  1  0  0  0  0
  2  4  1  0  0  0  0
  2  5  1  0  0  0  0
  1  2  1  0  0  0  0
 29 30  2  0  0  0  0
 29 31  1  0  0  0  0
 26 27  1  0  0  0  0
 26 28  1  0  0  0  0
 23 24  1  0  0  0  0
 23 25  1  0  0  0  0
 22 23  1  0  0  0  0
 22 26  1  0  0  0  0
 20 21  1  0  0  0  0
 20 22  2  0  0  0  0
 17 18  1  0  0  0  0
 17 19  1  0  0  0  0
 17 20  1  0  0  0  0
 14 15  1  0  0  0  0
 14 16  1  0  0  0  0
 14 17  1  0  0  0  0
 11 12  1  0  0  0  0
 11 13  1  0  0  0  0
 11 14  1  0  0  0  0
  9 10  1  0  0  0  0
  9 11  1  0  0  0  0
  9 29  1  0  0  0  0
  7  8  1  0  0  0  0
  7  9  1  0  0  0  0
 33 34  1  0  0  0  0
 33 35  1  0  0  0  0
 33 36  1  0  0  0  0
 31 32  1  0  0  0  0
 31 33  1  0  0  0  0
M  CHG  1  20   1
M  END
$$$$
default_name
  -OEChem-02102213163D

 36 35  0     1  0  0  0  0  0999 V2000
   -4.2256   -3.6731    1.8584 H   0  0  0  0  0  0  0  0  0  0  0  0
   -4.2396   -2.6781    1.4144 C   0  0  0  0  0  0  0  0  0  0  0  0
   -4.9506   -2.0521    1.9514 H   0  0  0  0  0  0  0  0  0  0  0  0
   -4.5266   -2.7521    0.3674 H   0  0  0  0  0  0  0  0  0  0  0  0
   -2.8576   -2.0761    1.5184 C   0  0  0  0  0  0  0  0  0  0  0  0
   -1.9456   -2.7051    2.0404 O   0  0  0  0  0  0  0  0  0  0  0  0
   -2.6926   -0.8481    1.0174 N   0  0  0  0  0  0  0  0  0  0  0  0
   -3.4926   -0.3971    0.5954 H   0  0  0  0  0  0  0  0  0  0  0  0
   -1.4216   -0.1071    1.0434 C   0  0  1  0  0  0  0  0  0  0  0  0
   -0.7579   -0.5878    1.7640 H   0  0  0  0  0  0  0  0  0  0  0  0
   -0.7791   -0.1912   -0.3557 C   0  0  0  0  0  0  0  0  0  0  0  0
   -1.5362   -0.5270   -1.0671 H   0  0  0  0  0  0  0  0  0  0  0  0
   -0.4489    0.8053   -0.6572 H   0  0  0  0  0  0  0  0  0  0  0  0
    0.4110   -1.1591   -0.4248 C   0  0  0  0  0  0  0  0  0  0  0  0
    0.9790   -0.9809   -1.3389 H   0  0  0  0  0  0  0  0  0  0  0  0
    1.0577   -0.9980    0.4384 H   0  0  0  0  0  0  0  0  0  0  0  0
   -0.0935   -2.6086   -0.4210 C   0  0  0  0  0  0  0  0  0  0  0  0
   -0.6831   -2.7703    0.4843 H   0  0  0  0  0  0  0  0  0  0  0  0
   -0.7371   -2.7550   -1.2917 H   0  0  0  0  0  0  0  0  0  0  0  0
    1.0213   -3.5773   -0.4626 N   0  3  0  0  0  0  0  0  0  0  0  0
    1.9489   -3.1957   -0.5345 H   0  0  0  0  0  0  0  0  0  0  0  0
    0.9142   -4.8946   -0.4141 C   0  0  0  0  0  0  0  0  0  0  0  0
   -0.2400   -5.4933   -0.3209 N   0  0  0  0  0  0  0  0  0  0  0  0
   -1.0736   -4.9337   -0.2834 H   0  0  0  0  0  0  0  0  0  0  0  0
   -0.3036   -6.4941   -0.2855 H   0  0  0  0  0  0  0  0  0  0  0  0
    1.9781   -5.6452   -0.4599 N   0  0  0  0  0  0  0  0  0  0  0  0
    2.8906   -5.2292   -0.5315 H   0  0  0  0  0  0  0  0  0  0  0  0
    1.8924   -6.6441   -0.4227 H   0  0  0  0  0  0  0  0  0  0  0  0
   -1.6547    1.3413    1.4779 C   0  0  0  0  0  0  0  0  0  0  0  0
   -2.5654    1.9858    0.9716 O   0  0  0  0  0  0  0  0  0  0  0  0
   -0.8107    1.8504    2.3808 N   0  0  0  0  0  0  0  0  0  0  0  0
   -0.1136    1.2381    2.7719 H   0  0  0  0  0  0  0  0  0  0  0  0
   -0.8954    3.2155    2.9026 C   0  0  0  0  0  0  0  0  0  0  0  0
   -1.8299    3.3430    3.4532 H   0  0  0  0  0  0  0  0  0  0  0  0
   -0.0581    3.4194    3.5712 H   0  0  0  0  0  0  0  0  0  0  0  0
   -0.8804    3.9320    2.0784 H   0  0  0  0  0  0  0  0  0  0  0  0
  5  6  2  0  0  0  0
  5  7  1  0  0  0  0
  2  3  1  0  0  0  0
  2  4  1  0  0  0  0
  2  5  1  0  0  0  0
  1  2  1  0  0  0  0
 29 30  2  0  0  0  0
 29 31  1  0  0  0  0
 26 27  1  0  0  0  0
 26 28  1  0  0  0  0
 23 24  1  0  0  0  0
 23 25  1  0  0  0  0
 22 23  1  0  0  0  0
 22 26  1  0  0  0  0
 20 21  1  0  0  0  0
 20 22  2  0  0  0  0
 17 18  1  0  0  0  0
 17 19  1  0  0  0  0
 17 20  1  0  0  0  0
 14 15  1  0  0  0  0
 14 16  1  0  0  0  0
 14 17  1  0  0  0  0
 11 12  1  0  0  0  0
 11 13  1  0  0  0  0
 11 14  1  0  0  0  0
  9 10  1  0  0  0  0
  9 11  1  0  0  0  0
  9 29  1  0  0  0  0
  7  8  1  0  0  0  0
  7  9  1  0  0  0  0
 33 34  1  0  0  0  0
 33 35  1  0  0  0  0
 33 36  1  0  0  0  0
 31 32  1  0  0  0  0
 31 33  1  0  0  0  0
M  CHG  1  20   1
M  END
$$$$
default_name
  -OEChem-02102213163D

 36 35  0     1  0  0  0  0  0999 V2000
   -4.2256   -3.6731    1.8584 H   0  0  0  0  0  0  0  0  0  0  0  0
   -4.2396   -2.6781    1.4144 C   0  0  0  0  0  0  0  0  0  0  0  0
   -4.9506   -2.0521    1.9514 H   0  0  0  0  0  0  0  0  0  0  0  0
   -4.5266   -2.7521    0.3674 H   0  0  0  0  0  0  0  0  0  0  0  0
   -2.8576   -2.0761    1.5184 C   0  0  0  0  0  0  0  0  0  0  0  0
   -1.9456   -2.7051    2.0404 O   0  0  0  0  0  0  0  0  0  0  0  0
   -2.6926   -0.8481    1.0174 N   0  0  0  0  0  0  0  0  0  0  0  0
   -3.4926   -0.3971    0.5954 H   0  0  0  0  0  0  0  0  0  0  0  0
   -1.4216   -0.1071    1.0434 C   0  0  1  0  0  0  0  0  0  0  0  0
   -0.7579   -0.5878    1.7640 H   0  0  0  0  0  0  0  0  0  0  0  0
   -0.7791   -0.1912   -0.3557 C   0  0  0  0  0  0  0  0  0  0  0  0
   -1.5362   -0.5270   -1.0671 H   0  0  0  0  0  0  0  0  0  0  0  0
   -0.4489    0.8053   -0.6572 H   0  0  0  0  0  0  0  0  0  0  0  0
    0.4110   -1.1591   -0.4248 C   0  0  0  0  0  0  0  0  0  0  0  0
    1.1206   -0.8181   -1.1799 H   0  0  0  0  0  0  0  0  0  0  0  0
    0.9062   -1.1919    0.5462 H   0  0  0  0  0  0  0  0  0  0  0  0
   -0.0800   -2.5653   -0.7950 C   0  0  0  0  0  0  0  0  0  0  0  0
   -0.8095   -2.8877   -0.0485 H   0  0  0  0  0  0  0  0  0  0  0  0
   -0.5710   -2.5167   -1.7698 H   0  0  0  0  0  0  0  0  0  0  0  0
    1.0313   -3.5374   -0.8499 N   0  3  0  0  0  0  0  0  0  0  0  0
    1.9562   -3.1754   -0.6922 H   0  0  0  0  0  0  0  0  0  0  0  0
    0.9243   -4.8343   -1.0858 C   0  0  0  0  0  0  0  0  0  0  0  0
   -0.2265   -5.4066   -1.3034 N   0  0  0  0  0  0  0  0  0  0  0  0
   -1.0577   -4.8424   -1.2895 H   0  0  0  0  0  0  0  0  0  0  0  0
   -0.2901   -6.3921   -1.4813 H   0  0  0  0  0  0  0  0  0  0  0  0
    1.9850   -5.5904   -1.1091 N   0  0  0  0  0  0  0  0  0  0  0  0
    2.8948   -5.1945   -0.9466 H   0  0  0  0  0  0  0  0  0  0  0  0
    1.8993   -6.5738   -1.2884 H   0  0  0  0  0  0  0  0  0  0  0  0
   -1.6547    1.3413    1.4779 C   0  0  0  0  0  0  0  0  0  0  0  0
   -2.5654    1.9858    0.9716 O   0  0  0  0  0  0  0  0  0  0  0  0
   -0.8107    1.8504    2.3808 N   0  0  0  0  0  0  0  0  0  0  0  0
   -0.1136    1.2381    2.7719 H   0  0  0  0  0  0  0  0  0  0  0  0
   -0.8954    3.2155    2.9026 C   0  0  0  0  0  0  0  0  0  0  0  0
   -1.8299    3.3430    3.4532 H   0  0  0  0  0  0  0  0  0  0  0  0
   -0.0581    3.4194    3.5712 H   0  0  0  0  0  0  0  0  0  0  0  0
   -0.8804    3.9320    2.0784 H   0  0  0  0  0  0  0  0  0  0  0  0
  5  6  2  0  0  0  0
  5  7  1  0  0  0  0
  2  3  1  0  0  0  0
  2  4  1  0  0  0  0
  2  5  1  0  0  0  0
  1  2  1  0  0  0  0
 29 30  2  0  0  0  0
 29 31  1  0  0  0  0
 26 27  1  0  0  0  0
 26 28  1  0  0  0  0
 23 24  1  0  0  0  0
 23 25  1  0  0  0  0
 22 23  1  0  0  0  0
 22 26  1  0  0  0  0
 20 21  1  0  0  0  0
 20 22  2  0  0  0  0
 17 18  1  0  0  0  0
 17 19  1  0  0  0  0
 17 20  1  0  0  0  0
 14 15  1  0  0  0  0
 14 16  1  0  0  0  0
 14 17  1  0  0  0  0
 11 12  1  0  0  0  0
 11 13  1  0  0  0  0
 11 14  1  0  0  0  0
  9 10  1  0  0  0  0
  9 11  1  0  0  0  0
  9 29  1  0  0  0  0
  7  8  1  0  0  0  0
  7  9  1  0  0  0  0
 33 34  1  0  0  0  0
 33 35  1  0  0  0  0
 33 36  1  0  0  0  0
 31 32  1  0  0  0  0
 31 33  1  0  0  0  0
M  CHG  1  20   1
M  END
$$$$
default_name
  -OEChem-02102213163D

 36 35  0     1  0  0  0  0  0999 V2000
   -4.2256   -3.6731    1.8584 H   0  0  0  0  0  0  0  0  0  0  0  0
   -4.2396   -2.6781    1.4144 C   0  0  0  0  0  0  0  0  0  0  0  0
   -4.9506   -2.0521    1.9514 H   0  0  0  0  0  0  0  0  0  0  0  0
   -4.5266   -2.7521    0.3674 H   0  0  0  0  0  0  0  0  0  0  0  0
   -2.8576   -2.0761    1.5184 C   0  0  0  0  0  0  0  0  0  0  0  0
   -1.9456   -2.7051    2.0404 O   0  0  0  0  0  0  0  0  0  0  0  0
   -2.6926   -0.8481    1.0174 N   0  0  0  0  0  0  0  0  0  0  0  0
   -3.4926   -0.3971    0.5954 H   0  0  0  0  0  0  0  0  0  0  0  0
   -1.4216   -0.1071    1.0434 C   0  0  1  0  0  0  0  0  0  0  0  0
   -0.7579   -0.5878    1.7640 H   0  0  0  0  0  0  0  0  0  0  0  0
   -0.7791   -0.1912   -0.3557 C   0  0  0  0  0  0  0  0  0  0  0  0
   -1.5362   -0.5270   -1.0671 H   0  0  0  0  0  0  0  0  0  0  0  0
   -0.4489    0.8053   -0.6572 H   0  0  0  0  0  0  0  0  0  0  0  0
    0.4110   -1.1591   -0.4248 C   0  0  0  0  0  0  0  0  0  0  0  0
    1.2333   -0.6945   -0.9706 H   0  0  0  0  0  0  0  0  0  0  0  0
    0.7401   -1.3991    0.5868 H   0  0  0  0  0  0  0  0  0  0  0  0
   -0.0054   -2.4486   -1.1454 C   0  0  0  0  0  0  0  0  0  0  0  0
   -0.8461   -2.8928   -0.6074 H   0  0  0  0  0  0  0  0  0  0  0  0
   -0.3298   -2.1925   -2.1567 H   0  0  0  0  0  0  0  0  0  0  0  0
    1.1046   -3.4212   -1.2143 N   0  3  0  0  0  0  0  0  0  0  0  0
    1.9892   -3.1244   -0.8392 H   0  0  0  0  0  0  0  0  0  0  0  0
    1.0443   -4.6413   -1.7209 C   0  0  0  0  0  0  0  0  0  0  0  0
   -0.0522   -5.1259   -2.2329 N   0  0  0  0  0  0  0  0  0  0  0  0
   -0.8772   -4.5526   -2.2403 H   0  0  0  0  0  0  0  0  0  0  0  0
   -0.0808   -6.0539   -2.6136 H   0  0  0  0  0  0  0  0  0  0  0  0
    2.0981   -5.4073   -1.7240 N   0  0  0  0  0  0  0  0  0  0  0  0
    2.9669   -5.0777   -1.3400 H   0  0  0  0  0  0  0  0  0  0  0  0
    2.0480   -6.3323   -2.1093 H   0  0  0  0  0  0  0  0  0  0  0  0
   -1.6547    1.3413    1.4779 C   0  0  0  0  0  0  0  0  0  0  0  0
   -2.5654    1.9858    0.9716 O   0  0  0  0  0  0  0  0  0  0  0  0
   -0.8107    1.8504    2.3808 N   0  0  0  0  0  0  0  0  0  0  0  0
   -0.1136    1.2381    2.7719 H   0  0  0  0  0  0  0  0  0  0  0  0
   -0.8954    3.2155    2.9026 C   0  0  0  0  0  0  0  0  0  0  0  0
   -1.8299    3.3430    3.4532 H   0  0  0  0  0  0  0  0  0  0  0  0
   -0.0581    3.4194    3.5712 H   0  0  0  0  0  0  0  0  0  0  0  0
   -0.8804    3.9320    2.0784 H   0  0  0  0  0  0  0  0  0  0  0  0
  5  6  2  0  0  0  0
  5  7  1  0  0  0  0
  2  3  1  0  0  0  0
  2  4  1  0  0  0  0
  2  5  1  0  0  0  0
  1  2  1  0  0  0  0
 29 30  2  0  0  0  0
 29 31  1  0  0  0  0
 26 27  1  0  0  0  0
 26 28  1  0  0  0  0
 23 24  1  0  0  0  0
 23 25  1  0  0  0  0
 22 23  1  0  0  0  0
 22 26  1  0  0  0  0
 20 21  1  0  0  0  0
 20 22  2  0  0  0  0
 17 18  1  0  0  0  0
 17 19  1  0  0  0  0
 17 20  1  0  0  0  0
 14 15  1  0  0  0  0
 14 16  1  0  0  0  0
 14 17  1  0  0  0  0
 11 12  1  0  0  0  0
 11 13  1  0  0  0  0
 11 14  1  0  0  0  0
  9 10  1  0  0  0  0
  9 11  1  0  0  0  0
  9 29  1  0  0  0  0
  7  8  1  0  0  0  0
  7  9  1  0  0  0  0
 33 34  1  0  0  0  0
 33 35  1  0  0  0  0
 33 36  1  0  0  0  0
 31 32  1  0  0  0  0
 31 33  1  0  0  0  0
M  CHG  1  20   1
M  END
$$$$
default_name
  -OEChem-02102213163D

 36 35  0     1  0  0  0  0  0999 V2000
   -4.2256   -3.6731    1.8584 H   0  0  0  0  0  0  0  0  0  0  0  0
   -4.2396   -2.6781    1.4144 C   0  0  0  0  0  0  0  0  0  0  0  0
   -4.9506   -2.0521    1.9514 H   0  0  0  0  0  0  0  0  0  0  0  0
   -4.5266   -2.7521    0.3674 H   0  0  0  0  0  0  0  0  0  0  0  0
   -2.8576   -2.0761    1.5184 C   0  0  0  0  0  0  0  0  0  0  0  0
   -1.9456   -2.7051    2.0404 O   0  0  0  0  0  0  0  0  0  0  0  0
   -2.6926   -0.8481    1.0174 N   0  0  0  0  0  0  0  0  0  0  0  0
   -3.4926   -0.3971    0.5954 H   0  0  0  0  0  0  0  0  0  0  0  0
   -1.4216   -0.1071    1.0434 C   0  0  1  0  0  0  0  0  0  0  0  0
   -0.7579   -0.5878    1.7640 H   0  0  0  0  0  0  0  0  0  0  0  0
   -0.7791   -0.1912   -0.3557 C   0  0  0  0  0  0  0  0  0  0  0  0
   -1.5362   -0.5270   -1.0671 H   0  0  0  0  0  0  0  0  0  0  0  0
   -0.4489    0.8053   -0.6572 H   0  0  0  0  0  0  0  0  0  0  0  0
    0.4110   -1.1591   -0.4248 C   0  0  0  0  0  0  0  0  0  0  0  0
    1.3095   -0.6183   -0.7252 H   0  0  0  0  0  0  0  0  0  0  0  0
    0.5706   -1.6054    0.5573 H   0  0  0  0  0  0  0  0  0  0  0  0
    0.1251   -2.2665   -1.4482 C   0  0  0  0  0  0  0  0  0  0  0  0
   -0.7903   -2.7852   -1.1542 H   0  0  0  0  0  0  0  0  0  0  0  0
   -0.0300   -1.8046   -2.4261 H   0  0  0  0  0  0  0  0  0  0  0  0
    1.2362   -3.2368   -1.5311 N   0  3  0  0  0  0  0  0  0  0  0  0
    2.0457   -3.0459   -0.9656 H   0  0  0  0  0  0  0  0  0  0  0  0
    1.2661   -4.3290   -2.2761 C   0  0  0  0  0  0  0  0  0  0  0  0
    0.2710   -4.6704   -3.0459 N   0  0  0  0  0  0  0  0  0  0  0  0
   -0.5444   -4.0841   -3.0712 H   0  0  0  0  0  0  0  0  0  0  0  0
    0.3101   -5.5025   -3.6054 H   0  0  0  0  0  0  0  0  0  0  0  0
    2.3099   -5.1084   -2.2629 N   0  0  0  0  0  0  0  0  0  0  0  0
    3.1021   -4.8869   -1.6847 H   0  0  0  0  0  0  0  0  0  0  0  0
    2.3285   -5.9361   -2.8296 H   0  0  0  0  0  0  0  0  0  0  0  0
   -1.6547    1.3413    1.4779 C   0  0  0  0  0  0  0  0  0  0  0  0
   -2.5654    1.9858    0.9716 O   0  0  0  0  0  0  0  0  0  0  0  0
   -0.8107    1.8504    2.3808 N   0  0  0  0  0  0  0  0  0  0  0  0
   -0.1136    1.2381    2.7719 H   0  0  0  0  0  0  0  0  0  0  0  0
   -0.8954    3.2155    2.9026 C   0  0  0  0  0  0  0  0  0  0  0  0
   -1.8299    3.3430    3.4532 H   0  0  0  0  0  0  0  0  0  0  0  0
   -0.0581    3.4194    3.5712 H   0  0  0  0  0  0  0  0  0  0  0  0
   -0.8804    3.9320    2.0784 H   0  0  0  0  0  0  0  0  0  0  0  0
  5  6  2  0  0  0  0
  5  7  1  0  0  0  0
  2  3  1  0  0  0  0
  2  4  1  0  0  0  0
  2  5  1  0  0  0  0
  1  2  1  0  0  0  0
 29 30  2  0  0  0  0
 29 31  1  0  0  0  0
 26 27  1  0  0  0  0
 26 28  1  0  0  0  0
 23 24  1  0  0  0  0
 23 25  1  0  0  0  0
 22 23  1  0  0  0  0
 22 26  1  0  0  0  0
 20 21  1  0  0  0  0
 20 22  2  0  0  0  0
 17 18  1  0  0  0  0
 17 19  1  0  0  0  0
 17 20  1  0  0  0  0
 14 15  1  0  0  0  0
 14 16  1  0  0  0  0
 14 17  1  0  0  0  0
 11 12  1  0  0  0  0
 11 13  1  0  0  0  0
 11 14  1  0  0  0  0
  9 10  1  0  0  0  0
  9 11  1  0  0  0  0
  9 29  1  0  0  0  0
  7  8  1  0  0  0  0
  7  9  1  0  0  0  0
 33 34  1  0  0  0  0
 33 35  1  0  0  0  0
 33 36  1  0  0  0  0
 31 32  1  0  0  0  0
 31 33  1  0  0  0  0
M  CHG  1  20   1
M  END
$$$$
default_name
  -OEChem-02102213163D

 36 35  0     1  0  0  0  0  0999 V2000
   -4.2256   -3.6731    1.8584 H   0  0  0  0  0  0  0  0  0  0  0  0
   -4.2396   -2.6781    1.4144 C   0  0  0  0  0  0  0  0  0  0  0  0
   -4.9506   -2.0521    1.9514 H   0  0  0  0  0  0  0  0  0  0  0  0
   -4.5266   -2.7521    0.3674 H   0  0  0  0  0  0  0  0  0  0  0  0
   -2.8576   -2.0761    1.5184 C   0  0  0  0  0  0  0  0  0  0  0  0
   -1.9456   -2.7051    2.0404 O   0  0  0  0  0  0  0  0  0  0  0  0
   -2.6926   -0.8481    1.0174 N   0  0  0  0  0  0  0  0  0  0  0  0
   -3.4926   -0.3971    0.5954 H   0  0  0  0  0  0  0  0  0  0  0  0
   -1.4216   -0.1071    1.0434 C   0  0  1  0  0  0  0  0  0  0  0  0
   -0.7579   -0.5878    1.7640 H   0  0  0  0  0  0  0  0  0  0  0  0
   -0.7791   -0.1912   -0.3557 C   0  0  0  0  0  0  0  0  0  0  0  0
   -1.5362   -0.5270   -1.0671 H   0  0  0  0  0  0  0  0  0  0  0  0
   -0.4489    0.8053   -0.6572 H   0  0  0  0  0  0  0  0  0  0  0  0
    0.4110   -1.1591   -0.4248 C   0  0  0  0  0  0  0  0  0  0  0  0
    1.3439   -0.5949   -0.4604 H   0  0  0  0  0  0  0  0  0  0  0  0
    0.4092   -1.7968    0.4598 H   0  0  0  0  0  0  0  0  0  0  0  0
    0.3027   -2.0314   -1.6829 C   0  0  0  0  0  0  0  0  0  0  0  0
   -0.6460   -2.5722   -1.6517 H   0  0  0  0  0  0  0  0  0  0  0  0
    0.3082   -1.3794   -2.5595 H   0  0  0  0  0  0  0  0  0  0  0  0
    1.4172   -2.9966   -1.7786 N   0  3  0  0  0  0  0  0  0  0  0  0
    2.1217   -2.9455   -1.0628 H   0  0  0  0  0  0  0  0  0  0  0  0
    1.5746   -3.9185   -2.7136 C   0  0  0  0  0  0  0  0  0  0  0  0
    0.7213   -4.0711   -3.6872 N   0  0  0  0  0  0  0  0  0  0  0  0
   -0.0819   -3.4687   -3.7255 H   0  0  0  0  0  0  0  0  0  0  0  0
    0.8558   -4.7756   -4.3890 H   0  0  0  0  0  0  0  0  0  0  0  0
    2.6059   -4.7142   -2.6888 N   0  0  0  0  0  0  0  0  0  0  0  0
    3.2912   -4.6349   -1.9573 H   0  0  0  0  0  0  0  0  0  0  0  0
    2.7214   -5.4122   -3.4001 H   0  0  0  0  0  0  0  0  0  0  0  0
   -1.6547    1.3413    1.4779 C   0  0  0  0  0  0  0  0  0  0  0  0
   -2.5654    1.9858    0.9716 O   0  0  0  0  0  0  0  0  0  0  0  0
   -0.8107    1.8504    2.3808 N   0  0  0  0  0  0  0  0  0  0  0  0
   -0.1136    1.2381    2.7719 H   0  0  0  0  0  0  0  0  0  0  0  0
   -0.8954    3.2155    2.9026 C   0  0  0  0  0  0  0  0  0  0  0  0
   -1.8299    3.3430    3.4532 H   0  0  0  0  0  0  0  0  0  0  0  0
   -0.0581    3.4194    3.5712 H   0  0  0  0  0  0  0  0  0  0  0  0
   -0.8804    3.9320    2.0784 H   0  0  0  0  0  0  0  0  0  0  0  0
  5  6  2  0  0  0  0
  5  7  1  0  0  0  0
  2  3  1  0  0  0  0
  2  4  1  0  0  0  0
  2  5  1  0  0  0  0
  1  2  1  0  0  0  0
 29 30  2  0  0  0  0
 29 31  1  0  0  0  0
 26 27  1  0  0  0  0
 26 28  1  0  0  0  0
 23 24  1  0  0  0  0
 23 25  1  0  0  0  0
 22 23  1  0  0  0  0
 22 26  1  0  0  0  0
 20 21  1  0  0  0  0
 20 22  2  0  0  0  0
 17 18  1  0  0  0  0
 17 19  1  0  0  0  0
 17 20  1  0  0  0  0
 14 15  1  0  0  0  0
 14 16  1  0  0  0  0
 14 17  1  0  0  0  0
 11 12  1  0  0  0  0
 11 13  1  0  0  0  0
 11 14  1  0  0  0  0
  9 10  1  0  0  0  0
  9 11  1  0  0  0  0
  9 29  1  0  0  0  0
  7  8  1  0  0  0  0
  7  9  1  0  0  0  0
 33 34  1  0  0  0  0
 33 35  1  0  0  0  0
 33 36  1  0  0  0  0
 31 32  1  0  0  0  0
 31 33  1  0  0  0  0
M  CHG  1  20   1
M  END
$$$$
default_name
  -OEChem-02102213163D

 36 35  0     1  0  0  0  0  0999 V2000
   -4.2256   -3.6731    1.8584 H   0  0  0  0  0  0  0  0  0  0  0  0
   -4.2396   -2.6781    1.4144 C   0  0  0  0  0  0  0  0  0  0  0  0
   -4.9506   -2.0521    1.9514 H   0  0  0  0  0  0  0  0  0  0  0  0
   -4.5266   -2.7521    0.3674 H   0  0  0  0  0  0  0  0  0  0  0  0
   -2.8576   -2.0761    1.5184 C   0  0  0  0  0  0  0  0  0  0  0  0
   -1.9456   -2.7051    2.0404 O   0  0  0  0  0  0  0  0  0  0  0  0
   -2.6926   -0.8481    1.0174 N   0  0  0  0  0  0  0  0  0  0  0  0
   -3.4926   -0.3971    0.5954 H   0  0  0  0  0  0  0  0  0  0  0  0
   -1.4216   -0.1071    1.0434 C   0  0  1  0  0  0  0  0  0  0  0  0
   -0.7579   -0.5878    1.7640 H   0  0  0  0  0  0  0  0  0  0  0  0
   -0.7791   -0.1912   -0.3557 C   0  0  0  0  0  0  0  0  0  0  0  0
   -1.5362   -0.5270   -1.0671 H   0  0  0  0  0  0  0  0  0  0  0  0
   -0.4489    0.8053   -0.6572 H   0  0  0  0  0  0  0  0  0  0  0  0
    0.4110   -1.1591   -0.4248 C   0  0  0  0  0  0  0  0  0  0  0  0
    1.3343   -0.6257   -0.1944 H   0  0  0  0  0  0  0  0  0  0  0  0
    0.2671   -1.9602    0.3009 H   0  0  0  0  0  0  0  0  0  0  0  0
    0.5153   -1.7593   -1.8335 C   0  0  0  0  0  0  0  0  0  0  0  0
   -0.4229   -2.2683   -2.0659 H   0  0  0  0  0  0  0  0  0  0  0  0
    0.6615   -0.9458   -2.5480 H   0  0  0  0  0  0  0  0  0  0  0  0
    1.6351   -2.7171   -1.9399 N   0  3  0  0  0  0  0  0  0  0  0  0
    2.2122   -2.8298   -1.1241 H   0  0  0  0  0  0  0  0  0  0  0  0
    1.9487   -3.4379   -3.0035 C   0  0  0  0  0  0  0  0  0  0  0  0
    1.2677   -3.3689   -4.1129 N   0  0  0  0  0  0  0  0  0  0  0  0
    0.4788   -2.7484   -4.1585 H   0  0  0  0  0  0  0  0  0  0  0  0
    1.5193   -3.9225   -4.9110 H   0  0  0  0  0  0  0  0  0  0  0  0
    2.9659   -4.2513   -2.9728 N   0  0  0  0  0  0  0  0  0  0  0  0
    3.5212   -4.3391   -2.1393 H   0  0  0  0  0  0  0  0  0  0  0  0
    3.2002   -4.7963   -3.7819 H   0  0  0  0  0  0  0  0  0  0  0  0
   -1.6547    1.3413    1.4779 C   0  0  0  0  0  0  0  0  0  0  0  0
   -2.5654    1.9858    0.9716 O   0  0  0  0  0  0  0  0  0  0  0  0
   -0.8107    1.8504    2.3808 N   0  0  0  0  0  0  0  0  0  0  0  0
   -0.1136    1.2381    2.7719 H   0  0  0  0  0  0  0  0  0  0  0  0
   -0.8954    3.2155    2.9026 C   0  0  0  0  0  0  0  0  0  0  0  0
   -1.8299    3.3430    3.4532 H   0  0  0  0  0  0  0  0  0  0  0  0
   -0.0581    3.4194    3.5712 H   0  0  0  0  0  0  0  0  0  0  0  0
   -0.8804    3.9320    2.0784 H   0  0  0  0  0  0  0  0  0  0  0  0
  5  6  2  0  0  0  0
  5  7  1  0  0  0  0
  2  3  1  0  0  0  0
  2  4  1  0  0  0  0
  2  5  1  0  0  0  0
  1  2  1  0  0  0  0
 29 30  2  0  0  0  0
 29 31  1  0  0  0  0
 26 27  1  0  0  0  0
 26 28  1  0  0  0  0
 23 24  1  0  0  0  0
 23 25  1  0  0  0  0
 22 23  1  0  0  0  0
 22 26  1  0  0  0  0
 20 21  1  0  0  0  0
 20 22  2  0  0  0  0
 17 18  1  0  0  0  0
 17 19  1  0  0  0  0
 17 20  1  0  0  0  0
 14 15  1  0  0  0  0
 14 16  1  0  0  0  0
 14 17  1  0  0  0  0
 11 12  1  0  0  0  0
 11 13  1  0  0  0  0
 11 14  1  0  0  0  0
  9 10  1  0  0  0  0
  9 11  1  0  0  0  0
  9 29  1  0  0  0  0
  7  8  1  0  0  0  0
  7  9  1  0  0  0  0
 33 34  1  0  0  0  0
 33 35  1  0  0  0  0
 33 36  1  0  0  0  0
 31 32  1  0  0  0  0
 31 33  1  0  0  0  0
M  CHG  1  20   1
M  END
$$$$
default_name
  -OEChem-02102213163D

 36 35  0     1  0  0  0  0  0999 V2000
   -4.2256   -3.6731    1.8584 H   0  0  0  0  0  0  0  0  0  0  0  0
   -4.2396   -2.6781    1.4144 C   0  0  0  0  0  0  0  0  0  0  0  0
   -4.9506   -2.0521    1.9514 H   0  0  0  0  0  0  0  0  0  0  0  0
   -4.5266   -2.7521    0.3674 H   0  0  0  0  0  0  0  0  0  0  0  0
   -2.8576   -2.0761    1.5184 C   0  0  0  0  0  0  0  0  0  0  0  0
   -1.9456   -2.7051    2.0404 O   0  0  0  0  0  0  0  0  0  0  0  0
   -2.6926   -0.8481    1.0174 N   0  0  0  0  0  0  0  0  0  0  0  0
   -3.4926   -0.3971    0.5954 H   0  0  0  0  0  0  0  0  0  0  0  0
   -1.4216   -0.1071    1.0434 C   0  0  1  0  0  0  0  0  0  0  0  0
   -0.7579   -0.5878    1.7640 H   0  0  0  0  0  0  0  0  0  0  0  0
   -0.7791   -0.1912   -0.3557 C   0  0  0  0  0  0  0  0  0  0  0  0
   -1.5362   -0.5270   -1.0671 H   0  0  0  0  0  0  0  0  0  0  0  0
   -0.4489    0.8053   -0.6572 H   0  0  0  0  0  0  0  0  0  0  0  0
    0.4110   -1.1591   -0.4248 C   0  0  0  0  0  0  0  0  0  0  0  0
    1.2812   -0.7088    0.0548 H   0  0  0  0  0  0  0  0  0  0  0  0
    0.1538   -2.0846    0.0915 H   0  0  0  0  0  0  0  0  0  0  0  0
    0.7484   -1.4687   -1.8896 C   0  0  0  0  0  0  0  0  0  0  0  0
   -0.1363   -1.8944   -2.3687 H   0  0  0  0  0  0  0  0  0  0  0  0
    1.0059   -0.5334   -2.3922 H   0  0  0  0  0  0  0  0  0  0  0  0
    1.8753   -2.4173   -2.0041 N   0  3  0  0  0  0  0  0  0  0  0  0
    2.3110   -2.7069   -1.1453 H   0  0  0  0  0  0  0  0  0  0  0  0
    2.3629   -2.9198   -3.1260 C   0  0  0  0  0  0  0  0  0  0  0  0
    1.8732   -2.6115   -4.2941 N   0  0  0  0  0  0  0  0  0  0  0  0
    1.0994   -1.9724   -4.3409 H   0  0  0  0  0  0  0  0  0  0  0  0
    2.2553   -3.0016   -5.1360 H   0  0  0  0  0  0  0  0  0  0  0  0
    3.3653   -3.7514   -3.0957 N   0  0  0  0  0  0  0  0  0  0  0  0
    3.7766   -4.0196   -2.2182 H   0  0  0  0  0  0  0  0  0  0  0  0
    3.7321   -4.1304   -3.9491 H   0  0  0  0  0  0  0  0  0  0  0  0
   -1.6547    1.3413    1.4779 C   0  0  0  0  0  0  0  0  0  0  0  0
   -2.5654    1.9858    0.9716 O   0  0  0  0  0  0  0  0  0  0  0  0
   -0.8107    1.8504    2.3808 N   0  0  0  0  0  0  0  0  0  0  0  0
   -0.1136    1.2381    2.7719 H   0  0  0  0  0  0  0  0  0  0  0  0
   -0.8954    3.2155    2.9026 C   0  0  0  0  0  0  0  0  0  0  0  0
   -1.8299    3.3430    3.4532 H   0  0  0  0  0  0  0  0  0  0  0  0
   -0.0581    3.4194    3.5712 H   0  0  0  0  0  0  0  0  0  0  0  0
   -0.8804    3.9320    2.0784 H   0  0  0  0  0  0  0  0  0  0  0  0
  5  6  2  0  0  0  0
  5  7  1  0  0  0  0
  2  3  1  0  0  0  0
  2  4  1  0  0  0  0
  2  5  1  0  0  0  0
  1  2  1  0  0  0  0
 29 30  2  0  0  0  0
 29 31  1  0  0  0  0
 26 27  1  0  0  0  0
 26 28  1  0  0  0  0
 23 24  1  0  0  0  0
 23 25  1  0  0  0  0
 22 23  1  0  0  0  0
 22 26  1  0  0  0  0
 20 21  1  0  0  0  0
 20 22  2  0  0  0  0
 17 18  1  0  0  0  0
 17 19  1  0  0  0  0
 17 20  1  0  0  0  0
 14 15  1  0  0  0  0
 14 16  1  0  0  0  0
 14 17  1  0  0  0  0
 11 12  1  0  0  0  0
 11 13  1  0  0  0  0
 11 14  1  0  0  0  0
  9 10  1  0  0  0  0
  9 11  1  0  0  0  0
  9 29  1  0  0  0  0
  7  8  1  0  0  0  0
  7  9  1  0  0  0  0
 33 34  1  0  0  0  0
 33 35  1  0  0  0  0
 33 36  1  0  0  0  0
 31 32  1  0  0  0  0
 31 33  1  0  0  0  0
M  CHG  1  20   1
M  END
$$$$
default_name
  -OEChem-02102213163D

 36 35  0     1  0  0  0  0  0999 V2000
   -4.2256   -3.6731    1.8584 H   0  0  0  0  0  0  0  0  0  0  0  0
   -4.2396   -2.6781    1.4144 C   0  0  0  0  0  0  0  0  0  0  0  0
   -4.9506   -2.0521    1.9514 H   0  0  0  0  0  0  0  0  0  0  0  0
   -4.5266   -2.7521    0.3674 H   0  0  0  0  0  0  0  0  0  0  0  0
   -2.8576   -2.0761    1.5184 C   0  0  0  0  0  0  0  0  0  0  0  0
   -1.9456   -2.7051    2.0404 O   0  0  0  0  0  0  0  0  0  0  0  0
   -2.6926   -0.8481    1.0174 N   0  0  0  0  0  0  0  0  0  0  0  0
   -3.4926   -0.3971    0.5954 H   0  0  0  0  0  0  0  0  0  0  0  0
   -1.4216   -0.1071    1.0434 C   0  0  1  0  0  0  0  0  0  0  0  0
   -0.7579   -0.5878    1.7640 H   0  0  0  0  0  0  0  0  0  0  0  0
   -0.7791   -0.1912   -0.3557 C   0  0  0  0  0  0  0  0  0  0  0  0
   -1.5743   -0.2617   -1.1005 H   0  0  0  0  0  0  0  0  0  0  0  0
   -0.2168    0.7257   -0.5458 H   0  0  0  0  0  0  0  0  0  0  0  0
    0.1528   -1.3994   -0.5289 C   0  0  0  0  0  0  0  0  0  0  0  0
    0.9645   -1.3464    0.1980 H   0  0  0  0  0  0  0  0  0  0  0  0
   -0.4137   -2.3175   -0.3702 H   0  0  0  0  0  0  0  0  0  0  0  0
    0.7453   -1.4035   -1.9447 C   0  0  0  0  0  0  0  0  0  0  0  0
   -0.0749   -1.4296   -2.6658 H   0  0  0  0  0  0  0  0  0  0  0  0
    1.3110   -0.4797   -2.0875 H   0  0  0  0  0  0  0  0  0  0  0  0
    1.6320   -2.5645   -2.1646 N   0  3  0  0  0  0  0  0  0  0  0  0
    1.7818   -3.1738   -1.3787 H   0  0  0  0  0  0  0  0  0  0  0  0
    2.2449   -2.8770   -3.2941 C   0  0  0  0  0  0  0  0  0  0  0  0
    2.1200   -2.1560   -4.3730 N   0  0  0  0  0  0  0  0  0  0  0  0
    1.5376   -1.3379   -4.3434 H   0  0  0  0  0  0  0  0  0  0  0  0
    2.5924   -2.4070   -5.2219 H   0  0  0  0  0  0  0  0  0  0  0  0
    3.0057   -3.9324   -3.3620 N   0  0  0  0  0  0  0  0  0  0  0  0
    3.1327   -4.5198   -2.5558 H   0  0  0  0  0  0  0  0  0  0  0  0
    3.4687   -4.1659   -4.2208 H   0  0  0  0  0  0  0  0  0  0  0  0
   -1.6547    1.3413    1.4779 C   0  0  0  0  0  0  0  0  0  0  0  0
   -2.5654    1.9858    0.9716 O   0  0  0  0  0  0  0  0  0  0  0  0
   -0.8107    1.8504    2.3808 N   0  0  0  0  0  0  0  0  0  0  0  0
   -0.1136    1.2381    2.7719 H   0  0  0  0  0  0  0  0  0  0  0  0
   -0.8954    3.2155    2.9026 C   0  0  0  0  0  0  0  0  0  0  0  0
   -1.8299    3.3430    3.4532 H   0  0  0  0  0  0  0  0  0  0  0  0
   -0.0581    3.4194    3.5712 H   0  0  0  0  0  0  0  0  0  0  0  0
   -0.8804    3.9320    2.0784 H   0  0  0  0  0  0  0  0  0  0  0  0
  5  6  2  0  0  0  0
  5  7  1  0  0  0  0
  2  3  1  0  0  0  0
  2  4  1  0  0  0  0
  2  5  1  0  0  0  0
  1  2  1  0  0  0  0
 29 30  2  0  0  0  0
 29 31  1  0  0  0  0
 26 27  1  0  0  0  0
 26 28  1  0  0  0  0
 23 24  1  0  0  0  0
 23 25  1  0  0  0  0
 22 23  1  0  0  0  0
 22 26  1  0  0  0  0
 20 21  1  0  0  0  0
 20 22  2  0  0  0  0
 17 18  1  0  0  0  0
 17 19  1  0  0  0  0
 17 20  1  0  0  0  0
 14 15  1  0  0  0  0
 14 16  1  0  0  0  0
 14 17  1  0  0  0  0
 11 12  1  0  0  0  0
 11 13  1  0  0  0  0
 11 14  1  0  0  0  0
  9 10  1  0  0  0  0
  9 11  1  0  0  0  0
  9 29  1  0  0  0  0
  7  8  1  0  0  0  0
  7  9  1  0  0  0  0
 33 34  1  0  0  0  0
 33 35  1  0  0  0  0
 33 36  1  0  0  0  0
 31 32  1  0  0  0  0
 31 33  1  0  0  0  0
M  CHG  1  20   1
M  END
$$$$
default_name
  -OEChem-02102213163D

 36 35  0     1  0  0  0  0  0999 V2000
   -4.2256   -3.6731    1.8584 H   0  0  0  0  0  0  0  0  0  0  0  0
   -4.2396   -2.6781    1.4144 C   0  0  0  0  0  0  0  0  0  0  0  0
   -4.9506   -2.0521    1.9514 H   0  0  0  0  0  0  0  0  0  0  0  0
   -4.5266   -2.7521    0.3674 H   0  0  0  0  0  0  0  0  0  0  0  0
   -2.8576   -2.0761    1.5184 C   0  0  0  0  0  0  0  0  0  0  0  0
   -1.9456   -2.7051    2.0404 O   0  0  0  0  0  0  0  0  0  0  0  0
   -2.6926   -0.8481    1.0174 N   0  0  0  0  0  0  0  0  0  0  0  0
   -3.4926   -0.3971    0.5954 H   0  0  0  0  0  0  0  0  0  0  0  0
   -1.4216   -0.1071    1.0434 C   0  0  1  0  0  0  0  0  0  0  0  0
   -0.7579   -0.5878    1.7640 H   0  0  0  0  0  0  0  0  0  0  0  0
   -0.7791   -0.1912   -0.3557 C   0  0  0  0  0  0  0  0  0  0  0  0
   -1.5743   -0.2617   -1.1005 H   0  0  0  0  0  0  0  0  0  0  0  0
   -0.2168    0.7257   -0.5458 H   0  0  0  0  0  0  0  0  0  0  0  0
    0.1528   -1.3994   -0.5289 C   0  0  0  0  0  0  0  0  0  0  0  0
    0.7980   -1.4960    0.3454 H   0  0  0  0  0  0  0  0  0  0  0  0
   -0.4460   -2.3043   -0.6366 H   0  0  0  0  0  0  0  0  0  0  0  0
    1.0241   -1.2123   -1.7784 C   0  0  0  0  0  0  0  0  0  0  0  0
    0.3698   -1.0897   -2.6446 H   0  0  0  0  0  0  0  0  0  0  0  0
    1.6190   -0.3043   -1.6547 H   0  0  0  0  0  0  0  0  0  0  0  0
    1.9220   -2.3647   -1.9984 N   0  3  0  0  0  0  0  0  0  0  0  0
    1.8989   -3.0939   -1.3062 H   0  0  0  0  0  0  0  0  0  0  0  0
    2.7503   -2.5270   -3.0165 C   0  0  0  0  0  0  0  0  0  0  0  0
    2.8596   -1.6435   -3.9688 N   0  0  0  0  0  0  0  0  0  0  0  0
    2.2942   -0.8141   -3.9265 H   0  0  0  0  0  0  0  0  0  0  0  0
    3.4934   -1.7820   -4.7343 H   0  0  0  0  0  0  0  0  0  0  0  0
    3.4950   -3.5929   -3.0979 N   0  0  0  0  0  0  0  0  0  0  0  0
    3.4456   -4.3026   -2.3874 H   0  0  0  0  0  0  0  0  0  0  0  0
    4.1220   -3.7121   -3.8720 H   0  0  0  0  0  0  0  0  0  0  0  0
   -1.6547    1.3413    1.4779 C   0  0  0  0  0  0  0  0  0  0  0  0
   -2.5654    1.9858    0.9716 O   0  0  0  0  0  0  0  0  0  0  0  0
   -0.8107    1.8504    2.3808 N   0  0  0  0  0  0  0  0  0  0  0  0
   -0.1136    1.2381    2.7719 H   0  0  0  0  0  0  0  0  0  0  0  0
   -0.8954    3.2155    2.9026 C   0  0  0  0  0  0  0  0  0  0  0  0
   -1.8299    3.3430    3.4532 H   0  0  0  0  0  0  0  0  0  0  0  0
   -0.0581    3.4194    3.5712 H   0  0  0  0  0  0  0  0  0  0  0  0
   -0.8804    3.9320    2.0784 H   0  0  0  0  0  0  0  0  0  0  0  0
  5  6  2  0  0  0  0
  5  7  1  0  0  0  0
  2  3  1  0  0  0  0
  2  4  1  0  0  0  0
  2  5  1  0  0  0  0
  1  2  1  0  0  0  0
 29 30  2  0  0  0  0
 29 31  1  0  0  0  0
 26 27  1  0  0  0  0
 26 28  1  0  0  0  0
 23 24  1  0  0  0  0
 23 25  1  0  0  0  0
 22 23  1  0  0  0  0
 22 26  1  0  0  0  0
 20 21  1  0  0  0  0
 20 22  2  0  0  0  0
 17 18  1  0  0  0  0
 17 19  1  0  0  0  0
 17 20  1  0  0  0  0
 14 15  1  0  0  0  0
 14 16  1  0  0  0  0
 14 17  1  0  0  0  0
 11 12  1  0  0  0  0
 11 13  1  0  0  0  0
 11 14  1  0  0  0  0
  9 10  1  0  0  0  0
  9 11  1  0  0  0  0
  9 29  1  0  0  0  0
  7  8  1  0  0  0  0
  7  9  1  0  0  0  0
 33 34  1  0  0  0  0
 33 35  1  0  0  0  0
 33 36  1  0  0  0  0
 31 32  1  0  0  0  0
 31 33  1  0  0  0  0
M  CHG  1  20   1
M  END
$$$$
default_name
  -OEChem-02102213163D

 36 35  0     1  0  0  0  0  0999 V2000
   -4.2256   -3.6731    1.8584 H   0  0  0  0  0  0  0  0  0  0  0  0
   -4.2396   -2.6781    1.4144 C   0  0  0  0  0  0  0  0  0  0  0  0
   -4.9506   -2.0521    1.9514 H   0  0  0  0  0  0  0  0  0  0  0  0
   -4.5266   -2.7521    0.3674 H   0  0  0  0  0  0  0  0  0  0  0  0
   -2.8576   -2.0761    1.5184 C   0  0  0  0  0  0  0  0  0  0  0  0
   -1.9456   -2.7051    2.0404 O   0  0  0  0  0  0  0  0  0  0  0  0
   -2.6926   -0.8481    1.0174 N   0  0  0  0  0  0  0  0  0  0  0  0
   -3.4926   -0.3971    0.5954 H   0  0  0  0  0  0  0  0  0  0  0  0
   -1.4216   -0.1071    1.0434 C   0  0  1  0  0  0  0  0  0  0  0  0
   -0.7579   -0.5878    1.7640 H   0  0  0  0  0  0  0  0  0  0  0  0
   -0.7791   -0.1912   -0.3557 C   0  0  0  0  0  0  0  0  0  0  0  0
   -1.5743   -0.2617   -1.1005 H   0  0  0  0  0  0  0  0  0  0  0  0
   -0.2168    0.7257   -0.5458 H   0  0  0  0  0  0  0  0  0  0  0  0
    0.1528   -1.3994   -0.5289 C   0  0  0  0  0  0  0  0  0  0  0  0
    0.6028   -1.6587    0.4304 H   0  0  0  0  0  0  0  0  0  0  0  0
   -0.4227   -2.2488   -0.8984 H   0  0  0  0  0  0  0  0  0  0  0  0
    1.2651   -1.0618   -1.5311 C   0  0  0  0  0  0  0  0  0  0  0  0
    0.8049   -0.7777   -2.4802 H   0  0  0  0  0  0  0  0  0  0  0  0
    1.8334   -0.2117   -1.1464 H   0  0  0  0  0  0  0  0  0  0  0  0
    2.1741   -2.2063   -1.7473 N   0  3  0  0  0  0  0  0  0  0  0  0
    1.9995   -3.0316   -1.1999 H   0  0  0  0  0  0  0  0  0  0  0  0
    3.1922   -2.2473   -2.5905 C   0  0  0  0  0  0  0  0  0  0  0  0
    3.5067   -1.2336   -3.3473 N   0  0  0  0  0  0  0  0  0  0  0  0
    2.9554   -0.3957   -3.2874 H   0  0  0  0  0  0  0  0  0  0  0  0
    4.2827   -1.2811   -3.9816 H   0  0  0  0  0  0  0  0  0  0  0  0
    3.9238   -3.3206   -2.6898 N   0  0  0  0  0  0  0  0  0  0  0  0
    3.7200   -4.1283   -2.1268 H   0  0  0  0  0  0  0  0  0  0  0  0
    4.6952   -3.3476   -3.3308 H   0  0  0  0  0  0  0  0  0  0  0  0
   -1.6547    1.3413    1.4779 C   0  0  0  0  0  0  0  0  0  0  0  0
   -2.5654    1.9858    0.9716 O   0  0  0  0  0  0  0  0  0  0  0  0
   -0.8107    1.8504    2.3808 N   0  0  0  0  0  0  0  0  0  0  0  0
   -0.1136    1.2381    2.7719 H   0  0  0  0  0  0  0  0  0  0  0  0
   -0.8954    3.2155    2.9026 C   0  0  0  0  0  0  0  0  0  0  0  0
   -1.8299    3.3430    3.4532 H   0  0  0  0  0  0  0  0  0  0  0  0
   -0.0581    3.4194    3.5712 H   0  0  0  0  0  0  0  0  0  0  0  0
   -0.8804    3.9320    2.0784 H   0  0  0  0  0  0  0  0  0  0  0  0
  5  6  2  0  0  0  0
  5  7  1  0  0  0  0
  2  3  1  0  0  0  0
  2  4  1  0  0  0  0
  2  5  1  0  0  0  0
  1  2  1  0  0  0  0
 29 30  2  0  0  0  0
 29 31  1  0  0  0  0
 26 27  1  0  0  0  0
 26 28  1  0  0  0  0
 23 24  1  0  0  0  0
 23 25  1  0  0  0  0
 22 23  1  0  0  0  0
 22 26  1  0  0  0  0
 20 21  1  0  0  0  0
 20 22  2  0  0  0  0
 17 18  1  0  0  0  0
 17 19  1  0  0  0  0
 17 20  1  0  0  0  0
 14 15  1  0  0  0  0
 14 16  1  0  0  0  0
 14 17  1  0  0  0  0
 11 12  1  0  0  0  0
 11 13  1  0  0  0  0
 11 14  1  0  0  0  0
  9 10  1  0  0  0  0
  9 11  1  0  0  0  0
  9 29  1  0  0  0  0
  7  8  1  0  0  0  0
  7  9  1  0  0  0  0
 33 34  1  0  0  0  0
 33 35  1  0  0  0  0
 33 36  1  0  0  0  0
 31 32  1  0  0  0  0
 31 33  1  0  0  0  0
M  CHG  1  20   1
M  END
$$$$
default_name
  -OEChem-02102213163D

 36 35  0     1  0  0  0  0  0999 V2000
   -4.2256   -3.6731    1.8584 H   0  0  0  0  0  0  0  0  0  0  0  0
   -4.2396   -2.6781    1.4144 C   0  0  0  0  0  0  0  0  0  0  0  0
   -4.9506   -2.0521    1.9514 H   0  0  0  0  0  0  0  0  0  0  0  0
   -4.5266   -2.7521    0.3674 H   0  0  0  0  0  0  0  0  0  0  0  0
   -2.8576   -2.0761    1.5184 C   0  0  0  0  0  0  0  0  0  0  0  0
   -1.9456   -2.7051    2.0404 O   0  0  0  0  0  0  0  0  0  0  0  0
   -2.6926   -0.8481    1.0174 N   0  0  0  0  0  0  0  0  0  0  0  0
   -3.4926   -0.3971    0.5954 H   0  0  0  0  0  0  0  0  0  0  0  0
   -1.4216   -0.1071    1.0434 C   0  0  1  0  0  0  0  0  0  0  0  0
   -0.7579   -0.5878    1.7640 H   0  0  0  0  0  0  0  0  0  0  0  0
   -0.7791   -0.1912   -0.3557 C   0  0  0  0  0  0  0  0  0  0  0  0
   -1.5743   -0.2617   -1.1005 H   0  0  0  0  0  0  0  0  0  0  0  0
   -0.2168    0.7257   -0.5458 H   0  0  0  0  0  0  0  0  0  0  0  0
    0.1528   -1.3994   -0.5289 C   0  0  0  0  0  0  0  0  0  0  0  0
    0.3922   -1.8236    0.4472 H   0  0  0  0  0  0  0  0  0  0  0  0
   -0.3452   -2.1547   -1.1377 H   0  0  0  0  0  0  0  0  0  0  0  0
    1.4519   -0.9624   -1.2194 C   0  0  0  0  0  0  0  0  0  0  0  0
    1.2008   -0.5148   -2.1838 H   0  0  0  0  0  0  0  0  0  0  0  0
    1.9398   -0.2085   -0.5972 H   0  0  0  0  0  0  0  0  0  0  0  0
    2.3711   -2.1000   -1.4286 N   0  3  0  0  0  0  0  0  0  0  0  0
    2.0768   -2.9910   -1.0669 H   0  0  0  0  0  0  0  0  0  0  0  0
    3.5404   -2.0569   -2.0450 C   0  0  0  0  0  0  0  0  0  0  0  0
    4.0171   -0.9541   -2.5508 N   0  0  0  0  0  0  0  0  0  0  0  0
    3.4762   -0.1113   -2.4698 H   0  0  0  0  0  0  0  0  0  0  0  0
    4.9065   -0.9386   -3.0151 H   0  0  0  0  0  0  0  0  0  0  0  0
    4.2628   -3.1343   -2.1656 N   0  0  0  0  0  0  0  0  0  0  0  0
    3.9370   -4.0090   -1.7918 H   0  0  0  0  0  0  0  0  0  0  0  0
    5.1493   -3.0972   -2.6340 H   0  0  0  0  0  0  0  0  0  0  0  0
   -1.6547    1.3413    1.4779 C   0  0  0  0  0  0  0  0  0  0  0  0
   -2.5654    1.9858    0.9716 O   0  0  0  0  0  0  0  0  0  0  0  0
   -0.8107    1.8504    2.3808 N   0  0  0  0  0  0  0  0  0  0  0  0
   -0.1136    1.2381    2.7719 H   0  0  0  0  0  0  0  0  0  0  0  0
   -0.8954    3.2155    2.9026 C   0  0  0  0  0  0  0  0  0  0  0  0
   -1.8299    3.3430    3.4532 H   0  0  0  0  0  0  0  0  0  0  0  0
   -0.0581    3.4194    3.5712 H   0  0  0  0  0  0  0  0  0  0  0  0
   -0.8804    3.9320    2.0784 H   0  0  0  0  0  0  0  0  0  0  0  0
  5  6  2  0  0  0  0
  5  7  1  0  0  0  0
  2  3  1  0  0  0  0
  2  4  1  0  0  0  0
  2  5  1  0  0  0  0
  1  2  1  0  0  0  0
 29 30  2  0  0  0  0
 29 31  1  0  0  0  0
 26 27  1  0  0  0  0
 26 28  1  0  0  0  0
 23 24  1  0  0  0  0
 23 25  1  0  0  0  0
 22 23  1  0  0  0  0
 22 26  1  0  0  0  0
 20 21  1  0  0  0  0
 20 22  2  0  0  0  0
 17 18  1  0  0  0  0
 17 19  1  0  0  0  0
 17 20  1  0  0  0  0
 14 15  1  0  0  0  0
 14 16  1  0  0  0  0
 14 17  1  0  0  0  0
 11 12  1  0  0  0  0
 11 13  1  0  0  0  0
 11 14  1  0  0  0  0
  9 10  1  0  0  0  0
  9 11  1  0  0  0  0
  9 29  1  0  0  0  0
  7  8  1  0  0  0  0
  7  9  1  0  0  0  0
 33 34  1  0  0  0  0
 33 35  1  0  0  0  0
 33 36  1  0  0  0  0
 31 32  1  0  0  0  0
 31 33  1  0  0  0  0
M  CHG  1  20   1
M  END
$$$$
default_name
  -OEChem-02102213163D

 36 35  0     1  0  0  0  0  0999 V2000
   -4.2256   -3.6731    1.8584 H   0  0  0  0  0  0  0  0  0  0  0  0
   -4.2396   -2.6781    1.4144 C   0  0  0  0  0  0  0  0  0  0  0  0
   -4.9506   -2.0521    1.9514 H   0  0  0  0  0  0  0  0  0  0  0  0
   -4.5266   -2.7521    0.3674 H   0  0  0  0  0  0  0  0  0  0  0  0
   -2.8576   -2.0761    1.5184 C   0  0  0  0  0  0  0  0  0  0  0  0
   -1.9456   -2.7051    2.0404 O   0  0  0  0  0  0  0  0  0  0  0  0
   -2.6926   -0.8481    1.0174 N   0  0  0  0  0  0  0  0  0  0  0  0
   -3.4926   -0.3971    0.5954 H   0  0  0  0  0  0  0  0  0  0  0  0
   -1.4216   -0.1071    1.0434 C   0  0  1  0  0  0  0  0  0  0  0  0
   -0.7579   -0.5878    1.7640 H   0  0  0  0  0  0  0  0  0  0  0  0
   -0.7791   -0.1912   -0.3557 C   0  0  0  0  0  0  0  0  0  0  0  0
   -1.5743   -0.2617   -1.1005 H   0  0  0  0  0  0  0  0  0  0  0  0
   -0.2168    0.7257   -0.5458 H   0  0  0  0  0  0  0  0  0  0  0  0
    0.1528   -1.3994   -0.5289 C   0  0  0  0  0  0  0  0  0  0  0  0
    0.1805   -1.9793    0.3946 H   0  0  0  0  0  0  0  0  0  0  0  0
   -0.2188   -2.0284   -1.3384 H   0  0  0  0  0  0  0  0  0  0  0  0
    1.5718   -0.9208   -0.8647 C   0  0  0  0  0  0  0  0  0  0  0  0
    1.5305   -0.3191   -1.7755 H   0  0  0  0  0  0  0  0  0  0  0  0
    1.9308   -0.2947   -0.0445 H   0  0  0  0  0  0  0  0  0  0  0  0
    2.4996   -2.0532   -1.0640 N   0  3  0  0  0  0  0  0  0  0  0  0
    2.1256   -2.9750   -0.9163 H   0  0  0  0  0  0  0  0  0  0  0  0
    3.7712   -1.9689   -1.4173 C   0  0  0  0  0  0  0  0  0  0  0  0
    4.3561   -0.8241   -1.6336 N   0  0  0  0  0  0  0  0  0  0  0  0
    3.8211    0.0198   -1.5292 H   0  0  0  0  0  0  0  0  0  0  0  0
    5.3222   -0.7777   -1.9008 H   0  0  0  0  0  0  0  0  0  0  0  0
    4.4890   -3.0466   -1.5609 N   0  0  0  0  0  0  0  0  0  0  0  0
    4.0819   -3.9526   -1.4053 H   0  0  0  0  0  0  0  0  0  0  0  0
    5.4533   -2.9781   -1.8292 H   0  0  0  0  0  0  0  0  0  0  0  0
   -1.6547    1.3413    1.4779 C   0  0  0  0  0  0  0  0  0  0  0  0
   -2.5654    1.9858    0.9716 O   0  0  0  0  0  0  0  0  0  0  0  0
   -0.8107    1.8504    2.3808 N   0  0  0  0  0  0  0  0  0  0  0  0
   -0.1136    1.2381    2.7719 H   0  0  0  0  0  0  0  0  0  0  0  0
   -0.8954    3.2155    2.9026 C   0  0  0  0  0  0  0  0  0  0  0  0
   -1.8299    3.3430    3.4532 H   0  0  0  0  0  0  0  0  0  0  0  0
   -0.0581    3.4194    3.5712 H   0  0  0  0  0  0  0  0  0  0  0  0
   -0.8804    3.9320    2.0784 H   0  0  0  0  0  0  0  0  0  0  0  0
  5  6  2  0  0  0  0
  5  7  1  0  0  0  0
  2  3  1  0  0  0  0
  2  4  1  0  0  0  0
  2  5  1  0  0  0  0
  1  2  1  0  0  0  0
 29 30  2  0  0  0  0
 29 31  1  0  0  0  0
 26 27  1  0  0  0  0
 26 28  1  0  0  0  0
 23 24  1  0  0  0  0
 23 25  1  0  0  0  0
 22 23  1  0  0  0  0
 22 26  1  0  0  0  0
 20 21  1  0  0  0  0
 20 22  2  0  0  0  0
 17 18  1  0  0  0  0
 17 19  1  0  0  0  0
 17 20  1  0  0  0  0
 14 15  1  0  0  0  0
 14 16  1  0  0  0  0
 14 17  1  0  0  0  0
 11 12  1  0  0  0  0
 11 13  1  0  0  0  0
 11 14  1  0  0  0  0
  9 10  1  0  0  0  0
  9 11  1  0  0  0  0
  9 29  1  0  0  0  0
  7  8  1  0  0  0  0
  7  9  1  0  0  0  0
 33 34  1  0  0  0  0
 33 35  1  0  0  0  0
 33 36  1  0  0  0  0
 31 32  1  0  0  0  0
 31 33  1  0  0  0  0
M  CHG  1  20   1
M  END
$$$$
default_name
  -OEChem-02102213163D

 36 35  0     1  0  0  0  0  0999 V2000
   -4.2256   -3.6731    1.8584 H   0  0  0  0  0  0  0  0  0  0  0  0
   -4.2396   -2.6781    1.4144 C   0  0  0  0  0  0  0  0  0  0  0  0
   -4.9506   -2.0521    1.9514 H   0  0  0  0  0  0  0  0  0  0  0  0
   -4.5266   -2.7521    0.3674 H   0  0  0  0  0  0  0  0  0  0  0  0
   -2.8576   -2.0761    1.5184 C   0  0  0  0  0  0  0  0  0  0  0  0
   -1.9456   -2.7051    2.0404 O   0  0  0  0  0  0  0  0  0  0  0  0
   -2.6926   -0.8481    1.0174 N   0  0  0  0  0  0  0  0  0  0  0  0
   -3.4926   -0.3971    0.5954 H   0  0  0  0  0  0  0  0  0  0  0  0
   -1.4216   -0.1071    1.0434 C   0  0  1  0  0  0  0  0  0  0  0  0
   -0.7579   -0.5878    1.7640 H   0  0  0  0  0  0  0  0  0  0  0  0
   -0.7791   -0.1912   -0.3557 C   0  0  0  0  0  0  0  0  0  0  0  0
   -1.5743   -0.2617   -1.1005 H   0  0  0  0  0  0  0  0  0  0  0  0
   -0.2168    0.7257   -0.5458 H   0  0  0  0  0  0  0  0  0  0  0  0
    0.1528   -1.3994   -0.5289 C   0  0  0  0  0  0  0  0  0  0  0  0
   -0.0178   -2.1153    0.2763 H   0  0  0  0  0  0  0  0  0  0  0  0
   -0.0522   -1.8787   -1.4867 H   0  0  0  0  0  0  0  0  0  0  0  0
    1.6166   -0.9398   -0.4911 C   0  0  0  0  0  0  0  0  0  0  0  0
    1.7715   -0.2037   -1.2833 H   0  0  0  0  0  0  0  0  0  0  0  0
    1.8070   -0.4645    0.4740 H   0  0  0  0  0  0  0  0  0  0  0  0
    2.5508   -2.0690   -0.6782 N   0  3  0  0  0  0  0  0  0  0  0  0
    2.1425   -2.9845   -0.7583 H   0  0  0  0  0  0  0  0  0  0  0  0
    3.8690   -1.9891   -0.7502 C   0  0  0  0  0  0  0  0  0  0  0  0
    4.5006   -0.8526   -0.6582 N   0  0  0  0  0  0  0  0  0  0  0  0
    3.9665   -0.0113   -0.5300 H   0  0  0  0  0  0  0  0  0  0  0  0
    5.5015   -0.8095   -0.7146 H   0  0  0  0  0  0  0  0  0  0  0  0
    4.5869   -3.0634   -0.9170 N   0  0  0  0  0  0  0  0  0  0  0  0
    4.1448   -3.9632   -0.9937 H   0  0  0  0  0  0  0  0  0  0  0  0
    5.5866   -2.9983   -0.9712 H   0  0  0  0  0  0  0  0  0  0  0  0
   -1.6547    1.3413    1.4779 C   0  0  0  0  0  0  0  0  0  0  0  0
   -2.5654    1.9858    0.9716 O   0  0  0  0  0  0  0  0  0  0  0  0
   -0.8107    1.8504    2.3808 N   0  0  0  0  0  0  0  0  0  0  0  0
   -0.1136    1.2381    2.7719 H   0  0  0  0  0  0  0  0  0  0  0  0
   -0.8954    3.2155    2.9026 C   0  0  0  0  0  0  0  0  0  0  0  0
   -1.8299    3.3430    3.4532 H   0  0  0  0  0  0  0  0  0  0  0  0
   -0.0581    3.4194    3.5712 H   0  0  0  0  0  0  0  0  0  0  0  0
   -0.8804    3.9320    2.0784 H   0  0  0  0  0  0  0  0  0  0  0  0
  5  6  2  0  0  0  0
  5  7  1  0  0  0  0
  2  3  1  0  0  0  0
  2  4  1  0  0  0  0
  2  5  1  0  0  0  0
  1  2  1  0  0  0  0
 29 30  2  0  0  0  0
 29 31  1  0  0  0  0
 26 27  1  0  0  0  0
 26 28  1  0  0  0  0
 23 24  1  0  0  0  0
 23 25  1  0  0  0  0
 22 23  1  0  0  0  0
 22 26  1  0  0  0  0
 20 21  1  0  0  0  0
 20 22  2  0  0  0  0
 17 18  1  0  0  0  0
 17 19  1  0  0  0  0
 17 20  1  0  0  0  0
 14 15  1  0  0  0  0
 14 16  1  0  0  0  0
 14 17  1  0  0  0  0
 11 12  1  0  0  0  0
 11 13  1  0  0  0  0
 11 14  1  0  0  0  0
  9 10  1  0  0  0  0
  9 11  1  0  0  0  0
  9 29  1  0  0  0  0
  7  8  1  0  0  0  0
  7  9  1  0  0  0  0
 33 34  1  0  0  0  0
 33 35  1  0  0  0  0
 33 36  1  0  0  0  0
 31 32  1  0  0  0  0
 31 33  1  0  0  0  0
M  CHG  1  20   1
M  END
$$$$
default_name
  -OEChem-02102213163D

 36 35  0     1  0  0  0  0  0999 V2000
   -4.2256   -3.6731    1.8584 H   0  0  0  0  0  0  0  0  0  0  0  0
   -4.2396   -2.6781    1.4144 C   0  0  0  0  0  0  0  0  0  0  0  0
   -4.9506   -2.0521    1.9514 H   0  0  0  0  0  0  0  0  0  0  0  0
   -4.5266   -2.7521    0.3674 H   0  0  0  0  0  0  0  0  0  0  0  0
   -2.8576   -2.0761    1.5184 C   0  0  0  0  0  0  0  0  0  0  0  0
   -1.9456   -2.7051    2.0404 O   0  0  0  0  0  0  0  0  0  0  0  0
   -2.6926   -0.8481    1.0174 N   0  0  0  0  0  0  0  0  0  0  0  0
   -3.4926   -0.3971    0.5954 H   0  0  0  0  0  0  0  0  0  0  0  0
   -1.4216   -0.1071    1.0434 C   0  0  1  0  0  0  0  0  0  0  0  0
   -0.7579   -0.5878    1.7640 H   0  0  0  0  0  0  0  0  0  0  0  0
   -0.7791   -0.1912   -0.3557 C   0  0  0  0  0  0  0  0  0  0  0  0
   -1.5743   -0.2617   -1.1005 H   0  0  0  0  0  0  0  0  0  0  0  0
   -0.2168    0.7257   -0.5458 H   0  0  0  0  0  0  0  0  0  0  0  0
    0.1528   -1.3994   -0.5289 C   0  0  0  0  0  0  0  0  0  0  0  0
   -0.1892   -2.2223    0.1002 H   0  0  0  0  0  0  0  0  0  0  0  0
    0.1432   -1.7156   -1.5725 H   0  0  0  0  0  0  0  0  0  0  0  0
    1.5833   -1.0182   -0.1242 C   0  0  0  0  0  0  0  0  0  0  0  0
    1.9075   -0.1766   -0.7407 H   0  0  0  0  0  0  0  0  0  0  0  0
    1.5769   -0.7063    0.9229 H   0  0  0  0  0  0  0  0  0  0  0  0
    2.5213   -2.1463   -0.2977 N   0  3  0  0  0  0  0  0  0  0  0  0
    2.1265   -3.0191   -0.6039 H   0  0  0  0  0  0  0  0  0  0  0  0
    3.8269   -2.1164   -0.0891 C   0  0  0  0  0  0  0  0  0  0  0  0
    4.4407   -1.0374    0.3089 N   0  0  0  0  0  0  0  0  0  0  0  0
    3.9026   -0.2026    0.4600 H   0  0  0  0  0  0  0  0  0  0  0  0
    5.4322   -1.0318    0.4628 H   0  0  0  0  0  0  0  0  0  0  0  0
    4.5499   -3.1836   -0.2778 N   0  0  0  0  0  0  0  0  0  0  0  0
    4.1214   -4.0398   -0.5849 H   0  0  0  0  0  0  0  0  0  0  0  0
    5.5401   -3.1565   -0.1185 H   0  0  0  0  0  0  0  0  0  0  0  0
   -1.6547    1.3413    1.4779 C   0  0  0  0  0  0  0  0  0  0  0  0
   -2.5654    1.9858    0.9716 O   0  0  0  0  0  0  0  0  0  0  0  0
   -0.8107    1.8504    2.3808 N   0  0  0  0  0  0  0  0  0  0  0  0
   -0.1136    1.2381    2.7719 H   0  0  0  0  0  0  0  0  0  0  0  0
   -0.8954    3.2155    2.9026 C   0  0  0  0  0  0  0  0  0  0  0  0
   -1.8299    3.3430    3.4532 H   0  0  0  0  0  0  0  0  0  0  0  0
   -0.0581    3.4194    3.5712 H   0  0  0  0  0  0  0  0  0  0  0  0
   -0.8804    3.9320    2.0784 H   0  0  0  0  0  0  0  0  0  0  0  0
  5  6  2  0  0  0  0
  5  7  1  0  0  0  0
  2  3  1  0  0  0  0
  2  4  1  0  0  0  0
  2  5  1  0  0  0  0
  1  2  1  0  0  0  0
 29 30  2  0  0  0  0
 29 31  1  0  0  0  0
 26 27  1  0  0  0  0
 26 28  1  0  0  0  0
 23 24  1  0  0  0  0
 23 25  1  0  0  0  0
 22 23  1  0  0  0  0
 22 26  1  0  0  0  0
 20 21  1  0  0  0  0
 20 22  2  0  0  0  0
 17 18  1  0  0  0  0
 17 19  1  0  0  0  0
 17 20  1  0  0  0  0
 14 15  1  0  0  0  0
 14 16  1  0  0  0  0
 14 17  1  0  0  0  0
 11 12  1  0  0  0  0
 11 13  1  0  0  0  0
 11 14  1  0  0  0  0
  9 10  1  0  0  0  0
  9 11  1  0  0  0  0
  9 29  1  0  0  0  0
  7  8  1  0  0  0  0
  7  9  1  0  0  0  0
 33 34  1  0  0  0  0
 33 35  1  0  0  0  0
 33 36  1  0  0  0  0
 31 32  1  0  0  0  0
 31 33  1  0  0  0  0
M  CHG  1  20   1
M  END
$$$$
default_name
  -OEChem-02102213163D

 36 35  0     1  0  0  0  0  0999 V2000
   -4.2256   -3.6731    1.8584 H   0  0  0  0  0  0  0  0  0  0  0  0
   -4.2396   -2.6781    1.4144 C   0  0  0  0  0  0  0  0  0  0  0  0
   -4.9506   -2.0521    1.9514 H   0  0  0  0  0  0  0  0  0  0  0  0
   -4.5266   -2.7521    0.3674 H   0  0  0  0  0  0  0  0  0  0  0  0
   -2.8576   -2.0761    1.5184 C   0  0  0  0  0  0  0  0  0  0  0  0
   -1.9456   -2.7051    2.0404 O   0  0  0  0  0  0  0  0  0  0  0  0
   -2.6926   -0.8481    1.0174 N   0  0  0  0  0  0  0  0  0  0  0  0
   -3.4926   -0.3971    0.5954 H   0  0  0  0  0  0  0  0  0  0  0  0
   -1.4216   -0.1071    1.0434 C   0  0  1  0  0  0  0  0  0  0  0  0
   -0.7579   -0.5878    1.7640 H   0  0  0  0  0  0  0  0  0  0  0  0
   -0.7791   -0.1912   -0.3557 C   0  0  0  0  0  0  0  0  0  0  0  0
   -1.5743   -0.2617   -1.1005 H   0  0  0  0  0  0  0  0  0  0  0  0
   -0.2168    0.7257   -0.5458 H   0  0  0  0  0  0  0  0  0  0  0  0
    0.1528   -1.3994   -0.5289 C   0  0  0  0  0  0  0  0  0  0  0  0
   -0.3221   -2.2930   -0.1215 H   0  0  0  0  0  0  0  0  0  0  0  0
    0.3543   -1.5503   -1.5899 H   0  0  0  0  0  0  0  0  0  0  0  0
    1.4741   -1.1505    0.2112 C   0  0  0  0  0  0  0  0  0  0  0  0
    1.9292   -0.2397   -0.1846 H   0  0  0  0  0  0  0  0  0  0  0  0
    1.2562   -1.0037    1.2717 H   0  0  0  0  0  0  0  0  0  0  0  0
    2.4130   -2.2800    0.0518 N   0  3  0  0  0  0  0  0  0  0  0  0
    2.0785   -3.0763   -0.4633 H   0  0  0  0  0  0  0  0  0  0  0  0
    3.6480   -2.3419    0.5209 C   0  0  0  0  0  0  0  0  0  0  0  0
    4.1805   -1.3661    1.2018 N   0  0  0  0  0  0  0  0  0  0  0  0
    3.6337   -0.5409    1.3732 H   0  0  0  0  0  0  0  0  0  0  0  0
    5.1191   -1.4294    1.5510 H   0  0  0  0  0  0  0  0  0  0  0  0
    4.3805   -3.3991    0.3133 N   0  0  0  0  0  0  0  0  0  0  0  0
    4.0134   -4.1774   -0.2068 H   0  0  0  0  0  0  0  0  0  0  0  0
    5.3169   -3.4419    0.6709 H   0  0  0  0  0  0  0  0  0  0  0  0
   -1.6547    1.3413    1.4779 C   0  0  0  0  0  0  0  0  0  0  0  0
   -2.5654    1.9858    0.9716 O   0  0  0  0  0  0  0  0  0  0  0  0
   -0.8107    1.8504    2.3808 N   0  0  0  0  0  0  0  0  0  0  0  0
   -0.1136    1.2381    2.7719 H   0  0  0  0  0  0  0  0  0  0  0  0
   -0.8954    3.2155    2.9026 C   0  0  0  0  0  0  0  0  0  0  0  0
   -1.8299    3.3430    3.4532 H   0  0  0  0  0  0  0  0  0  0  0  0
   -0.0581    3.4194    3.5712 H   0  0  0  0  0  0  0  0  0  0  0  0
   -0.8804    3.9320    2.0784 H   0  0  0  0  0  0  0  0  0  0  0  0
  5  6  2  0  0  0  0
  5  7  1  0  0  0  0
  2  3  1  0  0  0  0
  2  4  1  0  0  0  0
  2  5  1  0  0  0  0
  1  2  1  0  0  0  0
 29 30  2  0  0  0  0
 29 31  1  0  0  0  0
 26 27  1  0  0  0  0
 26 28  1  0  0  0  0
 23 24  1  0  0  0  0
 23 25  1  0  0  0  0
 22 23  1  0  0  0  0
 22 26  1  0  0  0  0
 20 21  1  0  0  0  0
 20 22  2  0  0  0  0
 17 18  1  0  0  0  0
 17 19  1  0  0  0  0
 17 20  1  0  0  0  0
 14 15  1  0  0  0  0
 14 16  1  0  0  0  0
 14 17  1  0  0  0  0
 11 12  1  0  0  0  0
 11 13  1  0  0  0  0
 11 14  1  0  0  0  0
  9 10  1  0  0  0  0
  9 11  1  0  0  0  0
  9 29  1  0  0  0  0
  7  8  1  0  0  0  0
  7  9  1  0  0  0  0
 33 34  1  0  0  0  0
 33 35  1  0  0  0  0
 33 36  1  0  0  0  0
 31 32  1  0  0  0  0
 31 33  1  0  0  0  0
M  CHG  1  20   1
M  END
$$$$
default_name
  -OEChem-02102213163D

 36 35  0     1  0  0  0  0  0999 V2000
   -4.2256   -3.6731    1.8584 H   0  0  0  0  0  0  0  0  0  0  0  0
   -4.2396   -2.6781    1.4144 C   0  0  0  0  0  0  0  0  0  0  0  0
   -4.9506   -2.0521    1.9514 H   0  0  0  0  0  0  0  0  0  0  0  0
   -4.5266   -2.7521    0.3674 H   0  0  0  0  0  0  0  0  0  0  0  0
   -2.8576   -2.0761    1.5184 C   0  0  0  0  0  0  0  0  0  0  0  0
   -1.9456   -2.7051    2.0404 O   0  0  0  0  0  0  0  0  0  0  0  0
   -2.6926   -0.8481    1.0174 N   0  0  0  0  0  0  0  0  0  0  0  0
   -3.4926   -0.3971    0.5954 H   0  0  0  0  0  0  0  0  0  0  0  0
   -1.4216   -0.1071    1.0434 C   0  0  1  0  0  0  0  0  0  0  0  0
   -0.7579   -0.5878    1.7640 H   0  0  0  0  0  0  0  0  0  0  0  0
   -0.7791   -0.1912   -0.3557 C   0  0  0  0  0  0  0  0  0  0  0  0
   -1.5743   -0.2617   -1.1005 H   0  0  0  0  0  0  0  0  0  0  0  0
   -0.2168    0.7257   -0.5458 H   0  0  0  0  0  0  0  0  0  0  0  0
    0.1528   -1.3994   -0.5289 C   0  0  0  0  0  0  0  0  0  0  0  0
   -0.4074   -2.3226   -0.3739 H   0  0  0  0  0  0  0  0  0  0  0  0
    0.5665   -1.3941   -1.5378 H   0  0  0  0  0  0  0  0  0  0  0  0
    1.2964   -1.3278    0.4921 C   0  0  0  0  0  0  0  0  0  0  0  0
    1.8350   -0.3885    0.3471 H   0  0  0  0  0  0  0  0  0  0  0  0
    0.8667   -1.3364    1.4966 H   0  0  0  0  0  0  0  0  0  0  0  0
    2.2334   -2.4608    0.3462 N   0  3  0  0  0  0  0  0  0  0  0  0
    2.0018   -3.1522   -0.3463 H   0  0  0  0  0  0  0  0  0  0  0  0
    3.3443   -2.6503    1.0383 C   0  0  0  0  0  0  0  0  0  0  0  0
    3.7378   -1.8163    1.9597 N   0  0  0  0  0  0  0  0  0  0  0  0
    3.1781   -1.0033    2.1473 H   0  0  0  0  0  0  0  0  0  0  0  0
    4.5834   -1.9752    2.4760 H   0  0  0  0  0  0  0  0  0  0  0  0
    4.0901   -3.6951    0.8159 N   0  0  0  0  0  0  0  0  0  0  0  0
    3.8280   -4.3665    0.1148 H   0  0  0  0  0  0  0  0  0  0  0  0
    4.9322   -3.8350    1.3431 H   0  0  0  0  0  0  0  0  0  0  0  0
   -1.6547    1.3413    1.4779 C   0  0  0  0  0  0  0  0  0  0  0  0
   -2.5654    1.9858    0.9716 O   0  0  0  0  0  0  0  0  0  0  0  0
   -0.8107    1.8504    2.3808 N   0  0  0  0  0  0  0  0  0  0  0  0
   -0.1136    1.2381    2.7719 H   0  0  0  0  0  0  0  0  0  0  0  0
   -0.8954    3.2155    2.9026 C   0  0  0  0  0  0  0  0  0  0  0  0
   -1.8299    3.3430    3.4532 H   0  0  0  0  0  0  0  0  0  0  0  0
   -0.0581    3.4194    3.5712 H   0  0  0  0  0  0  0  0  0  0  0  0
   -0.8804    3.9320    2.0784 H   0  0  0  0  0  0  0  0  0  0  0  0
  5  6  2  0  0  0  0
  5  7  1  0  0  0  0
  2  3  1  0  0  0  0
  2  4  1  0  0  0  0
  2  5  1  0  0  0  0
  1  2  1  0  0  0  0
 29 30  2  0  0  0  0
 29 31  1  0  0  0  0
 26 27  1  0  0  0  0
 26 28  1  0  0  0  0
 23 24  1  0  0  0  0
 23 25  1  0  0  0  0
 22 23  1  0  0  0  0
 22 26  1  0  0  0  0
 20 21  1  0  0  0  0
 20 22  2  0  0  0  0
 17 18  1  0  0  0  0
 17 19  1  0  0  0  0
 17 20  1  0  0  0  0
 14 15  1  0  0  0  0
 14 16  1  0  0  0  0
 14 17  1  0  0  0  0
 11 12  1  0  0  0  0
 11 13  1  0  0  0  0
 11 14  1  0  0  0  0
  9 10  1  0  0  0  0
  9 11  1  0  0  0  0
  9 29  1  0  0  0  0
  7  8  1  0  0  0  0
  7  9  1  0  0  0  0
 33 34  1  0  0  0  0
 33 35  1  0  0  0  0
 33 36  1  0  0  0  0
 31 32  1  0  0  0  0
 31 33  1  0  0  0  0
M  CHG  1  20   1
M  END
$$$$
default_name
  -OEChem-02102213163D

 36 35  0     1  0  0  0  0  0999 V2000
   -4.2256   -3.6731    1.8584 H   0  0  0  0  0  0  0  0  0  0  0  0
   -4.2396   -2.6781    1.4144 C   0  0  0  0  0  0  0  0  0  0  0  0
   -4.9506   -2.0521    1.9514 H   0  0  0  0  0  0  0  0  0  0  0  0
   -4.5266   -2.7521    0.3674 H   0  0  0  0  0  0  0  0  0  0  0  0
   -2.8576   -2.0761    1.5184 C   0  0  0  0  0  0  0  0  0  0  0  0
   -1.9456   -2.7051    2.0404 O   0  0  0  0  0  0  0  0  0  0  0  0
   -2.6926   -0.8481    1.0174 N   0  0  0  0  0  0  0  0  0  0  0  0
   -3.4926   -0.3971    0.5954 H   0  0  0  0  0  0  0  0  0  0  0  0
   -1.4216   -0.1071    1.0434 C   0  0  1  0  0  0  0  0  0  0  0  0
   -0.7579   -0.5878    1.7640 H   0  0  0  0  0  0  0  0  0  0  0  0
   -0.7791   -0.1912   -0.3557 C   0  0  0  0  0  0  0  0  0  0  0  0
   -1.5743   -0.2617   -1.1005 H   0  0  0  0  0  0  0  0  0  0  0  0
   -0.2168    0.7257   -0.5458 H   0  0  0  0  0  0  0  0  0  0  0  0
    0.1528   -1.3994   -0.5289 C   0  0  0  0  0  0  0  0  0  0  0  0
   -0.4392   -2.3090   -0.6396 H   0  0  0  0  0  0  0  0  0  0  0  0
    0.7655   -1.2575   -1.4197 H   0  0  0  0  0  0  0  0  0  0  0  0
    1.0624   -1.5380    0.6994 C   0  0  0  0  0  0  0  0  0  0  0  0
    1.6315   -0.6131    0.8181 H   0  0  0  0  0  0  0  0  0  0  0  0
    0.4350   -1.6816    1.5822 H   0  0  0  0  0  0  0  0  0  0  0  0
    1.9946   -2.6764    0.5657 N   0  3  0  0  0  0  0  0  0  0  0  0
    1.9017   -3.2416   -0.2609 H   0  0  0  0  0  0  0  0  0  0  0  0
    2.9367   -3.0206    1.4278 C   0  0  0  0  0  0  0  0  0  0  0  0
    3.1427   -2.3572    2.5309 N   0  0  0  0  0  0  0  0  0  0  0  0
    2.5669   -1.5583    2.7297 H   0  0  0  0  0  0  0  0  0  0  0  0
    3.8617   -2.6321    3.1746 H   0  0  0  0  0  0  0  0  0  0  0  0
    3.6987   -4.0515    1.1957 N   0  0  0  0  0  0  0  0  0  0  0  0
    3.5779   -4.5942    0.3580 H   0  0  0  0  0  0  0  0  0  0  0  0
    4.4122   -4.3091    1.8523 H   0  0  0  0  0  0  0  0  0  0  0  0
   -1.6547    1.3413    1.4779 C   0  0  0  0  0  0  0  0  0  0  0  0
   -2.5654    1.9858    0.9716 O   0  0  0  0  0  0  0  0  0  0  0  0
   -0.8107    1.8504    2.3808 N   0  0  0  0  0  0  0  0  0  0  0  0
   -0.1136    1.2381    2.7719 H   0  0  0  0  0  0  0  0  0  0  0  0
   -0.8954    3.2155    2.9026 C   0  0  0  0  0  0  0  0  0  0  0  0
   -1.8299    3.3430    3.4532 H   0  0  0  0  0  0  0  0  0  0  0  0
   -0.0581    3.4194    3.5712 H   0  0  0  0  0  0  0  0  0  0  0  0
   -0.8804    3.9320    2.0784 H   0  0  0  0  0  0  0  0  0  0  0  0
  5  6  2  0  0  0  0
  5  7  1  0  0  0  0
  2  3  1  0  0  0  0
  2  4  1  0  0  0  0
  2  5  1  0  0  0  0
  1  2  1  0  0  0  0
 29 30  2  0  0  0  0
 29 31  1  0  0  0  0
 26 27  1  0  0  0  0
 26 28  1  0  0  0  0
 23 24  1  0  0  0  0
 23 25  1  0  0  0  0
 22 23  1  0  0  0  0
 22 26  1  0  0  0  0
 20 21  1  0  0  0  0
 20 22  2  0  0  0  0
 17 18  1  0  0  0  0
 17 19  1  0  0  0  0
 17 20  1  0  0  0  0
 14 15  1  0  0  0  0
 14 16  1  0  0  0  0
 14 17  1  0  0  0  0
 11 12  1  0  0  0  0
 11 13  1  0  0  0  0
 11 14  1  0  0  0  0
  9 10  1  0  0  0  0
  9 11  1  0  0  0  0
  9 29  1  0  0  0  0
  7  8  1  0  0  0  0
  7  9  1  0  0  0  0
 33 34  1  0  0  0  0
 33 35  1  0  0  0  0
 33 36  1  0  0  0  0
 31 32  1  0  0  0  0
 31 33  1  0  0  0  0
M  CHG  1  20   1
M  END
$$$$
default_name
  -OEChem-02102213163D

 36 35  0     1  0  0  0  0  0999 V2000
   -4.2256   -3.6731    1.8584 H   0  0  0  0  0  0  0  0  0  0  0  0
   -4.2396   -2.6781    1.4144 C   0  0  0  0  0  0  0  0  0  0  0  0
   -4.9506   -2.0521    1.9514 H   0  0  0  0  0  0  0  0  0  0  0  0
   -4.5266   -2.7521    0.3674 H   0  0  0  0  0  0  0  0  0  0  0  0
   -2.8576   -2.0761    1.5184 C   0  0  0  0  0  0  0  0  0  0  0  0
   -1.9456   -2.7051    2.0404 O   0  0  0  0  0  0  0  0  0  0  0  0
   -2.6926   -0.8481    1.0174 N   0  0  0  0  0  0  0  0  0  0  0  0
   -3.4926   -0.3971    0.5954 H   0  0  0  0  0  0  0  0  0  0  0  0
   -1.4216   -0.1071    1.0434 C   0  0  1  0  0  0  0  0  0  0  0  0
   -0.7579   -0.5878    1.7640 H   0  0  0  0  0  0  0  0  0  0  0  0
   -0.7791   -0.1912   -0.3557 C   0  0  0  0  0  0  0  0  0  0  0  0
   -1.5743   -0.2617   -1.1005 H   0  0  0  0  0  0  0  0  0  0  0  0
   -0.2168    0.7257   -0.5458 H   0  0  0  0  0  0  0  0  0  0  0  0
    0.1528   -1.3994   -0.5289 C   0  0  0  0  0  0  0  0  0  0  0  0
   -0.4154   -2.2532   -0.9007 H   0  0  0  0  0  0  0  0  0  0  0  0
    0.9376   -1.1500   -1.2437 H   0  0  0  0  0  0  0  0  0  0  0  0
    0.7881   -1.7668    0.8190 C   0  0  0  0  0  0  0  0  0  0  0  0
    1.3324   -0.8980    1.1963 H   0  0  0  0  0  0  0  0  0  0  0  0
   -0.0096   -2.0160    1.5228 H   0  0  0  0  0  0  0  0  0  0  0  0
    1.7130   -2.9122    0.6952 N   0  3  0  0  0  0  0  0  0  0  0  0
    1.7851   -3.3385   -0.2127 H   0  0  0  0  0  0  0  0  0  0  0  0
    2.4528   -3.4275    1.6628 C   0  0  0  0  0  0  0  0  0  0  0  0
    2.4357   -2.9521    2.8765 N   0  0  0  0  0  0  0  0  0  0  0  0
    1.8417   -2.1679    3.0806 H   0  0  0  0  0  0  0  0  0  0  0  0
    3.0031   -3.3552    3.5993 H   0  0  0  0  0  0  0  0  0  0  0  0
    3.2329   -4.4439    1.4269 N   0  0  0  0  0  0  0  0  0  0  0  0
    3.2802   -4.8451    0.5062 H   0  0  0  0  0  0  0  0  0  0  0  0
    3.7925   -4.8317    2.1638 H   0  0  0  0  0  0  0  0  0  0  0  0
   -1.6547    1.3413    1.4779 C   0  0  0  0  0  0  0  0  0  0  0  0
   -2.5654    1.9858    0.9716 O   0  0  0  0  0  0  0  0  0  0  0  0
   -0.8107    1.8504    2.3808 N   0  0  0  0  0  0  0  0  0  0  0  0
   -0.1136    1.2381    2.7719 H   0  0  0  0  0  0  0  0  0  0  0  0
   -0.8954    3.2155    2.9026 C   0  0  0  0  0  0  0  0  0  0  0  0
   -1.8299    3.3430    3.4532 H   0  0  0  0  0  0  0  0  0  0  0  0
   -0.0581    3.4194    3.5712 H   0  0  0  0  0  0  0  0  0  0  0  0
   -0.8804    3.9320    2.0784 H   0  0  0  0  0  0  0  0  0  0  0  0
  5  6  2  0  0  0  0
  5  7  1  0  0  0  0
  2  3  1  0  0  0  0
  2  4  1  0  0  0  0
  2  5  1  0  0  0  0
  1  2  1  0  0  0  0
 29 30  2  0  0  0  0
 29 31  1  0  0  0  0
 26 27  1  0  0  0  0
 26 28  1  0  0  0  0
 23 24  1  0  0  0  0
 23 25  1  0  0  0  0
 22 23  1  0  0  0  0
 22 26  1  0  0  0  0
 20 21  1  0  0  0  0
 20 22  2  0  0  0  0
 17 18  1  0  0  0  0
 17 19  1  0  0  0  0
 17 20  1  0  0  0  0
 14 15  1  0  0  0  0
 14 16  1  0  0  0  0
 14 17  1  0  0  0  0
 11 12  1  0  0  0  0
 11 13  1  0  0  0  0
 11 14  1  0  0  0  0
  9 10  1  0  0  0  0
  9 11  1  0  0  0  0
  9 29  1  0  0  0  0
  7  8  1  0  0  0  0
  7  9  1  0  0  0  0
 33 34  1  0  0  0  0
 33 35  1  0  0  0  0
 33 36  1  0  0  0  0
 31 32  1  0  0  0  0
 31 33  1  0  0  0  0
M  CHG  1  20   1
M  END
$$$$
default_name
  -OEChem-02102213163D

 36 35  0     1  0  0  0  0  0999 V2000
   -4.2256   -3.6731    1.8584 H   0  0  0  0  0  0  0  0  0  0  0  0
   -4.2396   -2.6781    1.4144 C   0  0  0  0  0  0  0  0  0  0  0  0
   -4.9506   -2.0521    1.9514 H   0  0  0  0  0  0  0  0  0  0  0  0
   -4.5266   -2.7521    0.3674 H   0  0  0  0  0  0  0  0  0  0  0  0
   -2.8576   -2.0761    1.5184 C   0  0  0  0  0  0  0  0  0  0  0  0
   -1.9456   -2.7051    2.0404 O   0  0  0  0  0  0  0  0  0  0  0  0
   -2.6926   -0.8481    1.0174 N   0  0  0  0  0  0  0  0  0  0  0  0
   -3.4926   -0.3971    0.5954 H   0  0  0  0  0  0  0  0  0  0  0  0
   -1.4216   -0.1071    1.0434 C   0  0  1  0  0  0  0  0  0  0  0  0
   -0.7579   -0.5878    1.7640 H   0  0  0  0  0  0  0  0  0  0  0  0
   -0.7791   -0.1912   -0.3557 C   0  0  0  0  0  0  0  0  0  0  0  0
   -1.5743   -0.2617   -1.1005 H   0  0  0  0  0  0  0  0  0  0  0  0
   -0.2168    0.7257   -0.5458 H   0  0  0  0  0  0  0  0  0  0  0  0
    0.1528   -1.3994   -0.5289 C   0  0  0  0  0  0  0  0  0  0  0  0
   -0.3376   -2.1590   -1.1392 H   0  0  0  0  0  0  0  0  0  0  0  0
    1.0712   -1.0788   -1.0218 H   0  0  0  0  0  0  0  0  0  0  0  0
    0.4920   -1.9985    0.8427 C   0  0  0  0  0  0  0  0  0  0  0  0
    0.9581   -1.2239    1.4560 H   0  0  0  0  0  0  0  0  0  0  0  0
   -0.4366   -2.3167    1.3224 H   0  0  0  0  0  0  0  0  0  0  0  0
    1.4077   -3.1520    0.7259 N   0  3  0  0  0  0  0  0  0  0  0  0
    1.6597   -3.4362   -0.2052 H   0  0  0  0  0  0  0  0  0  0  0  0
    1.9256   -3.8433    1.7274 C   0  0  0  0  0  0  0  0  0  0  0  0
    1.6651   -3.5603    2.9729 N   0  0  0  0  0  0  0  0  0  0  0  0
    1.0520   -2.7907    3.1761 H   0  0  0  0  0  0  0  0  0  0  0  0
    2.0662   -4.0953    3.7211 H   0  0  0  0  0  0  0  0  0  0  0  0
    2.7244   -4.8457    1.4937 N   0  0  0  0  0  0  0  0  0  0  0  0
    2.9552   -5.1020    0.5493 H   0  0  0  0  0  0  0  0  0  0  0  0
    3.1151   -5.3675    2.2564 H   0  0  0  0  0  0  0  0  0  0  0  0
   -1.6547    1.3413    1.4779 C   0  0  0  0  0  0  0  0  0  0  0  0
   -2.5654    1.9858    0.9716 O   0  0  0  0  0  0  0  0  0  0  0  0
   -0.8107    1.8504    2.3808 N   0  0  0  0  0  0  0  0  0  0  0  0
   -0.1136    1.2381    2.7719 H   0  0  0  0  0  0  0  0  0  0  0  0
   -0.8954    3.2155    2.9026 C   0  0  0  0  0  0  0  0  0  0  0  0
   -1.8299    3.3430    3.4532 H   0  0  0  0  0  0  0  0  0  0  0  0
   -0.0581    3.4194    3.5712 H   0  0  0  0  0  0  0  0  0  0  0  0
   -0.8804    3.9320    2.0784 H   0  0  0  0  0  0  0  0  0  0  0  0
  5  6  2  0  0  0  0
  5  7  1  0  0  0  0
  2  3  1  0  0  0  0
  2  4  1  0  0  0  0
  2  5  1  0  0  0  0
  1  2  1  0  0  0  0
 29 30  2  0  0  0  0
 29 31  1  0  0  0  0
 26 27  1  0  0  0  0
 26 28  1  0  0  0  0
 23 24  1  0  0  0  0
 23 25  1  0  0  0  0
 22 23  1  0  0  0  0
 22 26  1  0  0  0  0
 20 21  1  0  0  0  0
 20 22  2  0  0  0  0
 17 18  1  0  0  0  0
 17 19  1  0  0  0  0
 17 20  1  0  0  0  0
 14 15  1  0  0  0  0
 14 16  1  0  0  0  0
 14 17  1  0  0  0  0
 11 12  1  0  0  0  0
 11 13  1  0  0  0  0
 11 14  1  0  0  0  0
  9 10  1  0  0  0  0
  9 11  1  0  0  0  0
  9 29  1  0  0  0  0
  7  8  1  0  0  0  0
  7  9  1  0  0  0  0
 33 34  1  0  0  0  0
 33 35  1  0  0  0  0
 33 36  1  0  0  0  0
 31 32  1  0  0  0  0
 31 33  1  0  0  0  0
M  CHG  1  20   1
M  END
$$$$
default_name
  -OEChem-02102213163D

 36 35  0     1  0  0  0  0  0999 V2000
   -4.2256   -3.6731    1.8584 H   0  0  0  0  0  0  0  0  0  0  0  0
   -4.2396   -2.6781    1.4144 C   0  0  0  0  0  0  0  0  0  0  0  0
   -4.9506   -2.0521    1.9514 H   0  0  0  0  0  0  0  0  0  0  0  0
   -4.5266   -2.7521    0.3674 H   0  0  0  0  0  0  0  0  0  0  0  0
   -2.8576   -2.0761    1.5184 C   0  0  0  0  0  0  0  0  0  0  0  0
   -1.9456   -2.7051    2.0404 O   0  0  0  0  0  0  0  0  0  0  0  0
   -2.6926   -0.8481    1.0174 N   0  0  0  0  0  0  0  0  0  0  0  0
   -3.4926   -0.3971    0.5954 H   0  0  0  0  0  0  0  0  0  0  0  0
   -1.4216   -0.1071    1.0434 C   0  0  1  0  0  0  0  0  0  0  0  0
   -0.7579   -0.5878    1.7640 H   0  0  0  0  0  0  0  0  0  0  0  0
   -0.7791   -0.1912   -0.3557 C   0  0  0  0  0  0  0  0  0  0  0  0
   -1.5743   -0.2617   -1.1005 H   0  0  0  0  0  0  0  0  0  0  0  0
   -0.2168    0.7257   -0.5458 H   0  0  0  0  0  0  0  0  0  0  0  0
    0.1528   -1.3994   -0.5289 C   0  0  0  0  0  0  0  0  0  0  0  0
   -0.2112   -2.0328   -1.3390 H   0  0  0  0  0  0  0  0  0  0  0  0
    1.1571   -1.0488   -0.7690 H   0  0  0  0  0  0  0  0  0  0  0  0
    0.1944   -2.2175    0.7690 C   0  0  0  0  0  0  0  0  0  0  0  0
    0.5343   -1.5686    1.5794 H   0  0  0  0  0  0  0  0  0  0  0  0
   -0.8171   -2.5631    0.9946 H   0  0  0  0  0  0  0  0  0  0  0  0
    1.0996   -3.3796    0.6557 N   0  3  0  0  0  0  0  0  0  0  0  0
    1.5343   -3.5282   -0.2389 H   0  0  0  0  0  0  0  0  0  0  0  0
    1.3911   -4.2398    1.6171 C   0  0  0  0  0  0  0  0  0  0  0  0
    0.8834   -4.1404    2.8136 N   0  0  0  0  0  0  0  0  0  0  0  0
    0.2515   -3.3843    3.0097 H   0  0  0  0  0  0  0  0  0  0  0  0
    1.1148   -4.8020    3.5317 H   0  0  0  0  0  0  0  0  0  0  0  0
    2.2078   -5.2295    1.3916 N   0  0  0  0  0  0  0  0  0  0  0  0
    2.6249   -5.3474    0.4844 H   0  0  0  0  0  0  0  0  0  0  0  0
    2.4264   -5.8797    2.1238 H   0  0  0  0  0  0  0  0  0  0  0  0
   -1.6547    1.3413    1.4779 C   0  0  0  0  0  0  0  0  0  0  0  0
   -2.5654    1.9858    0.9716 O   0  0  0  0  0  0  0  0  0  0  0  0
   -0.8107    1.8504    2.3808 N   0  0  0  0  0  0  0  0  0  0  0  0
   -0.1136    1.2381    2.7719 H   0  0  0  0  0  0  0  0  0  0  0  0
   -0.8954    3.2155    2.9026 C   0  0  0  0  0  0  0  0  0  0  0  0
   -1.8299    3.3430    3.4532 H   0  0  0  0  0  0  0  0  0  0  0  0
   -0.0581    3.4194    3.5712 H   0  0  0  0  0  0  0  0  0  0  0  0
   -0.8804    3.9320    2.0784 H   0  0  0  0  0  0  0  0  0  0  0  0
  5  6  2  0  0  0  0
  5  7  1  0  0  0  0
  2  3  1  0  0  0  0
  2  4  1  0  0  0  0
  2  5  1  0  0  0  0
  1  2  1  0  0  0  0
 29 30  2  0  0  0  0
 29 31  1  0  0  0  0
 26 27  1  0  0  0  0
 26 28  1  0  0  0  0
 23 24  1  0  0  0  0
 23 25  1  0  0  0  0
 22 23  1  0  0  0  0
 22 26  1  0  0  0  0
 20 21  1  0  0  0  0
 20 22  2  0  0  0  0
 17 18  1  0  0  0  0
 17 19  1  0  0  0  0
 17 20  1  0  0  0  0
 14 15  1  0  0  0  0
 14 16  1  0  0  0  0
 14 17  1  0  0  0  0
 11 12  1  0  0  0  0
 11 13  1  0  0  0  0
 11 14  1  0  0  0  0
  9 10  1  0  0  0  0
  9 11  1  0  0  0  0
  9 29  1  0  0  0  0
  7  8  1  0  0  0  0
  7  9  1  0  0  0  0
 33 34  1  0  0  0  0
 33 35  1  0  0  0  0
 33 36  1  0  0  0  0
 31 32  1  0  0  0  0
 31 33  1  0  0  0  0
M  CHG  1  20   1
M  END
$$$$
default_name
  -OEChem-02102213163D

 36 35  0     1  0  0  0  0  0999 V2000
   -4.2256   -3.6731    1.8584 H   0  0  0  0  0  0  0  0  0  0  0  0
   -4.2396   -2.6781    1.4144 C   0  0  0  0  0  0  0  0  0  0  0  0
   -4.9506   -2.0521    1.9514 H   0  0  0  0  0  0  0  0  0  0  0  0
   -4.5266   -2.7521    0.3674 H   0  0  0  0  0  0  0  0  0  0  0  0
   -2.8576   -2.0761    1.5184 C   0  0  0  0  0  0  0  0  0  0  0  0
   -1.9456   -2.7051    2.0404 O   0  0  0  0  0  0  0  0  0  0  0  0
   -2.6926   -0.8481    1.0174 N   0  0  0  0  0  0  0  0  0  0  0  0
   -3.4926   -0.3971    0.5954 H   0  0  0  0  0  0  0  0  0  0  0  0
   -1.4216   -0.1071    1.0434 C   0  0  1  0  0  0  0  0  0  0  0  0
   -0.7579   -0.5878    1.7640 H   0  0  0  0  0  0  0  0  0  0  0  0
   -0.7791   -0.1912   -0.3557 C   0  0  0  0  0  0  0  0  0  0  0  0
   -1.5743   -0.2617   -1.1005 H   0  0  0  0  0  0  0  0  0  0  0  0
   -0.2168    0.7257   -0.5458 H   0  0  0  0  0  0  0  0  0  0  0  0
    0.1528   -1.3994   -0.5289 C   0  0  0  0  0  0  0  0  0  0  0  0
   -0.0447   -1.8833   -1.4864 H   0  0  0  0  0  0  0  0  0  0  0  0
    1.1894   -1.0621   -0.5027 H   0  0  0  0  0  0  0  0  0  0  0  0
   -0.0844   -2.4087    0.6027 C   0  0  0  0  0  0  0  0  0  0  0  0
    0.0896   -1.9085    1.5582 H   0  0  0  0  0  0  0  0  0  0  0  0
   -1.1251   -2.7386    0.5619 H   0  0  0  0  0  0  0  0  0  0  0  0
    0.8096   -3.5795    0.4895 N   0  3  0  0  0  0  0  0  0  0  0  0
    1.4173   -3.6080   -0.3113 H   0  0  0  0  0  0  0  0  0  0  0  0
    0.8857   -4.5898    1.3395 C   0  0  0  0  0  0  0  0  0  0  0  0
    0.1438   -4.6529    2.4094 N   0  0  0  0  0  0  0  0  0  0  0  0
   -0.5051   -3.9081    2.5928 H   0  0  0  0  0  0  0  0  0  0  0  0
    0.2137   -5.4270    3.0440 H   0  0  0  0  0  0  0  0  0  0  0  0
    1.7185   -5.5690    1.1276 N   0  0  0  0  0  0  0  0  0  0  0  0
    2.3119   -5.5647    0.3159 H   0  0  0  0  0  0  0  0  0  0  0  0
    1.7731   -6.3335    1.7750 H   0  0  0  0  0  0  0  0  0  0  0  0
   -1.6547    1.3413    1.4779 C   0  0  0  0  0  0  0  0  0  0  0  0
   -2.5654    1.9858    0.9716 O   0  0  0  0  0  0  0  0  0  0  0  0
   -0.8107    1.8504    2.3808 N   0  0  0  0  0  0  0  0  0  0  0  0
   -0.1136    1.2381    2.7719 H   0  0  0  0  0  0  0  0  0  0  0  0
   -0.8954    3.2155    2.9026 C   0  0  0  0  0  0  0  0  0  0  0  0
   -1.8299    3.3430    3.4532 H   0  0  0  0  0  0  0  0  0  0  0  0
   -0.0581    3.4194    3.5712 H   0  0  0  0  0  0  0  0  0  0  0  0
   -0.8804    3.9320    2.0784 H   0  0  0  0  0  0  0  0  0  0  0  0
  5  6  2  0  0  0  0
  5  7  1  0  0  0  0
  2  3  1  0  0  0  0
  2  4  1  0  0  0  0
  2  5  1  0  0  0  0
  1  2  1  0  0  0  0
 29 30  2  0  0  0  0
 29 31  1  0  0  0  0
 26 27  1  0  0  0  0
 26 28  1  0  0  0  0
 23 24  1  0  0  0  0
 23 25  1  0  0  0  0
 22 23  1  0  0  0  0
 22 26  1  0  0  0  0
 20 21  1  0  0  0  0
 20 22  2  0  0  0  0
 17 18  1  0  0  0  0
 17 19  1  0  0  0  0
 17 20  1  0  0  0  0
 14 15  1  0  0  0  0
 14 16  1  0  0  0  0
 14 17  1  0  0  0  0
 11 12  1  0  0  0  0
 11 13  1  0  0  0  0
 11 14  1  0  0  0  0
  9 10  1  0  0  0  0
  9 11  1  0  0  0  0
  9 29  1  0  0  0  0
  7  8  1  0  0  0  0
  7  9  1  0  0  0  0
 33 34  1  0  0  0  0
 33 35  1  0  0  0  0
 33 36  1  0  0  0  0
 31 32  1  0  0  0  0
 31 33  1  0  0  0  0
M  CHG  1  20   1
M  END
$$$$
default_name
  -OEChem-02102213163D

 36 35  0     1  0  0  0  0  0999 V2000
   -4.2256   -3.6731    1.8584 H   0  0  0  0  0  0  0  0  0  0  0  0
   -4.2396   -2.6781    1.4144 C   0  0  0  0  0  0  0  0  0  0  0  0
   -4.9506   -2.0521    1.9514 H   0  0  0  0  0  0  0  0  0  0  0  0
   -4.5266   -2.7521    0.3674 H   0  0  0  0  0  0  0  0  0  0  0  0
   -2.8576   -2.0761    1.5184 C   0  0  0  0  0  0  0  0  0  0  0  0
   -1.9456   -2.7051    2.0404 O   0  0  0  0  0  0  0  0  0  0  0  0
   -2.6926   -0.8481    1.0174 N   0  0  0  0  0  0  0  0  0  0  0  0
   -3.4926   -0.3971    0.5954 H   0  0  0  0  0  0  0  0  0  0  0  0
   -1.4216   -0.1071    1.0434 C   0  0  1  0  0  0  0  0  0  0  0  0
   -0.7579   -0.5878    1.7640 H   0  0  0  0  0  0  0  0  0  0  0  0
   -0.7791   -0.1912   -0.3557 C   0  0  0  0  0  0  0  0  0  0  0  0
   -1.5743   -0.2617   -1.1005 H   0  0  0  0  0  0  0  0  0  0  0  0
   -0.2168    0.7257   -0.5458 H   0  0  0  0  0  0  0  0  0  0  0  0
    0.1528   -1.3994   -0.5289 C   0  0  0  0  0  0  0  0  0  0  0  0
    0.1505   -1.7205   -1.5715 H   0  0  0  0  0  0  0  0  0  0  0  0
    1.1661   -1.1176   -0.2409 H   0  0  0  0  0  0  0  0  0  0  0  0
   -0.3254   -2.5591    0.3553 C   0  0  0  0  0  0  0  0  0  0  0  0
   -0.3455   -2.2205    1.3938 H   0  0  0  0  0  0  0  0  0  0  0  0
   -1.3396   -2.8311    0.0535 H   0  0  0  0  0  0  0  0  0  0  0  0
    0.5575   -3.7379    0.2384 N   0  3  0  0  0  0  0  0  0  0  0  0
    1.3167   -3.6704   -0.4177 H   0  0  0  0  0  0  0  0  0  0  0  0
    0.4439   -4.8695    0.9134 C   0  0  0  0  0  0  0  0  0  0  0  0
   -0.5033   -5.0629    1.7879 N   0  0  0  0  0  0  0  0  0  0  0  0
   -1.1663   -4.3265    1.9537 H   0  0  0  0  0  0  0  0  0  0  0  0
   -0.5756   -5.9279    2.2913 H   0  0  0  0  0  0  0  0  0  0  0  0
    1.2897   -5.8412    0.7195 N   0  0  0  0  0  0  0  0  0  0  0  0
    2.0376   -5.7389    0.0553 H   0  0  0  0  0  0  0  0  0  0  0  0
    1.1999   -6.6980    1.2337 H   0  0  0  0  0  0  0  0  0  0  0  0
   -1.6547    1.3413    1.4779 C   0  0  0  0  0  0  0  0  0  0  0  0
   -2.5654    1.9858    0.9716 O   0  0  0  0  0  0  0  0  0  0  0  0
   -0.8107    1.8504    2.3808 N   0  0  0  0  0  0  0  0  0  0  0  0
   -0.1136    1.2381    2.7719 H   0  0  0  0  0  0  0  0  0  0  0  0
   -0.8954    3.2155    2.9026 C   0  0  0  0  0  0  0  0  0  0  0  0
   -1.8299    3.3430    3.4532 H   0  0  0  0  0  0  0  0  0  0  0  0
   -0.0581    3.4194    3.5712 H   0  0  0  0  0  0  0  0  0  0  0  0
   -0.8804    3.9320    2.0784 H   0  0  0  0  0  0  0  0  0  0  0  0
  5  6  2  0  0  0  0
  5  7  1  0  0  0  0
  2  3  1  0  0  0  0
  2  4  1  0  0  0  0
  2  5  1  0  0  0  0
  1  2  1  0  0  0  0
 29 30  2  0  0  0  0
 29 31  1  0  0  0  0
 26 27  1  0  0  0  0
 26 28  1  0  0  0  0
 23 24  1  0  0  0  0
 23 25  1  0  0  0  0
 22 23  1  0  0  0  0
 22 26  1  0  0  0  0
 20 21  1  0  0  0  0
 20 22  2  0  0  0  0
 17 18  1  0  0  0  0
 17 19  1  0  0  0  0
 17 20  1  0  0  0  0
 14 15  1  0  0  0  0
 14 16  1  0  0  0  0
 14 17  1  0  0  0  0
 11 12  1  0  0  0  0
 11 13  1  0  0  0  0
 11 14  1  0  0  0  0
  9 10  1  0  0  0  0
  9 11  1  0  0  0  0
  9 29  1  0  0  0  0
  7  8  1  0  0  0  0
  7  9  1  0  0  0  0
 33 34  1  0  0  0  0
 33 35  1  0  0  0  0
 33 36  1  0  0  0  0
 31 32  1  0  0  0  0
 31 33  1  0  0  0  0
M  CHG  1  20   1
M  END
$$$$
default_name
  -OEChem-02102213163D

 36 35  0     1  0  0  0  0  0999 V2000
   -4.2256   -3.6731    1.8584 H   0  0  0  0  0  0  0  0  0  0  0  0
   -4.2396   -2.6781    1.4144 C   0  0  0  0  0  0  0  0  0  0  0  0
   -4.9506   -2.0521    1.9514 H   0  0  0  0  0  0  0  0  0  0  0  0
   -4.5266   -2.7521    0.3674 H   0  0  0  0  0  0  0  0  0  0  0  0
   -2.8576   -2.0761    1.5184 C   0  0  0  0  0  0  0  0  0  0  0  0
   -1.9456   -2.7051    2.0404 O   0  0  0  0  0  0  0  0  0  0  0  0
   -2.6926   -0.8481    1.0174 N   0  0  0  0  0  0  0  0  0  0  0  0
   -3.4926   -0.3971    0.5954 H   0  0  0  0  0  0  0  0  0  0  0  0
   -1.4216   -0.1071    1.0434 C   0  0  1  0  0  0  0  0  0  0  0  0
   -0.7579   -0.5878    1.7640 H   0  0  0  0  0  0  0  0  0  0  0  0
   -0.7791   -0.1912   -0.3557 C   0  0  0  0  0  0  0  0  0  0  0  0
   -1.5743   -0.2617   -1.1005 H   0  0  0  0  0  0  0  0  0  0  0  0
   -0.2168    0.7257   -0.5458 H   0  0  0  0  0  0  0  0  0  0  0  0
    0.1528   -1.3994   -0.5289 C   0  0  0  0  0  0  0  0  0  0  0  0
    0.3611   -1.5557   -1.5883 H   0  0  0  0  0  0  0  0  0  0  0  0
    1.0886   -1.2117   -0.0015 H   0  0  0  0  0  0  0  0  0  0  0  0
   -0.5122   -2.6585    0.0437 C   0  0  0  0  0  0  0  0  0  0  0  0
   -0.7414   -2.4833    1.0973 H   0  0  0  0  0  0  0  0  0  0  0  0
   -1.4459   -2.8344   -0.4957 H   0  0  0  0  0  0  0  0  0  0  0  0
    0.3605   -3.8441   -0.0803 N   0  3  0  0  0  0  0  0  0  0  0  0
    1.2393   -3.7110   -0.5507 H   0  0  0  0  0  0  0  0  0  0  0  0
    0.0957   -5.0599    0.3680 C   0  0  0  0  0  0  0  0  0  0  0  0
   -1.0138   -5.3424    0.9914 N   0  0  0  0  0  0  0  0  0  0  0  0
   -1.6871   -4.6109    1.1361 H   0  0  0  0  0  0  0  0  0  0  0  0
   -1.1993   -6.2704    1.3249 H   0  0  0  0  0  0  0  0  0  0  0  0
    0.9506   -6.0276    0.1953 N   0  0  0  0  0  0  0  0  0  0  0  0
    1.8205   -5.8583   -0.2797 H   0  0  0  0  0  0  0  0  0  0  0  0
    0.7458   -6.9484    0.5370 H   0  0  0  0  0  0  0  0  0  0  0  0
   -1.6547    1.3413    1.4779 C   0  0  0  0  0  0  0  0  0  0  0  0
   -2.5654    1.9858    0.9716 O   0  0  0  0  0  0  0  0  0  0  0  0
   -0.8107    1.8504    2.3808 N   0  0  0  0  0  0  0  0  0  0  0  0
   -0.1136    1.2381    2.7719 H   0  0  0  0  0  0  0  0  0  0  0  0
   -0.8954    3.2155    2.9026 C   0  0  0  0  0  0  0  0  0  0  0  0
   -1.8299    3.3430    3.4532 H   0  0  0  0  0  0  0  0  0  0  0  0
   -0.0581    3.4194    3.5712 H   0  0  0  0  0  0  0  0  0  0  0  0
   -0.8804    3.9320    2.0784 H   0  0  0  0  0  0  0  0  0  0  0  0
  5  6  2  0  0  0  0
  5  7  1  0  0  0  0
  2  3  1  0  0  0  0
  2  4  1  0  0  0  0
  2  5  1  0  0  0  0
  1  2  1  0  0  0  0
 29 30  2  0  0  0  0
 29 31  1  0  0  0  0
 26 27  1  0  0  0  0
 26 28  1  0  0  0  0
 23 24  1  0  0  0  0
 23 25  1  0  0  0  0
 22 23  1  0  0  0  0
 22 26  1  0  0  0  0
 20 21  1  0  0  0  0
 20 22  2  0  0  0  0
 17 18  1  0  0  0  0
 17 19  1  0  0  0  0
 17 20  1  0  0  0  0
 14 15  1  0  0  0  0
 14 16  1  0  0  0  0
 14 17  1  0  0  0  0
 11 12  1  0  0  0  0
 11 13  1  0  0  0  0
 11 14  1  0  0  0  0
  9 10  1  0  0  0  0
  9 11  1  0  0  0  0
  9 29  1  0  0  0  0
  7  8  1  0  0  0  0
  7  9  1  0  0  0  0
 33 34  1  0  0  0  0
 33 35  1  0  0  0  0
 33 36  1  0  0  0  0
 31 32  1  0  0  0  0
 31 33  1  0  0  0  0
M  CHG  1  20   1
M  END
$$$$
default_name
  -OEChem-02102213163D

 36 35  0     1  0  0  0  0  0999 V2000
   -4.2256   -3.6731    1.8584 H   0  0  0  0  0  0  0  0  0  0  0  0
   -4.2396   -2.6781    1.4144 C   0  0  0  0  0  0  0  0  0  0  0  0
   -4.9506   -2.0521    1.9514 H   0  0  0  0  0  0  0  0  0  0  0  0
   -4.5266   -2.7521    0.3674 H   0  0  0  0  0  0  0  0  0  0  0  0
   -2.8576   -2.0761    1.5184 C   0  0  0  0  0  0  0  0  0  0  0  0
   -1.9456   -2.7051    2.0404 O   0  0  0  0  0  0  0  0  0  0  0  0
   -2.6926   -0.8481    1.0174 N   0  0  0  0  0  0  0  0  0  0  0  0
   -3.4926   -0.3971    0.5954 H   0  0  0  0  0  0  0  0  0  0  0  0
   -1.4216   -0.1071    1.0434 C   0  0  1  0  0  0  0  0  0  0  0  0
   -0.7579   -0.5878    1.7640 H   0  0  0  0  0  0  0  0  0  0  0  0
   -0.7791   -0.1912   -0.3557 C   0  0  0  0  0  0  0  0  0  0  0  0
   -1.5743   -0.2617   -1.1005 H   0  0  0  0  0  0  0  0  0  0  0  0
   -0.2168    0.7257   -0.5458 H   0  0  0  0  0  0  0  0  0  0  0  0
    0.1528   -1.3994   -0.5289 C   0  0  0  0  0  0  0  0  0  0  0  0
    0.5728   -1.3999   -1.5357 H   0  0  0  0  0  0  0  0  0  0  0  0
    0.9622   -1.3380    0.1992 H   0  0  0  0  0  0  0  0  0  0  0  0
   -0.6321   -2.7001   -0.3110 C   0  0  0  0  0  0  0  0  0  0  0  0
   -1.0711   -2.6791    0.6891 H   0  0  0  0  0  0  0  0  0  0  0  0
   -1.4369   -2.7482   -1.0483 H   0  0  0  0  0  0  0  0  0  0  0  0
    0.2320   -3.8910   -0.4449 N   0  3  0  0  0  0  0  0  0  0  0  0
    1.1905   -3.7270   -0.7013 H   0  0  0  0  0  0  0  0  0  0  0  0
   -0.1352   -5.1479   -0.2597 C   0  0  0  0  0  0  0  0  0  0  0  0
   -1.3528   -5.4723    0.0742 N   0  0  0  0  0  0  0  0  0  0  0  0
   -2.0320   -4.7420    0.1956 H   0  0  0  0  0  0  0  0  0  0  0  0
   -1.6150   -6.4312    0.2106 H   0  0  0  0  0  0  0  0  0  0  0  0
    0.7245   -6.1153   -0.4094 N   0  0  0  0  0  0  0  0  0  0  0  0
    1.6756   -5.9146   -0.6661 H   0  0  0  0  0  0  0  0  0  0  0  0
    0.4417   -7.0675   -0.2678 H   0  0  0  0  0  0  0  0  0  0  0  0
   -1.6547    1.3413    1.4779 C   0  0  0  0  0  0  0  0  0  0  0  0
   -2.5654    1.9858    0.9716 O   0  0  0  0  0  0  0  0  0  0  0  0
   -0.8107    1.8504    2.3808 N   0  0  0  0  0  0  0  0  0  0  0  0
   -0.1136    1.2381    2.7719 H   0  0  0  0  0  0  0  0  0  0  0  0
   -0.8954    3.2155    2.9026 C   0  0  0  0  0  0  0  0  0  0  0  0
   -1.8299    3.3430    3.4532 H   0  0  0  0  0  0  0  0  0  0  0  0
   -0.0581    3.4194    3.5712 H   0  0  0  0  0  0  0  0  0  0  0  0
   -0.8804    3.9320    2.0784 H   0  0  0  0  0  0  0  0  0  0  0  0
  5  6  2  0  0  0  0
  5  7  1  0  0  0  0
  2  3  1  0  0  0  0
  2  4  1  0  0  0  0
  2  5  1  0  0  0  0
  1  2  1  0  0  0  0
 29 30  2  0  0  0  0
 29 31  1  0  0  0  0
 26 27  1  0  0  0  0
 26 28  1  0  0  0  0
 23 24  1  0  0  0  0
 23 25  1  0  0  0  0
 22 23  1  0  0  0  0
 22 26  1  0  0  0  0
 20 21  1  0  0  0  0
 20 22  2  0  0  0  0
 17 18  1  0  0  0  0
 17 19  1  0  0  0  0
 17 20  1  0  0  0  0
 14 15  1  0  0  0  0
 14 16  1  0  0  0  0
 14 17  1  0  0  0  0
 11 12  1  0  0  0  0
 11 13  1  0  0  0  0
 11 14  1  0  0  0  0
  9 10  1  0  0  0  0
  9 11  1  0  0  0  0
  9 29  1  0  0  0  0
  7  8  1  0  0  0  0
  7  9  1  0  0  0  0
 33 34  1  0  0  0  0
 33 35  1  0  0  0  0
 33 36  1  0  0  0  0
 31 32  1  0  0  0  0
 31 33  1  0  0  0  0
M  CHG  1  20   1
M  END
$$$$
default_name
  -OEChem-02102213163D

 36 35  0     1  0  0  0  0  0999 V2000
   -4.2256   -3.6731    1.8584 H   0  0  0  0  0  0  0  0  0  0  0  0
   -4.2396   -2.6781    1.4144 C   0  0  0  0  0  0  0  0  0  0  0  0
   -4.9506   -2.0521    1.9514 H   0  0  0  0  0  0  0  0  0  0  0  0
   -4.5266   -2.7521    0.3674 H   0  0  0  0  0  0  0  0  0  0  0  0
   -2.8576   -2.0761    1.5184 C   0  0  0  0  0  0  0  0  0  0  0  0
   -1.9456   -2.7051    2.0404 O   0  0  0  0  0  0  0  0  0  0  0  0
   -2.6926   -0.8481    1.0174 N   0  0  0  0  0  0  0  0  0  0  0  0
   -3.4926   -0.3971    0.5954 H   0  0  0  0  0  0  0  0  0  0  0  0
   -1.4216   -0.1071    1.0434 C   0  0  1  0  0  0  0  0  0  0  0  0
   -0.7579   -0.5878    1.7640 H   0  0  0  0  0  0  0  0  0  0  0  0
   -0.7791   -0.1912   -0.3557 C   0  0  0  0  0  0  0  0  0  0  0  0
   -1.5743   -0.2617   -1.1005 H   0  0  0  0  0  0  0  0  0  0  0  0
   -0.2168    0.7257   -0.5458 H   0  0  0  0  0  0  0  0  0  0  0  0
    0.1528   -1.3994   -0.5289 C   0  0  0  0  0  0  0  0  0  0  0  0
    0.7711   -1.2639   -1.4174 H   0  0  0  0  0  0  0  0  0  0  0  0
    0.7956   -1.4877    0.3475 H   0  0  0  0  0  0  0  0  0  0  0  0
   -0.6769   -2.6811   -0.6846 C   0  0  0  0  0  0  0  0  0  0  0  0
   -1.3122   -2.7945    0.1969 H   0  0  0  0  0  0  0  0  0  0  0  0
   -1.3131   -2.5784   -1.5668 H   0  0  0  0  0  0  0  0  0  0  0  0
    0.1808   -3.8752   -0.8307 N   0  3  0  0  0  0  0  0  0  0  0  0
    1.1736   -3.7174   -0.8592 H   0  0  0  0  0  0  0  0  0  0  0  0
   -0.2329   -5.1276   -0.9268 C   0  0  0  0  0  0  0  0  0  0  0  0
   -1.4973   -5.4439   -0.9012 N   0  0  0  0  0  0  0  0  0  0  0  0
   -2.1774   -4.7109   -0.8037 H   0  0  0  0  0  0  0  0  0  0  0  0
   -1.7943   -6.3994   -0.9757 H   0  0  0  0  0  0  0  0  0  0  0  0
    0.6265   -6.0985   -1.0533 N   0  0  0  0  0  0  0  0  0  0  0  0
    1.6127   -5.9041   -1.0778 H   0  0  0  0  0  0  0  0  0  0  0  0
    0.3084   -7.0473   -1.1258 H   0  0  0  0  0  0  0  0  0  0  0  0
   -1.6547    1.3413    1.4779 C   0  0  0  0  0  0  0  0  0  0  0  0
   -2.5654    1.9858    0.9716 O   0  0  0  0  0  0  0  0  0  0  0  0
   -0.8107    1.8504    2.3808 N   0  0  0  0  0  0  0  0  0  0  0  0
   -0.1136    1.2381    2.7719 H   0  0  0  0  0  0  0  0  0  0  0  0
   -0.8954    3.2155    2.9026 C   0  0  0  0  0  0  0  0  0  0  0  0
   -1.8299    3.3430    3.4532 H   0  0  0  0  0  0  0  0  0  0  0  0
   -0.0581    3.4194    3.5712 H   0  0  0  0  0  0  0  0  0  0  0  0
   -0.8804    3.9320    2.0784 H   0  0  0  0  0  0  0  0  0  0  0  0
  5  6  2  0  0  0  0
  5  7  1  0  0  0  0
  2  3  1  0  0  0  0
  2  4  1  0  0  0  0
  2  5  1  0  0  0  0
  1  2  1  0  0  0  0
 29 30  2  0  0  0  0
 29 31  1  0  0  0  0
 26 27  1  0  0  0  0
 26 28  1  0  0  0  0
 23 24  1  0  0  0  0
 23 25  1  0  0  0  0
 22 23  1  0  0  0  0
 22 26  1  0  0  0  0
 20 21  1  0  0  0  0
 20 22  2  0  0  0  0
 17 18  1  0  0  0  0
 17 19  1  0  0  0  0
 17 20  1  0  0  0  0
 14 15  1  0  0  0  0
 14 16  1  0  0  0  0
 14 17  1  0  0  0  0
 11 12  1  0  0  0  0
 11 13  1  0  0  0  0
 11 14  1  0  0  0  0
  9 10  1  0  0  0  0
  9 11  1  0  0  0  0
  9 29  1  0  0  0  0
  7  8  1  0  0  0  0
  7  9  1  0  0  0  0
 33 34  1  0  0  0  0
 33 35  1  0  0  0  0
 33 36  1  0  0  0  0
 31 32  1  0  0  0  0
 31 33  1  0  0  0  0
M  CHG  1  20   1
M  END
$$$$
default_name
  -OEChem-02102213163D

 36 35  0     1  0  0  0  0  0999 V2000
   -4.2256   -3.6731    1.8584 H   0  0  0  0  0  0  0  0  0  0  0  0
   -4.2396   -2.6781    1.4144 C   0  0  0  0  0  0  0  0  0  0  0  0
   -4.9506   -2.0521    1.9514 H   0  0  0  0  0  0  0  0  0  0  0  0
   -4.5266   -2.7521    0.3674 H   0  0  0  0  0  0  0  0  0  0  0  0
   -2.8576   -2.0761    1.5184 C   0  0  0  0  0  0  0  0  0  0  0  0
   -1.9456   -2.7051    2.0404 O   0  0  0  0  0  0  0  0  0  0  0  0
   -2.6926   -0.8481    1.0174 N   0  0  0  0  0  0  0  0  0  0  0  0
   -3.4926   -0.3971    0.5954 H   0  0  0  0  0  0  0  0  0  0  0  0
   -1.4216   -0.1071    1.0434 C   0  0  1  0  0  0  0  0  0  0  0  0
   -0.7579   -0.5878    1.7640 H   0  0  0  0  0  0  0  0  0  0  0  0
   -0.7791   -0.1912   -0.3557 C   0  0  0  0  0  0  0  0  0  0  0  0
   -1.5743   -0.2617   -1.1005 H   0  0  0  0  0  0  0  0  0  0  0  0
   -0.2168    0.7257   -0.5458 H   0  0  0  0  0  0  0  0  0  0  0  0
    0.1528   -1.3994   -0.5289 C   0  0  0  0  0  0  0  0  0  0  0  0
    0.9426   -1.1570   -1.2413 H   0  0  0  0  0  0  0  0  0  0  0  0
    0.6001   -1.6508    0.4332 H   0  0  0  0  0  0  0  0  0  0  0  0
   -0.6436   -2.6028   -1.0515 C   0  0  0  0  0  0  0  0  0  0  0  0
   -1.4482   -2.8215   -0.3457 H   0  0  0  0  0  0  0  0  0  0  0  0
   -1.0831   -2.3366   -2.0157 H   0  0  0  0  0  0  0  0  0  0  0  0
    0.2103   -3.7978   -1.2112 N   0  3  0  0  0  0  0  0  0  0  0  0
    1.1897   -3.6829   -1.0137 H   0  0  0  0  0  0  0  0  0  0  0  0
   -0.1909   -5.0004   -1.5879 C   0  0  0  0  0  0  0  0  0  0  0  0
   -1.4374   -5.2590   -1.8683 N   0  0  0  0  0  0  0  0  0  0  0  0
   -2.1135   -4.5196   -1.7936 H   0  0  0  0  0  0  0  0  0  0  0  0
   -1.7251   -6.1772   -2.1531 H   0  0  0  0  0  0  0  0  0  0  0  0
    0.6636   -5.9783   -1.6926 N   0  0  0  0  0  0  0  0  0  0  0  0
    1.6361   -5.8275   -1.4866 H   0  0  0  0  0  0  0  0  0  0  0  0
    0.3550   -6.8891   -1.9786 H   0  0  0  0  0  0  0  0  0  0  0  0
   -1.6547    1.3413    1.4779 C   0  0  0  0  0  0  0  0  0  0  0  0
   -2.5654    1.9858    0.9716 O   0  0  0  0  0  0  0  0  0  0  0  0
   -0.8107    1.8504    2.3808 N   0  0  0  0  0  0  0  0  0  0  0  0
   -0.1136    1.2381    2.7719 H   0  0  0  0  0  0  0  0  0  0  0  0
   -0.8954    3.2155    2.9026 C   0  0  0  0  0  0  0  0  0  0  0  0
   -1.8299    3.3430    3.4532 H   0  0  0  0  0  0  0  0  0  0  0  0
   -0.0581    3.4194    3.5712 H   0  0  0  0  0  0  0  0  0  0  0  0
   -0.8804    3.9320    2.0784 H   0  0  0  0  0  0  0  0  0  0  0  0
  5  6  2  0  0  0  0
  5  7  1  0  0  0  0
  2  3  1  0  0  0  0
  2  4  1  0  0  0  0
  2  5  1  0  0  0  0
  1  2  1  0  0  0  0
 29 30  2  0  0  0  0
 29 31  1  0  0  0  0
 26 27  1  0  0  0  0
 26 28  1  0  0  0  0
 23 24  1  0  0  0  0
 23 25  1  0  0  0  0
 22 23  1  0  0  0  0
 22 26  1  0  0  0  0
 20 21  1  0  0  0  0
 20 22  2  0  0  0  0
 17 18  1  0  0  0  0
 17 19  1  0  0  0  0
 17 20  1  0  0  0  0
 14 15  1  0  0  0  0
 14 16  1  0  0  0  0
 14 17  1  0  0  0  0
 11 12  1  0  0  0  0
 11 13  1  0  0  0  0
 11 14  1  0  0  0  0
  9 10  1  0  0  0  0
  9 11  1  0  0  0  0
  9 29  1  0  0  0  0
  7  8  1  0  0  0  0
  7  9  1  0  0  0  0
 33 34  1  0  0  0  0
 33 35  1  0  0  0  0
 33 36  1  0  0  0  0
 31 32  1  0  0  0  0
 31 33  1  0  0  0  0
M  CHG  1  20   1
M  END
$$$$
default_name
  -OEChem-02102213163D

 36 35  0     1  0  0  0  0  0999 V2000
   -4.2256   -3.6731    1.8584 H   0  0  0  0  0  0  0  0  0  0  0  0
   -4.2396   -2.6781    1.4144 C   0  0  0  0  0  0  0  0  0  0  0  0
   -4.9506   -2.0521    1.9514 H   0  0  0  0  0  0  0  0  0  0  0  0
   -4.5266   -2.7521    0.3674 H   0  0  0  0  0  0  0  0  0  0  0  0
   -2.8576   -2.0761    1.5184 C   0  0  0  0  0  0  0  0  0  0  0  0
   -1.9456   -2.7051    2.0404 O   0  0  0  0  0  0  0  0  0  0  0  0
   -2.6926   -0.8481    1.0174 N   0  0  0  0  0  0  0  0  0  0  0  0
   -3.4926   -0.3971    0.5954 H   0  0  0  0  0  0  0  0  0  0  0  0
   -1.4216   -0.1071    1.0434 C   0  0  1  0  0  0  0  0  0  0  0  0
   -0.7579   -0.5878    1.7640 H   0  0  0  0  0  0  0  0  0  0  0  0
   -0.7791   -0.1912   -0.3557 C   0  0  0  0  0  0  0  0  0  0  0  0
   -1.5743   -0.2617   -1.1005 H   0  0  0  0  0  0  0  0  0  0  0  0
   -0.2168    0.7257   -0.5458 H   0  0  0  0  0  0  0  0  0  0  0  0
    0.1528   -1.3994   -0.5289 C   0  0  0  0  0  0  0  0  0  0  0  0
    1.0754   -1.0863   -1.0196 H   0  0  0  0  0  0  0  0  0  0  0  0
    0.3891   -1.8161    0.4507 H   0  0  0  0  0  0  0  0  0  0  0  0
   -0.5343   -2.4704   -1.3869 C   0  0  0  0  0  0  0  0  0  0  0  0
   -1.4698   -2.7585   -0.9018 H   0  0  0  0  0  0  0  0  0  0  0  0
   -0.7624   -2.0392   -2.3645 H   0  0  0  0  0  0  0  0  0  0  0  0
    0.3186   -3.6642   -1.5606 N   0  3  0  0  0  0  0  0  0  0  0  0
    1.2377   -3.6257   -1.1542 H   0  0  0  0  0  0  0  0  0  0  0  0
   -0.0119   -4.7749   -2.1979 C   0  0  0  0  0  0  0  0  0  0  0  0
   -1.1772   -4.9303   -2.7612 N   0  0  0  0  0  0  0  0  0  0  0  0
   -1.8446   -4.1813   -2.7068 H   0  0  0  0  0  0  0  0  0  0  0  0
   -1.4119   -5.7796   -3.2413 H   0  0  0  0  0  0  0  0  0  0  0  0
    0.8330   -5.7628   -2.2836 N   0  0  0  0  0  0  0  0  0  0  0  0
    1.7441   -5.6899   -1.8647 H   0  0  0  0  0  0  0  0  0  0  0  0
    0.5782   -6.6037   -2.7679 H   0  0  0  0  0  0  0  0  0  0  0  0
   -1.6547    1.3413    1.4779 C   0  0  0  0  0  0  0  0  0  0  0  0
   -2.5654    1.9858    0.9716 O   0  0  0  0  0  0  0  0  0  0  0  0
   -0.8107    1.8504    2.3808 N   0  0  0  0  0  0  0  0  0  0  0  0
   -0.1136    1.2381    2.7719 H   0  0  0  0  0  0  0  0  0  0  0  0
   -0.8954    3.2155    2.9026 C   0  0  0  0  0  0  0  0  0  0  0  0
   -1.8299    3.3430    3.4532 H   0  0  0  0  0  0  0  0  0  0  0  0
   -0.0581    3.4194    3.5712 H   0  0  0  0  0  0  0  0  0  0  0  0
   -0.8804    3.9320    2.0784 H   0  0  0  0  0  0  0  0  0  0  0  0
  5  6  2  0  0  0  0
  5  7  1  0  0  0  0
  2  3  1  0  0  0  0
  2  4  1  0  0  0  0
  2  5  1  0  0  0  0
  1  2  1  0  0  0  0
 29 30  2  0  0  0  0
 29 31  1  0  0  0  0
 26 27  1  0  0  0  0
 26 28  1  0  0  0  0
 23 24  1  0  0  0  0
 23 25  1  0  0  0  0
 22 23  1  0  0  0  0
 22 26  1  0  0  0  0
 20 21  1  0  0  0  0
 20 22  2  0  0  0  0
 17 18  1  0  0  0  0
 17 19  1  0  0  0  0
 17 20  1  0  0  0  0
 14 15  1  0  0  0  0
 14 16  1  0  0  0  0
 14 17  1  0  0  0  0
 11 12  1  0  0  0  0
 11 13  1  0  0  0  0
 11 14  1  0  0  0  0
  9 10  1  0  0  0  0
  9 11  1  0  0  0  0
  9 29  1  0  0  0  0
  7  8  1  0  0  0  0
  7  9  1  0  0  0  0
 33 34  1  0  0  0  0
 33 35  1  0  0  0  0
 33 36  1  0  0  0  0
 31 32  1  0  0  0  0
 31 33  1  0  0  0  0
M  CHG  1  20   1
M  END
$$$$
default_name
  -OEChem-02102213163D

 36 35  0     1  0  0  0  0  0999 V2000
   -4.2256   -3.6731    1.8584 H   0  0  0  0  0  0  0  0  0  0  0  0
   -4.2396   -2.6781    1.4144 C   0  0  0  0  0  0  0  0  0  0  0  0
   -4.9506   -2.0521    1.9514 H   0  0  0  0  0  0  0  0  0  0  0  0
   -4.5266   -2.7521    0.3674 H   0  0  0  0  0  0  0  0  0  0  0  0
   -2.8576   -2.0761    1.5184 C   0  0  0  0  0  0  0  0  0  0  0  0
   -1.9456   -2.7051    2.0404 O   0  0  0  0  0  0  0  0  0  0  0  0
   -2.6926   -0.8481    1.0174 N   0  0  0  0  0  0  0  0  0  0  0  0
   -3.4926   -0.3971    0.5954 H   0  0  0  0  0  0  0  0  0  0  0  0
   -1.4216   -0.1071    1.0434 C   0  0  1  0  0  0  0  0  0  0  0  0
   -0.7579   -0.5878    1.7640 H   0  0  0  0  0  0  0  0  0  0  0  0
   -0.7791   -0.1912   -0.3557 C   0  0  0  0  0  0  0  0  0  0  0  0
   -1.5743   -0.2617   -1.1005 H   0  0  0  0  0  0  0  0  0  0  0  0
   -0.2168    0.7257   -0.5458 H   0  0  0  0  0  0  0  0  0  0  0  0
    0.1528   -1.3994   -0.5289 C   0  0  0  0  0  0  0  0  0  0  0  0
    1.1607   -1.0567   -0.7672 H   0  0  0  0  0  0  0  0  0  0  0  0
    0.1769   -1.9723    0.3986 H   0  0  0  0  0  0  0  0  0  0  0  0
   -0.3567   -2.2931   -1.6678 C   0  0  0  0  0  0  0  0  0  0  0  0
   -1.3757   -2.6096   -1.4335 H   0  0  0  0  0  0  0  0  0  0  0  0
   -0.3729   -1.7065   -2.5894 H   0  0  0  0  0  0  0  0  0  0  0  0
    0.4982   -3.4834   -1.8551 N   0  3  0  0  0  0  0  0  0  0  0  0
    1.3143   -3.5498   -1.2712 H   0  0  0  0  0  0  0  0  0  0  0  0
    0.2917   -4.4665   -2.7153 C   0  0  0  0  0  0  0  0  0  0  0  0
   -0.7345   -4.4801   -3.5191 N   0  0  0  0  0  0  0  0  0  0  0  0
   -1.3890   -3.7188   -3.4809 H   0  0  0  0  0  0  0  0  0  0  0  0
   -0.8762   -5.2337   -4.1662 H   0  0  0  0  0  0  0  0  0  0  0  0
    1.1234   -5.4668   -2.7862 N   0  0  0  0  0  0  0  0  0  0  0  0
    1.9295   -5.5008   -2.1863 H   0  0  0  0  0  0  0  0  0  0  0  0
    0.9629   -6.2106   -3.4401 H   0  0  0  0  0  0  0  0  0  0  0  0
   -1.6547    1.3413    1.4779 C   0  0  0  0  0  0  0  0  0  0  0  0
   -2.5654    1.9858    0.9716 O   0  0  0  0  0  0  0  0  0  0  0  0
   -0.8107    1.8504    2.3808 N   0  0  0  0  0  0  0  0  0  0  0  0
   -0.1136    1.2381    2.7719 H   0  0  0  0  0  0  0  0  0  0  0  0
   -0.8954    3.2155    2.9026 C   0  0  0  0  0  0  0  0  0  0  0  0
   -1.8299    3.3430    3.4532 H   0  0  0  0  0  0  0  0  0  0  0  0
   -0.0581    3.4194    3.5712 H   0  0  0  0  0  0  0  0  0  0  0  0
   -0.8804    3.9320    2.0784 H   0  0  0  0  0  0  0  0  0  0  0  0
  5  6  2  0  0  0  0
  5  7  1  0  0  0  0
  2  3  1  0  0  0  0
  2  4  1  0  0  0  0
  2  5  1  0  0  0  0
  1  2  1  0  0  0  0
 29 30  2  0  0  0  0
 29 31  1  0  0  0  0
 26 27  1  0  0  0  0
 26 28  1  0  0  0  0
 23 24  1  0  0  0  0
 23 25  1  0  0  0  0
 22 23  1  0  0  0  0
 22 26  1  0  0  0  0
 20 21  1  0  0  0  0
 20 22  2  0  0  0  0
 17 18  1  0  0  0  0
 17 19  1  0  0  0  0
 17 20  1  0  0  0  0
 14 15  1  0  0  0  0
 14 16  1  0  0  0  0
 14 17  1  0  0  0  0
 11 12  1  0  0  0  0
 11 13  1  0  0  0  0
 11 14  1  0  0  0  0
  9 10  1  0  0  0  0
  9 11  1  0  0  0  0
  9 29  1  0  0  0  0
  7  8  1  0  0  0  0
  7  9  1  0  0  0  0
 33 34  1  0  0  0  0
 33 35  1  0  0  0  0
 33 36  1  0  0  0  0
 31 32  1  0  0  0  0
 31 33  1  0  0  0  0
M  CHG  1  20   1
M  END
$$$$
default_name
  -OEChem-02102213163D

 36 35  0     1  0  0  0  0  0999 V2000
   -4.2256   -3.6731    1.8584 H   0  0  0  0  0  0  0  0  0  0  0  0
   -4.2396   -2.6781    1.4144 C   0  0  0  0  0  0  0  0  0  0  0  0
   -4.9506   -2.0521    1.9514 H   0  0  0  0  0  0  0  0  0  0  0  0
   -4.5266   -2.7521    0.3674 H   0  0  0  0  0  0  0  0  0  0  0  0
   -2.8576   -2.0761    1.5184 C   0  0  0  0  0  0  0  0  0  0  0  0
   -1.9456   -2.7051    2.0404 O   0  0  0  0  0  0  0  0  0  0  0  0
   -2.6926   -0.8481    1.0174 N   0  0  0  0  0  0  0  0  0  0  0  0
   -3.4926   -0.3971    0.5954 H   0  0  0  0  0  0  0  0  0  0  0  0
   -1.4216   -0.1071    1.0434 C   0  0  1  0  0  0  0  0  0  0  0  0
   -0.7579   -0.5878    1.7640 H   0  0  0  0  0  0  0  0  0  0  0  0
   -0.7791   -0.1912   -0.3557 C   0  0  0  0  0  0  0  0  0  0  0  0
   -1.5743   -0.2617   -1.1005 H   0  0  0  0  0  0  0  0  0  0  0  0
   -0.2168    0.7257   -0.5458 H   0  0  0  0  0  0  0  0  0  0  0  0
    0.1528   -1.3994   -0.5289 C   0  0  0  0  0  0  0  0  0  0  0  0
    1.1925   -1.0703   -0.5014 H   0  0  0  0  0  0  0  0  0  0  0  0
   -0.0221   -2.1088    0.2805 H   0  0  0  0  0  0  0  0  0  0  0  0
   -0.1227   -2.0829   -1.8752 C   0  0  0  0  0  0  0  0  0  0  0  0
   -1.1721   -2.3851   -1.9045 H   0  0  0  0  0  0  0  0  0  0  0  0
    0.0589   -1.3612   -2.6751 H   0  0  0  0  0  0  0  0  0  0  0  0
    0.7370   -3.2678   -2.0746 N   0  3  0  0  0  0  0  0  0  0  0  0
    1.4144   -3.4604   -1.3567 H   0  0  0  0  0  0  0  0  0  0  0  0
    0.6994   -4.0962   -3.1048 C   0  0  0  0  0  0  0  0  0  0  0  0
   -0.1393   -3.9392   -4.0903 N   0  0  0  0  0  0  0  0  0  0  0  0
   -0.7778   -3.1639   -4.0633 H   0  0  0  0  0  0  0  0  0  0  0  0
   -0.1545   -4.5769   -4.8648 H   0  0  0  0  0  0  0  0  0  0  0  0
    1.5148   -5.1104   -3.1660 N   0  0  0  0  0  0  0  0  0  0  0  0
    2.1796   -5.2730   -2.4294 H   0  0  0  0  0  0  0  0  0  0  0  0
    1.4828   -5.7365   -3.9493 H   0  0  0  0  0  0  0  0  0  0  0  0
   -1.6547    1.3413    1.4779 C   0  0  0  0  0  0  0  0  0  0  0  0
   -2.5654    1.9858    0.9716 O   0  0  0  0  0  0  0  0  0  0  0  0
   -0.8107    1.8504    2.3808 N   0  0  0  0  0  0  0  0  0  0  0  0
   -0.1136    1.2381    2.7719 H   0  0  0  0  0  0  0  0  0  0  0  0
   -0.8954    3.2155    2.9026 C   0  0  0  0  0  0  0  0  0  0  0  0
   -1.8299    3.3430    3.4532 H   0  0  0  0  0  0  0  0  0  0  0  0
   -0.0581    3.4194    3.5712 H   0  0  0  0  0  0  0  0  0  0  0  0
   -0.8804    3.9320    2.0784 H   0  0  0  0  0  0  0  0  0  0  0  0
  5  6  2  0  0  0  0
  5  7  1  0  0  0  0
  2  3  1  0  0  0  0
  2  4  1  0  0  0  0
  2  5  1  0  0  0  0
  1  2  1  0  0  0  0
 29 30  2  0  0  0  0
 29 31  1  0  0  0  0
 26 27  1  0  0  0  0
 26 28  1  0  0  0  0
 23 24  1  0  0  0  0
 23 25  1  0  0  0  0
 22 23  1  0  0  0  0
 22 26  1  0  0  0  0
 20 21  1  0  0  0  0
 20 22  2  0  0  0  0
 17 18  1  0  0  0  0
 17 19  1  0  0  0  0
 17 20  1  0  0  0  0
 14 15  1  0  0  0  0
 14 16  1  0  0  0  0
 14 17  1  0  0  0  0
 11 12  1  0  0  0  0
 11 13  1  0  0  0  0
 11 14  1  0  0  0  0
  9 10  1  0  0  0  0
  9 11  1  0  0  0  0
  9 29  1  0  0  0  0
  7  8  1  0  0  0  0
  7  9  1  0  0  0  0
 33 34  1  0  0  0  0
 33 35  1  0  0  0  0
 33 36  1  0  0  0  0
 31 32  1  0  0  0  0
 31 33  1  0  0  0  0
M  CHG  1  20   1
M  END
$$$$
default_name
  -OEChem-02102213163D

 36 35  0     1  0  0  0  0  0999 V2000
   -4.2256   -3.6731    1.8584 H   0  0  0  0  0  0  0  0  0  0  0  0
   -4.2396   -2.6781    1.4144 C   0  0  0  0  0  0  0  0  0  0  0  0
   -4.9506   -2.0521    1.9514 H   0  0  0  0  0  0  0  0  0  0  0  0
   -4.5266   -2.7521    0.3674 H   0  0  0  0  0  0  0  0  0  0  0  0
   -2.8576   -2.0761    1.5184 C   0  0  0  0  0  0  0  0  0  0  0  0
   -1.9456   -2.7051    2.0404 O   0  0  0  0  0  0  0  0  0  0  0  0
   -2.6926   -0.8481    1.0174 N   0  0  0  0  0  0  0  0  0  0  0  0
   -3.4926   -0.3971    0.5954 H   0  0  0  0  0  0  0  0  0  0  0  0
   -1.4216   -0.1071    1.0434 C   0  0  1  0  0  0  0  0  0  0  0  0
   -0.7579   -0.5878    1.7640 H   0  0  0  0  0  0  0  0  0  0  0  0
   -0.7791   -0.1912   -0.3557 C   0  0  0  0  0  0  0  0  0  0  0  0
   -1.5743   -0.2617   -1.1005 H   0  0  0  0  0  0  0  0  0  0  0  0
   -0.2168    0.7257   -0.5458 H   0  0  0  0  0  0  0  0  0  0  0  0
    0.1528   -1.3994   -0.5289 C   0  0  0  0  0  0  0  0  0  0  0  0
    1.1687   -1.1261   -0.2404 H   0  0  0  0  0  0  0  0  0  0  0  0
   -0.1942   -2.2164    0.1045 H   0  0  0  0  0  0  0  0  0  0  0  0
    0.1517   -1.8541   -1.9947 C   0  0  0  0  0  0  0  0  0  0  0  0
   -0.8730   -2.1001   -2.2827 H   0  0  0  0  0  0  0  0  0  0  0  0
    0.5034   -1.0269   -2.6157 H   0  0  0  0  0  0  0  0  0  0  0  0
    1.0186   -3.0320   -2.2041 N   0  3  0  0  0  0  0  0  0  0  0  0
    1.5311   -3.3635   -1.4048 H   0  0  0  0  0  0  0  0  0  0  0  0
    1.1833   -3.6893   -3.3398 C   0  0  0  0  0  0  0  0  0  0  0  0
    0.5676   -3.3444   -4.4359 N   0  0  0  0  0  0  0  0  0  0  0  0
   -0.0526   -2.5543   -4.4142 H   0  0  0  0  0  0  0  0  0  0  0  0
    0.7041   -3.8538   -5.2895 H   0  0  0  0  0  0  0  0  0  0  0  0
    1.9806   -4.7180   -3.3972 N   0  0  0  0  0  0  0  0  0  0  0  0
    2.4773   -5.0222   -2.5776 H   0  0  0  0  0  0  0  0  0  0  0  0
    2.1026   -5.2138   -4.2608 H   0  0  0  0  0  0  0  0  0  0  0  0
   -1.6547    1.3413    1.4779 C   0  0  0  0  0  0  0  0  0  0  0  0
   -2.5654    1.9858    0.9716 O   0  0  0  0  0  0  0  0  0  0  0  0
   -0.8107    1.8504    2.3808 N   0  0  0  0  0  0  0  0  0  0  0  0
   -0.1136    1.2381    2.7719 H   0  0  0  0  0  0  0  0  0  0  0  0
   -0.8954    3.2155    2.9026 C   0  0  0  0  0  0  0  0  0  0  0  0
   -1.8299    3.3430    3.4532 H   0  0  0  0  0  0  0  0  0  0  0  0
   -0.0581    3.4194    3.5712 H   0  0  0  0  0  0  0  0  0  0  0  0
   -0.8804    3.9320    2.0784 H   0  0  0  0  0  0  0  0  0  0  0  0
  5  6  2  0  0  0  0
  5  7  1  0  0  0  0
  2  3  1  0  0  0  0
  2  4  1  0  0  0  0
  2  5  1  0  0  0  0
  1  2  1  0  0  0  0
 29 30  2  0  0  0  0
 29 31  1  0  0  0  0
 26 27  1  0  0  0  0
 26 28  1  0  0  0  0
 23 24  1  0  0  0  0
 23 25  1  0  0  0  0
 22 23  1  0  0  0  0
 22 26  1  0  0  0  0
 20 21  1  0  0  0  0
 20 22  2  0  0  0  0
 17 18  1  0  0  0  0
 17 19  1  0  0  0  0
 17 20  1  0  0  0  0
 14 15  1  0  0  0  0
 14 16  1  0  0  0  0
 14 17  1  0  0  0  0
 11 12  1  0  0  0  0
 11 13  1  0  0  0  0
 11 14  1  0  0  0  0
  9 10  1  0  0  0  0
  9 11  1  0  0  0  0
  9 29  1  0  0  0  0
  7  8  1  0  0  0  0
  7  9  1  0  0  0  0
 33 34  1  0  0  0  0
 33 35  1  0  0  0  0
 33 36  1  0  0  0  0
 31 32  1  0  0  0  0
 31 33  1  0  0  0  0
M  CHG  1  20   1
M  END
$$$$
default_name
  -OEChem-02102213163D

 36 35  0     1  0  0  0  0  0999 V2000
   -4.2256   -3.6731    1.8584 H   0  0  0  0  0  0  0  0  0  0  0  0
   -4.2396   -2.6781    1.4144 C   0  0  0  0  0  0  0  0  0  0  0  0
   -4.9506   -2.0521    1.9514 H   0  0  0  0  0  0  0  0  0  0  0  0
   -4.5266   -2.7521    0.3674 H   0  0  0  0  0  0  0  0  0  0  0  0
   -2.8576   -2.0761    1.5184 C   0  0  0  0  0  0  0  0  0  0  0  0
   -1.9456   -2.7051    2.0404 O   0  0  0  0  0  0  0  0  0  0  0  0
   -2.6926   -0.8481    1.0174 N   0  0  0  0  0  0  0  0  0  0  0  0
   -3.4926   -0.3971    0.5954 H   0  0  0  0  0  0  0  0  0  0  0  0
   -1.4216   -0.1071    1.0434 C   0  0  1  0  0  0  0  0  0  0  0  0
   -0.7579   -0.5878    1.7640 H   0  0  0  0  0  0  0  0  0  0  0  0
   -0.7791   -0.1912   -0.3557 C   0  0  0  0  0  0  0  0  0  0  0  0
   -1.5743   -0.2617   -1.1005 H   0  0  0  0  0  0  0  0  0  0  0  0
   -0.2168    0.7257   -0.5458 H   0  0  0  0  0  0  0  0  0  0  0  0
    0.1528   -1.3994   -0.5289 C   0  0  0  0  0  0  0  0  0  0  0  0
    1.0909   -1.2203   -0.0018 H   0  0  0  0  0  0  0  0  0  0  0  0
   -0.3278   -2.2875   -0.1174 H   0  0  0  0  0  0  0  0  0  0  0  0
    0.4477   -1.6224   -2.0185 C   0  0  0  0  0  0  0  0  0  0  0  0
   -0.4988   -1.7743   -2.5424 H   0  0  0  0  0  0  0  0  0  0  0  0
    0.9305   -0.7262   -2.4153 H   0  0  0  0  0  0  0  0  0  0  0  0
    1.3239   -2.7921   -2.2348 N   0  3  0  0  0  0  0  0  0  0  0  0
    1.6564   -3.2657   -1.4123 H   0  0  0  0  0  0  0  0  0  0  0  0
    1.7104   -3.2734   -3.4044 C   0  0  0  0  0  0  0  0  0  0  0  0
    1.3382   -2.7362   -4.5323 N   0  0  0  0  0  0  0  0  0  0  0  0
    0.7371   -1.9314   -4.5097 H   0  0  0  0  0  0  0  0  0  0  0  0
    1.6410   -3.1137   -5.4113 H   0  0  0  0  0  0  0  0  0  0  0  0
    2.4891   -4.3162   -3.4641 N   0  0  0  0  0  0  0  0  0  0  0  0
    2.8024   -4.7653   -2.6207 H   0  0  0  0  0  0  0  0  0  0  0  0
    2.7800   -4.6781   -4.3534 H   0  0  0  0  0  0  0  0  0  0  0  0
   -1.6547    1.3413    1.4779 C   0  0  0  0  0  0  0  0  0  0  0  0
   -2.5654    1.9858    0.9716 O   0  0  0  0  0  0  0  0  0  0  0  0
   -0.8107    1.8504    2.3808 N   0  0  0  0  0  0  0  0  0  0  0  0
   -0.1136    1.2381    2.7719 H   0  0  0  0  0  0  0  0  0  0  0  0
   -0.8954    3.2155    2.9026 C   0  0  0  0  0  0  0  0  0  0  0  0
   -1.8299    3.3430    3.4532 H   0  0  0  0  0  0  0  0  0  0  0  0
   -0.0581    3.4194    3.5712 H   0  0  0  0  0  0  0  0  0  0  0  0
   -0.8804    3.9320    2.0784 H   0  0  0  0  0  0  0  0  0  0  0  0
  5  6  2  0  0  0  0
  5  7  1  0  0  0  0
  2  3  1  0  0  0  0
  2  4  1  0  0  0  0
  2  5  1  0  0  0  0
  1  2  1  0  0  0  0
 29 30  2  0  0  0  0
 29 31  1  0  0  0  0
 26 27  1  0  0  0  0
 26 28  1  0  0  0  0
 23 24  1  0  0  0  0
 23 25  1  0  0  0  0
 22 23  1  0  0  0  0
 22 26  1  0  0  0  0
 20 21  1  0  0  0  0
 20 22  2  0  0  0  0
 17 18  1  0  0  0  0
 17 19  1  0  0  0  0
 17 20  1  0  0  0  0
 14 15  1  0  0  0  0
 14 16  1  0  0  0  0
 14 17  1  0  0  0  0
 11 12  1  0  0  0  0
 11 13  1  0  0  0  0
 11 14  1  0  0  0  0
  9 10  1  0  0  0  0
  9 11  1  0  0  0  0
  9 29  1  0  0  0  0
  7  8  1  0  0  0  0
  7  9  1  0  0  0  0
 33 34  1  0  0  0  0
 33 35  1  0  0  0  0
 33 36  1  0  0  0  0
 31 32  1  0  0  0  0
 31 33  1  0  0  0  0
M  CHG  1  20   1
M  END
$$$$
default_name
  -OEChem-02102213163D

 36 35  0     1  0  0  0  0  0999 V2000
   -4.2256   -3.6731    1.8584 H   0  0  0  0  0  0  0  0  0  0  0  0
   -4.2396   -2.6781    1.4144 C   0  0  0  0  0  0  0  0  0  0  0  0
   -4.9506   -2.0521    1.9514 H   0  0  0  0  0  0  0  0  0  0  0  0
   -4.5266   -2.7521    0.3674 H   0  0  0  0  0  0  0  0  0  0  0  0
   -2.8576   -2.0761    1.5184 C   0  0  0  0  0  0  0  0  0  0  0  0
   -1.9456   -2.7051    2.0404 O   0  0  0  0  0  0  0  0  0  0  0  0
   -2.6926   -0.8481    1.0174 N   0  0  0  0  0  0  0  0  0  0  0  0
   -3.4926   -0.3971    0.5954 H   0  0  0  0  0  0  0  0  0  0  0  0
   -1.4216   -0.1071    1.0434 C   0  0  1  0  0  0  0  0  0  0  0  0
   -0.7579   -0.5878    1.7640 H   0  0  0  0  0  0  0  0  0  0  0  0
   -0.7791   -0.1912   -0.3557 C   0  0  0  0  0  0  0  0  0  0  0  0
   -1.5484    0.0072   -1.1047 H   0  0  0  0  0  0  0  0  0  0  0  0
   -0.0129    0.5822   -0.4436 H   0  0  0  0  0  0  0  0  0  0  0  0
   -0.1516   -1.5595   -0.6591 C   0  0  0  0  0  0  0  0  0  0  0  0
    0.6300   -1.7768    0.0702 H   0  0  0  0  0  0  0  0  0  0  0  0
   -0.9213   -2.3299   -0.6026 H   0  0  0  0  0  0  0  0  0  0  0  0
    0.4615   -1.5528   -2.0660 C   0  0  0  0  0  0  0  0  0  0  0  0
   -0.3223   -1.3082   -2.7867 H   0  0  0  0  0  0  0  0  0  0  0  0
    1.2313   -0.7786   -2.1061 H   0  0  0  0  0  0  0  0  0  0  0  0
    1.0574   -2.8600   -2.4108 N   0  3  0  0  0  0  0  0  0  0  0  0
    1.0392   -3.5673   -1.6961 H   0  0  0  0  0  0  0  0  0  0  0  0
    1.6104   -3.1863   -3.5669 C   0  0  0  0  0  0  0  0  0  0  0  0
    1.6868   -2.3459   -4.5605 N   0  0  0  0  0  0  0  0  0  0  0  0
    1.3115   -1.4215   -4.4421 H   0  0  0  0  0  0  0  0  0  0  0  0
    2.1101   -2.6096   -5.4312 H   0  0  0  0  0  0  0  0  0  0  0  0
    2.1044   -4.3780   -3.7490 N   0  0  0  0  0  0  0  0  0  0  0  0
    2.0686   -5.0609   -3.0119 H   0  0  0  0  0  0  0  0  0  0  0  0
    2.5230   -4.6215   -4.6277 H   0  0  0  0  0  0  0  0  0  0  0  0
   -1.6547    1.3413    1.4779 C   0  0  0  0  0  0  0  0  0  0  0  0
   -2.5654    1.9858    0.9716 O   0  0  0  0  0  0  0  0  0  0  0  0
   -0.8107    1.8504    2.3808 N   0  0  0  0  0  0  0  0  0  0  0  0
   -0.1136    1.2381    2.7719 H   0  0  0  0  0  0  0  0  0  0  0  0
   -0.8954    3.2155    2.9026 C   0  0  0  0  0  0  0  0  0  0  0  0
   -1.8299    3.3430    3.4532 H   0  0  0  0  0  0  0  0  0  0  0  0
   -0.0581    3.4194    3.5712 H   0  0  0  0  0  0  0  0  0  0  0  0
   -0.8804    3.9320    2.0784 H   0  0  0  0  0  0  0  0  0  0  0  0
  5  6  2  0  0  0  0
  5  7  1  0  0  0  0
  2  3  1  0  0  0  0
  2  4  1  0  0  0  0
  2  5  1  0  0  0  0
  1  2  1  0  0  0  0
 29 30  2  0  0  0  0
 29 31  1  0  0  0  0
 26 27  1  0  0  0  0
 26 28  1  0  0  0  0
 23 24  1  0  0  0  0
 23 25  1  0  0  0  0
 22 23  1  0  0  0  0
 22 26  1  0  0  0  0
 20 21  1  0  0  0  0
 20 22  2  0  0  0  0
 17 18  1  0  0  0  0
 17 19  1  0  0  0  0
 17 20  1  0  0  0  0
 14 15  1  0  0  0  0
 14 16  1  0  0  0  0
 14 17  1  0  0  0  0
 11 12  1  0  0  0  0
 11 13  1  0  0  0  0
 11 14  1  0  0  0  0
  9 10  1  0  0  0  0
  9 11  1  0  0  0  0
  9 29  1  0  0  0  0
  7  8  1  0  0  0  0
  7  9  1  0  0  0  0
 33 34  1  0  0  0  0
 33 35  1  0  0  0  0
 33 36  1  0  0  0  0
 31 32  1  0  0  0  0
 31 33  1  0  0  0  0
M  CHG  1  20   1
M  END
$$$$
default_name
  -OEChem-02102213163D

 36 35  0     1  0  0  0  0  0999 V2000
   -4.2256   -3.6731    1.8584 H   0  0  0  0  0  0  0  0  0  0  0  0
   -4.2396   -2.6781    1.4144 C   0  0  0  0  0  0  0  0  0  0  0  0
   -4.9506   -2.0521    1.9514 H   0  0  0  0  0  0  0  0  0  0  0  0
   -4.5266   -2.7521    0.3674 H   0  0  0  0  0  0  0  0  0  0  0  0
   -2.8576   -2.0761    1.5184 C   0  0  0  0  0  0  0  0  0  0  0  0
   -1.9456   -2.7051    2.0404 O   0  0  0  0  0  0  0  0  0  0  0  0
   -2.6926   -0.8481    1.0174 N   0  0  0  0  0  0  0  0  0  0  0  0
   -3.4926   -0.3971    0.5954 H   0  0  0  0  0  0  0  0  0  0  0  0
   -1.4216   -0.1071    1.0434 C   0  0  1  0  0  0  0  0  0  0  0  0
   -0.7579   -0.5878    1.7640 H   0  0  0  0  0  0  0  0  0  0  0  0
   -0.7791   -0.1912   -0.3557 C   0  0  0  0  0  0  0  0  0  0  0  0
   -1.5484    0.0072   -1.1047 H   0  0  0  0  0  0  0  0  0  0  0  0
   -0.0129    0.5822   -0.4436 H   0  0  0  0  0  0  0  0  0  0  0  0
   -0.1516   -1.5595   -0.6591 C   0  0  0  0  0  0  0  0  0  0  0  0
    0.4292   -1.8977    0.2002 H   0  0  0  0  0  0  0  0  0  0  0  0
   -0.9425   -2.2812   -0.8659 H   0  0  0  0  0  0  0  0  0  0  0  0
    0.7727   -1.4514   -1.8795 C   0  0  0  0  0  0  0  0  0  0  0  0
    0.1888   -1.0869   -2.7278 H   0  0  0  0  0  0  0  0  0  0  0  0
    1.5600   -0.7276   -1.6563 H   0  0  0  0  0  0  0  0  0  0  0  0
    1.3815   -2.7529   -2.2232 N   0  3  0  0  0  0  0  0  0  0  0  0
    1.1696   -3.5254   -1.6152 H   0  0  0  0  0  0  0  0  0  0  0  0
    2.1760   -2.9968   -3.2520 C   0  0  0  0  0  0  0  0  0  0  0  0
    2.5147   -2.0680   -4.1017 N   0  0  0  0  0  0  0  0  0  0  0  0
    2.1582   -1.1381   -3.9694 H   0  0  0  0  0  0  0  0  0  0  0  0
    3.1189   -2.2698   -4.8770 H   0  0  0  0  0  0  0  0  0  0  0  0
    2.6523   -4.1933   -3.4487 N   0  0  0  0  0  0  0  0  0  0  0  0
    2.4191   -4.9427   -2.8203 H   0  0  0  0  0  0  0  0  0  0  0  0
    3.2547   -4.3740   -4.2305 H   0  0  0  0  0  0  0  0  0  0  0  0
   -1.6547    1.3413    1.4779 C   0  0  0  0  0  0  0  0  0  0  0  0
   -2.5654    1.9858    0.9716 O   0  0  0  0  0  0  0  0  0  0  0  0
   -0.8107    1.8504    2.3808 N   0  0  0  0  0  0  0  0  0  0  0  0
   -0.1136    1.2381    2.7719 H   0  0  0  0  0  0  0  0  0  0  0  0
   -0.8954    3.2155    2.9026 C   0  0  0  0  0  0  0  0  0  0  0  0
   -1.8299    3.3430    3.4532 H   0  0  0  0  0  0  0  0  0  0  0  0
   -0.0581    3.4194    3.5712 H   0  0  0  0  0  0  0  0  0  0  0  0
   -0.8804    3.9320    2.0784 H   0  0  0  0  0  0  0  0  0  0  0  0
  5  6  2  0  0  0  0
  5  7  1  0  0  0  0
  2  3  1  0  0  0  0
  2  4  1  0  0  0  0
  2  5  1  0  0  0  0
  1  2  1  0  0  0  0
 29 30  2  0  0  0  0
 29 31  1  0  0  0  0
 26 27  1  0  0  0  0
 26 28  1  0  0  0  0
 23 24  1  0  0  0  0
 23 25  1  0  0  0  0
 22 23  1  0  0  0  0
 22 26  1  0  0  0  0
 20 21  1  0  0  0  0
 20 22  2  0  0  0  0
 17 18  1  0  0  0  0
 17 19  1  0  0  0  0
 17 20  1  0  0  0  0
 14 15  1  0  0  0  0
 14 16  1  0  0  0  0
 14 17  1  0  0  0  0
 11 12  1  0  0  0  0
 11 13  1  0  0  0  0
 11 14  1  0  0  0  0
  9 10  1  0  0  0  0
  9 11  1  0  0  0  0
  9 29  1  0  0  0  0
  7  8  1  0  0  0  0
  7  9  1  0  0  0  0
 33 34  1  0  0  0  0
 33 35  1  0  0  0  0
 33 36  1  0  0  0  0
 31 32  1  0  0  0  0
 31 33  1  0  0  0  0
M  CHG  1  20   1
M  END
$$$$
default_name
  -OEChem-02102213163D

 36 35  0     1  0  0  0  0  0999 V2000
   -4.2256   -3.6731    1.8584 H   0  0  0  0  0  0  0  0  0  0  0  0
   -4.2396   -2.6781    1.4144 C   0  0  0  0  0  0  0  0  0  0  0  0
   -4.9506   -2.0521    1.9514 H   0  0  0  0  0  0  0  0  0  0  0  0
   -4.5266   -2.7521    0.3674 H   0  0  0  0  0  0  0  0  0  0  0  0
   -2.8576   -2.0761    1.5184 C   0  0  0  0  0  0  0  0  0  0  0  0
   -1.9456   -2.7051    2.0404 O   0  0  0  0  0  0  0  0  0  0  0  0
   -2.6926   -0.8481    1.0174 N   0  0  0  0  0  0  0  0  0  0  0  0
   -3.4926   -0.3971    0.5954 H   0  0  0  0  0  0  0  0  0  0  0  0
   -1.4216   -0.1071    1.0434 C   0  0  1  0  0  0  0  0  0  0  0  0
   -0.7579   -0.5878    1.7640 H   0  0  0  0  0  0  0  0  0  0  0  0
   -0.7791   -0.1912   -0.3557 C   0  0  0  0  0  0  0  0  0  0  0  0
   -1.5484    0.0072   -1.1047 H   0  0  0  0  0  0  0  0  0  0  0  0
   -0.0129    0.5822   -0.4436 H   0  0  0  0  0  0  0  0  0  0  0  0
   -0.1516   -1.5595   -0.6591 C   0  0  0  0  0  0  0  0  0  0  0  0
    0.1991   -2.0180    0.2666 H   0  0  0  0  0  0  0  0  0  0  0  0
   -0.8997   -2.2052   -1.1200 H   0  0  0  0  0  0  0  0  0  0  0  0
    1.0354   -1.3892   -1.6169 C   0  0  0  0  0  0  0  0  0  0  0  0
    0.6803   -0.9055   -2.5297 H   0  0  0  0  0  0  0  0  0  0  0  0
    1.7764   -0.7427   -1.1407 H   0  0  0  0  0  0  0  0  0  0  0  0
    1.6568   -2.6859   -1.9560 N   0  3  0  0  0  0  0  0  0  0  0  0
    1.2791   -3.5002   -1.5025 H   0  0  0  0  0  0  0  0  0  0  0  0
    2.6594   -2.8759   -2.7974 C   0  0  0  0  0  0  0  0  0  0  0  0
    3.2227   -1.8904   -3.4382 N   0  0  0  0  0  0  0  0  0  0  0  0
    2.8815   -0.9575   -3.2876 H   0  0  0  0  0  0  0  0  0  0  0  0
    3.9829   -2.0519   -4.0730 H   0  0  0  0  0  0  0  0  0  0  0  0
    3.1218   -4.0747   -3.0128 N   0  0  0  0  0  0  0  0  0  0  0  0
    2.7194   -4.8667   -2.5418 H   0  0  0  0  0  0  0  0  0  0  0  0
    3.8824   -4.2144   -3.6519 H   0  0  0  0  0  0  0  0  0  0  0  0
   -1.6547    1.3413    1.4779 C   0  0  0  0  0  0  0  0  0  0  0  0
   -2.5654    1.9858    0.9716 O   0  0  0  0  0  0  0  0  0  0  0  0
   -0.8107    1.8504    2.3808 N   0  0  0  0  0  0  0  0  0  0  0  0
   -0.1136    1.2381    2.7719 H   0  0  0  0  0  0  0  0  0  0  0  0
   -0.8954    3.2155    2.9026 C   0  0  0  0  0  0  0  0  0  0  0  0
   -1.8299    3.3430    3.4532 H   0  0  0  0  0  0  0  0  0  0  0  0
   -0.0581    3.4194    3.5712 H   0  0  0  0  0  0  0  0  0  0  0  0
   -0.8804    3.9320    2.0784 H   0  0  0  0  0  0  0  0  0  0  0  0
  5  6  2  0  0  0  0
  5  7  1  0  0  0  0
  2  3  1  0  0  0  0
  2  4  1  0  0  0  0
  2  5  1  0  0  0  0
  1  2  1  0  0  0  0
 29 30  2  0  0  0  0
 29 31  1  0  0  0  0
 26 27  1  0  0  0  0
 26 28  1  0  0  0  0
 23 24  1  0  0  0  0
 23 25  1  0  0  0  0
 22 23  1  0  0  0  0
 22 26  1  0  0  0  0
 20 21  1  0  0  0  0
 20 22  2  0  0  0  0
 17 18  1  0  0  0  0
 17 19  1  0  0  0  0
 17 20  1  0  0  0  0
 14 15  1  0  0  0  0
 14 16  1  0  0  0  0
 14 17  1  0  0  0  0
 11 12  1  0  0  0  0
 11 13  1  0  0  0  0
 11 14  1  0  0  0  0
  9 10  1  0  0  0  0
  9 11  1  0  0  0  0
  9 29  1  0  0  0  0
  7  8  1  0  0  0  0
  7  9  1  0  0  0  0
 33 34  1  0  0  0  0
 33 35  1  0  0  0  0
 33 36  1  0  0  0  0
 31 32  1  0  0  0  0
 31 33  1  0  0  0  0
M  CHG  1  20   1
M  END
$$$$
default_name
  -OEChem-02102213163D

 36 35  0     1  0  0  0  0  0999 V2000
   -4.2256   -3.6731    1.8584 H   0  0  0  0  0  0  0  0  0  0  0  0
   -4.2396   -2.6781    1.4144 C   0  0  0  0  0  0  0  0  0  0  0  0
   -4.9506   -2.0521    1.9514 H   0  0  0  0  0  0  0  0  0  0  0  0
   -4.5266   -2.7521    0.3674 H   0  0  0  0  0  0  0  0  0  0  0  0
   -2.8576   -2.0761    1.5184 C   0  0  0  0  0  0  0  0  0  0  0  0
   -1.9456   -2.7051    2.0404 O   0  0  0  0  0  0  0  0  0  0  0  0
   -2.6926   -0.8481    1.0174 N   0  0  0  0  0  0  0  0  0  0  0  0
   -3.4926   -0.3971    0.5954 H   0  0  0  0  0  0  0  0  0  0  0  0
   -1.4216   -0.1071    1.0434 C   0  0  1  0  0  0  0  0  0  0  0  0
   -0.7579   -0.5878    1.7640 H   0  0  0  0  0  0  0  0  0  0  0  0
   -0.7791   -0.1912   -0.3557 C   0  0  0  0  0  0  0  0  0  0  0  0
   -1.5484    0.0072   -1.1047 H   0  0  0  0  0  0  0  0  0  0  0  0
   -0.0129    0.5822   -0.4436 H   0  0  0  0  0  0  0  0  0  0  0  0
   -0.1516   -1.5595   -0.6591 C   0  0  0  0  0  0  0  0  0  0  0  0
   -0.0446   -2.1294    0.2650 H   0  0  0  0  0  0  0  0  0  0  0  0
   -0.7959   -2.1072   -1.3476 H   0  0  0  0  0  0  0  0  0  0  0  0
    1.2319   -1.3702   -1.2960 C   0  0  0  0  0  0  0  0  0  0  0  0
    1.1186   -0.7763   -2.2058 H   0  0  0  0  0  0  0  0  0  0  0  0
    1.8657   -0.8229   -0.5943 H   0  0  0  0  0  0  0  0  0  0  0  0
    1.8645   -2.6636   -1.6274 N   0  3  0  0  0  0  0  0  0  0  0  0
    1.3602   -3.4933   -1.3658 H   0  0  0  0  0  0  0  0  0  0  0  0
    3.0276   -2.8320   -2.2339 C   0  0  0  0  0  0  0  0  0  0  0  0
    3.7627   -1.8253   -2.6153 N   0  0  0  0  0  0  0  0  0  0  0  0
    3.4322   -0.8923   -2.4431 H   0  0  0  0  0  0  0  0  0  0  0  0
    4.6432   -1.9706   -3.0741 H   0  0  0  0  0  0  0  0  0  0  0  0
    3.4808   -4.0302   -2.4709 N   0  0  0  0  0  0  0  0  0  0  0  0
    2.9493   -4.8381   -2.1956 H   0  0  0  0  0  0  0  0  0  0  0  0
    4.3636   -4.1535   -2.9314 H   0  0  0  0  0  0  0  0  0  0  0  0
   -1.6547    1.3413    1.4779 C   0  0  0  0  0  0  0  0  0  0  0  0
   -2.5654    1.9858    0.9716 O   0  0  0  0  0  0  0  0  0  0  0  0
   -0.8107    1.8504    2.3808 N   0  0  0  0  0  0  0  0  0  0  0  0
   -0.1136    1.2381    2.7719 H   0  0  0  0  0  0  0  0  0  0  0  0
   -0.8954    3.2155    2.9026 C   0  0  0  0  0  0  0  0  0  0  0  0
   -1.8299    3.3430    3.4532 H   0  0  0  0  0  0  0  0  0  0  0  0
   -0.0581    3.4194    3.5712 H   0  0  0  0  0  0  0  0  0  0  0  0
   -0.8804    3.9320    2.0784 H   0  0  0  0  0  0  0  0  0  0  0  0
  5  6  2  0  0  0  0
  5  7  1  0  0  0  0
  2  3  1  0  0  0  0
  2  4  1  0  0  0  0
  2  5  1  0  0  0  0
  1  2  1  0  0  0  0
 29 30  2  0  0  0  0
 29 31  1  0  0  0  0
 26 27  1  0  0  0  0
 26 28  1  0  0  0  0
 23 24  1  0  0  0  0
 23 25  1  0  0  0  0
 22 23  1  0  0  0  0
 22 26  1  0  0  0  0
 20 21  1  0  0  0  0
 20 22  2  0  0  0  0
 17 18  1  0  0  0  0
 17 19  1  0  0  0  0
 17 20  1  0  0  0  0
 14 15  1  0  0  0  0
 14 16  1  0  0  0  0
 14 17  1  0  0  0  0
 11 12  1  0  0  0  0
 11 13  1  0  0  0  0
 11 14  1  0  0  0  0
  9 10  1  0  0  0  0
  9 11  1  0  0  0  0
  9 29  1  0  0  0  0
  7  8  1  0  0  0  0
  7  9  1  0  0  0  0
 33 34  1  0  0  0  0
 33 35  1  0  0  0  0
 33 36  1  0  0  0  0
 31 32  1  0  0  0  0
 31 33  1  0  0  0  0
M  CHG  1  20   1
M  END
$$$$
default_name
  -OEChem-02102213163D

 36 35  0     1  0  0  0  0  0999 V2000
   -4.2256   -3.6731    1.8584 H   0  0  0  0  0  0  0  0  0  0  0  0
   -4.2396   -2.6781    1.4144 C   0  0  0  0  0  0  0  0  0  0  0  0
   -4.9506   -2.0521    1.9514 H   0  0  0  0  0  0  0  0  0  0  0  0
   -4.5266   -2.7521    0.3674 H   0  0  0  0  0  0  0  0  0  0  0  0
   -2.8576   -2.0761    1.5184 C   0  0  0  0  0  0  0  0  0  0  0  0
   -1.9456   -2.7051    2.0404 O   0  0  0  0  0  0  0  0  0  0  0  0
   -2.6926   -0.8481    1.0174 N   0  0  0  0  0  0  0  0  0  0  0  0
   -3.4926   -0.3971    0.5954 H   0  0  0  0  0  0  0  0  0  0  0  0
   -1.4216   -0.1071    1.0434 C   0  0  1  0  0  0  0  0  0  0  0  0
   -0.7579   -0.5878    1.7640 H   0  0  0  0  0  0  0  0  0  0  0  0
   -0.7791   -0.1912   -0.3557 C   0  0  0  0  0  0  0  0  0  0  0  0
   -1.5484    0.0072   -1.1047 H   0  0  0  0  0  0  0  0  0  0  0  0
   -0.0129    0.5822   -0.4436 H   0  0  0  0  0  0  0  0  0  0  0  0
   -0.1516   -1.5595   -0.6591 C   0  0  0  0  0  0  0  0  0  0  0  0
   -0.2854   -2.2244    0.1954 H   0  0  0  0  0  0  0  0  0  0  0  0
   -0.6382   -1.9937   -1.5330 H   0  0  0  0  0  0  0  0  0  0  0  0
    1.3486   -1.3959   -0.9387 C   0  0  0  0  0  0  0  0  0  0  0  0
    1.4738   -0.7082   -1.7782 H   0  0  0  0  0  0  0  0  0  0  0  0
    1.8218   -0.9627   -0.0544 H   0  0  0  0  0  0  0  0  0  0  0  0
    1.9905   -2.6873   -1.2596 N   0  3  0  0  0  0  0  0  0  0  0  0
    1.4073   -3.5053   -1.2142 H   0  0  0  0  0  0  0  0  0  0  0  0
    3.2556   -2.8680   -1.6001 C   0  0  0  0  0  0  0  0  0  0  0  0
    4.0978   -1.8770   -1.6890 N   0  0  0  0  0  0  0  0  0  0  0  0
    3.7726   -0.9467   -1.4935 H   0  0  0  0  0  0  0  0  0  0  0  0
    5.0548   -2.0315   -1.9483 H   0  0  0  0  0  0  0  0  0  0  0  0
    3.7048   -4.0630   -1.8600 N   0  0  0  0  0  0  0  0  0  0  0  0
    3.0928   -4.8588   -1.8051 H   0  0  0  0  0  0  0  0  0  0  0  0
    4.6652   -4.1956   -2.1180 H   0  0  0  0  0  0  0  0  0  0  0  0
   -1.6547    1.3413    1.4779 C   0  0  0  0  0  0  0  0  0  0  0  0
   -2.5654    1.9858    0.9716 O   0  0  0  0  0  0  0  0  0  0  0  0
   -0.8107    1.8504    2.3808 N   0  0  0  0  0  0  0  0  0  0  0  0
   -0.1136    1.2381    2.7719 H   0  0  0  0  0  0  0  0  0  0  0  0
   -0.8954    3.2155    2.9026 C   0  0  0  0  0  0  0  0  0  0  0  0
   -1.8299    3.3430    3.4532 H   0  0  0  0  0  0  0  0  0  0  0  0
   -0.0581    3.4194    3.5712 H   0  0  0  0  0  0  0  0  0  0  0  0
   -0.8804    3.9320    2.0784 H   0  0  0  0  0  0  0  0  0  0  0  0
  5  6  2  0  0  0  0
  5  7  1  0  0  0  0
  2  3  1  0  0  0  0
  2  4  1  0  0  0  0
  2  5  1  0  0  0  0
  1  2  1  0  0  0  0
 29 30  2  0  0  0  0
 29 31  1  0  0  0  0
 26 27  1  0  0  0  0
 26 28  1  0  0  0  0
 23 24  1  0  0  0  0
 23 25  1  0  0  0  0
 22 23  1  0  0  0  0
 22 26  1  0  0  0  0
 20 21  1  0  0  0  0
 20 22  2  0  0  0  0
 17 18  1  0  0  0  0
 17 19  1  0  0  0  0
 17 20  1  0  0  0  0
 14 15  1  0  0  0  0
 14 16  1  0  0  0  0
 14 17  1  0  0  0  0
 11 12  1  0  0  0  0
 11 13  1  0  0  0  0
 11 14  1  0  0  0  0
  9 10  1  0  0  0  0
  9 11  1  0  0  0  0
  9 29  1  0  0  0  0
  7  8  1  0  0  0  0
  7  9  1  0  0  0  0
 33 34  1  0  0  0  0
 33 35  1  0  0  0  0
 33 36  1  0  0  0  0
 31 32  1  0  0  0  0
 31 33  1  0  0  0  0
M  CHG  1  20   1
M  END
$$$$
default_name
  -OEChem-02102213163D

 36 35  0     1  0  0  0  0  0999 V2000
   -4.2256   -3.6731    1.8584 H   0  0  0  0  0  0  0  0  0  0  0  0
   -4.2396   -2.6781    1.4144 C   0  0  0  0  0  0  0  0  0  0  0  0
   -4.9506   -2.0521    1.9514 H   0  0  0  0  0  0  0  0  0  0  0  0
   -4.5266   -2.7521    0.3674 H   0  0  0  0  0  0  0  0  0  0  0  0
   -2.8576   -2.0761    1.5184 C   0  0  0  0  0  0  0  0  0  0  0  0
   -1.9456   -2.7051    2.0404 O   0  0  0  0  0  0  0  0  0  0  0  0
   -2.6926   -0.8481    1.0174 N   0  0  0  0  0  0  0  0  0  0  0  0
   -3.4926   -0.3971    0.5954 H   0  0  0  0  0  0  0  0  0  0  0  0
   -1.4216   -0.1071    1.0434 C   0  0  1  0  0  0  0  0  0  0  0  0
   -0.7579   -0.5878    1.7640 H   0  0  0  0  0  0  0  0  0  0  0  0
   -0.7791   -0.1912   -0.3557 C   0  0  0  0  0  0  0  0  0  0  0  0
   -1.5484    0.0072   -1.1047 H   0  0  0  0  0  0  0  0  0  0  0  0
   -0.0129    0.5822   -0.4436 H   0  0  0  0  0  0  0  0  0  0  0  0
   -0.1516   -1.5595   -0.6591 C   0  0  0  0  0  0  0  0  0  0  0  0
   -0.5067   -2.2964    0.0627 H   0  0  0  0  0  0  0  0  0  0  0  0
   -0.4372   -1.8725   -1.6638 H   0  0  0  0  0  0  0  0  0  0  0  0
    1.3776   -1.4645   -0.5694 C   0  0  0  0  0  0  0  0  0  0  0  0
    1.7218   -0.7058   -1.2760 H   0  0  0  0  0  0  0  0  0  0  0  0
    1.6478   -1.1526    0.4422 H   0  0  0  0  0  0  0  0  0  0  0  0
    2.0262   -2.7556   -0.8779 N   0  3  0  0  0  0  0  0  0  0  0  0
    1.4172   -3.5353   -1.0583 H   0  0  0  0  0  0  0  0  0  0  0  0
    3.3278   -2.9814   -0.9391 C   0  0  0  0  0  0  0  0  0  0  0  0
    4.2053   -2.0420   -0.7224 N   0  0  0  0  0  0  0  0  0  0  0  0
    3.8797   -1.1171   -0.5034 H   0  0  0  0  0  0  0  0  0  0  0  0
    5.1896   -2.2304   -0.7725 H   0  0  0  0  0  0  0  0  0  0  0  0
    3.7787   -4.1706   -1.2217 N   0  0  0  0  0  0  0  0  0  0  0  0
    3.1404   -4.9275   -1.3969 H   0  0  0  0  0  0  0  0  0  0  0  0
    4.7669   -4.3376   -1.2672 H   0  0  0  0  0  0  0  0  0  0  0  0
   -1.6547    1.3413    1.4779 C   0  0  0  0  0  0  0  0  0  0  0  0
   -2.5654    1.9858    0.9716 O   0  0  0  0  0  0  0  0  0  0  0  0
   -0.8107    1.8504    2.3808 N   0  0  0  0  0  0  0  0  0  0  0  0
   -0.1136    1.2381    2.7719 H   0  0  0  0  0  0  0  0  0  0  0  0
   -0.8954    3.2155    2.9026 C   0  0  0  0  0  0  0  0  0  0  0  0
   -1.8299    3.3430    3.4532 H   0  0  0  0  0  0  0  0  0  0  0  0
   -0.0581    3.4194    3.5712 H   0  0  0  0  0  0  0  0  0  0  0  0
   -0.8804    3.9320    2.0784 H   0  0  0  0  0  0  0  0  0  0  0  0
  5  6  2  0  0  0  0
  5  7  1  0  0  0  0
  2  3  1  0  0  0  0
  2  4  1  0  0  0  0
  2  5  1  0  0  0  0
  1  2  1  0  0  0  0
 29 30  2  0  0  0  0
 29 31  1  0  0  0  0
 26 27  1  0  0  0  0
 26 28  1  0  0  0  0
 23 24  1  0  0  0  0
 23 25  1  0  0  0  0
 22 23  1  0  0  0  0
 22 26  1  0  0  0  0
 20 21  1  0  0  0  0
 20 22  2  0  0  0  0
 17 18  1  0  0  0  0
 17 19  1  0  0  0  0
 17 20  1  0  0  0  0
 14 15  1  0  0  0  0
 14 16  1  0  0  0  0
 14 17  1  0  0  0  0
 11 12  1  0  0  0  0
 11 13  1  0  0  0  0
 11 14  1  0  0  0  0
  9 10  1  0  0  0  0
  9 11  1  0  0  0  0
  9 29  1  0  0  0  0
  7  8  1  0  0  0  0
  7  9  1  0  0  0  0
 33 34  1  0  0  0  0
 33 35  1  0  0  0  0
 33 36  1  0  0  0  0
 31 32  1  0  0  0  0
 31 33  1  0  0  0  0
M  CHG  1  20   1
M  END
$$$$
default_name
  -OEChem-02102213163D

 36 35  0     1  0  0  0  0  0999 V2000
   -4.2256   -3.6731    1.8584 H   0  0  0  0  0  0  0  0  0  0  0  0
   -4.2396   -2.6781    1.4144 C   0  0  0  0  0  0  0  0  0  0  0  0
   -4.9506   -2.0521    1.9514 H   0  0  0  0  0  0  0  0  0  0  0  0
   -4.5266   -2.7521    0.3674 H   0  0  0  0  0  0  0  0  0  0  0  0
   -2.8576   -2.0761    1.5184 C   0  0  0  0  0  0  0  0  0  0  0  0
   -1.9456   -2.7051    2.0404 O   0  0  0  0  0  0  0  0  0  0  0  0
   -2.6926   -0.8481    1.0174 N   0  0  0  0  0  0  0  0  0  0  0  0
   -3.4926   -0.3971    0.5954 H   0  0  0  0  0  0  0  0  0  0  0  0
   -1.4216   -0.1071    1.0434 C   0  0  1  0  0  0  0  0  0  0  0  0
   -0.7579   -0.5878    1.7640 H   0  0  0  0  0  0  0  0  0  0  0  0
   -0.7791   -0.1912   -0.3557 C   0  0  0  0  0  0  0  0  0  0  0  0
   -1.5484    0.0072   -1.1047 H   0  0  0  0  0  0  0  0  0  0  0  0
   -0.0129    0.5822   -0.4436 H   0  0  0  0  0  0  0  0  0  0  0  0
   -0.1516   -1.5595   -0.6591 C   0  0  0  0  0  0  0  0  0  0  0  0
   -0.6936   -2.3407   -0.1242 H   0  0  0  0  0  0  0  0  0  0  0  0
   -0.2067   -1.7520   -1.7310 H   0  0  0  0  0  0  0  0  0  0  0  0
    1.3169   -1.5713   -0.2133 C   0  0  0  0  0  0  0  0  0  0  0  0
    1.8457   -0.7693   -0.7335 H   0  0  0  0  0  0  0  0  0  0  0  0
    1.3555   -1.3797    0.8617 H   0  0  0  0  0  0  0  0  0  0  0  0
    1.9691   -2.8638   -0.5081 N   0  3  0  0  0  0  0  0  0  0  0  0
    1.3894   -3.5813   -0.9085 H   0  0  0  0  0  0  0  0  0  0  0  0
    3.2394   -3.1646   -0.2960 C   0  0  0  0  0  0  0  0  0  0  0  0
    4.0777   -2.3092    0.2185 N   0  0  0  0  0  0  0  0  0  0  0  0
    3.7461   -1.3919    0.4595 H   0  0  0  0  0  0  0  0  0  0  0  0
    5.0385   -2.5537    0.3734 H   0  0  0  0  0  0  0  0  0  0  0  0
    3.6973   -4.3459   -0.5995 N   0  0  0  0  0  0  0  0  0  0  0  0
    3.0887   -5.0395   -0.9990 H   0  0  0  0  0  0  0  0  0  0  0  0
    4.6616   -4.5700   -0.4370 H   0  0  0  0  0  0  0  0  0  0  0  0
   -1.6547    1.3413    1.4779 C   0  0  0  0  0  0  0  0  0  0  0  0
   -2.5654    1.9858    0.9716 O   0  0  0  0  0  0  0  0  0  0  0  0
   -0.8107    1.8504    2.3808 N   0  0  0  0  0  0  0  0  0  0  0  0
   -0.1136    1.2381    2.7719 H   0  0  0  0  0  0  0  0  0  0  0  0
   -0.8954    3.2155    2.9026 C   0  0  0  0  0  0  0  0  0  0  0  0
   -1.8299    3.3430    3.4532 H   0  0  0  0  0  0  0  0  0  0  0  0
   -0.0581    3.4194    3.5712 H   0  0  0  0  0  0  0  0  0  0  0  0
   -0.8804    3.9320    2.0784 H   0  0  0  0  0  0  0  0  0  0  0  0
  5  6  2  0  0  0  0
  5  7  1  0  0  0  0
  2  3  1  0  0  0  0
  2  4  1  0  0  0  0
  2  5  1  0  0  0  0
  1  2  1  0  0  0  0
 29 30  2  0  0  0  0
 29 31  1  0  0  0  0
 26 27  1  0  0  0  0
 26 28  1  0  0  0  0
 23 24  1  0  0  0  0
 23 25  1  0  0  0  0
 22 23  1  0  0  0  0
 22 26  1  0  0  0  0
 20 21  1  0  0  0  0
 20 22  2  0  0  0  0
 17 18  1  0  0  0  0
 17 19  1  0  0  0  0
 17 20  1  0  0  0  0
 14 15  1  0  0  0  0
 14 16  1  0  0  0  0
 14 17  1  0  0  0  0
 11 12  1  0  0  0  0
 11 13  1  0  0  0  0
 11 14  1  0  0  0  0
  9 10  1  0  0  0  0
  9 11  1  0  0  0  0
  9 29  1  0  0  0  0
  7  8  1  0  0  0  0
  7  9  1  0  0  0  0
 33 34  1  0  0  0  0
 33 35  1  0  0  0  0
 33 36  1  0  0  0  0
 31 32  1  0  0  0  0
 31 33  1  0  0  0  0
M  CHG  1  20   1
M  END
$$$$
default_name
  -OEChem-02102213163D

 36 35  0     1  0  0  0  0  0999 V2000
   -4.2256   -3.6731    1.8584 H   0  0  0  0  0  0  0  0  0  0  0  0
   -4.2396   -2.6781    1.4144 C   0  0  0  0  0  0  0  0  0  0  0  0
   -4.9506   -2.0521    1.9514 H   0  0  0  0  0  0  0  0  0  0  0  0
   -4.5266   -2.7521    0.3674 H   0  0  0  0  0  0  0  0  0  0  0  0
   -2.8576   -2.0761    1.5184 C   0  0  0  0  0  0  0  0  0  0  0  0
   -1.9456   -2.7051    2.0404 O   0  0  0  0  0  0  0  0  0  0  0  0
   -2.6926   -0.8481    1.0174 N   0  0  0  0  0  0  0  0  0  0  0  0
   -3.4926   -0.3971    0.5954 H   0  0  0  0  0  0  0  0  0  0  0  0
   -1.4216   -0.1071    1.0434 C   0  0  1  0  0  0  0  0  0  0  0  0
   -0.7579   -0.5878    1.7640 H   0  0  0  0  0  0  0  0  0  0  0  0
   -0.7791   -0.1912   -0.3557 C   0  0  0  0  0  0  0  0  0  0  0  0
   -1.5484    0.0072   -1.1047 H   0  0  0  0  0  0  0  0  0  0  0  0
   -0.0129    0.5822   -0.4436 H   0  0  0  0  0  0  0  0  0  0  0  0
   -0.1516   -1.5595   -0.6591 C   0  0  0  0  0  0  0  0  0  0  0  0
   -0.8333   -2.3541   -0.3526 H   0  0  0  0  0  0  0  0  0  0  0  0
    0.0375   -1.6402   -1.7300 H   0  0  0  0  0  0  0  0  0  0  0  0
    1.1707   -1.7090    0.1055 C   0  0  0  0  0  0  0  0  0  0  0  0
    1.8370   -0.8944   -0.1876 H   0  0  0  0  0  0  0  0  0  0  0  0
    0.9648   -1.6284    1.1754 H   0  0  0  0  0  0  0  0  0  0  0  0
    1.8232   -3.0044   -0.1756 N   0  3  0  0  0  0  0  0  0  0  0  0
    1.3255   -3.6402   -0.7752 H   0  0  0  0  0  0  0  0  0  0  0  0
    2.9962   -3.4050    0.2854 C   0  0  0  0  0  0  0  0  0  0  0  0
    3.7238   -2.6602    1.0698 N   0  0  0  0  0  0  0  0  0  0  0  0
    3.3809   -1.7524    1.3298 H   0  0  0  0  0  0  0  0  0  0  0  0
    4.6117   -2.9796    1.4111 H   0  0  0  0  0  0  0  0  0  0  0  0
    3.4662   -4.5769   -0.0358 N   0  0  0  0  0  0  0  0  0  0  0  0
    2.9413   -5.1870   -0.6384 H   0  0  0  0  0  0  0  0  0  0  0  0
    4.3566   -4.8768    0.3161 H   0  0  0  0  0  0  0  0  0  0  0  0
   -1.6547    1.3413    1.4779 C   0  0  0  0  0  0  0  0  0  0  0  0
   -2.5654    1.9858    0.9716 O   0  0  0  0  0  0  0  0  0  0  0  0
   -0.8107    1.8504    2.3808 N   0  0  0  0  0  0  0  0  0  0  0  0
   -0.1136    1.2381    2.7719 H   0  0  0  0  0  0  0  0  0  0  0  0
   -0.8954    3.2155    2.9026 C   0  0  0  0  0  0  0  0  0  0  0  0
   -1.8299    3.3430    3.4532 H   0  0  0  0  0  0  0  0  0  0  0  0
   -0.0581    3.4194    3.5712 H   0  0  0  0  0  0  0  0  0  0  0  0
   -0.8804    3.9320    2.0784 H   0  0  0  0  0  0  0  0  0  0  0  0
  5  6  2  0  0  0  0
  5  7  1  0  0  0  0
  2  3  1  0  0  0  0
  2  4  1  0  0  0  0
  2  5  1  0  0  0  0
  1  2  1  0  0  0  0
 29 30  2  0  0  0  0
 29 31  1  0  0  0  0
 26 27  1  0  0  0  0
 26 28  1  0  0  0  0
 23 24  1  0  0  0  0
 23 25  1  0  0  0  0
 22 23  1  0  0  0  0
 22 26  1  0  0  0  0
 20 21  1  0  0  0  0
 20 22  2  0  0  0  0
 17 18  1  0  0  0  0
 17 19  1  0  0  0  0
 17 20  1  0  0  0  0
 14 15  1  0  0  0  0
 14 16  1  0  0  0  0
 14 17  1  0  0  0  0
 11 12  1  0  0  0  0
 11 13  1  0  0  0  0
 11 14  1  0  0  0  0
  9 10  1  0  0  0  0
  9 11  1  0  0  0  0
  9 29  1  0  0  0  0
  7  8  1  0  0  0  0
  7  9  1  0  0  0  0
 33 34  1  0  0  0  0
 33 35  1  0  0  0  0
 33 36  1  0  0  0  0
 31 32  1  0  0  0  0
 31 33  1  0  0  0  0
M  CHG  1  20   1
M  END
$$$$
default_name
  -OEChem-02102213163D

 36 35  0     1  0  0  0  0  0999 V2000
   -4.2256   -3.6731    1.8584 H   0  0  0  0  0  0  0  0  0  0  0  0
   -4.2396   -2.6781    1.4144 C   0  0  0  0  0  0  0  0  0  0  0  0
   -4.9506   -2.0521    1.9514 H   0  0  0  0  0  0  0  0  0  0  0  0
   -4.5266   -2.7521    0.3674 H   0  0  0  0  0  0  0  0  0  0  0  0
   -2.8576   -2.0761    1.5184 C   0  0  0  0  0  0  0  0  0  0  0  0
   -1.9456   -2.7051    2.0404 O   0  0  0  0  0  0  0  0  0  0  0  0
   -2.6926   -0.8481    1.0174 N   0  0  0  0  0  0  0  0  0  0  0  0
   -3.4926   -0.3971    0.5954 H   0  0  0  0  0  0  0  0  0  0  0  0
   -1.4216   -0.1071    1.0434 C   0  0  1  0  0  0  0  0  0  0  0  0
   -0.7579   -0.5878    1.7640 H   0  0  0  0  0  0  0  0  0  0  0  0
   -0.7791   -0.1912   -0.3557 C   0  0  0  0  0  0  0  0  0  0  0  0
   -1.5484    0.0072   -1.1047 H   0  0  0  0  0  0  0  0  0  0  0  0
   -0.0129    0.5822   -0.4436 H   0  0  0  0  0  0  0  0  0  0  0  0
   -0.1516   -1.5595   -0.6591 C   0  0  0  0  0  0  0  0  0  0  0  0
   -0.9163   -2.3358   -0.6068 H   0  0  0  0  0  0  0  0  0  0  0  0
    0.2790   -1.5448   -1.6608 H   0  0  0  0  0  0  0  0  0  0  0  0
    0.9490   -1.8683    0.3650 C   0  0  0  0  0  0  0  0  0  0  0  0
    1.6963   -1.0724    0.3244 H   0  0  0  0  0  0  0  0  0  0  0  0
    0.5023   -1.8819    1.3620 H   0  0  0  0  0  0  0  0  0  0  0  0
    1.5983   -3.1680    0.0971 N   0  3  0  0  0  0  0  0  0  0  0  0
    1.2301   -3.7078   -0.6673 H   0  0  0  0  0  0  0  0  0  0  0  0
    2.6150   -3.6863    0.7656 C   0  0  0  0  0  0  0  0  0  0  0  0
    3.1677   -3.0712    1.7732 N   0  0  0  0  0  0  0  0  0  0  0  0
    2.8090   -2.1739    2.0481 H   0  0  0  0  0  0  0  0  0  0  0  0
    3.9384   -3.4788    2.2701 H   0  0  0  0  0  0  0  0  0  0  0  0
    3.1012   -4.8478    0.4310 N   0  0  0  0  0  0  0  0  0  0  0  0
    2.7082   -5.3601   -0.3397 H   0  0  0  0  0  0  0  0  0  0  0  0
    3.8725   -5.2373    0.9407 H   0  0  0  0  0  0  0  0  0  0  0  0
   -1.6547    1.3413    1.4779 C   0  0  0  0  0  0  0  0  0  0  0  0
   -2.5654    1.9858    0.9716 O   0  0  0  0  0  0  0  0  0  0  0  0
   -0.8107    1.8504    2.3808 N   0  0  0  0  0  0  0  0  0  0  0  0
   -0.1136    1.2381    2.7719 H   0  0  0  0  0  0  0  0  0  0  0  0
   -0.8954    3.2155    2.9026 C   0  0  0  0  0  0  0  0  0  0  0  0
   -1.8299    3.3430    3.4532 H   0  0  0  0  0  0  0  0  0  0  0  0
   -0.0581    3.4194    3.5712 H   0  0  0  0  0  0  0  0  0  0  0  0
   -0.8804    3.9320    2.0784 H   0  0  0  0  0  0  0  0  0  0  0  0
  5  6  2  0  0  0  0
  5  7  1  0  0  0  0
  2  3  1  0  0  0  0
  2  4  1  0  0  0  0
  2  5  1  0  0  0  0
  1  2  1  0  0  0  0
 29 30  2  0  0  0  0
 29 31  1  0  0  0  0
 26 27  1  0  0  0  0
 26 28  1  0  0  0  0
 23 24  1  0  0  0  0
 23 25  1  0  0  0  0
 22 23  1  0  0  0  0
 22 26  1  0  0  0  0
 20 21  1  0  0  0  0
 20 22  2  0  0  0  0
 17 18  1  0  0  0  0
 17 19  1  0  0  0  0
 17 20  1  0  0  0  0
 14 15  1  0  0  0  0
 14 16  1  0  0  0  0
 14 17  1  0  0  0  0
 11 12  1  0  0  0  0
 11 13  1  0  0  0  0
 11 14  1  0  0  0  0
  9 10  1  0  0  0  0
  9 11  1  0  0  0  0
  9 29  1  0  0  0  0
  7  8  1  0  0  0  0
  7  9  1  0  0  0  0
 33 34  1  0  0  0  0
 33 35  1  0  0  0  0
 33 36  1  0  0  0  0
 31 32  1  0  0  0  0
 31 33  1  0  0  0  0
M  CHG  1  20   1
M  END
$$$$
default_name
  -OEChem-02102213163D

 36 35  0     1  0  0  0  0  0999 V2000
   -4.2256   -3.6731    1.8584 H   0  0  0  0  0  0  0  0  0  0  0  0
   -4.2396   -2.6781    1.4144 C   0  0  0  0  0  0  0  0  0  0  0  0
   -4.9506   -2.0521    1.9514 H   0  0  0  0  0  0  0  0  0  0  0  0
   -4.5266   -2.7521    0.3674 H   0  0  0  0  0  0  0  0  0  0  0  0
   -2.8576   -2.0761    1.5184 C   0  0  0  0  0  0  0  0  0  0  0  0
   -1.9456   -2.7051    2.0404 O   0  0  0  0  0  0  0  0  0  0  0  0
   -2.6926   -0.8481    1.0174 N   0  0  0  0  0  0  0  0  0  0  0  0
   -3.4926   -0.3971    0.5954 H   0  0  0  0  0  0  0  0  0  0  0  0
   -1.4216   -0.1071    1.0434 C   0  0  1  0  0  0  0  0  0  0  0  0
   -0.7579   -0.5878    1.7640 H   0  0  0  0  0  0  0  0  0  0  0  0
   -0.7791   -0.1912   -0.3557 C   0  0  0  0  0  0  0  0  0  0  0  0
   -1.5484    0.0072   -1.1047 H   0  0  0  0  0  0  0  0  0  0  0  0
   -0.0129    0.5822   -0.4436 H   0  0  0  0  0  0  0  0  0  0  0  0
   -0.1516   -1.5595   -0.6591 C   0  0  0  0  0  0  0  0  0  0  0  0
   -0.9368   -2.2870   -0.8695 H   0  0  0  0  0  0  0  0  0  0  0  0
    0.5011   -1.4723   -1.5282 H   0  0  0  0  0  0  0  0  0  0  0  0
    0.6668   -2.0382    0.5478 C   0  0  0  0  0  0  0  0  0  0  0  0
    1.4332   -1.2914    0.7677 H   0  0  0  0  0  0  0  0  0  0  0  0
   -0.0004   -2.1228    1.4088 H   0  0  0  0  0  0  0  0  0  0  0  0
    1.3099   -3.3433    0.2913 N   0  3  0  0  0  0  0  0  0  0  0  0
    1.1096   -3.7797   -0.5923 H   0  0  0  0  0  0  0  0  0  0  0  0
    2.1216   -3.9893    1.1117 C   0  0  0  0  0  0  0  0  0  0  0  0
    2.4473   -3.5142    2.2810 N   0  0  0  0  0  0  0  0  0  0  0  0
    2.0694   -2.6278    2.5654 H   0  0  0  0  0  0  0  0  0  0  0  0
    3.0644   -4.0174    2.8917 H   0  0  0  0  0  0  0  0  0  0  0  0
    2.6271   -5.1401    0.7690 N   0  0  0  0  0  0  0  0  0  0  0  0
    2.4053   -5.5470   -0.1233 H   0  0  0  0  0  0  0  0  0  0  0  0
    3.2425   -5.6268    1.3943 H   0  0  0  0  0  0  0  0  0  0  0  0
   -1.6547    1.3413    1.4779 C   0  0  0  0  0  0  0  0  0  0  0  0
   -2.5654    1.9858    0.9716 O   0  0  0  0  0  0  0  0  0  0  0  0
   -0.8107    1.8504    2.3808 N   0  0  0  0  0  0  0  0  0  0  0  0
   -0.1136    1.2381    2.7719 H   0  0  0  0  0  0  0  0  0  0  0  0
   -0.8954    3.2155    2.9026 C   0  0  0  0  0  0  0  0  0  0  0  0
   -1.8299    3.3430    3.4532 H   0  0  0  0  0  0  0  0  0  0  0  0
   -0.0581    3.4194    3.5712 H   0  0  0  0  0  0  0  0  0  0  0  0
   -0.8804    3.9320    2.0784 H   0  0  0  0  0  0  0  0  0  0  0  0
  5  6  2  0  0  0  0
  5  7  1  0  0  0  0
  2  3  1  0  0  0  0
  2  4  1  0  0  0  0
  2  5  1  0  0  0  0
  1  2  1  0  0  0  0
 29 30  2  0  0  0  0
 29 31  1  0  0  0  0
 26 27  1  0  0  0  0
 26 28  1  0  0  0  0
 23 24  1  0  0  0  0
 23 25  1  0  0  0  0
 22 23  1  0  0  0  0
 22 26  1  0  0  0  0
 20 21  1  0  0  0  0
 20 22  2  0  0  0  0
 17 18  1  0  0  0  0
 17 19  1  0  0  0  0
 17 20  1  0  0  0  0
 14 15  1  0  0  0  0
 14 16  1  0  0  0  0
 14 17  1  0  0  0  0
 11 12  1  0  0  0  0
 11 13  1  0  0  0  0
 11 14  1  0  0  0  0
  9 10  1  0  0  0  0
  9 11  1  0  0  0  0
  9 29  1  0  0  0  0
  7  8  1  0  0  0  0
  7  9  1  0  0  0  0
 33 34  1  0  0  0  0
 33 35  1  0  0  0  0
 33 36  1  0  0  0  0
 31 32  1  0  0  0  0
 31 33  1  0  0  0  0
M  CHG  1  20   1
M  END
$$$$
default_name
  -OEChem-02102213163D

 36 35  0     1  0  0  0  0  0999 V2000
   -4.2256   -3.6731    1.8584 H   0  0  0  0  0  0  0  0  0  0  0  0
   -4.2396   -2.6781    1.4144 C   0  0  0  0  0  0  0  0  0  0  0  0
   -4.9506   -2.0521    1.9514 H   0  0  0  0  0  0  0  0  0  0  0  0
   -4.5266   -2.7521    0.3674 H   0  0  0  0  0  0  0  0  0  0  0  0
   -2.8576   -2.0761    1.5184 C   0  0  0  0  0  0  0  0  0  0  0  0
   -1.9456   -2.7051    2.0404 O   0  0  0  0  0  0  0  0  0  0  0  0
   -2.6926   -0.8481    1.0174 N   0  0  0  0  0  0  0  0  0  0  0  0
   -3.4926   -0.3971    0.5954 H   0  0  0  0  0  0  0  0  0  0  0  0
   -1.4216   -0.1071    1.0434 C   0  0  1  0  0  0  0  0  0  0  0  0
   -0.7579   -0.5878    1.7640 H   0  0  0  0  0  0  0  0  0  0  0  0
   -0.7791   -0.1912   -0.3557 C   0  0  0  0  0  0  0  0  0  0  0  0
   -1.5484    0.0072   -1.1047 H   0  0  0  0  0  0  0  0  0  0  0  0
   -0.0129    0.5822   -0.4436 H   0  0  0  0  0  0  0  0  0  0  0  0
   -0.1516   -1.5595   -0.6591 C   0  0  0  0  0  0  0  0  0  0  0  0
   -0.8936   -2.2110   -1.1228 H   0  0  0  0  0  0  0  0  0  0  0  0
    0.6888   -1.4277   -1.3413 H   0  0  0  0  0  0  0  0  0  0  0  0
    0.3434   -2.2072    0.6413 C   0  0  0  0  0  0  0  0  0  0  0  0
    1.0656   -1.5363    1.1121 H   0  0  0  0  0  0  0  0  0  0  0  0
   -0.5091   -2.3348    1.3126 H   0  0  0  0  0  0  0  0  0  0  0  0
    0.9775   -3.5185    0.3939 N   0  3  0  0  0  0  0  0  0  0  0  0
    0.9722   -3.8509   -0.5552 H   0  0  0  0  0  0  0  0  0  0  0  0
    1.5497   -4.2934    1.3001 C   0  0  0  0  0  0  0  0  0  0  0  0
    1.6117   -3.9589    2.5585 N   0  0  0  0  0  0  0  0  0  0  0  0
    1.2125   -3.0831    2.8466 H   0  0  0  0  0  0  0  0  0  0  0  0
    2.0492   -4.5587    3.2335 H   0  0  0  0  0  0  0  0  0  0  0  0
    2.0763   -5.4340    0.9553 N   0  0  0  0  0  0  0  0  0  0  0  0
    2.0532   -5.7350   -0.0038 H   0  0  0  0  0  0  0  0  0  0  0  0
    2.5094   -6.0188    1.6459 H   0  0  0  0  0  0  0  0  0  0  0  0
   -1.6547    1.3413    1.4779 C   0  0  0  0  0  0  0  0  0  0  0  0
   -2.5654    1.9858    0.9716 O   0  0  0  0  0  0  0  0  0  0  0  0
   -0.8107    1.8504    2.3808 N   0  0  0  0  0  0  0  0  0  0  0  0
   -0.1136    1.2381    2.7719 H   0  0  0  0  0  0  0  0  0  0  0  0
   -0.8954    3.2155    2.9026 C   0  0  0  0  0  0  0  0  0  0  0  0
   -1.8299    3.3430    3.4532 H   0  0  0  0  0  0  0  0  0  0  0  0
   -0.0581    3.4194    3.5712 H   0  0  0  0  0  0  0  0  0  0  0  0
   -0.8804    3.9320    2.0784 H   0  0  0  0  0  0  0  0  0  0  0  0
  5  6  2  0  0  0  0
  5  7  1  0  0  0  0
  2  3  1  0  0  0  0
  2  4  1  0  0  0  0
  2  5  1  0  0  0  0
  1  2  1  0  0  0  0
 29 30  2  0  0  0  0
 29 31  1  0  0  0  0
 26 27  1  0  0  0  0
 26 28  1  0  0  0  0
 23 24  1  0  0  0  0
 23 25  1  0  0  0  0
 22 23  1  0  0  0  0
 22 26  1  0  0  0  0
 20 21  1  0  0  0  0
 20 22  2  0  0  0  0
 17 18  1  0  0  0  0
 17 19  1  0  0  0  0
 17 20  1  0  0  0  0
 14 15  1  0  0  0  0
 14 16  1  0  0  0  0
 14 17  1  0  0  0  0
 11 12  1  0  0  0  0
 11 13  1  0  0  0  0
 11 14  1  0  0  0  0
  9 10  1  0  0  0  0
  9 11  1  0  0  0  0
  9 29  1  0  0  0  0
  7  8  1  0  0  0  0
  7  9  1  0  0  0  0
 33 34  1  0  0  0  0
 33 35  1  0  0  0  0
 33 36  1  0  0  0  0
 31 32  1  0  0  0  0
 31 33  1  0  0  0  0
M  CHG  1  20   1
M  END
$$$$
default_name
  -OEChem-02102213163D

 36 35  0     1  0  0  0  0  0999 V2000
   -4.2256   -3.6731    1.8584 H   0  0  0  0  0  0  0  0  0  0  0  0
   -4.2396   -2.6781    1.4144 C   0  0  0  0  0  0  0  0  0  0  0  0
   -4.9506   -2.0521    1.9514 H   0  0  0  0  0  0  0  0  0  0  0  0
   -4.5266   -2.7521    0.3674 H   0  0  0  0  0  0  0  0  0  0  0  0
   -2.8576   -2.0761    1.5184 C   0  0  0  0  0  0  0  0  0  0  0  0
   -1.9456   -2.7051    2.0404 O   0  0  0  0  0  0  0  0  0  0  0  0
   -2.6926   -0.8481    1.0174 N   0  0  0  0  0  0  0  0  0  0  0  0
   -3.4926   -0.3971    0.5954 H   0  0  0  0  0  0  0  0  0  0  0  0
   -1.4216   -0.1071    1.0434 C   0  0  1  0  0  0  0  0  0  0  0  0
   -0.7579   -0.5878    1.7640 H   0  0  0  0  0  0  0  0  0  0  0  0
   -0.7791   -0.1912   -0.3557 C   0  0  0  0  0  0  0  0  0  0  0  0
   -1.5484    0.0072   -1.1047 H   0  0  0  0  0  0  0  0  0  0  0  0
   -0.0129    0.5822   -0.4436 H   0  0  0  0  0  0  0  0  0  0  0  0
   -0.1516   -1.5595   -0.6591 C   0  0  0  0  0  0  0  0  0  0  0  0
   -0.7896   -2.1130   -1.3495 H   0  0  0  0  0  0  0  0  0  0  0  0
    0.8293   -1.4140   -1.1127 H   0  0  0  0  0  0  0  0  0  0  0  0
    0.0008   -2.3639    0.6391 C   0  0  0  0  0  0  0  0  0  0  0  0
    0.6186   -1.7905    1.3341 H   0  0  0  0  0  0  0  0  0  0  0  0
   -0.9891   -2.5033    1.0799 H   0  0  0  0  0  0  0  0  0  0  0  0
    0.6239   -3.6816    0.3978 N   0  3  0  0  0  0  0  0  0  0  0  0
    0.8274   -3.9166   -0.5586 H   0  0  0  0  0  0  0  0  0  0  0  0
    0.9383   -4.5777    1.3181 C   0  0  0  0  0  0  0  0  0  0  0  0
    0.7178   -4.3751    2.5868 N   0  0  0  0  0  0  0  0  0  0  0  0
    0.2966   -3.5088    2.8723 H   0  0  0  0  0  0  0  0  0  0  0  0
    0.9622   -5.0659    3.2724 H   0  0  0  0  0  0  0  0  0  0  0  0
    1.4862   -5.7094    0.9771 N   0  0  0  0  0  0  0  0  0  0  0  0
    1.6760   -5.9111    0.0105 H   0  0  0  0  0  0  0  0  0  0  0  0
    1.7233   -6.3865    1.6785 H   0  0  0  0  0  0  0  0  0  0  0  0
   -1.6547    1.3413    1.4779 C   0  0  0  0  0  0  0  0  0  0  0  0
   -2.5654    1.9858    0.9716 O   0  0  0  0  0  0  0  0  0  0  0  0
   -0.8107    1.8504    2.3808 N   0  0  0  0  0  0  0  0  0  0  0  0
   -0.1136    1.2381    2.7719 H   0  0  0  0  0  0  0  0  0  0  0  0
   -0.8954    3.2155    2.9026 C   0  0  0  0  0  0  0  0  0  0  0  0
   -1.8299    3.3430    3.4532 H   0  0  0  0  0  0  0  0  0  0  0  0
   -0.0581    3.4194    3.5712 H   0  0  0  0  0  0  0  0  0  0  0  0
   -0.8804    3.9320    2.0784 H   0  0  0  0  0  0  0  0  0  0  0  0
  5  6  2  0  0  0  0
  5  7  1  0  0  0  0
  2  3  1  0  0  0  0
  2  4  1  0  0  0  0
  2  5  1  0  0  0  0
  1  2  1  0  0  0  0
 29 30  2  0  0  0  0
 29 31  1  0  0  0  0
 26 27  1  0  0  0  0
 26 28  1  0  0  0  0
 23 24  1  0  0  0  0
 23 25  1  0  0  0  0
 22 23  1  0  0  0  0
 22 26  1  0  0  0  0
 20 21  1  0  0  0  0
 20 22  2  0  0  0  0
 17 18  1  0  0  0  0
 17 19  1  0  0  0  0
 17 20  1  0  0  0  0
 14 15  1  0  0  0  0
 14 16  1  0  0  0  0
 14 17  1  0  0  0  0
 11 12  1  0  0  0  0
 11 13  1  0  0  0  0
 11 14  1  0  0  0  0
  9 10  1  0  0  0  0
  9 11  1  0  0  0  0
  9 29  1  0  0  0  0
  7  8  1  0  0  0  0
  7  9  1  0  0  0  0
 33 34  1  0  0  0  0
 33 35  1  0  0  0  0
 33 36  1  0  0  0  0
 31 32  1  0  0  0  0
 31 33  1  0  0  0  0
M  CHG  1  20   1
M  END
$$$$
default_name
  -OEChem-02102213163D

 36 35  0     1  0  0  0  0  0999 V2000
   -4.2256   -3.6731    1.8584 H   0  0  0  0  0  0  0  0  0  0  0  0
   -4.2396   -2.6781    1.4144 C   0  0  0  0  0  0  0  0  0  0  0  0
   -4.9506   -2.0521    1.9514 H   0  0  0  0  0  0  0  0  0  0  0  0
   -4.5266   -2.7521    0.3674 H   0  0  0  0  0  0  0  0  0  0  0  0
   -2.8576   -2.0761    1.5184 C   0  0  0  0  0  0  0  0  0  0  0  0
   -1.9456   -2.7051    2.0404 O   0  0  0  0  0  0  0  0  0  0  0  0
   -2.6926   -0.8481    1.0174 N   0  0  0  0  0  0  0  0  0  0  0  0
   -3.4926   -0.3971    0.5954 H   0  0  0  0  0  0  0  0  0  0  0  0
   -1.4216   -0.1071    1.0434 C   0  0  1  0  0  0  0  0  0  0  0  0
   -0.7579   -0.5878    1.7640 H   0  0  0  0  0  0  0  0  0  0  0  0
   -0.7791   -0.1912   -0.3557 C   0  0  0  0  0  0  0  0  0  0  0  0
   -1.5484    0.0072   -1.1047 H   0  0  0  0  0  0  0  0  0  0  0  0
   -0.0129    0.5822   -0.4436 H   0  0  0  0  0  0  0  0  0  0  0  0
   -0.1516   -1.5595   -0.6591 C   0  0  0  0  0  0  0  0  0  0  0  0
   -0.6318   -1.9997   -1.5341 H   0  0  0  0  0  0  0  0  0  0  0  0
    0.9129   -1.4321   -0.8581 H   0  0  0  0  0  0  0  0  0  0  0  0
   -0.3377   -2.4974    0.5414 C   0  0  0  0  0  0  0  0  0  0  0  0
    0.1226   -2.0367    1.4185 H   0  0  0  0  0  0  0  0  0  0  0  0
   -1.4077   -2.6169    0.7267 H   0  0  0  0  0  0  0  0  0  0  0  0
    0.2730   -3.8214    0.3027 N   0  3  0  0  0  0  0  0  0  0  0  0
    0.6848   -3.9723   -0.6022 H   0  0  0  0  0  0  0  0  0  0  0  0
    0.3291   -4.8230    1.1644 C   0  0  0  0  0  0  0  0  0  0  0  0
   -0.1734   -4.7344    2.3640 N   0  0  0  0  0  0  0  0  0  0  0  0
   -0.6158   -3.8759    2.6410 H   0  0  0  0  0  0  0  0  0  0  0  0
   -0.1228   -5.5042    3.0056 H   0  0  0  0  0  0  0  0  0  0  0  0
    0.8972   -5.9476    0.8329 N   0  0  0  0  0  0  0  0  0  0  0  0
    1.2993   -6.0635   -0.0813 H   0  0  0  0  0  0  0  0  0  0  0  0
    0.9376   -6.7050    1.4897 H   0  0  0  0  0  0  0  0  0  0  0  0
   -1.6547    1.3413    1.4779 C   0  0  0  0  0  0  0  0  0  0  0  0
   -2.5654    1.9858    0.9716 O   0  0  0  0  0  0  0  0  0  0  0  0
   -0.8107    1.8504    2.3808 N   0  0  0  0  0  0  0  0  0  0  0  0
   -0.1136    1.2381    2.7719 H   0  0  0  0  0  0  0  0  0  0  0  0
   -0.8954    3.2155    2.9026 C   0  0  0  0  0  0  0  0  0  0  0  0
   -1.8299    3.3430    3.4532 H   0  0  0  0  0  0  0  0  0  0  0  0
   -0.0581    3.4194    3.5712 H   0  0  0  0  0  0  0  0  0  0  0  0
   -0.8804    3.9320    2.0784 H   0  0  0  0  0  0  0  0  0  0  0  0
  5  6  2  0  0  0  0
  5  7  1  0  0  0  0
  2  3  1  0  0  0  0
  2  4  1  0  0  0  0
  2  5  1  0  0  0  0
  1  2  1  0  0  0  0
 29 30  2  0  0  0  0
 29 31  1  0  0  0  0
 26 27  1  0  0  0  0
 26 28  1  0  0  0  0
 23 24  1  0  0  0  0
 23 25  1  0  0  0  0
 22 23  1  0  0  0  0
 22 26  1  0  0  0  0
 20 21  1  0  0  0  0
 20 22  2  0  0  0  0
 17 18  1  0  0  0  0
 17 19  1  0  0  0  0
 17 20  1  0  0  0  0
 14 15  1  0  0  0  0
 14 16  1  0  0  0  0
 14 17  1  0  0  0  0
 11 12  1  0  0  0  0
 11 13  1  0  0  0  0
 11 14  1  0  0  0  0
  9 10  1  0  0  0  0
  9 11  1  0  0  0  0
  9 29  1  0  0  0  0
  7  8  1  0  0  0  0
  7  9  1  0  0  0  0
 33 34  1  0  0  0  0
 33 35  1  0  0  0  0
 33 36  1  0  0  0  0
 31 32  1  0  0  0  0
 31 33  1  0  0  0  0
M  CHG  1  20   1
M  END
$$$$
default_name
  -OEChem-02102213163D

 36 35  0     1  0  0  0  0  0999 V2000
   -4.2256   -3.6731    1.8584 H   0  0  0  0  0  0  0  0  0  0  0  0
   -4.2396   -2.6781    1.4144 C   0  0  0  0  0  0  0  0  0  0  0  0
   -4.9506   -2.0521    1.9514 H   0  0  0  0  0  0  0  0  0  0  0  0
   -4.5266   -2.7521    0.3674 H   0  0  0  0  0  0  0  0  0  0  0  0
   -2.8576   -2.0761    1.5184 C   0  0  0  0  0  0  0  0  0  0  0  0
   -1.9456   -2.7051    2.0404 O   0  0  0  0  0  0  0  0  0  0  0  0
   -2.6926   -0.8481    1.0174 N   0  0  0  0  0  0  0  0  0  0  0  0
   -3.4926   -0.3971    0.5954 H   0  0  0  0  0  0  0  0  0  0  0  0
   -1.4216   -0.1071    1.0434 C   0  0  1  0  0  0  0  0  0  0  0  0
   -0.7579   -0.5878    1.7640 H   0  0  0  0  0  0  0  0  0  0  0  0
   -0.7791   -0.1912   -0.3557 C   0  0  0  0  0  0  0  0  0  0  0  0
   -1.5484    0.0072   -1.1047 H   0  0  0  0  0  0  0  0  0  0  0  0
   -0.0129    0.5822   -0.4436 H   0  0  0  0  0  0  0  0  0  0  0  0
   -0.1516   -1.5595   -0.6591 C   0  0  0  0  0  0  0  0  0  0  0  0
   -0.4310   -1.8788   -1.6641 H   0  0  0  0  0  0  0  0  0  0  0  0
    0.9341   -1.4807   -0.5948 H   0  0  0  0  0  0  0  0  0  0  0  0
   -0.6489   -2.5988    0.3549 C   0  0  0  0  0  0  0  0  0  0  0  0
   -0.3885   -2.2580    1.3596 H   0  0  0  0  0  0  0  0  0  0  0  0
   -1.7364   -2.6679    0.2769 H   0  0  0  0  0  0  0  0  0  0  0  0
   -0.0511   -3.9284    0.1152 N   0  3  0  0  0  0  0  0  0  0  0  0
    0.5544   -4.0142   -0.6831 H   0  0  0  0  0  0  0  0  0  0  0  0
   -0.2365   -5.0126    0.8495 C   0  0  0  0  0  0  0  0  0  0  0  0
   -1.0013   -5.0123    1.9052 N   0  0  0  0  0  0  0  0  0  0  0  0
   -1.4624   -4.1594    2.1683 H   0  0  0  0  0  0  0  0  0  0  0  0
   -1.1316   -5.8440    2.4513 H   0  0  0  0  0  0  0  0  0  0  0  0
    0.3493   -6.1323    0.5327 N   0  0  0  0  0  0  0  0  0  0  0  0
    0.9489   -6.1818   -0.2729 H   0  0  0  0  0  0  0  0  0  0  0  0
    0.2059   -6.9524    1.0925 H   0  0  0  0  0  0  0  0  0  0  0  0
   -1.6547    1.3413    1.4779 C   0  0  0  0  0  0  0  0  0  0  0  0
   -2.5654    1.9858    0.9716 O   0  0  0  0  0  0  0  0  0  0  0  0
   -0.8107    1.8504    2.3808 N   0  0  0  0  0  0  0  0  0  0  0  0
   -0.1136    1.2381    2.7719 H   0  0  0  0  0  0  0  0  0  0  0  0
   -0.8954    3.2155    2.9026 C   0  0  0  0  0  0  0  0  0  0  0  0
   -1.8299    3.3430    3.4532 H   0  0  0  0  0  0  0  0  0  0  0  0
   -0.0581    3.4194    3.5712 H   0  0  0  0  0  0  0  0  0  0  0  0
   -0.8804    3.9320    2.0784 H   0  0  0  0  0  0  0  0  0  0  0  0
  5  6  2  0  0  0  0
  5  7  1  0  0  0  0
  2  3  1  0  0  0  0
  2  4  1  0  0  0  0
  2  5  1  0  0  0  0
  1  2  1  0  0  0  0
 29 30  2  0  0  0  0
 29 31  1  0  0  0  0
 26 27  1  0  0  0  0
 26 28  1  0  0  0  0
 23 24  1  0  0  0  0
 23 25  1  0  0  0  0
 22 23  1  0  0  0  0
 22 26  1  0  0  0  0
 20 21  1  0  0  0  0
 20 22  2  0  0  0  0
 17 18  1  0  0  0  0
 17 19  1  0  0  0  0
 17 20  1  0  0  0  0
 14 15  1  0  0  0  0
 14 16  1  0  0  0  0
 14 17  1  0  0  0  0
 11 12  1  0  0  0  0
 11 13  1  0  0  0  0
 11 14  1  0  0  0  0
  9 10  1  0  0  0  0
  9 11  1  0  0  0  0
  9 29  1  0  0  0  0
  7  8  1  0  0  0  0
  7  9  1  0  0  0  0
 33 34  1  0  0  0  0
 33 35  1  0  0  0  0
 33 36  1  0  0  0  0
 31 32  1  0  0  0  0
 31 33  1  0  0  0  0
M  CHG  1  20   1
M  END
$$$$
default_name
  -OEChem-02102213163D

 36 35  0     1  0  0  0  0  0999 V2000
   -4.2256   -3.6731    1.8584 H   0  0  0  0  0  0  0  0  0  0  0  0
   -4.2396   -2.6781    1.4144 C   0  0  0  0  0  0  0  0  0  0  0  0
   -4.9506   -2.0521    1.9514 H   0  0  0  0  0  0  0  0  0  0  0  0
   -4.5266   -2.7521    0.3674 H   0  0  0  0  0  0  0  0  0  0  0  0
   -2.8576   -2.0761    1.5184 C   0  0  0  0  0  0  0  0  0  0  0  0
   -1.9456   -2.7051    2.0404 O   0  0  0  0  0  0  0  0  0  0  0  0
   -2.6926   -0.8481    1.0174 N   0  0  0  0  0  0  0  0  0  0  0  0
   -3.4926   -0.3971    0.5954 H   0  0  0  0  0  0  0  0  0  0  0  0
   -1.4216   -0.1071    1.0434 C   0  0  1  0  0  0  0  0  0  0  0  0
   -0.7579   -0.5878    1.7640 H   0  0  0  0  0  0  0  0  0  0  0  0
   -0.7791   -0.1912   -0.3557 C   0  0  0  0  0  0  0  0  0  0  0  0
   -1.5484    0.0072   -1.1047 H   0  0  0  0  0  0  0  0  0  0  0  0
   -0.0129    0.5822   -0.4436 H   0  0  0  0  0  0  0  0  0  0  0  0
   -0.1516   -1.5595   -0.6591 C   0  0  0  0  0  0  0  0  0  0  0  0
   -0.2008   -1.7586   -1.7305 H   0  0  0  0  0  0  0  0  0  0  0  0
    0.8913   -1.5567   -0.3407 H   0  0  0  0  0  0  0  0  0  0  0  0
   -0.9116   -2.6610    0.0923 C   0  0  0  0  0  0  0  0  0  0  0  0
   -0.8799   -2.4394    1.1615 H   0  0  0  0  0  0  0  0  0  0  0  0
   -1.9528   -2.6528   -0.2388 H   0  0  0  0  0  0  0  0  0  0  0  0
   -0.3264   -3.9954   -0.1520 N   0  3  0  0  0  0  0  0  0  0  0  0
    0.4449   -4.0394   -0.7958 H   0  0  0  0  0  0  0  0  0  0  0  0
   -0.7199   -5.1335    0.3949 C   0  0  0  0  0  0  0  0  0  0  0  0
   -1.7093   -5.1899    1.2417 N   0  0  0  0  0  0  0  0  0  0  0  0
   -2.1858   -4.3399    1.4865 H   0  0  0  0  0  0  0  0  0  0  0  0
   -1.9956   -6.0619    1.6473 H   0  0  0  0  0  0  0  0  0  0  0  0
   -0.1202   -6.2509    0.0967 N   0  0  0  0  0  0  0  0  0  0  0  0
    0.6485   -6.2578   -0.5514 H   0  0  0  0  0  0  0  0  0  0  0  0
   -0.4219   -7.1120    0.5139 H   0  0  0  0  0  0  0  0  0  0  0  0
   -1.6547    1.3413    1.4779 C   0  0  0  0  0  0  0  0  0  0  0  0
   -2.5654    1.9858    0.9716 O   0  0  0  0  0  0  0  0  0  0  0  0
   -0.8107    1.8504    2.3808 N   0  0  0  0  0  0  0  0  0  0  0  0
   -0.1136    1.2381    2.7719 H   0  0  0  0  0  0  0  0  0  0  0  0
   -0.8954    3.2155    2.9026 C   0  0  0  0  0  0  0  0  0  0  0  0
   -1.8299    3.3430    3.4532 H   0  0  0  0  0  0  0  0  0  0  0  0
   -0.0581    3.4194    3.5712 H   0  0  0  0  0  0  0  0  0  0  0  0
   -0.8804    3.9320    2.0784 H   0  0  0  0  0  0  0  0  0  0  0  0
  5  6  2  0  0  0  0
  5  7  1  0  0  0  0
  2  3  1  0  0  0  0
  2  4  1  0  0  0  0
  2  5  1  0  0  0  0
  1  2  1  0  0  0  0
 29 30  2  0  0  0  0
 29 31  1  0  0  0  0
 26 27  1  0  0  0  0
 26 28  1  0  0  0  0
 23 24  1  0  0  0  0
 23 25  1  0  0  0  0
 22 23  1  0  0  0  0
 22 26  1  0  0  0  0
 20 21  1  0  0  0  0
 20 22  2  0  0  0  0
 17 18  1  0  0  0  0
 17 19  1  0  0  0  0
 17 20  1  0  0  0  0
 14 15  1  0  0  0  0
 14 16  1  0  0  0  0
 14 17  1  0  0  0  0
 11 12  1  0  0  0  0
 11 13  1  0  0  0  0
 11 14  1  0  0  0  0
  9 10  1  0  0  0  0
  9 11  1  0  0  0  0
  9 29  1  0  0  0  0
  7  8  1  0  0  0  0
  7  9  1  0  0  0  0
 33 34  1  0  0  0  0
 33 35  1  0  0  0  0
 33 36  1  0  0  0  0
 31 32  1  0  0  0  0
 31 33  1  0  0  0  0
M  CHG  1  20   1
M  END
$$$$
default_name
  -OEChem-02102213163D

 36 35  0     1  0  0  0  0  0999 V2000
   -4.2256   -3.6731    1.8584 H   0  0  0  0  0  0  0  0  0  0  0  0
   -4.2396   -2.6781    1.4144 C   0  0  0  0  0  0  0  0  0  0  0  0
   -4.9506   -2.0521    1.9514 H   0  0  0  0  0  0  0  0  0  0  0  0
   -4.5266   -2.7521    0.3674 H   0  0  0  0  0  0  0  0  0  0  0  0
   -2.8576   -2.0761    1.5184 C   0  0  0  0  0  0  0  0  0  0  0  0
   -1.9456   -2.7051    2.0404 O   0  0  0  0  0  0  0  0  0  0  0  0
   -2.6926   -0.8481    1.0174 N   0  0  0  0  0  0  0  0  0  0  0  0
   -3.4926   -0.3971    0.5954 H   0  0  0  0  0  0  0  0  0  0  0  0
   -1.4216   -0.1071    1.0434 C   0  0  1  0  0  0  0  0  0  0  0  0
   -0.7579   -0.5878    1.7640 H   0  0  0  0  0  0  0  0  0  0  0  0
   -0.7791   -0.1912   -0.3557 C   0  0  0  0  0  0  0  0  0  0  0  0
   -1.5484    0.0072   -1.1047 H   0  0  0  0  0  0  0  0  0  0  0  0
   -0.0129    0.5822   -0.4436 H   0  0  0  0  0  0  0  0  0  0  0  0
   -0.1516   -1.5595   -0.6591 C   0  0  0  0  0  0  0  0  0  0  0  0
    0.0429   -1.6471   -1.7289 H   0  0  0  0  0  0  0  0  0  0  0  0
    0.7875   -1.6548   -0.1131 H   0  0  0  0  0  0  0  0  0  0  0  0
   -1.1081   -2.6800   -0.2286 C   0  0  0  0  0  0  0  0  0  0  0  0
   -1.3182   -2.5686    0.8376 H   0  0  0  0  0  0  0  0  0  0  0  0
   -2.0421   -2.5726   -0.7852 H   0  0  0  0  0  0  0  0  0  0  0  0
   -0.5341   -4.0178   -0.4806 N   0  3  0  0  0  0  0  0  0  0  0  0
    0.3638   -4.0463   -0.9326 H   0  0  0  0  0  0  0  0  0  0  0  0
   -1.0882   -5.1774   -0.1686 C   0  0  0  0  0  0  0  0  0  0  0  0
   -2.2493   -5.2551    0.4188 N   0  0  0  0  0  0  0  0  0  0  0  0
   -2.7364   -4.4052    0.6419 H   0  0  0  0  0  0  0  0  0  0  0  0
   -2.6559   -6.1432    0.6484 H   0  0  0  0  0  0  0  0  0  0  0  0
   -0.4792   -6.2954   -0.4452 N   0  0  0  0  0  0  0  0  0  0  0  0
    0.4187   -6.2864   -0.8976 H   0  0  0  0  0  0  0  0  0  0  0  0
   -0.9030   -7.1729   -0.2066 H   0  0  0  0  0  0  0  0  0  0  0  0
   -1.6547    1.3413    1.4779 C   0  0  0  0  0  0  0  0  0  0  0  0
   -2.5654    1.9858    0.9716 O   0  0  0  0  0  0  0  0  0  0  0  0
   -0.8107    1.8504    2.3808 N   0  0  0  0  0  0  0  0  0  0  0  0
   -0.1136    1.2381    2.7719 H   0  0  0  0  0  0  0  0  0  0  0  0
   -0.8954    3.2155    2.9026 C   0  0  0  0  0  0  0  0  0  0  0  0
   -1.8299    3.3430    3.4532 H   0  0  0  0  0  0  0  0  0  0  0  0
   -0.0581    3.4194    3.5712 H   0  0  0  0  0  0  0  0  0  0  0  0
   -0.8804    3.9320    2.0784 H   0  0  0  0  0  0  0  0  0  0  0  0
  5  6  2  0  0  0  0
  5  7  1  0  0  0  0
  2  3  1  0  0  0  0
  2  4  1  0  0  0  0
  2  5  1  0  0  0  0
  1  2  1  0  0  0  0
 29 30  2  0  0  0  0
 29 31  1  0  0  0  0
 26 27  1  0  0  0  0
 26 28  1  0  0  0  0
 23 24  1  0  0  0  0
 23 25  1  0  0  0  0
 22 23  1  0  0  0  0
 22 26  1  0  0  0  0
 20 21  1  0  0  0  0
 20 22  2  0  0  0  0
 17 18  1  0  0  0  0
 17 19  1  0  0  0  0
 17 20  1  0  0  0  0
 14 15  1  0  0  0  0
 14 16  1  0  0  0  0
 14 17  1  0  0  0  0
 11 12  1  0  0  0  0
 11 13  1  0  0  0  0
 11 14  1  0  0  0  0
  9 10  1  0  0  0  0
  9 11  1  0  0  0  0
  9 29  1  0  0  0  0
  7  8  1  0  0  0  0
  7  9  1  0  0  0  0
 33 34  1  0  0  0  0
 33 35  1  0  0  0  0
 33 36  1  0  0  0  0
 31 32  1  0  0  0  0
 31 33  1  0  0  0  0
M  CHG  1  20   1
M  END
$$$$
default_name
  -OEChem-02102213163D

 36 35  0     1  0  0  0  0  0999 V2000
   -4.2256   -3.6731    1.8584 H   0  0  0  0  0  0  0  0  0  0  0  0
   -4.2396   -2.6781    1.4144 C   0  0  0  0  0  0  0  0  0  0  0  0
   -4.9506   -2.0521    1.9514 H   0  0  0  0  0  0  0  0  0  0  0  0
   -4.5266   -2.7521    0.3674 H   0  0  0  0  0  0  0  0  0  0  0  0
   -2.8576   -2.0761    1.5184 C   0  0  0  0  0  0  0  0  0  0  0  0
   -1.9456   -2.7051    2.0404 O   0  0  0  0  0  0  0  0  0  0  0  0
   -2.6926   -0.8481    1.0174 N   0  0  0  0  0  0  0  0  0  0  0  0
   -3.4926   -0.3971    0.5954 H   0  0  0  0  0  0  0  0  0  0  0  0
   -1.4216   -0.1071    1.0434 C   0  0  1  0  0  0  0  0  0  0  0  0
   -0.7579   -0.5878    1.7640 H   0  0  0  0  0  0  0  0  0  0  0  0
   -0.7791   -0.1912   -0.3557 C   0  0  0  0  0  0  0  0  0  0  0  0
   -1.5484    0.0072   -1.1047 H   0  0  0  0  0  0  0  0  0  0  0  0
   -0.0129    0.5822   -0.4436 H   0  0  0  0  0  0  0  0  0  0  0  0
   -0.1516   -1.5595   -0.6591 C   0  0  0  0  0  0  0  0  0  0  0  0
    0.2836   -1.5522   -1.6593 H   0  0  0  0  0  0  0  0  0  0  0  0
    0.6298   -1.7682    0.0724 H   0  0  0  0  0  0  0  0  0  0  0  0
   -1.2248   -2.6543   -0.5859 C   0  0  0  0  0  0  0  0  0  0  0  0
   -1.6735   -2.6367    0.4100 H   0  0  0  0  0  0  0  0  0  0  0  0
   -1.9983   -2.4328   -1.3250 H   0  0  0  0  0  0  0  0  0  0  0  0
   -0.6601   -3.9940   -0.8484 N   0  3  0  0  0  0  0  0  0  0  0  0
    0.3167   -4.0343   -1.0841 H   0  0  0  0  0  0  0  0  0  0  0  0
   -1.3162   -5.1414   -0.8024 C   0  0  0  0  0  0  0  0  0  0  0  0
   -2.5845   -5.2034   -0.5075 N   0  0  0  0  0  0  0  0  0  0  0  0
   -3.0769   -4.3507   -0.3077 H   0  0  0  0  0  0  0  0  0  0  0  0
   -3.0675   -6.0824   -0.4773 H   0  0  0  0  0  0  0  0  0  0  0  0
   -0.7032   -6.2627   -1.0561 N   0  0  0  0  0  0  0  0  0  0  0  0
    0.2751   -6.2656   -1.2881 H   0  0  0  0  0  0  0  0  0  0  0  0
   -1.2047   -7.1309   -1.0200 H   0  0  0  0  0  0  0  0  0  0  0  0
   -1.6547    1.3413    1.4779 C   0  0  0  0  0  0  0  0  0  0  0  0
   -2.5654    1.9858    0.9716 O   0  0  0  0  0  0  0  0  0  0  0  0
   -0.8107    1.8504    2.3808 N   0  0  0  0  0  0  0  0  0  0  0  0
   -0.1136    1.2381    2.7719 H   0  0  0  0  0  0  0  0  0  0  0  0
   -0.8954    3.2155    2.9026 C   0  0  0  0  0  0  0  0  0  0  0  0
   -1.8299    3.3430    3.4532 H   0  0  0  0  0  0  0  0  0  0  0  0
   -0.0581    3.4194    3.5712 H   0  0  0  0  0  0  0  0  0  0  0  0
   -0.8804    3.9320    2.0784 H   0  0  0  0  0  0  0  0  0  0  0  0
  5  6  2  0  0  0  0
  5  7  1  0  0  0  0
  2  3  1  0  0  0  0
  2  4  1  0  0  0  0
  2  5  1  0  0  0  0
  1  2  1  0  0  0  0
 29 30  2  0  0  0  0
 29 31  1  0  0  0  0
 26 27  1  0  0  0  0
 26 28  1  0  0  0  0
 23 24  1  0  0  0  0
 23 25  1  0  0  0  0
 22 23  1  0  0  0  0
 22 26  1  0  0  0  0
 20 21  1  0  0  0  0
 20 22  2  0  0  0  0
 17 18  1  0  0  0  0
 17 19  1  0  0  0  0
 17 20  1  0  0  0  0
 14 15  1  0  0  0  0
 14 16  1  0  0  0  0
 14 17  1  0  0  0  0
 11 12  1  0  0  0  0
 11 13  1  0  0  0  0
 11 14  1  0  0  0  0
  9 10  1  0  0  0  0
  9 11  1  0  0  0  0
  9 29  1  0  0  0  0
  7  8  1  0  0  0  0
  7  9  1  0  0  0  0
 33 34  1  0  0  0  0
 33 35  1  0  0  0  0
 33 36  1  0  0  0  0
 31 32  1  0  0  0  0
 31 33  1  0  0  0  0
M  CHG  1  20   1
M  END
$$$$
default_name
  -OEChem-02102213163D

 36 35  0     1  0  0  0  0  0999 V2000
   -4.2256   -3.6731    1.8584 H   0  0  0  0  0  0  0  0  0  0  0  0
   -4.2396   -2.6781    1.4144 C   0  0  0  0  0  0  0  0  0  0  0  0
   -4.9506   -2.0521    1.9514 H   0  0  0  0  0  0  0  0  0  0  0  0
   -4.5266   -2.7521    0.3674 H   0  0  0  0  0  0  0  0  0  0  0  0
   -2.8576   -2.0761    1.5184 C   0  0  0  0  0  0  0  0  0  0  0  0
   -1.9456   -2.7051    2.0404 O   0  0  0  0  0  0  0  0  0  0  0  0
   -2.6926   -0.8481    1.0174 N   0  0  0  0  0  0  0  0  0  0  0  0
   -3.4926   -0.3971    0.5954 H   0  0  0  0  0  0  0  0  0  0  0  0
   -1.4216   -0.1071    1.0434 C   0  0  1  0  0  0  0  0  0  0  0  0
   -0.7579   -0.5878    1.7640 H   0  0  0  0  0  0  0  0  0  0  0  0
   -0.7791   -0.1912   -0.3557 C   0  0  0  0  0  0  0  0  0  0  0  0
   -1.5484    0.0072   -1.1047 H   0  0  0  0  0  0  0  0  0  0  0  0
   -0.0129    0.5822   -0.4436 H   0  0  0  0  0  0  0  0  0  0  0  0
   -0.1516   -1.5595   -0.6591 C   0  0  0  0  0  0  0  0  0  0  0  0
    0.5050   -1.4801   -1.5266 H   0  0  0  0  0  0  0  0  0  0  0  0
    0.4288   -1.8894    0.2031 H   0  0  0  0  0  0  0  0  0  0  0  0
   -1.2538   -2.5857   -0.9552 C   0  0  0  0  0  0  0  0  0  0  0  0
   -1.9215   -2.6391   -0.0922 H   0  0  0  0  0  0  0  0  0  0  0  0
   -1.8242   -2.2429   -1.8216 H   0  0  0  0  0  0  0  0  0  0  0  0
   -0.6958   -3.9258   -1.2301 N   0  3  0  0  0  0  0  0  0  0  0  0
    0.3067   -4.0043   -1.2400 H   0  0  0  0  0  0  0  0  0  0  0  0
   -1.3884   -5.0280   -1.4634 C   0  0  0  0  0  0  0  0  0  0  0  0
   -2.6919   -5.0383   -1.4741 N   0  0  0  0  0  0  0  0  0  0  0  0
   -3.1840   -4.1803   -1.2977 H   0  0  0  0  0  0  0  0  0  0  0  0
   -3.2023   -5.8835   -1.6532 H   0  0  0  0  0  0  0  0  0  0  0  0
   -0.7770   -6.1550   -1.6944 N   0  0  0  0  0  0  0  0  0  0  0  0
    0.2275   -6.1969   -1.6963 H   0  0  0  0  0  0  0  0  0  0  0  0
   -1.3063   -6.9888   -1.8708 H   0  0  0  0  0  0  0  0  0  0  0  0
   -1.6547    1.3413    1.4779 C   0  0  0  0  0  0  0  0  0  0  0  0
   -2.5654    1.9858    0.9716 O   0  0  0  0  0  0  0  0  0  0  0  0
   -0.8107    1.8504    2.3808 N   0  0  0  0  0  0  0  0  0  0  0  0
   -0.1136    1.2381    2.7719 H   0  0  0  0  0  0  0  0  0  0  0  0
   -0.8954    3.2155    2.9026 C   0  0  0  0  0  0  0  0  0  0  0  0
   -1.8299    3.3430    3.4532 H   0  0  0  0  0  0  0  0  0  0  0  0
   -0.0581    3.4194    3.5712 H   0  0  0  0  0  0  0  0  0  0  0  0
   -0.8804    3.9320    2.0784 H   0  0  0  0  0  0  0  0  0  0  0  0
  5  6  2  0  0  0  0
  5  7  1  0  0  0  0
  2  3  1  0  0  0  0
  2  4  1  0  0  0  0
  2  5  1  0  0  0  0
  1  2  1  0  0  0  0
 29 30  2  0  0  0  0
 29 31  1  0  0  0  0
 26 27  1  0  0  0  0
 26 28  1  0  0  0  0
 23 24  1  0  0  0  0
 23 25  1  0  0  0  0
 22 23  1  0  0  0  0
 22 26  1  0  0  0  0
 20 21  1  0  0  0  0
 20 22  2  0  0  0  0
 17 18  1  0  0  0  0
 17 19  1  0  0  0  0
 17 20  1  0  0  0  0
 14 15  1  0  0  0  0
 14 16  1  0  0  0  0
 14 17  1  0  0  0  0
 11 12  1  0  0  0  0
 11 13  1  0  0  0  0
 11 14  1  0  0  0  0
  9 10  1  0  0  0  0
  9 11  1  0  0  0  0
  9 29  1  0  0  0  0
  7  8  1  0  0  0  0
  7  9  1  0  0  0  0
 33 34  1  0  0  0  0
 33 35  1  0  0  0  0
 33 36  1  0  0  0  0
 31 32  1  0  0  0  0
 31 33  1  0  0  0  0
M  CHG  1  20   1
M  END
$$$$
default_name
  -OEChem-02102213163D

 36 35  0     1  0  0  0  0  0999 V2000
   -4.2256   -3.6731    1.8584 H   0  0  0  0  0  0  0  0  0  0  0  0
   -4.2396   -2.6781    1.4144 C   0  0  0  0  0  0  0  0  0  0  0  0
   -4.9506   -2.0521    1.9514 H   0  0  0  0  0  0  0  0  0  0  0  0
   -4.5266   -2.7521    0.3674 H   0  0  0  0  0  0  0  0  0  0  0  0
   -2.8576   -2.0761    1.5184 C   0  0  0  0  0  0  0  0  0  0  0  0
   -1.9456   -2.7051    2.0404 O   0  0  0  0  0  0  0  0  0  0  0  0
   -2.6926   -0.8481    1.0174 N   0  0  0  0  0  0  0  0  0  0  0  0
   -3.4926   -0.3971    0.5954 H   0  0  0  0  0  0  0  0  0  0  0  0
   -1.4216   -0.1071    1.0434 C   0  0  1  0  0  0  0  0  0  0  0  0
   -0.7579   -0.5878    1.7640 H   0  0  0  0  0  0  0  0  0  0  0  0
   -0.7791   -0.1912   -0.3557 C   0  0  0  0  0  0  0  0  0  0  0  0
   -1.5484    0.0072   -1.1047 H   0  0  0  0  0  0  0  0  0  0  0  0
   -0.0129    0.5822   -0.4436 H   0  0  0  0  0  0  0  0  0  0  0  0
   -0.1516   -1.5595   -0.6591 C   0  0  0  0  0  0  0  0  0  0  0  0
    0.6919   -1.4358   -1.3397 H   0  0  0  0  0  0  0  0  0  0  0  0
    0.1983   -2.0100    0.2703 H   0  0  0  0  0  0  0  0  0  0  0  0
   -1.1931   -2.4789   -1.3113 C   0  0  0  0  0  0  0  0  0  0  0  0
   -2.0453   -2.5756   -0.6347 H   0  0  0  0  0  0  0  0  0  0  0  0
   -1.5319   -2.0158   -2.2411 H   0  0  0  0  0  0  0  0  0  0  0  0
   -0.6387   -3.8176   -1.5999 N   0  3  0  0  0  0  0  0  0  0  0  0
    0.3346   -3.9583   -1.3898 H   0  0  0  0  0  0  0  0  0  0  0  0
   -1.2999   -4.8448   -2.1065 C   0  0  0  0  0  0  0  0  0  0  0  0
   -2.5643   -4.7712   -2.4150 N   0  0  0  0  0  0  0  0  0  0  0  0
   -3.0503   -3.9055   -2.2607 H   0  0  0  0  0  0  0  0  0  0  0  0
   -3.0512   -5.5601   -2.7990 H   0  0  0  0  0  0  0  0  0  0  0  0
   -0.6957   -5.9797   -2.3166 N   0  0  0  0  0  0  0  0  0  0  0  0
    0.2792   -6.0850   -2.0942 H   0  0  0  0  0  0  0  0  0  0  0  0
   -1.2010   -6.7565   -2.7010 H   0  0  0  0  0  0  0  0  0  0  0  0
   -1.6547    1.3413    1.4779 C   0  0  0  0  0  0  0  0  0  0  0  0
   -2.5654    1.9858    0.9716 O   0  0  0  0  0  0  0  0  0  0  0  0
   -0.8107    1.8504    2.3808 N   0  0  0  0  0  0  0  0  0  0  0  0
   -0.1136    1.2381    2.7719 H   0  0  0  0  0  0  0  0  0  0  0  0
   -0.8954    3.2155    2.9026 C   0  0  0  0  0  0  0  0  0  0  0  0
   -1.8299    3.3430    3.4532 H   0  0  0  0  0  0  0  0  0  0  0  0
   -0.0581    3.4194    3.5712 H   0  0  0  0  0  0  0  0  0  0  0  0
   -0.8804    3.9320    2.0784 H   0  0  0  0  0  0  0  0  0  0  0  0
  5  6  2  0  0  0  0
  5  7  1  0  0  0  0
  2  3  1  0  0  0  0
  2  4  1  0  0  0  0
  2  5  1  0  0  0  0
  1  2  1  0  0  0  0
 29 30  2  0  0  0  0
 29 31  1  0  0  0  0
 26 27  1  0  0  0  0
 26 28  1  0  0  0  0
 23 24  1  0  0  0  0
 23 25  1  0  0  0  0
 22 23  1  0  0  0  0
 22 26  1  0  0  0  0
 20 21  1  0  0  0  0
 20 22  2  0  0  0  0
 17 18  1  0  0  0  0
 17 19  1  0  0  0  0
 17 20  1  0  0  0  0
 14 15  1  0  0  0  0
 14 16  1  0  0  0  0
 14 17  1  0  0  0  0
 11 12  1  0  0  0  0
 11 13  1  0  0  0  0
 11 14  1  0  0  0  0
  9 10  1  0  0  0  0
  9 11  1  0  0  0  0
  9 29  1  0  0  0  0
  7  8  1  0  0  0  0
  7  9  1  0  0  0  0
 33 34  1  0  0  0  0
 33 35  1  0  0  0  0
 33 36  1  0  0  0  0
 31 32  1  0  0  0  0
 31 33  1  0  0  0  0
M  CHG  1  20   1
M  END
$$$$
default_name
  -OEChem-02102213163D

 36 35  0     1  0  0  0  0  0999 V2000
   -4.2256   -3.6731    1.8584 H   0  0  0  0  0  0  0  0  0  0  0  0
   -4.2396   -2.6781    1.4144 C   0  0  0  0  0  0  0  0  0  0  0  0
   -4.9506   -2.0521    1.9514 H   0  0  0  0  0  0  0  0  0  0  0  0
   -4.5266   -2.7521    0.3674 H   0  0  0  0  0  0  0  0  0  0  0  0
   -2.8576   -2.0761    1.5184 C   0  0  0  0  0  0  0  0  0  0  0  0
   -1.9456   -2.7051    2.0404 O   0  0  0  0  0  0  0  0  0  0  0  0
   -2.6926   -0.8481    1.0174 N   0  0  0  0  0  0  0  0  0  0  0  0
   -3.4926   -0.3971    0.5954 H   0  0  0  0  0  0  0  0  0  0  0  0
   -1.4216   -0.1071    1.0434 C   0  0  1  0  0  0  0  0  0  0  0  0
   -0.7579   -0.5878    1.7640 H   0  0  0  0  0  0  0  0  0  0  0  0
   -0.7791   -0.1912   -0.3557 C   0  0  0  0  0  0  0  0  0  0  0  0
   -1.5484    0.0072   -1.1047 H   0  0  0  0  0  0  0  0  0  0  0  0
   -0.0129    0.5822   -0.4436 H   0  0  0  0  0  0  0  0  0  0  0  0
   -0.1516   -1.5595   -0.6591 C   0  0  0  0  0  0  0  0  0  0  0  0
    0.8316   -1.4224   -1.1113 H   0  0  0  0  0  0  0  0  0  0  0  0
   -0.0459   -2.1218    0.2693 H   0  0  0  0  0  0  0  0  0  0  0  0
   -1.0470   -2.3412   -1.6301 C   0  0  0  0  0  0  0  0  0  0  0  0
   -2.0366   -2.4505   -1.1806 H   0  0  0  0  0  0  0  0  0  0  0  0
   -1.1412   -1.7671   -2.5548 H   0  0  0  0  0  0  0  0  0  0  0  0
   -0.4928   -3.6769   -1.9324 N   0  3  0  0  0  0  0  0  0  0  0  0
    0.3985   -3.8995   -1.5231 H   0  0  0  0  0  0  0  0  0  0  0  0
   -1.0568   -4.6044   -2.6879 C   0  0  0  0  0  0  0  0  0  0  0  0
   -2.2104   -4.4201   -3.2663 N   0  0  0  0  0  0  0  0  0  0  0  0
   -2.6851   -3.5451   -3.1310 H   0  0  0  0  0  0  0  0  0  0  0  0
   -2.6244   -5.1343   -3.8368 H   0  0  0  0  0  0  0  0  0  0  0  0
   -0.4646   -5.7487   -2.8803 N   0  0  0  0  0  0  0  0  0  0  0  0
    0.4266   -5.9375   -2.4548 H   0  0  0  0  0  0  0  0  0  0  0  0
   -0.8960   -6.4496   -3.4541 H   0  0  0  0  0  0  0  0  0  0  0  0
   -1.6547    1.3413    1.4779 C   0  0  0  0  0  0  0  0  0  0  0  0
   -2.5654    1.9858    0.9716 O   0  0  0  0  0  0  0  0  0  0  0  0
   -0.8107    1.8504    2.3808 N   0  0  0  0  0  0  0  0  0  0  0  0
   -0.1136    1.2381    2.7719 H   0  0  0  0  0  0  0  0  0  0  0  0
   -0.8954    3.2155    2.9026 C   0  0  0  0  0  0  0  0  0  0  0  0
   -1.8299    3.3430    3.4532 H   0  0  0  0  0  0  0  0  0  0  0  0
   -0.0581    3.4194    3.5712 H   0  0  0  0  0  0  0  0  0  0  0  0
   -0.8804    3.9320    2.0784 H   0  0  0  0  0  0  0  0  0  0  0  0
  5  6  2  0  0  0  0
  5  7  1  0  0  0  0
  2  3  1  0  0  0  0
  2  4  1  0  0  0  0
  2  5  1  0  0  0  0
  1  2  1  0  0  0  0
 29 30  2  0  0  0  0
 29 31  1  0  0  0  0
 26 27  1  0  0  0  0
 26 28  1  0  0  0  0
 23 24  1  0  0  0  0
 23 25  1  0  0  0  0
 22 23  1  0  0  0  0
 22 26  1  0  0  0  0
 20 21  1  0  0  0  0
 20 22  2  0  0  0  0
 17 18  1  0  0  0  0
 17 19  1  0  0  0  0
 17 20  1  0  0  0  0
 14 15  1  0  0  0  0
 14 16  1  0  0  0  0
 14 17  1  0  0  0  0
 11 12  1  0  0  0  0
 11 13  1  0  0  0  0
 11 14  1  0  0  0  0
  9 10  1  0  0  0  0
  9 11  1  0  0  0  0
  9 29  1  0  0  0  0
  7  8  1  0  0  0  0
  7  9  1  0  0  0  0
 33 34  1  0  0  0  0
 33 35  1  0  0  0  0
 33 36  1  0  0  0  0
 31 32  1  0  0  0  0
 31 33  1  0  0  0  0
M  CHG  1  20   1
M  END
$$$$
default_name
  -OEChem-02102213163D

 36 35  0     1  0  0  0  0  0999 V2000
   -4.2256   -3.6731    1.8584 H   0  0  0  0  0  0  0  0  0  0  0  0
   -4.2396   -2.6781    1.4144 C   0  0  0  0  0  0  0  0  0  0  0  0
   -4.9506   -2.0521    1.9514 H   0  0  0  0  0  0  0  0  0  0  0  0
   -4.5266   -2.7521    0.3674 H   0  0  0  0  0  0  0  0  0  0  0  0
   -2.8576   -2.0761    1.5184 C   0  0  0  0  0  0  0  0  0  0  0  0
   -1.9456   -2.7051    2.0404 O   0  0  0  0  0  0  0  0  0  0  0  0
   -2.6926   -0.8481    1.0174 N   0  0  0  0  0  0  0  0  0  0  0  0
   -3.4926   -0.3971    0.5954 H   0  0  0  0  0  0  0  0  0  0  0  0
   -1.4216   -0.1071    1.0434 C   0  0  1  0  0  0  0  0  0  0  0  0
   -0.7579   -0.5878    1.7640 H   0  0  0  0  0  0  0  0  0  0  0  0
   -0.7791   -0.1912   -0.3557 C   0  0  0  0  0  0  0  0  0  0  0  0
   -1.5484    0.0072   -1.1047 H   0  0  0  0  0  0  0  0  0  0  0  0
   -0.0129    0.5822   -0.4436 H   0  0  0  0  0  0  0  0  0  0  0  0
   -0.1516   -1.5595   -0.6591 C   0  0  0  0  0  0  0  0  0  0  0  0
    0.9145   -1.4407   -0.8572 H   0  0  0  0  0  0  0  0  0  0  0  0
   -0.2874   -2.2171    0.2001 H   0  0  0  0  0  0  0  0  0  0  0  0
   -0.8252   -2.1819   -1.8896 C   0  0  0  0  0  0  0  0  0  0  0  0
   -1.8959   -2.2725   -1.6926 H   0  0  0  0  0  0  0  0  0  0  0  0
   -0.6787   -1.5136   -2.7414 H   0  0  0  0  0  0  0  0  0  0  0  0
   -0.2679   -3.5134   -2.2051 N   0  3  0  0  0  0  0  0  0  0  0  0
    0.4939   -3.8318   -1.6310 H   0  0  0  0  0  0  0  0  0  0  0  0
   -0.6755   -4.3231   -3.1681 C   0  0  0  0  0  0  0  0  0  0  0  0
   -1.6543   -4.0091   -3.9697 N   0  0  0  0  0  0  0  0  0  0  0  0
   -2.1133   -3.1235   -3.8493 H   0  0  0  0  0  0  0  0  0  0  0  0
   -1.9511   -4.6350   -4.6957 H   0  0  0  0  0  0  0  0  0  0  0  0
   -0.0996   -5.4779   -3.3471 N   0  0  0  0  0  0  0  0  0  0  0  0
    0.6597   -5.7643   -2.7535 H   0  0  0  0  0  0  0  0  0  0  0  0
   -0.4120   -6.0891   -4.0787 H   0  0  0  0  0  0  0  0  0  0  0  0
   -1.6547    1.3413    1.4779 C   0  0  0  0  0  0  0  0  0  0  0  0
   -2.5654    1.9858    0.9716 O   0  0  0  0  0  0  0  0  0  0  0  0
   -0.8107    1.8504    2.3808 N   0  0  0  0  0  0  0  0  0  0  0  0
   -0.1136    1.2381    2.7719 H   0  0  0  0  0  0  0  0  0  0  0  0
   -0.8954    3.2155    2.9026 C   0  0  0  0  0  0  0  0  0  0  0  0
   -1.8299    3.3430    3.4532 H   0  0  0  0  0  0  0  0  0  0  0  0
   -0.0581    3.4194    3.5712 H   0  0  0  0  0  0  0  0  0  0  0  0
   -0.8804    3.9320    2.0784 H   0  0  0  0  0  0  0  0  0  0  0  0
  5  6  2  0  0  0  0
  5  7  1  0  0  0  0
  2  3  1  0  0  0  0
  2  4  1  0  0  0  0
  2  5  1  0  0  0  0
  1  2  1  0  0  0  0
 29 30  2  0  0  0  0
 29 31  1  0  0  0  0
 26 27  1  0  0  0  0
 26 28  1  0  0  0  0
 23 24  1  0  0  0  0
 23 25  1  0  0  0  0
 22 23  1  0  0  0  0
 22 26  1  0  0  0  0
 20 21  1  0  0  0  0
 20 22  2  0  0  0  0
 17 18  1  0  0  0  0
 17 19  1  0  0  0  0
 17 20  1  0  0  0  0
 14 15  1  0  0  0  0
 14 16  1  0  0  0  0
 14 17  1  0  0  0  0
 11 12  1  0  0  0  0
 11 13  1  0  0  0  0
 11 14  1  0  0  0  0
  9 10  1  0  0  0  0
  9 11  1  0  0  0  0
  9 29  1  0  0  0  0
  7  8  1  0  0  0  0
  7  9  1  0  0  0  0
 33 34  1  0  0  0  0
 33 35  1  0  0  0  0
 33 36  1  0  0  0  0
 31 32  1  0  0  0  0
 31 33  1  0  0  0  0
M  CHG  1  20   1
M  END
$$$$
default_name
  -OEChem-02102213163D

 36 35  0     1  0  0  0  0  0999 V2000
   -4.2256   -3.6731    1.8584 H   0  0  0  0  0  0  0  0  0  0  0  0
   -4.2396   -2.6781    1.4144 C   0  0  0  0  0  0  0  0  0  0  0  0
   -4.9506   -2.0521    1.9514 H   0  0  0  0  0  0  0  0  0  0  0  0
   -4.5266   -2.7521    0.3674 H   0  0  0  0  0  0  0  0  0  0  0  0
   -2.8576   -2.0761    1.5184 C   0  0  0  0  0  0  0  0  0  0  0  0
   -1.9456   -2.7051    2.0404 O   0  0  0  0  0  0  0  0  0  0  0  0
   -2.6926   -0.8481    1.0174 N   0  0  0  0  0  0  0  0  0  0  0  0
   -3.4926   -0.3971    0.5954 H   0  0  0  0  0  0  0  0  0  0  0  0
   -1.4216   -0.1071    1.0434 C   0  0  1  0  0  0  0  0  0  0  0  0
   -0.7579   -0.5878    1.7640 H   0  0  0  0  0  0  0  0  0  0  0  0
   -0.7791   -0.1912   -0.3557 C   0  0  0  0  0  0  0  0  0  0  0  0
   -1.5484    0.0072   -1.1047 H   0  0  0  0  0  0  0  0  0  0  0  0
   -0.0129    0.5822   -0.4436 H   0  0  0  0  0  0  0  0  0  0  0  0
   -0.1516   -1.5595   -0.6591 C   0  0  0  0  0  0  0  0  0  0  0  0
    0.9351   -1.4895   -0.5945 H   0  0  0  0  0  0  0  0  0  0  0  0
   -0.5095   -2.2896    0.0676 H   0  0  0  0  0  0  0  0  0  0  0  0
   -0.5430   -2.0120   -2.0724 C   0  0  0  0  0  0  0  0  0  0  0  0
   -1.6328   -2.0535   -2.1359 H   0  0  0  0  0  0  0  0  0  0  0  0
   -0.1760   -1.2727   -2.7883 H   0  0  0  0  0  0  0  0  0  0  0  0
    0.0205   -3.3380   -2.3994 N   0  3  0  0  0  0  0  0  0  0  0  0
    0.6144   -3.7599   -1.7060 H   0  0  0  0  0  0  0  0  0  0  0  0
   -0.1822   -4.0201   -3.5141 C   0  0  0  0  0  0  0  0  0  0  0  0
   -0.9339   -3.5662   -4.4775 N   0  0  0  0  0  0  0  0  0  0  0  0
   -1.3736   -2.6696   -4.3666 H   0  0  0  0  0  0  0  0  0  0  0  0
   -1.0770   -4.0964   -5.3173 H   0  0  0  0  0  0  0  0  0  0  0  0
    0.3745   -5.1855   -3.6851 N   0  0  0  0  0  0  0  0  0  0  0  0
    0.9626   -5.5774   -2.9699 H   0  0  0  0  0  0  0  0  0  0  0  0
    0.2180   -5.6996   -4.5323 H   0  0  0  0  0  0  0  0  0  0  0  0
   -1.6547    1.3413    1.4779 C   0  0  0  0  0  0  0  0  0  0  0  0
   -2.5654    1.9858    0.9716 O   0  0  0  0  0  0  0  0  0  0  0  0
   -0.8107    1.8504    2.3808 N   0  0  0  0  0  0  0  0  0  0  0  0
   -0.1136    1.2381    2.7719 H   0  0  0  0  0  0  0  0  0  0  0  0
   -0.8954    3.2155    2.9026 C   0  0  0  0  0  0  0  0  0  0  0  0
   -1.8299    3.3430    3.4532 H   0  0  0  0  0  0  0  0  0  0  0  0
   -0.0581    3.4194    3.5712 H   0  0  0  0  0  0  0  0  0  0  0  0
   -0.8804    3.9320    2.0784 H   0  0  0  0  0  0  0  0  0  0  0  0
  5  6  2  0  0  0  0
  5  7  1  0  0  0  0
  2  3  1  0  0  0  0
  2  4  1  0  0  0  0
  2  5  1  0  0  0  0
  1  2  1  0  0  0  0
 29 30  2  0  0  0  0
 29 31  1  0  0  0  0
 26 27  1  0  0  0  0
 26 28  1  0  0  0  0
 23 24  1  0  0  0  0
 23 25  1  0  0  0  0
 22 23  1  0  0  0  0
 22 26  1  0  0  0  0
 20 21  1  0  0  0  0
 20 22  2  0  0  0  0
 17 18  1  0  0  0  0
 17 19  1  0  0  0  0
 17 20  1  0  0  0  0
 14 15  1  0  0  0  0
 14 16  1  0  0  0  0
 14 17  1  0  0  0  0
 11 12  1  0  0  0  0
 11 13  1  0  0  0  0
 11 14  1  0  0  0  0
  9 10  1  0  0  0  0
  9 11  1  0  0  0  0
  9 29  1  0  0  0  0
  7  8  1  0  0  0  0
  7  9  1  0  0  0  0
 33 34  1  0  0  0  0
 33 35  1  0  0  0  0
 33 36  1  0  0  0  0
 31 32  1  0  0  0  0
 31 33  1  0  0  0  0
M  CHG  1  20   1
M  END
$$$$
default_name
  -OEChem-02102213163D

 36 35  0     1  0  0  0  0  0999 V2000
   -4.2256   -3.6731    1.8584 H   0  0  0  0  0  0  0  0  0  0  0  0
   -4.2396   -2.6781    1.4144 C   0  0  0  0  0  0  0  0  0  0  0  0
   -4.9506   -2.0521    1.9514 H   0  0  0  0  0  0  0  0  0  0  0  0
   -4.5266   -2.7521    0.3674 H   0  0  0  0  0  0  0  0  0  0  0  0
   -2.8576   -2.0761    1.5184 C   0  0  0  0  0  0  0  0  0  0  0  0
   -1.9456   -2.7051    2.0404 O   0  0  0  0  0  0  0  0  0  0  0  0
   -2.6926   -0.8481    1.0174 N   0  0  0  0  0  0  0  0  0  0  0  0
   -3.4926   -0.3971    0.5954 H   0  0  0  0  0  0  0  0  0  0  0  0
   -1.4216   -0.1071    1.0434 C   0  0  1  0  0  0  0  0  0  0  0  0
   -0.7579   -0.5878    1.7640 H   0  0  0  0  0  0  0  0  0  0  0  0
   -0.7791   -0.1912   -0.3557 C   0  0  0  0  0  0  0  0  0  0  0  0
   -1.5484    0.0072   -1.1047 H   0  0  0  0  0  0  0  0  0  0  0  0
   -0.0129    0.5822   -0.4436 H   0  0  0  0  0  0  0  0  0  0  0  0
   -0.1516   -1.5595   -0.6591 C   0  0  0  0  0  0  0  0  0  0  0  0
    0.8919   -1.5655   -0.3411 H   0  0  0  0  0  0  0  0  0  0  0  0
   -0.6972   -2.3342   -0.1194 H   0  0  0  0  0  0  0  0  0  0  0  0
   -0.2196   -1.8430   -2.1659 C   0  0  0  0  0  0  0  0  0  0  0  0
   -1.2652   -1.8086   -2.4803 H   0  0  0  0  0  0  0  0  0  0  0  0
    0.3327   -1.0608   -2.6920 H   0  0  0  0  0  0  0  0  0  0  0  0
    0.3529   -3.1629   -2.5019 N   0  3  0  0  0  0  0  0  0  0  0  0
    0.7517   -3.6887   -1.7431 H   0  0  0  0  0  0  0  0  0  0  0  0
    0.3897   -3.7160   -3.7026 C   0  0  0  0  0  0  0  0  0  0  0  0
   -0.0983   -3.1214   -4.7550 N   0  0  0  0  0  0  0  0  0  0  0  0
   -0.5167   -2.2143   -4.6477 H   0  0  0  0  0  0  0  0  0  0  0  0
   -0.0619   -3.5551   -5.6592 H   0  0  0  0  0  0  0  0  0  0  0  0
    0.9253   -4.8916   -3.8714 N   0  0  0  0  0  0  0  0  0  0  0  0
    1.3147   -5.3895   -3.0894 H   0  0  0  0  0  0  0  0  0  0  0  0
    0.9511   -5.3077   -4.7839 H   0  0  0  0  0  0  0  0  0  0  0  0
   -1.6547    1.3413    1.4779 C   0  0  0  0  0  0  0  0  0  0  0  0
   -2.5654    1.9858    0.9716 O   0  0  0  0  0  0  0  0  0  0  0  0
   -0.8107    1.8504    2.3808 N   0  0  0  0  0  0  0  0  0  0  0  0
   -0.1136    1.2381    2.7719 H   0  0  0  0  0  0  0  0  0  0  0  0
   -0.8954    3.2155    2.9026 C   0  0  0  0  0  0  0  0  0  0  0  0
   -1.8299    3.3430    3.4532 H   0  0  0  0  0  0  0  0  0  0  0  0
   -0.0581    3.4194    3.5712 H   0  0  0  0  0  0  0  0  0  0  0  0
   -0.8804    3.9320    2.0784 H   0  0  0  0  0  0  0  0  0  0  0  0
  5  6  2  0  0  0  0
  5  7  1  0  0  0  0
  2  3  1  0  0  0  0
  2  4  1  0  0  0  0
  2  5  1  0  0  0  0
  1  2  1  0  0  0  0
 29 30  2  0  0  0  0
 29 31  1  0  0  0  0
 26 27  1  0  0  0  0
 26 28  1  0  0  0  0
 23 24  1  0  0  0  0
 23 25  1  0  0  0  0
 22 23  1  0  0  0  0
 22 26  1  0  0  0  0
 20 21  1  0  0  0  0
 20 22  2  0  0  0  0
 17 18  1  0  0  0  0
 17 19  1  0  0  0  0
 17 20  1  0  0  0  0
 14 15  1  0  0  0  0
 14 16  1  0  0  0  0
 14 17  1  0  0  0  0
 11 12  1  0  0  0  0
 11 13  1  0  0  0  0
 11 14  1  0  0  0  0
  9 10  1  0  0  0  0
  9 11  1  0  0  0  0
  9 29  1  0  0  0  0
  7  8  1  0  0  0  0
  7  9  1  0  0  0  0
 33 34  1  0  0  0  0
 33 35  1  0  0  0  0
 33 36  1  0  0  0  0
 31 32  1  0  0  0  0
 31 33  1  0  0  0  0
M  CHG  1  20   1
M  END
$$$$
default_name
  -OEChem-02102213163D

 36 35  0     1  0  0  0  0  0999 V2000
   -4.2256   -3.6731    1.8584 H   0  0  0  0  0  0  0  0  0  0  0  0
   -4.2396   -2.6781    1.4144 C   0  0  0  0  0  0  0  0  0  0  0  0
   -4.9506   -2.0521    1.9514 H   0  0  0  0  0  0  0  0  0  0  0  0
   -4.5266   -2.7521    0.3674 H   0  0  0  0  0  0  0  0  0  0  0  0
   -2.8576   -2.0761    1.5184 C   0  0  0  0  0  0  0  0  0  0  0  0
   -1.9456   -2.7051    2.0404 O   0  0  0  0  0  0  0  0  0  0  0  0
   -2.6926   -0.8481    1.0174 N   0  0  0  0  0  0  0  0  0  0  0  0
   -3.4926   -0.3971    0.5954 H   0  0  0  0  0  0  0  0  0  0  0  0
   -1.4216   -0.1071    1.0434 C   0  0  1  0  0  0  0  0  0  0  0  0
   -0.7579   -0.5878    1.7640 H   0  0  0  0  0  0  0  0  0  0  0  0
   -0.7791   -0.1912   -0.3557 C   0  0  0  0  0  0  0  0  0  0  0  0
   -1.5484    0.0072   -1.1047 H   0  0  0  0  0  0  0  0  0  0  0  0
   -0.0129    0.5822   -0.4436 H   0  0  0  0  0  0  0  0  0  0  0  0
   -0.1516   -1.5595   -0.6591 C   0  0  0  0  0  0  0  0  0  0  0  0
    0.7878   -1.6635   -0.1144 H   0  0  0  0  0  0  0  0  0  0  0  0
   -0.8377   -2.3480   -0.3479 H   0  0  0  0  0  0  0  0  0  0  0  0
    0.1230   -1.6863   -2.1637 C   0  0  0  0  0  0  0  0  0  0  0  0
   -0.8182   -1.5544   -2.7023 H   0  0  0  0  0  0  0  0  0  0  0  0
    0.8127   -0.8922   -2.4594 H   0  0  0  0  0  0  0  0  0  0  0  0
    0.7065   -2.9998   -2.5058 N   0  3  0  0  0  0  0  0  0  0  0  0
    0.8966   -3.6230   -1.7397 H   0  0  0  0  0  0  0  0  0  0  0  0
    1.0011   -3.4317   -3.7206 C   0  0  0  0  0  0  0  0  0  0  0  0
    0.7956   -2.7052   -4.7833 N   0  0  0  0  0  0  0  0  0  0  0  0
    0.3991   -1.7886   -4.6735 H   0  0  0  0  0  0  0  0  0  0  0  0
    1.0251   -3.0479   -5.6980 H   0  0  0  0  0  0  0  0  0  0  0  0
    1.5154   -4.6162   -3.8932 N   0  0  0  0  0  0  0  0  0  0  0  0
    1.6919   -5.2133   -3.1037 H   0  0  0  0  0  0  0  0  0  0  0  0
    1.7373   -4.9399   -4.8165 H   0  0  0  0  0  0  0  0  0  0  0  0
   -1.6547    1.3413    1.4779 C   0  0  0  0  0  0  0  0  0  0  0  0
   -2.5654    1.9858    0.9716 O   0  0  0  0  0  0  0  0  0  0  0  0
   -0.8107    1.8504    2.3808 N   0  0  0  0  0  0  0  0  0  0  0  0
   -0.1136    1.2381    2.7719 H   0  0  0  0  0  0  0  0  0  0  0  0
   -0.8954    3.2155    2.9026 C   0  0  0  0  0  0  0  0  0  0  0  0
   -1.8299    3.3430    3.4532 H   0  0  0  0  0  0  0  0  0  0  0  0
   -0.0581    3.4194    3.5712 H   0  0  0  0  0  0  0  0  0  0  0  0
   -0.8804    3.9320    2.0784 H   0  0  0  0  0  0  0  0  0  0  0  0
  5  6  2  0  0  0  0
  5  7  1  0  0  0  0
  2  3  1  0  0  0  0
  2  4  1  0  0  0  0
  2  5  1  0  0  0  0
  1  2  1  0  0  0  0
 29 30  2  0  0  0  0
 29 31  1  0  0  0  0
 26 27  1  0  0  0  0
 26 28  1  0  0  0  0
 23 24  1  0  0  0  0
 23 25  1  0  0  0  0
 22 23  1  0  0  0  0
 22 26  1  0  0  0  0
 20 21  1  0  0  0  0
 20 22  2  0  0  0  0
 17 18  1  0  0  0  0
 17 19  1  0  0  0  0
 17 20  1  0  0  0  0
 14 15  1  0  0  0  0
 14 16  1  0  0  0  0
 14 17  1  0  0  0  0
 11 12  1  0  0  0  0
 11 13  1  0  0  0  0
 11 14  1  0  0  0  0
  9 10  1  0  0  0  0
  9 11  1  0  0  0  0
  9 29  1  0  0  0  0
  7  8  1  0  0  0  0
  7  9  1  0  0  0  0
 33 34  1  0  0  0  0
 33 35  1  0  0  0  0
 33 36  1  0  0  0  0
 31 32  1  0  0  0  0
 31 33  1  0  0  0  0
M  CHG  1  20   1
M  END
$$$$
default_name
  -OEChem-02102213163D

 36 35  0     1  0  0  0  0  0999 V2000
   -4.2256   -3.6731    1.8584 H   0  0  0  0  0  0  0  0  0  0  0  0
   -4.2396   -2.6781    1.4144 C   0  0  0  0  0  0  0  0  0  0  0  0
   -4.9506   -2.0521    1.9514 H   0  0  0  0  0  0  0  0  0  0  0  0
   -4.5266   -2.7521    0.3674 H   0  0  0  0  0  0  0  0  0  0  0  0
   -2.8576   -2.0761    1.5184 C   0  0  0  0  0  0  0  0  0  0  0  0
   -1.9456   -2.7051    2.0404 O   0  0  0  0  0  0  0  0  0  0  0  0
   -2.6926   -0.8481    1.0174 N   0  0  0  0  0  0  0  0  0  0  0  0
   -3.4926   -0.3971    0.5954 H   0  0  0  0  0  0  0  0  0  0  0  0
   -1.4216   -0.1071    1.0434 C   0  0  1  0  0  0  0  0  0  0  0  0
   -0.7579   -0.5878    1.7640 H   0  0  0  0  0  0  0  0  0  0  0  0
   -0.7791   -0.1912   -0.3557 C   0  0  0  0  0  0  0  0  0  0  0  0
   -1.4601    0.2612   -1.0794 H   0  0  0  0  0  0  0  0  0  0  0  0
    0.1490    0.3847   -0.3574 H   0  0  0  0  0  0  0  0  0  0  0  0
   -0.4814   -1.6287   -0.8063 C   0  0  0  0  0  0  0  0  0  0  0  0
    0.2077   -2.1002   -0.1043 H   0  0  0  0  0  0  0  0  0  0  0  0
   -1.4113   -2.1975   -0.8355 H   0  0  0  0  0  0  0  0  0  0  0  0
    0.1539   -1.6173   -2.2034 C   0  0  0  0  0  0  0  0  0  0  0  0
   -0.5310   -1.1199   -2.8939 H   0  0  0  0  0  0  0  0  0  0  0  0
    1.0844   -1.0465   -2.1575 H   0  0  0  0  0  0  0  0  0  0  0  0
    0.4364   -2.9839   -2.6885 N   0  3  0  0  0  0  0  0  0  0  0  0
    0.2338   -3.7387   -2.0556 H   0  0  0  0  0  0  0  0  0  0  0  0
    0.9286   -3.3067   -3.8727 C   0  0  0  0  0  0  0  0  0  0  0  0
    1.2264   -2.4074   -4.7682 N   0  0  0  0  0  0  0  0  0  0  0  0
    1.0749   -1.4385   -4.5498 H   0  0  0  0  0  0  0  0  0  0  0  0
    1.5996   -2.6694   -5.6620 H   0  0  0  0  0  0  0  0  0  0  0  0
    1.1347   -4.5550   -4.1837 N   0  0  0  0  0  0  0  0  0  0  0  0
    0.9202   -5.2845   -3.5258 H   0  0  0  0  0  0  0  0  0  0  0  0
    1.5082   -4.7955   -5.0832 H   0  0  0  0  0  0  0  0  0  0  0  0
   -1.6547    1.3413    1.4779 C   0  0  0  0  0  0  0  0  0  0  0  0
   -2.5654    1.9858    0.9716 O   0  0  0  0  0  0  0  0  0  0  0  0
   -0.8107    1.8504    2.3808 N   0  0  0  0  0  0  0  0  0  0  0  0
   -0.1136    1.2381    2.7719 H   0  0  0  0  0  0  0  0  0  0  0  0
   -0.8954    3.2155    2.9026 C   0  0  0  0  0  0  0  0  0  0  0  0
   -1.8299    3.3430    3.4532 H   0  0  0  0  0  0  0  0  0  0  0  0
   -0.0581    3.4194    3.5712 H   0  0  0  0  0  0  0  0  0  0  0  0
   -0.8804    3.9320    2.0784 H   0  0  0  0  0  0  0  0  0  0  0  0
  5  6  2  0  0  0  0
  5  7  1  0  0  0  0
  2  3  1  0  0  0  0
  2  4  1  0  0  0  0
  2  5  1  0  0  0  0
  1  2  1  0  0  0  0
 29 30  2  0  0  0  0
 29 31  1  0  0  0  0
 26 27  1  0  0  0  0
 26 28  1  0  0  0  0
 23 24  1  0  0  0  0
 23 25  1  0  0  0  0
 22 23  1  0  0  0  0
 22 26  1  0  0  0  0
 20 21  1  0  0  0  0
 20 22  2  0  0  0  0
 17 18  1  0  0  0  0
 17 19  1  0  0  0  0
 17 20  1  0  0  0  0
 14 15  1  0  0  0  0
 14 16  1  0  0  0  0
 14 17  1  0  0  0  0
 11 12  1  0  0  0  0
 11 13  1  0  0  0  0
 11 14  1  0  0  0  0
  9 10  1  0  0  0  0
  9 11  1  0  0  0  0
  9 29  1  0  0  0  0
  7  8  1  0  0  0  0
  7  9  1  0  0  0  0
 33 34  1  0  0  0  0
 33 35  1  0  0  0  0
 33 36  1  0  0  0  0
 31 32  1  0  0  0  0
 31 33  1  0  0  0  0
M  CHG  1  20   1
M  END
$$$$
default_name
  -OEChem-02102213163D

 36 35  0     1  0  0  0  0  0999 V2000
   -4.2256   -3.6731    1.8584 H   0  0  0  0  0  0  0  0  0  0  0  0
   -4.2396   -2.6781    1.4144 C   0  0  0  0  0  0  0  0  0  0  0  0
   -4.9506   -2.0521    1.9514 H   0  0  0  0  0  0  0  0  0  0  0  0
   -4.5266   -2.7521    0.3674 H   0  0  0  0  0  0  0  0  0  0  0  0
   -2.8576   -2.0761    1.5184 C   0  0  0  0  0  0  0  0  0  0  0  0
   -1.9456   -2.7051    2.0404 O   0  0  0  0  0  0  0  0  0  0  0  0
   -2.6926   -0.8481    1.0174 N   0  0  0  0  0  0  0  0  0  0  0  0
   -3.4926   -0.3971    0.5954 H   0  0  0  0  0  0  0  0  0  0  0  0
   -1.4216   -0.1071    1.0434 C   0  0  1  0  0  0  0  0  0  0  0  0
   -0.7579   -0.5878    1.7640 H   0  0  0  0  0  0  0  0  0  0  0  0
   -0.7791   -0.1912   -0.3557 C   0  0  0  0  0  0  0  0  0  0  0  0
   -1.4601    0.2612   -1.0794 H   0  0  0  0  0  0  0  0  0  0  0  0
    0.1490    0.3847   -0.3574 H   0  0  0  0  0  0  0  0  0  0  0  0
   -0.4814   -1.6287   -0.8063 C   0  0  0  0  0  0  0  0  0  0  0  0
   -0.0193   -2.1835    0.0114 H   0  0  0  0  0  0  0  0  0  0  0  0
   -1.4134   -2.1175   -1.0920 H   0  0  0  0  0  0  0  0  0  0  0  0
    0.4751   -1.6125   -2.0065 C   0  0  0  0  0  0  0  0  0  0  0  0
    0.0159   -1.0327   -2.8105 H   0  0  0  0  0  0  0  0  0  0  0  0
    1.4037   -1.1225   -1.7044 H   0  0  0  0  0  0  0  0  0  0  0  0
    0.7714   -2.9768   -2.4899 N   0  3  0  0  0  0  0  0  0  0  0  0
    0.3682   -3.7376   -1.9704 H   0  0  0  0  0  0  0  0  0  0  0  0
    1.5141   -3.2903   -3.5383 C   0  0  0  0  0  0  0  0  0  0  0  0
    2.0836   -2.3827   -4.2807 N   0  0  0  0  0  0  0  0  0  0  0  0
    1.9513   -1.4144   -4.0478 H   0  0  0  0  0  0  0  0  0  0  0  0
    2.6446   -2.6378   -5.0727 H   0  0  0  0  0  0  0  0  0  0  0  0
    1.7023   -4.5376   -3.8643 N   0  0  0  0  0  0  0  0  0  0  0  0
    1.2833   -5.2732   -3.3220 H   0  0  0  0  0  0  0  0  0  0  0  0
    2.2665   -4.7711   -4.6604 H   0  0  0  0  0  0  0  0  0  0  0  0
   -1.6547    1.3413    1.4779 C   0  0  0  0  0  0  0  0  0  0  0  0
   -2.5654    1.9858    0.9716 O   0  0  0  0  0  0  0  0  0  0  0  0
   -0.8107    1.8504    2.3808 N   0  0  0  0  0  0  0  0  0  0  0  0
   -0.1136    1.2381    2.7719 H   0  0  0  0  0  0  0  0  0  0  0  0
   -0.8954    3.2155    2.9026 C   0  0  0  0  0  0  0  0  0  0  0  0
   -1.8299    3.3430    3.4532 H   0  0  0  0  0  0  0  0  0  0  0  0
   -0.0581    3.4194    3.5712 H   0  0  0  0  0  0  0  0  0  0  0  0
   -0.8804    3.9320    2.0784 H   0  0  0  0  0  0  0  0  0  0  0  0
  5  6  2  0  0  0  0
  5  7  1  0  0  0  0
  2  3  1  0  0  0  0
  2  4  1  0  0  0  0
  2  5  1  0  0  0  0
  1  2  1  0  0  0  0
 29 30  2  0  0  0  0
 29 31  1  0  0  0  0
 26 27  1  0  0  0  0
 26 28  1  0  0  0  0
 23 24  1  0  0  0  0
 23 25  1  0  0  0  0
 22 23  1  0  0  0  0
 22 26  1  0  0  0  0
 20 21  1  0  0  0  0
 20 22  2  0  0  0  0
 17 18  1  0  0  0  0
 17 19  1  0  0  0  0
 17 20  1  0  0  0  0
 14 15  1  0  0  0  0
 14 16  1  0  0  0  0
 14 17  1  0  0  0  0
 11 12  1  0  0  0  0
 11 13  1  0  0  0  0
 11 14  1  0  0  0  0
  9 10  1  0  0  0  0
  9 11  1  0  0  0  0
  9 29  1  0  0  0  0
  7  8  1  0  0  0  0
  7  9  1  0  0  0  0
 33 34  1  0  0  0  0
 33 35  1  0  0  0  0
 33 36  1  0  0  0  0
 31 32  1  0  0  0  0
 31 33  1  0  0  0  0
M  CHG  1  20   1
M  END
$$$$
default_name
  -OEChem-02102213163D

 36 35  0     1  0  0  0  0  0999 V2000
   -4.2256   -3.6731    1.8584 H   0  0  0  0  0  0  0  0  0  0  0  0
   -4.2396   -2.6781    1.4144 C   0  0  0  0  0  0  0  0  0  0  0  0
   -4.9506   -2.0521    1.9514 H   0  0  0  0  0  0  0  0  0  0  0  0
   -4.5266   -2.7521    0.3674 H   0  0  0  0  0  0  0  0  0  0  0  0
   -2.8576   -2.0761    1.5184 C   0  0  0  0  0  0  0  0  0  0  0  0
   -1.9456   -2.7051    2.0404 O   0  0  0  0  0  0  0  0  0  0  0  0
   -2.6926   -0.8481    1.0174 N   0  0  0  0  0  0  0  0  0  0  0  0
   -3.4926   -0.3971    0.5954 H   0  0  0  0  0  0  0  0  0  0  0  0
   -1.4216   -0.1071    1.0434 C   0  0  1  0  0  0  0  0  0  0  0  0
   -0.7579   -0.5878    1.7640 H   0  0  0  0  0  0  0  0  0  0  0  0
   -0.7791   -0.1912   -0.3557 C   0  0  0  0  0  0  0  0  0  0  0  0
   -1.4601    0.2612   -1.0794 H   0  0  0  0  0  0  0  0  0  0  0  0
    0.1490    0.3847   -0.3574 H   0  0  0  0  0  0  0  0  0  0  0  0
   -0.4814   -1.6287   -0.8063 C   0  0  0  0  0  0  0  0  0  0  0  0
   -0.2728   -2.2525    0.0640 H   0  0  0  0  0  0  0  0  0  0  0  0
   -1.3472   -2.0272   -1.3362 H   0  0  0  0  0  0  0  0  0  0  0  0
    0.7379   -1.6422   -1.7383 C   0  0  0  0  0  0  0  0  0  0  0  0
    0.5306   -0.9943   -2.5931 H   0  0  0  0  0  0  0  0  0  0  0  0
    1.5965   -1.2428   -1.1932 H   0  0  0  0  0  0  0  0  0  0  0  0
    1.0474   -3.0053   -2.2167 N   0  3  0  0  0  0  0  0  0  0  0  0
    0.4775   -3.7510   -1.8555 H   0  0  0  0  0  0  0  0  0  0  0  0
    2.0000   -3.3357   -3.0725 C   0  0  0  0  0  0  0  0  0  0  0  0
    2.7954   -2.4484   -3.6009 N   0  0  0  0  0  0  0  0  0  0  0  0
    2.6782   -1.4828   -3.3494 H   0  0  0  0  0  0  0  0  0  0  0  0
    3.5136   -2.7161   -4.2486 H   0  0  0  0  0  0  0  0  0  0  0  0
    2.1746   -4.5799   -3.4174 N   0  0  0  0  0  0  0  0  0  0  0  0
    1.5854   -5.3002   -3.0365 H   0  0  0  0  0  0  0  0  0  0  0  0
    2.8983   -4.8262   -4.0670 H   0  0  0  0  0  0  0  0  0  0  0  0
   -1.6547    1.3413    1.4779 C   0  0  0  0  0  0  0  0  0  0  0  0
   -2.5654    1.9858    0.9716 O   0  0  0  0  0  0  0  0  0  0  0  0
   -0.8107    1.8504    2.3808 N   0  0  0  0  0  0  0  0  0  0  0  0
   -0.1136    1.2381    2.7719 H   0  0  0  0  0  0  0  0  0  0  0  0
   -0.8954    3.2155    2.9026 C   0  0  0  0  0  0  0  0  0  0  0  0
   -1.8299    3.3430    3.4532 H   0  0  0  0  0  0  0  0  0  0  0  0
   -0.0581    3.4194    3.5712 H   0  0  0  0  0  0  0  0  0  0  0  0
   -0.8804    3.9320    2.0784 H   0  0  0  0  0  0  0  0  0  0  0  0
  5  6  2  0  0  0  0
  5  7  1  0  0  0  0
  2  3  1  0  0  0  0
  2  4  1  0  0  0  0
  2  5  1  0  0  0  0
  1  2  1  0  0  0  0
 29 30  2  0  0  0  0
 29 31  1  0  0  0  0
 26 27  1  0  0  0  0
 26 28  1  0  0  0  0
 23 24  1  0  0  0  0
 23 25  1  0  0  0  0
 22 23  1  0  0  0  0
 22 26  1  0  0  0  0
 20 21  1  0  0  0  0
 20 22  2  0  0  0  0
 17 18  1  0  0  0  0
 17 19  1  0  0  0  0
 17 20  1  0  0  0  0
 14 15  1  0  0  0  0
 14 16  1  0  0  0  0
 14 17  1  0  0  0  0
 11 12  1  0  0  0  0
 11 13  1  0  0  0  0
 11 14  1  0  0  0  0
  9 10  1  0  0  0  0
  9 11  1  0  0  0  0
  9 29  1  0  0  0  0
  7  8  1  0  0  0  0
  7  9  1  0  0  0  0
 33 34  1  0  0  0  0
 33 35  1  0  0  0  0
 33 36  1  0  0  0  0
 31 32  1  0  0  0  0
 31 33  1  0  0  0  0
M  CHG  1  20   1
M  END
$$$$
default_name
  -OEChem-02102213163D

 36 35  0     1  0  0  0  0  0999 V2000
   -4.2256   -3.6731    1.8584 H   0  0  0  0  0  0  0  0  0  0  0  0
   -4.2396   -2.6781    1.4144 C   0  0  0  0  0  0  0  0  0  0  0  0
   -4.9506   -2.0521    1.9514 H   0  0  0  0  0  0  0  0  0  0  0  0
   -4.5266   -2.7521    0.3674 H   0  0  0  0  0  0  0  0  0  0  0  0
   -2.8576   -2.0761    1.5184 C   0  0  0  0  0  0  0  0  0  0  0  0
   -1.9456   -2.7051    2.0404 O   0  0  0  0  0  0  0  0  0  0  0  0
   -2.6926   -0.8481    1.0174 N   0  0  0  0  0  0  0  0  0  0  0  0
   -3.4926   -0.3971    0.5954 H   0  0  0  0  0  0  0  0  0  0  0  0
   -1.4216   -0.1071    1.0434 C   0  0  1  0  0  0  0  0  0  0  0  0
   -0.7579   -0.5878    1.7640 H   0  0  0  0  0  0  0  0  0  0  0  0
   -0.7791   -0.1912   -0.3557 C   0  0  0  0  0  0  0  0  0  0  0  0
   -1.4601    0.2612   -1.0794 H   0  0  0  0  0  0  0  0  0  0  0  0
    0.1490    0.3847   -0.3574 H   0  0  0  0  0  0  0  0  0  0  0  0
   -0.4814   -1.6287   -0.8063 C   0  0  0  0  0  0  0  0  0  0  0  0
   -0.5357   -2.3025    0.0499 H   0  0  0  0  0  0  0  0  0  0  0  0
   -1.2172   -1.9328   -1.5515 H   0  0  0  0  0  0  0  0  0  0  0  0
    0.9246   -1.7042   -1.4170 C   0  0  0  0  0  0  0  0  0  0  0  0
    0.9781   -1.0072   -2.2564 H   0  0  0  0  0  0  0  0  0  0  0  0
    1.6498   -1.3993   -0.6588 H   0  0  0  0  0  0  0  0  0  0  0  0
    1.2456   -3.0675   -1.8873 N   0  3  0  0  0  0  0  0  0  0  0  0
    0.5542   -3.7780   -1.7187 H   0  0  0  0  0  0  0  0  0  0  0  0
    2.3529   -3.4399   -2.5072 C   0  0  0  0  0  0  0  0  0  0  0  0
    3.3133   -2.6001   -2.7752 N   0  0  0  0  0  0  0  0  0  0  0  0
    3.2058   -1.6392   -2.5022 H   0  0  0  0  0  0  0  0  0  0  0  0
    4.1473   -2.8992   -3.2460 H   0  0  0  0  0  0  0  0  0  0  0  0
    2.5192   -4.6790   -2.8735 N   0  0  0  0  0  0  0  0  0  0  0  0
    1.8061   -5.3634   -2.6889 H   0  0  0  0  0  0  0  0  0  0  0  0
    3.3607   -4.9573   -3.3436 H   0  0  0  0  0  0  0  0  0  0  0  0
   -1.6547    1.3413    1.4779 C   0  0  0  0  0  0  0  0  0  0  0  0
   -2.5654    1.9858    0.9716 O   0  0  0  0  0  0  0  0  0  0  0  0
   -0.8107    1.8504    2.3808 N   0  0  0  0  0  0  0  0  0  0  0  0
   -0.1136    1.2381    2.7719 H   0  0  0  0  0  0  0  0  0  0  0  0
   -0.8954    3.2155    2.9026 C   0  0  0  0  0  0  0  0  0  0  0  0
   -1.8299    3.3430    3.4532 H   0  0  0  0  0  0  0  0  0  0  0  0
   -0.0581    3.4194    3.5712 H   0  0  0  0  0  0  0  0  0  0  0  0
   -0.8804    3.9320    2.0784 H   0  0  0  0  0  0  0  0  0  0  0  0
  5  6  2  0  0  0  0
  5  7  1  0  0  0  0
  2  3  1  0  0  0  0
  2  4  1  0  0  0  0
  2  5  1  0  0  0  0
  1  2  1  0  0  0  0
 29 30  2  0  0  0  0
 29 31  1  0  0  0  0
 26 27  1  0  0  0  0
 26 28  1  0  0  0  0
 23 24  1  0  0  0  0
 23 25  1  0  0  0  0
 22 23  1  0  0  0  0
 22 26  1  0  0  0  0
 20 21  1  0  0  0  0
 20 22  2  0  0  0  0
 17 18  1  0  0  0  0
 17 19  1  0  0  0  0
 17 20  1  0  0  0  0
 14 15  1  0  0  0  0
 14 16  1  0  0  0  0
 14 17  1  0  0  0  0
 11 12  1  0  0  0  0
 11 13  1  0  0  0  0
 11 14  1  0  0  0  0
  9 10  1  0  0  0  0
  9 11  1  0  0  0  0
  9 29  1  0  0  0  0
  7  8  1  0  0  0  0
  7  9  1  0  0  0  0
 33 34  1  0  0  0  0
 33 35  1  0  0  0  0
 33 36  1  0  0  0  0
 31 32  1  0  0  0  0
 31 33  1  0  0  0  0
M  CHG  1  20   1
M  END
$$$$
default_name
  -OEChem-02102213163D

 36 35  0     1  0  0  0  0  0999 V2000
   -4.2256   -3.6731    1.8584 H   0  0  0  0  0  0  0  0  0  0  0  0
   -4.2396   -2.6781    1.4144 C   0  0  0  0  0  0  0  0  0  0  0  0
   -4.9506   -2.0521    1.9514 H   0  0  0  0  0  0  0  0  0  0  0  0
   -4.5266   -2.7521    0.3674 H   0  0  0  0  0  0  0  0  0  0  0  0
   -2.8576   -2.0761    1.5184 C   0  0  0  0  0  0  0  0  0  0  0  0
   -1.9456   -2.7051    2.0404 O   0  0  0  0  0  0  0  0  0  0  0  0
   -2.6926   -0.8481    1.0174 N   0  0  0  0  0  0  0  0  0  0  0  0
   -3.4926   -0.3971    0.5954 H   0  0  0  0  0  0  0  0  0  0  0  0
   -1.4216   -0.1071    1.0434 C   0  0  1  0  0  0  0  0  0  0  0  0
   -0.7579   -0.5878    1.7640 H   0  0  0  0  0  0  0  0  0  0  0  0
   -0.7791   -0.1912   -0.3557 C   0  0  0  0  0  0  0  0  0  0  0  0
   -1.4601    0.2612   -1.0794 H   0  0  0  0  0  0  0  0  0  0  0  0
    0.1490    0.3847   -0.3574 H   0  0  0  0  0  0  0  0  0  0  0  0
   -0.4814   -1.6287   -0.8063 C   0  0  0  0  0  0  0  0  0  0  0  0
   -0.7901   -2.3301   -0.0300 H   0  0  0  0  0  0  0  0  0  0  0  0
   -1.0323   -1.8407   -1.7232 H   0  0  0  0  0  0  0  0  0  0  0  0
    1.0224   -1.7945   -1.0646 C   0  0  0  0  0  0  0  0  0  0  0  0
    1.3277   -1.0705   -1.8235 H   0  0  0  0  0  0  0  0  0  0  0  0
    1.5599   -1.5814   -0.1375 H   0  0  0  0  0  0  0  0  0  0  0  0
    1.3526   -3.1592   -1.5242 N   0  3  0  0  0  0  0  0  0  0  0  0
    0.5931   -3.8168   -1.5694 H   0  0  0  0  0  0  0  0  0  0  0  0
    2.5490   -3.5956   -1.8809 C   0  0  0  0  0  0  0  0  0  0  0  0
    3.6019   -2.8273   -1.8597 N   0  0  0  0  0  0  0  0  0  0  0  0
    3.4983   -1.8728   -1.5638 H   0  0  0  0  0  0  0  0  0  0  0  0
    4.5027   -3.1745   -2.1332 H   0  0  0  0  0  0  0  0  0  0  0  0
    2.7128   -4.8283   -2.2695 N   0  0  0  0  0  0  0  0  0  0  0  0
    1.9303   -5.4588   -2.3029 H   0  0  0  0  0  0  0  0  0  0  0  0
    3.6221   -5.1553   -2.5393 H   0  0  0  0  0  0  0  0  0  0  0  0
   -1.6547    1.3413    1.4779 C   0  0  0  0  0  0  0  0  0  0  0  0
   -2.5654    1.9858    0.9716 O   0  0  0  0  0  0  0  0  0  0  0  0
   -0.8107    1.8504    2.3808 N   0  0  0  0  0  0  0  0  0  0  0  0
   -0.1136    1.2381    2.7719 H   0  0  0  0  0  0  0  0  0  0  0  0
   -0.8954    3.2155    2.9026 C   0  0  0  0  0  0  0  0  0  0  0  0
   -1.8299    3.3430    3.4532 H   0  0  0  0  0  0  0  0  0  0  0  0
   -0.0581    3.4194    3.5712 H   0  0  0  0  0  0  0  0  0  0  0  0
   -0.8804    3.9320    2.0784 H   0  0  0  0  0  0  0  0  0  0  0  0
  5  6  2  0  0  0  0
  5  7  1  0  0  0  0
  2  3  1  0  0  0  0
  2  4  1  0  0  0  0
  2  5  1  0  0  0  0
  1  2  1  0  0  0  0
 29 30  2  0  0  0  0
 29 31  1  0  0  0  0
 26 27  1  0  0  0  0
 26 28  1  0  0  0  0
 23 24  1  0  0  0  0
 23 25  1  0  0  0  0
 22 23  1  0  0  0  0
 22 26  1  0  0  0  0
 20 21  1  0  0  0  0
 20 22  2  0  0  0  0
 17 18  1  0  0  0  0
 17 19  1  0  0  0  0
 17 20  1  0  0  0  0
 14 15  1  0  0  0  0
 14 16  1  0  0  0  0
 14 17  1  0  0  0  0
 11 12  1  0  0  0  0
 11 13  1  0  0  0  0
 11 14  1  0  0  0  0
  9 10  1  0  0  0  0
  9 11  1  0  0  0  0
  9 29  1  0  0  0  0
  7  8  1  0  0  0  0
  7  9  1  0  0  0  0
 33 34  1  0  0  0  0
 33 35  1  0  0  0  0
 33 36  1  0  0  0  0
 31 32  1  0  0  0  0
 31 33  1  0  0  0  0
M  CHG  1  20   1
M  END
$$$$
default_name
  -OEChem-02102213163D

 36 35  0     1  0  0  0  0  0999 V2000
   -4.2256   -3.6731    1.8584 H   0  0  0  0  0  0  0  0  0  0  0  0
   -4.2396   -2.6781    1.4144 C   0  0  0  0  0  0  0  0  0  0  0  0
   -4.9506   -2.0521    1.9514 H   0  0  0  0  0  0  0  0  0  0  0  0
   -4.5266   -2.7521    0.3674 H   0  0  0  0  0  0  0  0  0  0  0  0
   -2.8576   -2.0761    1.5184 C   0  0  0  0  0  0  0  0  0  0  0  0
   -1.9456   -2.7051    2.0404 O   0  0  0  0  0  0  0  0  0  0  0  0
   -2.6926   -0.8481    1.0174 N   0  0  0  0  0  0  0  0  0  0  0  0
   -3.4926   -0.3971    0.5954 H   0  0  0  0  0  0  0  0  0  0  0  0
   -1.4216   -0.1071    1.0434 C   0  0  1  0  0  0  0  0  0  0  0  0
   -0.7579   -0.5878    1.7640 H   0  0  0  0  0  0  0  0  0  0  0  0
   -0.7791   -0.1912   -0.3557 C   0  0  0  0  0  0  0  0  0  0  0  0
   -1.4601    0.2612   -1.0794 H   0  0  0  0  0  0  0  0  0  0  0  0
    0.1490    0.3847   -0.3574 H   0  0  0  0  0  0  0  0  0  0  0  0
   -0.4814   -1.6287   -0.8063 C   0  0  0  0  0  0  0  0  0  0  0  0
   -1.0185   -2.3335   -0.1701 H   0  0  0  0  0  0  0  0  0  0  0  0
   -0.8051   -1.7571   -1.8397 H   0  0  0  0  0  0  0  0  0  0  0  0
    1.0245   -1.9068   -0.7050 C   0  0  0  0  0  0  0  0  0  0  0  0
    1.5558   -1.1799   -1.3238 H   0  0  0  0  0  0  0  0  0  0  0  0
    1.3329   -1.7765    0.3351 H   0  0  0  0  0  0  0  0  0  0  0  0
    1.3610   -3.2741   -1.1522 N   0  3  0  0  0  0  0  0  0  0  0  0
    0.5915   -3.8647   -1.4177 H   0  0  0  0  0  0  0  0  0  0  0  0
    2.5748   -3.7924   -1.2362 C   0  0  0  0  0  0  0  0  0  0  0  0
    3.6415   -3.1147   -0.9169 N   0  0  0  0  0  0  0  0  0  0  0  0
    3.5358   -2.1678   -0.5983 H   0  0  0  0  0  0  0  0  0  0  0  0
    4.5554   -3.5233   -0.9860 H   0  0  0  0  0  0  0  0  0  0  0  0
    2.7421   -5.0175   -1.6468 N   0  0  0  0  0  0  0  0  0  0  0  0
    1.9494   -5.5796   -1.9047 H   0  0  0  0  0  0  0  0  0  0  0  0
    3.6647   -5.4068   -1.7091 H   0  0  0  0  0  0  0  0  0  0  0  0
   -1.6547    1.3413    1.4779 C   0  0  0  0  0  0  0  0  0  0  0  0
   -2.5654    1.9858    0.9716 O   0  0  0  0  0  0  0  0  0  0  0  0
   -0.8107    1.8504    2.3808 N   0  0  0  0  0  0  0  0  0  0  0  0
   -0.1136    1.2381    2.7719 H   0  0  0  0  0  0  0  0  0  0  0  0
   -0.8954    3.2155    2.9026 C   0  0  0  0  0  0  0  0  0  0  0  0
   -1.8299    3.3430    3.4532 H   0  0  0  0  0  0  0  0  0  0  0  0
   -0.0581    3.4194    3.5712 H   0  0  0  0  0  0  0  0  0  0  0  0
   -0.8804    3.9320    2.0784 H   0  0  0  0  0  0  0  0  0  0  0  0
  5  6  2  0  0  0  0
  5  7  1  0  0  0  0
  2  3  1  0  0  0  0
  2  4  1  0  0  0  0
  2  5  1  0  0  0  0
  1  2  1  0  0  0  0
 29 30  2  0  0  0  0
 29 31  1  0  0  0  0
 26 27  1  0  0  0  0
 26 28  1  0  0  0  0
 23 24  1  0  0  0  0
 23 25  1  0  0  0  0
 22 23  1  0  0  0  0
 22 26  1  0  0  0  0
 20 21  1  0  0  0  0
 20 22  2  0  0  0  0
 17 18  1  0  0  0  0
 17 19  1  0  0  0  0
 17 20  1  0  0  0  0
 14 15  1  0  0  0  0
 14 16  1  0  0  0  0
 14 17  1  0  0  0  0
 11 12  1  0  0  0  0
 11 13  1  0  0  0  0
 11 14  1  0  0  0  0
  9 10  1  0  0  0  0
  9 11  1  0  0  0  0
  9 29  1  0  0  0  0
  7  8  1  0  0  0  0
  7  9  1  0  0  0  0
 33 34  1  0  0  0  0
 33 35  1  0  0  0  0
 33 36  1  0  0  0  0
 31 32  1  0  0  0  0
 31 33  1  0  0  0  0
M  CHG  1  20   1
M  END
$$$$
default_name
  -OEChem-02102213163D

 36 35  0     1  0  0  0  0  0999 V2000
   -4.2256   -3.6731    1.8584 H   0  0  0  0  0  0  0  0  0  0  0  0
   -4.2396   -2.6781    1.4144 C   0  0  0  0  0  0  0  0  0  0  0  0
   -4.9506   -2.0521    1.9514 H   0  0  0  0  0  0  0  0  0  0  0  0
   -4.5266   -2.7521    0.3674 H   0  0  0  0  0  0  0  0  0  0  0  0
   -2.8576   -2.0761    1.5184 C   0  0  0  0  0  0  0  0  0  0  0  0
   -1.9456   -2.7051    2.0404 O   0  0  0  0  0  0  0  0  0  0  0  0
   -2.6926   -0.8481    1.0174 N   0  0  0  0  0  0  0  0  0  0  0  0
   -3.4926   -0.3971    0.5954 H   0  0  0  0  0  0  0  0  0  0  0  0
   -1.4216   -0.1071    1.0434 C   0  0  1  0  0  0  0  0  0  0  0  0
   -0.7579   -0.5878    1.7640 H   0  0  0  0  0  0  0  0  0  0  0  0
   -0.7791   -0.1912   -0.3557 C   0  0  0  0  0  0  0  0  0  0  0  0
   -1.4601    0.2612   -1.0794 H   0  0  0  0  0  0  0  0  0  0  0  0
    0.1490    0.3847   -0.3574 H   0  0  0  0  0  0  0  0  0  0  0  0
   -0.4814   -1.6287   -0.8063 C   0  0  0  0  0  0  0  0  0  0  0  0
   -1.2055   -2.3124   -0.3610 H   0  0  0  0  0  0  0  0  0  0  0  0
   -0.5511   -1.6878   -1.8930 H   0  0  0  0  0  0  0  0  0  0  0  0
    0.9310   -2.0334   -0.3627 C   0  0  0  0  0  0  0  0  0  0  0  0
    1.6466   -1.3281   -0.7913 H   0  0  0  0  0  0  0  0  0  0  0  0
    0.9843   -1.9715    0.7268 H   0  0  0  0  0  0  0  0  0  0  0  0
    1.2702   -3.4044   -0.7966 N   0  3  0  0  0  0  0  0  0  0  0  0
    0.5496   -3.9184   -1.2739 H   0  0  0  0  0  0  0  0  0  0  0  0
    2.4286   -4.0168   -0.6171 C   0  0  0  0  0  0  0  0  0  0  0  0
    3.4296   -3.4426   -0.0110 N   0  0  0  0  0  0  0  0  0  0  0  0
    3.3156   -2.5040    0.3286 H   0  0  0  0  0  0  0  0  0  0  0  0
    4.3019   -3.9217    0.1173 H   0  0  0  0  0  0  0  0  0  0  0  0
    2.6052   -5.2337   -1.0476 N   0  0  0  0  0  0  0  0  0  0  0  0
    1.8623   -5.7178   -1.5215 H   0  0  0  0  0  0  0  0  0  0  0  0
    3.4856   -5.6946   -0.9094 H   0  0  0  0  0  0  0  0  0  0  0  0
   -1.6547    1.3413    1.4779 C   0  0  0  0  0  0  0  0  0  0  0  0
   -2.5654    1.9858    0.9716 O   0  0  0  0  0  0  0  0  0  0  0  0
   -0.8107    1.8504    2.3808 N   0  0  0  0  0  0  0  0  0  0  0  0
   -0.1136    1.2381    2.7719 H   0  0  0  0  0  0  0  0  0  0  0  0
   -0.8954    3.2155    2.9026 C   0  0  0  0  0  0  0  0  0  0  0  0
   -1.8299    3.3430    3.4532 H   0  0  0  0  0  0  0  0  0  0  0  0
   -0.0581    3.4194    3.5712 H   0  0  0  0  0  0  0  0  0  0  0  0
   -0.8804    3.9320    2.0784 H   0  0  0  0  0  0  0  0  0  0  0  0
  5  6  2  0  0  0  0
  5  7  1  0  0  0  0
  2  3  1  0  0  0  0
  2  4  1  0  0  0  0
  2  5  1  0  0  0  0
  1  2  1  0  0  0  0
 29 30  2  0  0  0  0
 29 31  1  0  0  0  0
 26 27  1  0  0  0  0
 26 28  1  0  0  0  0
 23 24  1  0  0  0  0
 23 25  1  0  0  0  0
 22 23  1  0  0  0  0
 22 26  1  0  0  0  0
 20 21  1  0  0  0  0
 20 22  2  0  0  0  0
 17 18  1  0  0  0  0
 17 19  1  0  0  0  0
 17 20  1  0  0  0  0
 14 15  1  0  0  0  0
 14 16  1  0  0  0  0
 14 17  1  0  0  0  0
 11 12  1  0  0  0  0
 11 13  1  0  0  0  0
 11 14  1  0  0  0  0
  9 10  1  0  0  0  0
  9 11  1  0  0  0  0
  9 29  1  0  0  0  0
  7  8  1  0  0  0  0
  7  9  1  0  0  0  0
 33 34  1  0  0  0  0
 33 35  1  0  0  0  0
 33 36  1  0  0  0  0
 31 32  1  0  0  0  0
 31 33  1  0  0  0  0
M  CHG  1  20   1
M  END
$$$$
default_name
  -OEChem-02102213163D

 36 35  0     1  0  0  0  0  0999 V2000
   -4.2256   -3.6731    1.8584 H   0  0  0  0  0  0  0  0  0  0  0  0
   -4.2396   -2.6781    1.4144 C   0  0  0  0  0  0  0  0  0  0  0  0
   -4.9506   -2.0521    1.9514 H   0  0  0  0  0  0  0  0  0  0  0  0
   -4.5266   -2.7521    0.3674 H   0  0  0  0  0  0  0  0  0  0  0  0
   -2.8576   -2.0761    1.5184 C   0  0  0  0  0  0  0  0  0  0  0  0
   -1.9456   -2.7051    2.0404 O   0  0  0  0  0  0  0  0  0  0  0  0
   -2.6926   -0.8481    1.0174 N   0  0  0  0  0  0  0  0  0  0  0  0
   -3.4926   -0.3971    0.5954 H   0  0  0  0  0  0  0  0  0  0  0  0
   -1.4216   -0.1071    1.0434 C   0  0  1  0  0  0  0  0  0  0  0  0
   -0.7579   -0.5878    1.7640 H   0  0  0  0  0  0  0  0  0  0  0  0
   -0.7791   -0.1912   -0.3557 C   0  0  0  0  0  0  0  0  0  0  0  0
   -1.4601    0.2612   -1.0794 H   0  0  0  0  0  0  0  0  0  0  0  0
    0.1490    0.3847   -0.3574 H   0  0  0  0  0  0  0  0  0  0  0  0
   -0.4814   -1.6287   -0.8063 C   0  0  0  0  0  0  0  0  0  0  0  0
   -1.3382   -2.2682   -0.5896 H   0  0  0  0  0  0  0  0  0  0  0  0
   -0.2876   -1.6375   -1.8794 H   0  0  0  0  0  0  0  0  0  0  0  0
    0.7481   -2.1658   -0.0612 C   0  0  0  0  0  0  0  0  0  0  0  0
    1.5942   -1.5047   -0.2625 H   0  0  0  0  0  0  0  0  0  0  0  0
    0.5379   -2.1531    1.0109 H   0  0  0  0  0  0  0  0  0  0  0  0
    1.0865   -3.5412   -0.4816 N   0  3  0  0  0  0  0  0  0  0  0  0
    0.4702   -3.9744   -1.1479 H   0  0  0  0  0  0  0  0  0  0  0  0
    2.1203   -4.2535   -0.0658 C   0  0  0  0  0  0  0  0  0  0  0  0
    2.9806   -3.7887    0.7963 N   0  0  0  0  0  0  0  0  0  0  0  0
    2.8528   -2.8585    1.1538 H   0  0  0  0  0  0  0  0  0  0  0  0
    3.7595   -4.3426    1.1017 H   0  0  0  0  0  0  0  0  0  0  0  0
    2.3114   -5.4622   -0.5129 N   0  0  0  0  0  0  0  0  0  0  0  0
    1.6747   -5.8639   -1.1794 H   0  0  0  0  0  0  0  0  0  0  0  0
    3.0970   -5.9991   -0.1949 H   0  0  0  0  0  0  0  0  0  0  0  0
   -1.6547    1.3413    1.4779 C   0  0  0  0  0  0  0  0  0  0  0  0
   -2.5654    1.9858    0.9716 O   0  0  0  0  0  0  0  0  0  0  0  0
   -0.8107    1.8504    2.3808 N   0  0  0  0  0  0  0  0  0  0  0  0
   -0.1136    1.2381    2.7719 H   0  0  0  0  0  0  0  0  0  0  0  0
   -0.8954    3.2155    2.9026 C   0  0  0  0  0  0  0  0  0  0  0  0
   -1.8299    3.3430    3.4532 H   0  0  0  0  0  0  0  0  0  0  0  0
   -0.0581    3.4194    3.5712 H   0  0  0  0  0  0  0  0  0  0  0  0
   -0.8804    3.9320    2.0784 H   0  0  0  0  0  0  0  0  0  0  0  0
  5  6  2  0  0  0  0
  5  7  1  0  0  0  0
  2  3  1  0  0  0  0
  2  4  1  0  0  0  0
  2  5  1  0  0  0  0
  1  2  1  0  0  0  0
 29 30  2  0  0  0  0
 29 31  1  0  0  0  0
 26 27  1  0  0  0  0
 26 28  1  0  0  0  0
 23 24  1  0  0  0  0
 23 25  1  0  0  0  0
 22 23  1  0  0  0  0
 22 26  1  0  0  0  0
 20 21  1  0  0  0  0
 20 22  2  0  0  0  0
 17 18  1  0  0  0  0
 17 19  1  0  0  0  0
 17 20  1  0  0  0  0
 14 15  1  0  0  0  0
 14 16  1  0  0  0  0
 14 17  1  0  0  0  0
 11 12  1  0  0  0  0
 11 13  1  0  0  0  0
 11 14  1  0  0  0  0
  9 10  1  0  0  0  0
  9 11  1  0  0  0  0
  9 29  1  0  0  0  0
  7  8  1  0  0  0  0
  7  9  1  0  0  0  0
 33 34  1  0  0  0  0
 33 35  1  0  0  0  0
 33 36  1  0  0  0  0
 31 32  1  0  0  0  0
 31 33  1  0  0  0  0
M  CHG  1  20   1
M  END
$$$$
default_name
  -OEChem-02102213163D

 36 35  0     1  0  0  0  0  0999 V2000
   -4.2256   -3.6731    1.8584 H   0  0  0  0  0  0  0  0  0  0  0  0
   -4.2396   -2.6781    1.4144 C   0  0  0  0  0  0  0  0  0  0  0  0
   -4.9506   -2.0521    1.9514 H   0  0  0  0  0  0  0  0  0  0  0  0
   -4.5266   -2.7521    0.3674 H   0  0  0  0  0  0  0  0  0  0  0  0
   -2.8576   -2.0761    1.5184 C   0  0  0  0  0  0  0  0  0  0  0  0
   -1.9456   -2.7051    2.0404 O   0  0  0  0  0  0  0  0  0  0  0  0
   -2.6926   -0.8481    1.0174 N   0  0  0  0  0  0  0  0  0  0  0  0
   -3.4926   -0.3971    0.5954 H   0  0  0  0  0  0  0  0  0  0  0  0
   -1.4216   -0.1071    1.0434 C   0  0  1  0  0  0  0  0  0  0  0  0
   -0.7579   -0.5878    1.7640 H   0  0  0  0  0  0  0  0  0  0  0  0
   -0.7791   -0.1912   -0.3557 C   0  0  0  0  0  0  0  0  0  0  0  0
   -1.4601    0.2612   -1.0794 H   0  0  0  0  0  0  0  0  0  0  0  0
    0.1490    0.3847   -0.3574 H   0  0  0  0  0  0  0  0  0  0  0  0
   -0.4814   -1.6287   -0.8063 C   0  0  0  0  0  0  0  0  0  0  0  0
   -1.4077   -2.2040   -0.8403 H   0  0  0  0  0  0  0  0  0  0  0  0
   -0.0325   -1.6096   -1.7999 H   0  0  0  0  0  0  0  0  0  0  0  0
    0.4883   -2.2950    0.1791 C   0  0  0  0  0  0  0  0  0  0  0  0
    1.4019   -1.6980    0.2268 H   0  0  0  0  0  0  0  0  0  0  0  0
    0.0241   -2.3087    1.1681 H   0  0  0  0  0  0  0  0  0  0  0  0
    0.8223   -3.6751   -0.2288 N   0  3  0  0  0  0  0  0  0  0  0  0
    0.3588   -4.0287   -1.0482 H   0  0  0  0  0  0  0  0  0  0  0  0
    1.6710   -4.4864    0.3802 C   0  0  0  0  0  0  0  0  0  0  0  0
    2.3249   -4.1294    1.4498 N   0  0  0  0  0  0  0  0  0  0  0  0
    2.1790   -3.2072    1.8209 H   0  0  0  0  0  0  0  0  0  0  0  0
    2.9651   -4.7574    1.8999 H   0  0  0  0  0  0  0  0  0  0  0  0
    1.8806   -5.6874   -0.0790 N   0  0  0  0  0  0  0  0  0  0  0  0
    1.3996   -6.0080   -0.9017 H   0  0  0  0  0  0  0  0  0  0  0  0
    2.5253   -6.2996    0.3859 H   0  0  0  0  0  0  0  0  0  0  0  0
   -1.6547    1.3413    1.4779 C   0  0  0  0  0  0  0  0  0  0  0  0
   -2.5654    1.9858    0.9716 O   0  0  0  0  0  0  0  0  0  0  0  0
   -0.8107    1.8504    2.3808 N   0  0  0  0  0  0  0  0  0  0  0  0
   -0.1136    1.2381    2.7719 H   0  0  0  0  0  0  0  0  0  0  0  0
   -0.8954    3.2155    2.9026 C   0  0  0  0  0  0  0  0  0  0  0  0
   -1.8299    3.3430    3.4532 H   0  0  0  0  0  0  0  0  0  0  0  0
   -0.0581    3.4194    3.5712 H   0  0  0  0  0  0  0  0  0  0  0  0
   -0.8804    3.9320    2.0784 H   0  0  0  0  0  0  0  0  0  0  0  0
  5  6  2  0  0  0  0
  5  7  1  0  0  0  0
  2  3  1  0  0  0  0
  2  4  1  0  0  0  0
  2  5  1  0  0  0  0
  1  2  1  0  0  0  0
 29 30  2  0  0  0  0
 29 31  1  0  0  0  0
 26 27  1  0  0  0  0
 26 28  1  0  0  0  0
 23 24  1  0  0  0  0
 23 25  1  0  0  0  0
 22 23  1  0  0  0  0
 22 26  1  0  0  0  0
 20 21  1  0  0  0  0
 20 22  2  0  0  0  0
 17 18  1  0  0  0  0
 17 19  1  0  0  0  0
 17 20  1  0  0  0  0
 14 15  1  0  0  0  0
 14 16  1  0  0  0  0
 14 17  1  0  0  0  0
 11 12  1  0  0  0  0
 11 13  1  0  0  0  0
 11 14  1  0  0  0  0
  9 10  1  0  0  0  0
  9 11  1  0  0  0  0
  9 29  1  0  0  0  0
  7  8  1  0  0  0  0
  7  9  1  0  0  0  0
 33 34  1  0  0  0  0
 33 35  1  0  0  0  0
 33 36  1  0  0  0  0
 31 32  1  0  0  0  0
 31 33  1  0  0  0  0
M  CHG  1  20   1
M  END
$$$$
default_name
  -OEChem-02102213163D

 36 35  0     1  0  0  0  0  0999 V2000
   -4.2256   -3.6731    1.8584 H   0  0  0  0  0  0  0  0  0  0  0  0
   -4.2396   -2.6781    1.4144 C   0  0  0  0  0  0  0  0  0  0  0  0
   -4.9506   -2.0521    1.9514 H   0  0  0  0  0  0  0  0  0  0  0  0
   -4.5266   -2.7521    0.3674 H   0  0  0  0  0  0  0  0  0  0  0  0
   -2.8576   -2.0761    1.5184 C   0  0  0  0  0  0  0  0  0  0  0  0
   -1.9456   -2.7051    2.0404 O   0  0  0  0  0  0  0  0  0  0  0  0
   -2.6926   -0.8481    1.0174 N   0  0  0  0  0  0  0  0  0  0  0  0
   -3.4926   -0.3971    0.5954 H   0  0  0  0  0  0  0  0  0  0  0  0
   -1.4216   -0.1071    1.0434 C   0  0  1  0  0  0  0  0  0  0  0  0
   -0.7579   -0.5878    1.7640 H   0  0  0  0  0  0  0  0  0  0  0  0
   -0.7791   -0.1912   -0.3557 C   0  0  0  0  0  0  0  0  0  0  0  0
   -1.4601    0.2612   -1.0794 H   0  0  0  0  0  0  0  0  0  0  0  0
    0.1490    0.3847   -0.3574 H   0  0  0  0  0  0  0  0  0  0  0  0
   -0.4814   -1.6287   -0.8063 C   0  0  0  0  0  0  0  0  0  0  0  0
   -1.4091   -2.1241   -1.0961 H   0  0  0  0  0  0  0  0  0  0  0  0
    0.1968   -1.6060   -1.6600 H   0  0  0  0  0  0  0  0  0  0  0  0
    0.1693   -2.4121    0.3418 C   0  0  0  0  0  0  0  0  0  0  0  0
    1.0830   -1.8945    0.6432 H   0  0  0  0  0  0  0  0  0  0  0  0
   -0.5221   -2.4280    1.1876 H   0  0  0  0  0  0  0  0  0  0  0  0
    0.4957   -3.7972   -0.0552 N   0  3  0  0  0  0  0  0  0  0  0  0
    0.2228   -4.0777   -0.9816 H   0  0  0  0  0  0  0  0  0  0  0  0
    1.1112   -4.6995    0.6904 C   0  0  0  0  0  0  0  0  0  0  0  0
    1.5074   -4.4414    1.9051 N   0  0  0  0  0  0  0  0  0  0  0  0
    1.3400   -3.5263    2.2845 H   0  0  0  0  0  0  0  0  0  0  0  0
    1.9728   -5.1378    2.4577 H   0  0  0  0  0  0  0  0  0  0  0  0
    1.3424   -5.8940    0.2244 N   0  0  0  0  0  0  0  0  0  0  0  0
    1.0556   -6.1401   -0.7074 H   0  0  0  0  0  0  0  0  0  0  0  0
    1.8096   -6.5755    0.7933 H   0  0  0  0  0  0  0  0  0  0  0  0
   -1.6547    1.3413    1.4779 C   0  0  0  0  0  0  0  0  0  0  0  0
   -2.5654    1.9858    0.9716 O   0  0  0  0  0  0  0  0  0  0  0  0
   -0.8107    1.8504    2.3808 N   0  0  0  0  0  0  0  0  0  0  0  0
   -0.1136    1.2381    2.7719 H   0  0  0  0  0  0  0  0  0  0  0  0
   -0.8954    3.2155    2.9026 C   0  0  0  0  0  0  0  0  0  0  0  0
   -1.8299    3.3430    3.4532 H   0  0  0  0  0  0  0  0  0  0  0  0
   -0.0581    3.4194    3.5712 H   0  0  0  0  0  0  0  0  0  0  0  0
   -0.8804    3.9320    2.0784 H   0  0  0  0  0  0  0  0  0  0  0  0
  5  6  2  0  0  0  0
  5  7  1  0  0  0  0
  2  3  1  0  0  0  0
  2  4  1  0  0  0  0
  2  5  1  0  0  0  0
  1  2  1  0  0  0  0
 29 30  2  0  0  0  0
 29 31  1  0  0  0  0
 26 27  1  0  0  0  0
 26 28  1  0  0  0  0
 23 24  1  0  0  0  0
 23 25  1  0  0  0  0
 22 23  1  0  0  0  0
 22 26  1  0  0  0  0
 20 21  1  0  0  0  0
 20 22  2  0  0  0  0
 17 18  1  0  0  0  0
 17 19  1  0  0  0  0
 17 20  1  0  0  0  0
 14 15  1  0  0  0  0
 14 16  1  0  0  0  0
 14 17  1  0  0  0  0
 11 12  1  0  0  0  0
 11 13  1  0  0  0  0
 11 14  1  0  0  0  0
  9 10  1  0  0  0  0
  9 11  1  0  0  0  0
  9 29  1  0  0  0  0
  7  8  1  0  0  0  0
  7  9  1  0  0  0  0
 33 34  1  0  0  0  0
 33 35  1  0  0  0  0
 33 36  1  0  0  0  0
 31 32  1  0  0  0  0
 31 33  1  0  0  0  0
M  CHG  1  20   1
M  END
$$$$
default_name
  -OEChem-02102213163D

 36 35  0     1  0  0  0  0  0999 V2000
   -4.2256   -3.6731    1.8584 H   0  0  0  0  0  0  0  0  0  0  0  0
   -4.2396   -2.6781    1.4144 C   0  0  0  0  0  0  0  0  0  0  0  0
   -4.9506   -2.0521    1.9514 H   0  0  0  0  0  0  0  0  0  0  0  0
   -4.5266   -2.7521    0.3674 H   0  0  0  0  0  0  0  0  0  0  0  0
   -2.8576   -2.0761    1.5184 C   0  0  0  0  0  0  0  0  0  0  0  0
   -1.9456   -2.7051    2.0404 O   0  0  0  0  0  0  0  0  0  0  0  0
   -2.6926   -0.8481    1.0174 N   0  0  0  0  0  0  0  0  0  0  0  0
   -3.4926   -0.3971    0.5954 H   0  0  0  0  0  0  0  0  0  0  0  0
   -1.4216   -0.1071    1.0434 C   0  0  1  0  0  0  0  0  0  0  0  0
   -0.7579   -0.5878    1.7640 H   0  0  0  0  0  0  0  0  0  0  0  0
   -0.7791   -0.1912   -0.3557 C   0  0  0  0  0  0  0  0  0  0  0  0
   -1.4601    0.2612   -1.0794 H   0  0  0  0  0  0  0  0  0  0  0  0
    0.1490    0.3847   -0.3574 H   0  0  0  0  0  0  0  0  0  0  0  0
   -0.4814   -1.6287   -0.8063 C   0  0  0  0  0  0  0  0  0  0  0  0
   -1.3425   -2.0340   -1.3396 H   0  0  0  0  0  0  0  0  0  0  0  0
    0.3846   -1.6269   -1.4690 H   0  0  0  0  0  0  0  0  0  0  0  0
   -0.1871   -2.5091    0.4158 C   0  0  0  0  0  0  0  0  0  0  0  0
    0.6591   -2.0811    0.9582 H   0  0  0  0  0  0  0  0  0  0  0  0
   -1.0635   -2.5027    1.0681 H   0  0  0  0  0  0  0  0  0  0  0  0
    0.1289   -3.8990    0.0271 N   0  3  0  0  0  0  0  0  0  0  0  0
    0.0716   -4.1181   -0.9527 H   0  0  0  0  0  0  0  0  0  0  0  0
    0.4792   -4.8785    0.8437 C   0  0  0  0  0  0  0  0  0  0  0  0
    0.5837   -4.7036    2.1312 N   0  0  0  0  0  0  0  0  0  0  0  0
    0.3930   -3.7941    2.5130 H   0  0  0  0  0  0  0  0  0  0  0  0
    0.8503   -5.4578    2.7370 H   0  0  0  0  0  0  0  0  0  0  0  0
    0.7332   -6.0679    0.3767 N   0  0  0  0  0  0  0  0  0  0  0  0
    0.6663   -6.2514   -0.6097 H   0  0  0  0  0  0  0  0  0  0  0  0
    0.9987   -6.8082    0.9996 H   0  0  0  0  0  0  0  0  0  0  0  0
   -1.6547    1.3413    1.4779 C   0  0  0  0  0  0  0  0  0  0  0  0
   -2.5654    1.9858    0.9716 O   0  0  0  0  0  0  0  0  0  0  0  0
   -0.8107    1.8504    2.3808 N   0  0  0  0  0  0  0  0  0  0  0  0
   -0.1136    1.2381    2.7719 H   0  0  0  0  0  0  0  0  0  0  0  0
   -0.8954    3.2155    2.9026 C   0  0  0  0  0  0  0  0  0  0  0  0
   -1.8299    3.3430    3.4532 H   0  0  0  0  0  0  0  0  0  0  0  0
   -0.0581    3.4194    3.5712 H   0  0  0  0  0  0  0  0  0  0  0  0
   -0.8804    3.9320    2.0784 H   0  0  0  0  0  0  0  0  0  0  0  0
  5  6  2  0  0  0  0
  5  7  1  0  0  0  0
  2  3  1  0  0  0  0
  2  4  1  0  0  0  0
  2  5  1  0  0  0  0
  1  2  1  0  0  0  0
 29 30  2  0  0  0  0
 29 31  1  0  0  0  0
 26 27  1  0  0  0  0
 26 28  1  0  0  0  0
 23 24  1  0  0  0  0
 23 25  1  0  0  0  0
 22 23  1  0  0  0  0
 22 26  1  0  0  0  0
 20 21  1  0  0  0  0
 20 22  2  0  0  0  0
 17 18  1  0  0  0  0
 17 19  1  0  0  0  0
 17 20  1  0  0  0  0
 14 15  1  0  0  0  0
 14 16  1  0  0  0  0
 14 17  1  0  0  0  0
 11 12  1  0  0  0  0
 11 13  1  0  0  0  0
 11 14  1  0  0  0  0
  9 10  1  0  0  0  0
  9 11  1  0  0  0  0
  9 29  1  0  0  0  0
  7  8  1  0  0  0  0
  7  9  1  0  0  0  0
 33 34  1  0  0  0  0
 33 35  1  0  0  0  0
 33 36  1  0  0  0  0
 31 32  1  0  0  0  0
 31 33  1  0  0  0  0
M  CHG  1  20   1
M  END
$$$$
default_name
  -OEChem-02102213163D

 36 35  0     1  0  0  0  0  0999 V2000
   -4.2256   -3.6731    1.8584 H   0  0  0  0  0  0  0  0  0  0  0  0
   -4.2396   -2.6781    1.4144 C   0  0  0  0  0  0  0  0  0  0  0  0
   -4.9506   -2.0521    1.9514 H   0  0  0  0  0  0  0  0  0  0  0  0
   -4.5266   -2.7521    0.3674 H   0  0  0  0  0  0  0  0  0  0  0  0
   -2.8576   -2.0761    1.5184 C   0  0  0  0  0  0  0  0  0  0  0  0
   -1.9456   -2.7051    2.0404 O   0  0  0  0  0  0  0  0  0  0  0  0
   -2.6926   -0.8481    1.0174 N   0  0  0  0  0  0  0  0  0  0  0  0
   -3.4926   -0.3971    0.5954 H   0  0  0  0  0  0  0  0  0  0  0  0
   -1.4216   -0.1071    1.0434 C   0  0  1  0  0  0  0  0  0  0  0  0
   -0.7579   -0.5878    1.7640 H   0  0  0  0  0  0  0  0  0  0  0  0
   -0.7791   -0.1912   -0.3557 C   0  0  0  0  0  0  0  0  0  0  0  0
   -1.4601    0.2612   -1.0794 H   0  0  0  0  0  0  0  0  0  0  0  0
    0.1490    0.3847   -0.3574 H   0  0  0  0  0  0  0  0  0  0  0  0
   -0.4814   -1.6287   -0.8063 C   0  0  0  0  0  0  0  0  0  0  0  0
   -1.2123   -1.9398   -1.5540 H   0  0  0  0  0  0  0  0  0  0  0  0
    0.5182   -1.6710   -1.2401 H   0  0  0  0  0  0  0  0  0  0  0  0
   -0.5566   -2.5794    0.3961 C   0  0  0  0  0  0  0  0  0  0  0  0
    0.1592   -2.2449    1.1504 H   0  0  0  0  0  0  0  0  0  0  0  0
   -1.5632   -2.5277    0.8178 H   0  0  0  0  0  0  0  0  0  0  0  0
   -0.2530   -3.9735    0.0127 N   0  3  0  0  0  0  0  0  0  0  0  0
   -0.0845   -4.1471   -0.9634 H   0  0  0  0  0  0  0  0  0  0  0  0
   -0.1820   -5.0111    0.8297 C   0  0  0  0  0  0  0  0  0  0  0  0
   -0.3832   -4.8981    2.1127 N   0  0  0  0  0  0  0  0  0  0  0  0
   -0.5974   -3.9923    2.4909 H   0  0  0  0  0  0  0  0  0  0  0  0
   -0.3259   -5.6957    2.7188 H   0  0  0  0  0  0  0  0  0  0  0  0
    0.0947   -6.1972    0.3674 N   0  0  0  0  0  0  0  0  0  0  0  0
    0.2580   -6.3342   -0.6152 H   0  0  0  0  0  0  0  0  0  0  0  0
    0.1477   -6.9816    0.9907 H   0  0  0  0  0  0  0  0  0  0  0  0
   -1.6547    1.3413    1.4779 C   0  0  0  0  0  0  0  0  0  0  0  0
   -2.5654    1.9858    0.9716 O   0  0  0  0  0  0  0  0  0  0  0  0
   -0.8107    1.8504    2.3808 N   0  0  0  0  0  0  0  0  0  0  0  0
   -0.1136    1.2381    2.7719 H   0  0  0  0  0  0  0  0  0  0  0  0
   -0.8954    3.2155    2.9026 C   0  0  0  0  0  0  0  0  0  0  0  0
   -1.8299    3.3430    3.4532 H   0  0  0  0  0  0  0  0  0  0  0  0
   -0.0581    3.4194    3.5712 H   0  0  0  0  0  0  0  0  0  0  0  0
   -0.8804    3.9320    2.0784 H   0  0  0  0  0  0  0  0  0  0  0  0
  5  6  2  0  0  0  0
  5  7  1  0  0  0  0
  2  3  1  0  0  0  0
  2  4  1  0  0  0  0
  2  5  1  0  0  0  0
  1  2  1  0  0  0  0
 29 30  2  0  0  0  0
 29 31  1  0  0  0  0
 26 27  1  0  0  0  0
 26 28  1  0  0  0  0
 23 24  1  0  0  0  0
 23 25  1  0  0  0  0
 22 23  1  0  0  0  0
 22 26  1  0  0  0  0
 20 21  1  0  0  0  0
 20 22  2  0  0  0  0
 17 18  1  0  0  0  0
 17 19  1  0  0  0  0
 17 20  1  0  0  0  0
 14 15  1  0  0  0  0
 14 16  1  0  0  0  0
 14 17  1  0  0  0  0
 11 12  1  0  0  0  0
 11 13  1  0  0  0  0
 11 14  1  0  0  0  0
  9 10  1  0  0  0  0
  9 11  1  0  0  0  0
  9 29  1  0  0  0  0
  7  8  1  0  0  0  0
  7  9  1  0  0  0  0
 33 34  1  0  0  0  0
 33 35  1  0  0  0  0
 33 36  1  0  0  0  0
 31 32  1  0  0  0  0
 31 33  1  0  0  0  0
M  CHG  1  20   1
M  END
$$$$
default_name
  -OEChem-02102213163D

 36 35  0     1  0  0  0  0  0999 V2000
   -4.2256   -3.6731    1.8584 H   0  0  0  0  0  0  0  0  0  0  0  0
   -4.2396   -2.6781    1.4144 C   0  0  0  0  0  0  0  0  0  0  0  0
   -4.9506   -2.0521    1.9514 H   0  0  0  0  0  0  0  0  0  0  0  0
   -4.5266   -2.7521    0.3674 H   0  0  0  0  0  0  0  0  0  0  0  0
   -2.8576   -2.0761    1.5184 C   0  0  0  0  0  0  0  0  0  0  0  0
   -1.9456   -2.7051    2.0404 O   0  0  0  0  0  0  0  0  0  0  0  0
   -2.6926   -0.8481    1.0174 N   0  0  0  0  0  0  0  0  0  0  0  0
   -3.4926   -0.3971    0.5954 H   0  0  0  0  0  0  0  0  0  0  0  0
   -1.4216   -0.1071    1.0434 C   0  0  1  0  0  0  0  0  0  0  0  0
   -0.7579   -0.5878    1.7640 H   0  0  0  0  0  0  0  0  0  0  0  0
   -0.7791   -0.1912   -0.3557 C   0  0  0  0  0  0  0  0  0  0  0  0
   -1.4601    0.2612   -1.0794 H   0  0  0  0  0  0  0  0  0  0  0  0
    0.1490    0.3847   -0.3574 H   0  0  0  0  0  0  0  0  0  0  0  0
   -0.4814   -1.6287   -0.8063 C   0  0  0  0  0  0  0  0  0  0  0  0
   -1.0275   -1.8479   -1.7249 H   0  0  0  0  0  0  0  0  0  0  0  0
    0.5884   -1.7353   -0.9889 H   0  0  0  0  0  0  0  0  0  0  0  0
   -0.9142   -2.6183    0.2840 C   0  0  0  0  0  0  0  0  0  0  0  0
   -0.3827   -2.3748    1.2068 H   0  0  0  0  0  0  0  0  0  0  0  0
   -1.9871   -2.5013    0.4537 H   0  0  0  0  0  0  0  0  0  0  0  0
   -0.6242   -4.0158   -0.0975 N   0  3  0  0  0  0  0  0  0  0  0  0
   -0.2349   -4.1626   -1.0131 H   0  0  0  0  0  0  0  0  0  0  0  0
   -0.8274   -5.0882    0.6493 C   0  0  0  0  0  0  0  0  0  0  0  0
   -1.3274   -5.0115    1.8508 N   0  0  0  0  0  0  0  0  0  0  0  0
   -1.5638   -4.1073    2.2196 H   0  0  0  0  0  0  0  0  0  0  0  0
   -1.4757   -5.8352    2.4042 H   0  0  0  0  0  0  0  0  0  0  0  0
   -0.5296   -6.2732    0.1974 N   0  0  0  0  0  0  0  0  0  0  0  0
   -0.1412   -6.3829   -0.7236 H   0  0  0  0  0  0  0  0  0  0  0  0
   -0.6853   -7.0841    0.7673 H   0  0  0  0  0  0  0  0  0  0  0  0
   -1.6547    1.3413    1.4779 C   0  0  0  0  0  0  0  0  0  0  0  0
   -2.5654    1.9858    0.9716 O   0  0  0  0  0  0  0  0  0  0  0  0
   -0.8107    1.8504    2.3808 N   0  0  0  0  0  0  0  0  0  0  0  0
   -0.1136    1.2381    2.7719 H   0  0  0  0  0  0  0  0  0  0  0  0
   -0.8954    3.2155    2.9026 C   0  0  0  0  0  0  0  0  0  0  0  0
   -1.8299    3.3430    3.4532 H   0  0  0  0  0  0  0  0  0  0  0  0
   -0.0581    3.4194    3.5712 H   0  0  0  0  0  0  0  0  0  0  0  0
   -0.8804    3.9320    2.0784 H   0  0  0  0  0  0  0  0  0  0  0  0
  5  6  2  0  0  0  0
  5  7  1  0  0  0  0
  2  3  1  0  0  0  0
  2  4  1  0  0  0  0
  2  5  1  0  0  0  0
  1  2  1  0  0  0  0
 29 30  2  0  0  0  0
 29 31  1  0  0  0  0
 26 27  1  0  0  0  0
 26 28  1  0  0  0  0
 23 24  1  0  0  0  0
 23 25  1  0  0  0  0
 22 23  1  0  0  0  0
 22 26  1  0  0  0  0
 20 21  1  0  0  0  0
 20 22  2  0  0  0  0
 17 18  1  0  0  0  0
 17 19  1  0  0  0  0
 17 20  1  0  0  0  0
 14 15  1  0  0  0  0
 14 16  1  0  0  0  0
 14 17  1  0  0  0  0
 11 12  1  0  0  0  0
 11 13  1  0  0  0  0
 11 14  1  0  0  0  0
  9 10  1  0  0  0  0
  9 11  1  0  0  0  0
  9 29  1  0  0  0  0
  7  8  1  0  0  0  0
  7  9  1  0  0  0  0
 33 34  1  0  0  0  0
 33 35  1  0  0  0  0
 33 36  1  0  0  0  0
 31 32  1  0  0  0  0
 31 33  1  0  0  0  0
M  CHG  1  20   1
M  END
$$$$
default_name
  -OEChem-02102213163D

 36 35  0     1  0  0  0  0  0999 V2000
   -4.2256   -3.6731    1.8584 H   0  0  0  0  0  0  0  0  0  0  0  0
   -4.2396   -2.6781    1.4144 C   0  0  0  0  0  0  0  0  0  0  0  0
   -4.9506   -2.0521    1.9514 H   0  0  0  0  0  0  0  0  0  0  0  0
   -4.5266   -2.7521    0.3674 H   0  0  0  0  0  0  0  0  0  0  0  0
   -2.8576   -2.0761    1.5184 C   0  0  0  0  0  0  0  0  0  0  0  0
   -1.9456   -2.7051    2.0404 O   0  0  0  0  0  0  0  0  0  0  0  0
   -2.6926   -0.8481    1.0174 N   0  0  0  0  0  0  0  0  0  0  0  0
   -3.4926   -0.3971    0.5954 H   0  0  0  0  0  0  0  0  0  0  0  0
   -1.4216   -0.1071    1.0434 C   0  0  1  0  0  0  0  0  0  0  0  0
   -0.7579   -0.5878    1.7640 H   0  0  0  0  0  0  0  0  0  0  0  0
   -0.7791   -0.1912   -0.3557 C   0  0  0  0  0  0  0  0  0  0  0  0
   -1.4601    0.2612   -1.0794 H   0  0  0  0  0  0  0  0  0  0  0  0
    0.1490    0.3847   -0.3574 H   0  0  0  0  0  0  0  0  0  0  0  0
   -0.4814   -1.6287   -0.8063 C   0  0  0  0  0  0  0  0  0  0  0  0
   -0.8005   -1.7646   -1.8406 H   0  0  0  0  0  0  0  0  0  0  0  0
    0.5904   -1.8152   -0.7325 H   0  0  0  0  0  0  0  0  0  0  0  0
   -1.2353   -2.6231    0.0871 C   0  0  0  0  0  0  0  0  0  0  0  0
   -0.9296   -2.4619    1.1234 H   0  0  0  0  0  0  0  0  0  0  0  0
   -2.3063   -2.4254    0.0006 H   0  0  0  0  0  0  0  0  0  0  0  0
   -0.9591   -4.0230   -0.2961 N   0  3  0  0  0  0  0  0  0  0  0  0
   -0.3693   -4.1638   -1.0983 H   0  0  0  0  0  0  0  0  0  0  0  0
   -1.4130   -5.1046    0.3149 C   0  0  0  0  0  0  0  0  0  0  0  0
   -2.1846   -5.0362    1.3633 N   0  0  0  0  0  0  0  0  0  0  0  0
   -2.4402   -4.1315    1.7177 H   0  0  0  0  0  0  0  0  0  0  0  0
   -2.5207   -5.8669    1.8149 H   0  0  0  0  0  0  0  0  0  0  0  0
   -1.0972   -6.2906   -0.1220 N   0  0  0  0  0  0  0  0  0  0  0  0
   -0.5043   -6.3942   -0.9274 H   0  0  0  0  0  0  0  0  0  0  0  0
   -1.4436   -7.1086    0.3445 H   0  0  0  0  0  0  0  0  0  0  0  0
   -1.6547    1.3413    1.4779 C   0  0  0  0  0  0  0  0  0  0  0  0
   -2.5654    1.9858    0.9716 O   0  0  0  0  0  0  0  0  0  0  0  0
   -0.8107    1.8504    2.3808 N   0  0  0  0  0  0  0  0  0  0  0  0
   -0.1136    1.2381    2.7719 H   0  0  0  0  0  0  0  0  0  0  0  0
   -0.8954    3.2155    2.9026 C   0  0  0  0  0  0  0  0  0  0  0  0
   -1.8299    3.3430    3.4532 H   0  0  0  0  0  0  0  0  0  0  0  0
   -0.0581    3.4194    3.5712 H   0  0  0  0  0  0  0  0  0  0  0  0
   -0.8804    3.9320    2.0784 H   0  0  0  0  0  0  0  0  0  0  0  0
  5  6  2  0  0  0  0
  5  7  1  0  0  0  0
  2  3  1  0  0  0  0
  2  4  1  0  0  0  0
  2  5  1  0  0  0  0
  1  2  1  0  0  0  0
 29 30  2  0  0  0  0
 29 31  1  0  0  0  0
 26 27  1  0  0  0  0
 26 28  1  0  0  0  0
 23 24  1  0  0  0  0
 23 25  1  0  0  0  0
 22 23  1  0  0  0  0
 22 26  1  0  0  0  0
 20 21  1  0  0  0  0
 20 22  2  0  0  0  0
 17 18  1  0  0  0  0
 17 19  1  0  0  0  0
 17 20  1  0  0  0  0
 14 15  1  0  0  0  0
 14 16  1  0  0  0  0
 14 17  1  0  0  0  0
 11 12  1  0  0  0  0
 11 13  1  0  0  0  0
 11 14  1  0  0  0  0
  9 10  1  0  0  0  0
  9 11  1  0  0  0  0
  9 29  1  0  0  0  0
  7  8  1  0  0  0  0
  7  9  1  0  0  0  0
 33 34  1  0  0  0  0
 33 35  1  0  0  0  0
 33 36  1  0  0  0  0
 31 32  1  0  0  0  0
 31 33  1  0  0  0  0
M  CHG  1  20   1
M  END
$$$$
default_name
  -OEChem-02102213163D

 36 35  0     1  0  0  0  0  0999 V2000
   -4.2256   -3.6731    1.8584 H   0  0  0  0  0  0  0  0  0  0  0  0
   -4.2396   -2.6781    1.4144 C   0  0  0  0  0  0  0  0  0  0  0  0
   -4.9506   -2.0521    1.9514 H   0  0  0  0  0  0  0  0  0  0  0  0
   -4.5266   -2.7521    0.3674 H   0  0  0  0  0  0  0  0  0  0  0  0
   -2.8576   -2.0761    1.5184 C   0  0  0  0  0  0  0  0  0  0  0  0
   -1.9456   -2.7051    2.0404 O   0  0  0  0  0  0  0  0  0  0  0  0
   -2.6926   -0.8481    1.0174 N   0  0  0  0  0  0  0  0  0  0  0  0
   -3.4926   -0.3971    0.5954 H   0  0  0  0  0  0  0  0  0  0  0  0
   -1.4216   -0.1071    1.0434 C   0  0  1  0  0  0  0  0  0  0  0  0
   -0.7579   -0.5878    1.7640 H   0  0  0  0  0  0  0  0  0  0  0  0
   -0.7791   -0.1912   -0.3557 C   0  0  0  0  0  0  0  0  0  0  0  0
   -1.4601    0.2612   -1.0794 H   0  0  0  0  0  0  0  0  0  0  0  0
    0.1490    0.3847   -0.3574 H   0  0  0  0  0  0  0  0  0  0  0  0
   -0.4814   -1.6287   -0.8063 C   0  0  0  0  0  0  0  0  0  0  0  0
   -0.5469   -1.6956   -1.8932 H   0  0  0  0  0  0  0  0  0  0  0  0
    0.5242   -1.9055   -0.4883 H   0  0  0  0  0  0  0  0  0  0  0  0
   -1.4982   -2.5935   -0.1811 C   0  0  0  0  0  0  0  0  0  0  0  0
   -1.4443   -2.5004    0.9060 H   0  0  0  0  0  0  0  0  0  0  0  0
   -2.4992   -2.3050   -0.5105 H   0  0  0  0  0  0  0  0  0  0  0  0
   -1.2352   -3.9945   -0.5693 N   0  3  0  0  0  0  0  0  0  0  0  0
   -0.4785   -4.1504   -1.2132 H   0  0  0  0  0  0  0  0  0  0  0  0
   -1.8988   -5.0592   -0.1509 C   0  0  0  0  0  0  0  0  0  0  0  0
   -2.8964   -4.9705    0.6835 N   0  0  0  0  0  0  0  0  0  0  0  0
   -3.1670   -4.0630    1.0193 H   0  0  0  0  0  0  0  0  0  0  0  0
   -3.3897   -5.7885    0.9908 H   0  0  0  0  0  0  0  0  0  0  0  0
   -1.5694   -6.2483   -0.5689 N   0  0  0  0  0  0  0  0  0  0  0  0
   -0.8065   -6.3673   -1.2129 H   0  0  0  0  0  0  0  0  0  0  0  0
   -2.0755   -7.0534   -0.2489 H   0  0  0  0  0  0  0  0  0  0  0  0
   -1.6547    1.3413    1.4779 C   0  0  0  0  0  0  0  0  0  0  0  0
   -2.5654    1.9858    0.9716 O   0  0  0  0  0  0  0  0  0  0  0  0
   -0.8107    1.8504    2.3808 N   0  0  0  0  0  0  0  0  0  0  0  0
   -0.1136    1.2381    2.7719 H   0  0  0  0  0  0  0  0  0  0  0  0
   -0.8954    3.2155    2.9026 C   0  0  0  0  0  0  0  0  0  0  0  0
   -1.8299    3.3430    3.4532 H   0  0  0  0  0  0  0  0  0  0  0  0
   -0.0581    3.4194    3.5712 H   0  0  0  0  0  0  0  0  0  0  0  0
   -0.8804    3.9320    2.0784 H   0  0  0  0  0  0  0  0  0  0  0  0
  5  6  2  0  0  0  0
  5  7  1  0  0  0  0
  2  3  1  0  0  0  0
  2  4  1  0  0  0  0
  2  5  1  0  0  0  0
  1  2  1  0  0  0  0
 29 30  2  0  0  0  0
 29 31  1  0  0  0  0
 26 27  1  0  0  0  0
 26 28  1  0  0  0  0
 23 24  1  0  0  0  0
 23 25  1  0  0  0  0
 22 23  1  0  0  0  0
 22 26  1  0  0  0  0
 20 21  1  0  0  0  0
 20 22  2  0  0  0  0
 17 18  1  0  0  0  0
 17 19  1  0  0  0  0
 17 20  1  0  0  0  0
 14 15  1  0  0  0  0
 14 16  1  0  0  0  0
 14 17  1  0  0  0  0
 11 12  1  0  0  0  0
 11 13  1  0  0  0  0
 11 14  1  0  0  0  0
  9 10  1  0  0  0  0
  9 11  1  0  0  0  0
  9 29  1  0  0  0  0
  7  8  1  0  0  0  0
  7  9  1  0  0  0  0
 33 34  1  0  0  0  0
 33 35  1  0  0  0  0
 33 36  1  0  0  0  0
 31 32  1  0  0  0  0
 31 33  1  0  0  0  0
M  CHG  1  20   1
M  END
$$$$
default_name
  -OEChem-02102213163D

 36 35  0     1  0  0  0  0  0999 V2000
   -4.2256   -3.6731    1.8584 H   0  0  0  0  0  0  0  0  0  0  0  0
   -4.2396   -2.6781    1.4144 C   0  0  0  0  0  0  0  0  0  0  0  0
   -4.9506   -2.0521    1.9514 H   0  0  0  0  0  0  0  0  0  0  0  0
   -4.5266   -2.7521    0.3674 H   0  0  0  0  0  0  0  0  0  0  0  0
   -2.8576   -2.0761    1.5184 C   0  0  0  0  0  0  0  0  0  0  0  0
   -1.9456   -2.7051    2.0404 O   0  0  0  0  0  0  0  0  0  0  0  0
   -2.6926   -0.8481    1.0174 N   0  0  0  0  0  0  0  0  0  0  0  0
   -3.4926   -0.3971    0.5954 H   0  0  0  0  0  0  0  0  0  0  0  0
   -1.4216   -0.1071    1.0434 C   0  0  1  0  0  0  0  0  0  0  0  0
   -0.7579   -0.5878    1.7640 H   0  0  0  0  0  0  0  0  0  0  0  0
   -0.7791   -0.1912   -0.3557 C   0  0  0  0  0  0  0  0  0  0  0  0
   -1.4601    0.2612   -1.0794 H   0  0  0  0  0  0  0  0  0  0  0  0
    0.1490    0.3847   -0.3574 H   0  0  0  0  0  0  0  0  0  0  0  0
   -0.4814   -1.6287   -0.8063 C   0  0  0  0  0  0  0  0  0  0  0  0
   -0.2840   -1.6456   -1.8791 H   0  0  0  0  0  0  0  0  0  0  0  0
    0.3943   -1.9999   -0.2730 H   0  0  0  0  0  0  0  0  0  0  0  0
   -1.6848   -2.5314   -0.5024 C   0  0  0  0  0  0  0  0  0  0  0  0
   -1.8918   -2.4875    0.5694 H   0  0  0  0  0  0  0  0  0  0  0  0
   -2.5524   -2.1485   -1.0449 H   0  0  0  0  0  0  0  0  0  0  0  0
   -1.4334   -3.9323   -0.8987 N   0  3  0  0  0  0  0  0  0  0  0  0
   -0.5552   -4.1234   -1.3499 H   0  0  0  0  0  0  0  0  0  0  0  0
   -2.2517   -4.9550   -0.7162 C   0  0  0  0  0  0  0  0  0  0  0  0
   -3.4142   -4.8188   -0.1423 N   0  0  0  0  0  0  0  0  0  0  0  0
   -3.6947   -3.9067    0.1720 H   0  0  0  0  0  0  0  0  0  0  0  0
   -4.0234   -5.6054   -0.0118 H   0  0  0  0  0  0  0  0  0  0  0  0
   -1.9141   -6.1492   -1.1128 N   0  0  0  0  0  0  0  0  0  0  0  0
   -1.0272   -6.3040   -1.5605 H   0  0  0  0  0  0  0  0  0  0  0  0
   -2.5379   -6.9223   -0.9723 H   0  0  0  0  0  0  0  0  0  0  0  0
   -1.6547    1.3413    1.4779 C   0  0  0  0  0  0  0  0  0  0  0  0
   -2.5654    1.9858    0.9716 O   0  0  0  0  0  0  0  0  0  0  0  0
   -0.8107    1.8504    2.3808 N   0  0  0  0  0  0  0  0  0  0  0  0
   -0.1136    1.2381    2.7719 H   0  0  0  0  0  0  0  0  0  0  0  0
   -0.8954    3.2155    2.9026 C   0  0  0  0  0  0  0  0  0  0  0  0
   -1.8299    3.3430    3.4532 H   0  0  0  0  0  0  0  0  0  0  0  0
   -0.0581    3.4194    3.5712 H   0  0  0  0  0  0  0  0  0  0  0  0
   -0.8804    3.9320    2.0784 H   0  0  0  0  0  0  0  0  0  0  0  0
  5  6  2  0  0  0  0
  5  7  1  0  0  0  0
  2  3  1  0  0  0  0
  2  4  1  0  0  0  0
  2  5  1  0  0  0  0
  1  2  1  0  0  0  0
 29 30  2  0  0  0  0
 29 31  1  0  0  0  0
 26 27  1  0  0  0  0
 26 28  1  0  0  0  0
 23 24  1  0  0  0  0
 23 25  1  0  0  0  0
 22 23  1  0  0  0  0
 22 26  1  0  0  0  0
 20 21  1  0  0  0  0
 20 22  2  0  0  0  0
 17 18  1  0  0  0  0
 17 19  1  0  0  0  0
 17 20  1  0  0  0  0
 14 15  1  0  0  0  0
 14 16  1  0  0  0  0
 14 17  1  0  0  0  0
 11 12  1  0  0  0  0
 11 13  1  0  0  0  0
 11 14  1  0  0  0  0
  9 10  1  0  0  0  0
  9 11  1  0  0  0  0
  9 29  1  0  0  0  0
  7  8  1  0  0  0  0
  7  9  1  0  0  0  0
 33 34  1  0  0  0  0
 33 35  1  0  0  0  0
 33 36  1  0  0  0  0
 31 32  1  0  0  0  0
 31 33  1  0  0  0  0
M  CHG  1  20   1
M  END
$$$$
default_name
  -OEChem-02102213163D

 36 35  0     1  0  0  0  0  0999 V2000
   -4.2256   -3.6731    1.8584 H   0  0  0  0  0  0  0  0  0  0  0  0
   -4.2396   -2.6781    1.4144 C   0  0  0  0  0  0  0  0  0  0  0  0
   -4.9506   -2.0521    1.9514 H   0  0  0  0  0  0  0  0  0  0  0  0
   -4.5266   -2.7521    0.3674 H   0  0  0  0  0  0  0  0  0  0  0  0
   -2.8576   -2.0761    1.5184 C   0  0  0  0  0  0  0  0  0  0  0  0
   -1.9456   -2.7051    2.0404 O   0  0  0  0  0  0  0  0  0  0  0  0
   -2.6926   -0.8481    1.0174 N   0  0  0  0  0  0  0  0  0  0  0  0
   -3.4926   -0.3971    0.5954 H   0  0  0  0  0  0  0  0  0  0  0  0
   -1.4216   -0.1071    1.0434 C   0  0  1  0  0  0  0  0  0  0  0  0
   -0.7579   -0.5878    1.7640 H   0  0  0  0  0  0  0  0  0  0  0  0
   -0.7791   -0.1912   -0.3557 C   0  0  0  0  0  0  0  0  0  0  0  0
   -1.4601    0.2612   -1.0794 H   0  0  0  0  0  0  0  0  0  0  0  0
    0.1490    0.3847   -0.3574 H   0  0  0  0  0  0  0  0  0  0  0  0
   -0.4814   -1.6287   -0.8063 C   0  0  0  0  0  0  0  0  0  0  0  0
   -0.0297   -1.6179   -1.7993 H   0  0  0  0  0  0  0  0  0  0  0  0
    0.2094   -2.0921   -0.1012 H   0  0  0  0  0  0  0  0  0  0  0  0
   -1.7826   -2.4411   -0.8548 C   0  0  0  0  0  0  0  0  0  0  0  0
   -2.2414   -2.4242    0.1364 H   0  0  0  0  0  0  0  0  0  0  0  0
   -2.4625   -1.9665   -1.5662 H   0  0  0  0  0  0  0  0  0  0  0  0
   -1.5404   -3.8406   -1.2618 N   0  3  0  0  0  0  0  0  0  0  0  0
   -0.5941   -4.0846   -1.4993 H   0  0  0  0  0  0  0  0  0  0  0  0
   -2.4478   -4.7993   -1.3425 C   0  0  0  0  0  0  0  0  0  0  0  0
   -3.7028   -4.5916   -1.0578 N   0  0  0  0  0  0  0  0  0  0  0  0
   -3.9872   -3.6731   -0.7664 H   0  0  0  0  0  0  0  0  0  0  0  0
   -4.3788   -5.3301   -1.1246 H   0  0  0  0  0  0  0  0  0  0  0  0
   -2.1077   -5.9999   -1.7168 N   0  0  0  0  0  0  0  0  0  0  0  0
   -1.1514   -6.2087   -1.9466 H   0  0  0  0  0  0  0  0  0  0  0  0
   -2.7992   -6.7243   -1.7766 H   0  0  0  0  0  0  0  0  0  0  0  0
   -1.6547    1.3413    1.4779 C   0  0  0  0  0  0  0  0  0  0  0  0
   -2.5654    1.9858    0.9716 O   0  0  0  0  0  0  0  0  0  0  0  0
   -0.8107    1.8504    2.3808 N   0  0  0  0  0  0  0  0  0  0  0  0
   -0.1136    1.2381    2.7719 H   0  0  0  0  0  0  0  0  0  0  0  0
   -0.8954    3.2155    2.9026 C   0  0  0  0  0  0  0  0  0  0  0  0
   -1.8299    3.3430    3.4532 H   0  0  0  0  0  0  0  0  0  0  0  0
   -0.0581    3.4194    3.5712 H   0  0  0  0  0  0  0  0  0  0  0  0
   -0.8804    3.9320    2.0784 H   0  0  0  0  0  0  0  0  0  0  0  0
  5  6  2  0  0  0  0
  5  7  1  0  0  0  0
  2  3  1  0  0  0  0
  2  4  1  0  0  0  0
  2  5  1  0  0  0  0
  1  2  1  0  0  0  0
 29 30  2  0  0  0  0
 29 31  1  0  0  0  0
 26 27  1  0  0  0  0
 26 28  1  0  0  0  0
 23 24  1  0  0  0  0
 23 25  1  0  0  0  0
 22 23  1  0  0  0  0
 22 26  1  0  0  0  0
 20 21  1  0  0  0  0
 20 22  2  0  0  0  0
 17 18  1  0  0  0  0
 17 19  1  0  0  0  0
 17 20  1  0  0  0  0
 14 15  1  0  0  0  0
 14 16  1  0  0  0  0
 14 17  1  0  0  0  0
 11 12  1  0  0  0  0
 11 13  1  0  0  0  0
 11 14  1  0  0  0  0
  9 10  1  0  0  0  0
  9 11  1  0  0  0  0
  9 29  1  0  0  0  0
  7  8  1  0  0  0  0
  7  9  1  0  0  0  0
 33 34  1  0  0  0  0
 33 35  1  0  0  0  0
 33 36  1  0  0  0  0
 31 32  1  0  0  0  0
 31 33  1  0  0  0  0
M  CHG  1  20   1
M  END
$$$$
default_name
  -OEChem-02102213163D

 36 35  0     1  0  0  0  0  0999 V2000
   -4.2256   -3.6731    1.8584 H   0  0  0  0  0  0  0  0  0  0  0  0
   -4.2396   -2.6781    1.4144 C   0  0  0  0  0  0  0  0  0  0  0  0
   -4.9506   -2.0521    1.9514 H   0  0  0  0  0  0  0  0  0  0  0  0
   -4.5266   -2.7521    0.3674 H   0  0  0  0  0  0  0  0  0  0  0  0
   -2.8576   -2.0761    1.5184 C   0  0  0  0  0  0  0  0  0  0  0  0
   -1.9456   -2.7051    2.0404 O   0  0  0  0  0  0  0  0  0  0  0  0
   -2.6926   -0.8481    1.0174 N   0  0  0  0  0  0  0  0  0  0  0  0
   -3.4926   -0.3971    0.5954 H   0  0  0  0  0  0  0  0  0  0  0  0
   -1.4216   -0.1071    1.0434 C   0  0  1  0  0  0  0  0  0  0  0  0
   -0.7579   -0.5878    1.7640 H   0  0  0  0  0  0  0  0  0  0  0  0
   -0.7791   -0.1912   -0.3557 C   0  0  0  0  0  0  0  0  0  0  0  0
   -1.4601    0.2612   -1.0794 H   0  0  0  0  0  0  0  0  0  0  0  0
    0.1490    0.3847   -0.3574 H   0  0  0  0  0  0  0  0  0  0  0  0
   -0.4814   -1.6287   -0.8063 C   0  0  0  0  0  0  0  0  0  0  0  0
    0.1987   -1.6146   -1.6591 H   0  0  0  0  0  0  0  0  0  0  0  0
   -0.0178   -2.1756    0.0153 H   0  0  0  0  0  0  0  0  0  0  0  0
   -1.7848   -2.3288   -1.2144 C   0  0  0  0  0  0  0  0  0  0  0  0
   -2.4694   -2.3147   -0.3633 H   0  0  0  0  0  0  0  0  0  0  0  0
   -2.2355   -1.7713   -2.0388 H   0  0  0  0  0  0  0  0  0  0  0  0
   -1.5487   -3.7257   -1.6338 N   0  3  0  0  0  0  0  0  0  0  0  0
   -0.5926   -4.0367   -1.6510 H   0  0  0  0  0  0  0  0  0  0  0  0
   -2.4736   -4.6025   -1.9872 C   0  0  0  0  0  0  0  0  0  0  0  0
   -3.7425   -4.3042   -2.0006 N   0  0  0  0  0  0  0  0  0  0  0  0
   -4.0246   -3.3781   -1.7319 H   0  0  0  0  0  0  0  0  0  0  0  0
   -4.4315   -4.9814   -2.2718 H   0  0  0  0  0  0  0  0  0  0  0  0
   -2.1370   -5.8108   -2.3395 N   0  0  0  0  0  0  0  0  0  0  0  0
   -1.1705   -6.0878   -2.3448 H   0  0  0  0  0  0  0  0  0  0  0  0
   -2.8418   -6.4728   -2.6068 H   0  0  0  0  0  0  0  0  0  0  0  0
   -1.6547    1.3413    1.4779 C   0  0  0  0  0  0  0  0  0  0  0  0
   -2.5654    1.9858    0.9716 O   0  0  0  0  0  0  0  0  0  0  0  0
   -0.8107    1.8504    2.3808 N   0  0  0  0  0  0  0  0  0  0  0  0
   -0.1136    1.2381    2.7719 H   0  0  0  0  0  0  0  0  0  0  0  0
   -0.8954    3.2155    2.9026 C   0  0  0  0  0  0  0  0  0  0  0  0
   -1.8299    3.3430    3.4532 H   0  0  0  0  0  0  0  0  0  0  0  0
   -0.0581    3.4194    3.5712 H   0  0  0  0  0  0  0  0  0  0  0  0
   -0.8804    3.9320    2.0784 H   0  0  0  0  0  0  0  0  0  0  0  0
  5  6  2  0  0  0  0
  5  7  1  0  0  0  0
  2  3  1  0  0  0  0
  2  4  1  0  0  0  0
  2  5  1  0  0  0  0
  1  2  1  0  0  0  0
 29 30  2  0  0  0  0
 29 31  1  0  0  0  0
 26 27  1  0  0  0  0
 26 28  1  0  0  0  0
 23 24  1  0  0  0  0
 23 25  1  0  0  0  0
 22 23  1  0  0  0  0
 22 26  1  0  0  0  0
 20 21  1  0  0  0  0
 20 22  2  0  0  0  0
 17 18  1  0  0  0  0
 17 19  1  0  0  0  0
 17 20  1  0  0  0  0
 14 15  1  0  0  0  0
 14 16  1  0  0  0  0
 14 17  1  0  0  0  0
 11 12  1  0  0  0  0
 11 13  1  0  0  0  0
 11 14  1  0  0  0  0
  9 10  1  0  0  0  0
  9 11  1  0  0  0  0
  9 29  1  0  0  0  0
  7  8  1  0  0  0  0
  7  9  1  0  0  0  0
 33 34  1  0  0  0  0
 33 35  1  0  0  0  0
 33 36  1  0  0  0  0
 31 32  1  0  0  0  0
 31 33  1  0  0  0  0
M  CHG  1  20   1
M  END
$$$$
default_name
  -OEChem-02102213163D

 36 35  0     1  0  0  0  0  0999 V2000
   -4.2256   -3.6731    1.8584 H   0  0  0  0  0  0  0  0  0  0  0  0
   -4.2396   -2.6781    1.4144 C   0  0  0  0  0  0  0  0  0  0  0  0
   -4.9506   -2.0521    1.9514 H   0  0  0  0  0  0  0  0  0  0  0  0
   -4.5266   -2.7521    0.3674 H   0  0  0  0  0  0  0  0  0  0  0  0
   -2.8576   -2.0761    1.5184 C   0  0  0  0  0  0  0  0  0  0  0  0
   -1.9456   -2.7051    2.0404 O   0  0  0  0  0  0  0  0  0  0  0  0
   -2.6926   -0.8481    1.0174 N   0  0  0  0  0  0  0  0  0  0  0  0
   -3.4926   -0.3971    0.5954 H   0  0  0  0  0  0  0  0  0  0  0  0
   -1.4216   -0.1071    1.0434 C   0  0  1  0  0  0  0  0  0  0  0  0
   -0.7579   -0.5878    1.7640 H   0  0  0  0  0  0  0  0  0  0  0  0
   -0.7791   -0.1912   -0.3557 C   0  0  0  0  0  0  0  0  0  0  0  0
   -1.4601    0.2612   -1.0794 H   0  0  0  0  0  0  0  0  0  0  0  0
    0.1490    0.3847   -0.3574 H   0  0  0  0  0  0  0  0  0  0  0  0
   -0.4814   -1.6287   -0.8063 C   0  0  0  0  0  0  0  0  0  0  0  0
    0.3857   -1.6357   -1.4683 H   0  0  0  0  0  0  0  0  0  0  0  0
   -0.2718   -2.2449    0.0685 H   0  0  0  0  0  0  0  0  0  0  0  0
   -1.6912   -2.2022   -1.5567 C   0  0  0  0  0  0  0  0  0  0  0  0
   -2.5603   -2.1666   -0.8957 H   0  0  0  0  0  0  0  0  0  0  0  0
   -1.8870   -1.5763   -2.4305 H   0  0  0  0  0  0  0  0  0  0  0  0
   -1.4580   -3.5954   -1.9894 N   0  3  0  0  0  0  0  0  0  0  0  0
   -0.5507   -3.9830   -1.7948 H   0  0  0  0  0  0  0  0  0  0  0  0
   -2.3274   -4.3781   -2.6063 C   0  0  0  0  0  0  0  0  0  0  0  0
   -3.5306   -3.9763   -2.9064 N   0  0  0  0  0  0  0  0  0  0  0  0
   -3.8045   -3.0419   -2.6588 H   0  0  0  0  0  0  0  0  0  0  0  0
   -4.1780   -4.5829   -3.3751 H   0  0  0  0  0  0  0  0  0  0  0  0
   -2.0001   -5.5945   -2.9387 N   0  0  0  0  0  0  0  0  0  0  0  0
   -1.0833   -5.9496   -2.7280 H   0  0  0  0  0  0  0  0  0  0  0  0
   -2.6627   -6.1850   -3.4065 H   0  0  0  0  0  0  0  0  0  0  0  0
   -1.6547    1.3413    1.4779 C   0  0  0  0  0  0  0  0  0  0  0  0
   -2.5654    1.9858    0.9716 O   0  0  0  0  0  0  0  0  0  0  0  0
   -0.8107    1.8504    2.3808 N   0  0  0  0  0  0  0  0  0  0  0  0
   -0.1136    1.2381    2.7719 H   0  0  0  0  0  0  0  0  0  0  0  0
   -0.8954    3.2155    2.9026 C   0  0  0  0  0  0  0  0  0  0  0  0
   -1.8299    3.3430    3.4532 H   0  0  0  0  0  0  0  0  0  0  0  0
   -0.0581    3.4194    3.5712 H   0  0  0  0  0  0  0  0  0  0  0  0
   -0.8804    3.9320    2.0784 H   0  0  0  0  0  0  0  0  0  0  0  0
  5  6  2  0  0  0  0
  5  7  1  0  0  0  0
  2  3  1  0  0  0  0
  2  4  1  0  0  0  0
  2  5  1  0  0  0  0
  1  2  1  0  0  0  0
 29 30  2  0  0  0  0
 29 31  1  0  0  0  0
 26 27  1  0  0  0  0
 26 28  1  0  0  0  0
 23 24  1  0  0  0  0
 23 25  1  0  0  0  0
 22 23  1  0  0  0  0
 22 26  1  0  0  0  0
 20 21  1  0  0  0  0
 20 22  2  0  0  0  0
 17 18  1  0  0  0  0
 17 19  1  0  0  0  0
 17 20  1  0  0  0  0
 14 15  1  0  0  0  0
 14 16  1  0  0  0  0
 14 17  1  0  0  0  0
 11 12  1  0  0  0  0
 11 13  1  0  0  0  0
 11 14  1  0  0  0  0
  9 10  1  0  0  0  0
  9 11  1  0  0  0  0
  9 29  1  0  0  0  0
  7  8  1  0  0  0  0
  7  9  1  0  0  0  0
 33 34  1  0  0  0  0
 33 35  1  0  0  0  0
 33 36  1  0  0  0  0
 31 32  1  0  0  0  0
 31 33  1  0  0  0  0
M  CHG  1  20   1
M  END
$$$$
default_name
  -OEChem-02102213163D

 36 35  0     1  0  0  0  0  0999 V2000
   -4.2256   -3.6731    1.8584 H   0  0  0  0  0  0  0  0  0  0  0  0
   -4.2396   -2.6781    1.4144 C   0  0  0  0  0  0  0  0  0  0  0  0
   -4.9506   -2.0521    1.9514 H   0  0  0  0  0  0  0  0  0  0  0  0
   -4.5266   -2.7521    0.3674 H   0  0  0  0  0  0  0  0  0  0  0  0
   -2.8576   -2.0761    1.5184 C   0  0  0  0  0  0  0  0  0  0  0  0
   -1.9456   -2.7051    2.0404 O   0  0  0  0  0  0  0  0  0  0  0  0
   -2.6926   -0.8481    1.0174 N   0  0  0  0  0  0  0  0  0  0  0  0
   -3.4926   -0.3971    0.5954 H   0  0  0  0  0  0  0  0  0  0  0  0
   -1.4216   -0.1071    1.0434 C   0  0  1  0  0  0  0  0  0  0  0  0
   -0.7579   -0.5878    1.7640 H   0  0  0  0  0  0  0  0  0  0  0  0
   -0.7791   -0.1912   -0.3557 C   0  0  0  0  0  0  0  0  0  0  0  0
   -1.4601    0.2612   -1.0794 H   0  0  0  0  0  0  0  0  0  0  0  0
    0.1490    0.3847   -0.3574 H   0  0  0  0  0  0  0  0  0  0  0  0
   -0.4814   -1.6287   -0.8063 C   0  0  0  0  0  0  0  0  0  0  0  0
    0.5184   -1.6799   -1.2397 H   0  0  0  0  0  0  0  0  0  0  0  0
   -0.5354   -2.2953    0.0550 H   0  0  0  0  0  0  0  0  0  0  0  0
   -1.5083   -2.0698   -1.8582 C   0  0  0  0  0  0  0  0  0  0  0  0
   -2.5078   -1.9899   -1.4246 H   0  0  0  0  0  0  0  0  0  0  0  0
   -1.4406   -1.3948   -2.7146 H   0  0  0  0  0  0  0  0  0  0  0  0
   -1.2743   -3.4586   -2.3044 N   0  3  0  0  0  0  0  0  0  0  0  0
   -0.4713   -3.9270   -1.9208 H   0  0  0  0  0  0  0  0  0  0  0  0
   -2.0191   -4.1414   -3.1576 C   0  0  0  0  0  0  0  0  0  0  0  0
   -3.0815   -3.6302   -3.7137 N   0  0  0  0  0  0  0  0  0  0  0  0
   -3.3417   -2.6874   -3.4839 H   0  0  0  0  0  0  0  0  0  0  0  0
   -3.6356   -4.1620   -4.3595 H   0  0  0  0  0  0  0  0  0  0  0  0
   -1.7063   -5.3660   -3.4734 N   0  0  0  0  0  0  0  0  0  0  0  0
   -0.8958   -5.8035   -3.0700 H   0  0  0  0  0  0  0  0  0  0  0  0
   -2.2741   -5.8805   -4.1211 H   0  0  0  0  0  0  0  0  0  0  0  0
   -1.6547    1.3413    1.4779 C   0  0  0  0  0  0  0  0  0  0  0  0
   -2.5654    1.9858    0.9716 O   0  0  0  0  0  0  0  0  0  0  0  0
   -0.8107    1.8504    2.3808 N   0  0  0  0  0  0  0  0  0  0  0  0
   -0.1136    1.2381    2.7719 H   0  0  0  0  0  0  0  0  0  0  0  0
   -0.8954    3.2155    2.9026 C   0  0  0  0  0  0  0  0  0  0  0  0
   -1.8299    3.3430    3.4532 H   0  0  0  0  0  0  0  0  0  0  0  0
   -0.0581    3.4194    3.5712 H   0  0  0  0  0  0  0  0  0  0  0  0
   -0.8804    3.9320    2.0784 H   0  0  0  0  0  0  0  0  0  0  0  0
  5  6  2  0  0  0  0
  5  7  1  0  0  0  0
  2  3  1  0  0  0  0
  2  4  1  0  0  0  0
  2  5  1  0  0  0  0
  1  2  1  0  0  0  0
 29 30  2  0  0  0  0
 29 31  1  0  0  0  0
 26 27  1  0  0  0  0
 26 28  1  0  0  0  0
 23 24  1  0  0  0  0
 23 25  1  0  0  0  0
 22 23  1  0  0  0  0
 22 26  1  0  0  0  0
 20 21  1  0  0  0  0
 20 22  2  0  0  0  0
 17 18  1  0  0  0  0
 17 19  1  0  0  0  0
 17 20  1  0  0  0  0
 14 15  1  0  0  0  0
 14 16  1  0  0  0  0
 14 17  1  0  0  0  0
 11 12  1  0  0  0  0
 11 13  1  0  0  0  0
 11 14  1  0  0  0  0
  9 10  1  0  0  0  0
  9 11  1  0  0  0  0
  9 29  1  0  0  0  0
  7  8  1  0  0  0  0
  7  9  1  0  0  0  0
 33 34  1  0  0  0  0
 33 35  1  0  0  0  0
 33 36  1  0  0  0  0
 31 32  1  0  0  0  0
 31 33  1  0  0  0  0
M  CHG  1  20   1
M  END
$$$$
default_name
  -OEChem-02102213163D

 36 35  0     1  0  0  0  0  0999 V2000
   -4.2256   -3.6731    1.8584 H   0  0  0  0  0  0  0  0  0  0  0  0
   -4.2396   -2.6781    1.4144 C   0  0  0  0  0  0  0  0  0  0  0  0
   -4.9506   -2.0521    1.9514 H   0  0  0  0  0  0  0  0  0  0  0  0
   -4.5266   -2.7521    0.3674 H   0  0  0  0  0  0  0  0  0  0  0  0
   -2.8576   -2.0761    1.5184 C   0  0  0  0  0  0  0  0  0  0  0  0
   -1.9456   -2.7051    2.0404 O   0  0  0  0  0  0  0  0  0  0  0  0
   -2.6926   -0.8481    1.0174 N   0  0  0  0  0  0  0  0  0  0  0  0
   -3.4926   -0.3971    0.5954 H   0  0  0  0  0  0  0  0  0  0  0  0
   -1.4216   -0.1071    1.0434 C   0  0  1  0  0  0  0  0  0  0  0  0
   -0.7579   -0.5878    1.7640 H   0  0  0  0  0  0  0  0  0  0  0  0
   -0.7791   -0.1912   -0.3557 C   0  0  0  0  0  0  0  0  0  0  0  0
   -1.4601    0.2612   -1.0794 H   0  0  0  0  0  0  0  0  0  0  0  0
    0.1490    0.3847   -0.3574 H   0  0  0  0  0  0  0  0  0  0  0  0
   -0.4814   -1.6287   -0.8063 C   0  0  0  0  0  0  0  0  0  0  0  0
    0.5879   -1.7441   -0.9889 H   0  0  0  0  0  0  0  0  0  0  0  0
   -0.7905   -2.3232   -0.0245 H   0  0  0  0  0  0  0  0  0  0  0  0
   -1.2485   -1.9406   -2.0985 C   0  0  0  0  0  0  0  0  0  0  0  0
   -2.3156   -1.7967   -1.9139 H   0  0  0  0  0  0  0  0  0  0  0  0
   -0.9268   -1.2391   -2.8718 H   0  0  0  0  0  0  0  0  0  0  0  0
   -1.0101   -3.3246   -2.5572 N   0  3  0  0  0  0  0  0  0  0  0  0
   -0.3598   -3.8727   -2.0205 H   0  0  0  0  0  0  0  0  0  0  0  0
   -1.5698   -3.9086   -3.6036 C   0  0  0  0  0  0  0  0  0  0  0  0
   -2.4259   -3.2895   -4.3672 N   0  0  0  0  0  0  0  0  0  0  0  0
   -2.6678   -2.3387   -4.1510 H   0  0  0  0  0  0  0  0  0  0  0  0
   -2.8412   -3.7472   -5.1578 H   0  0  0  0  0  0  0  0  0  0  0  0
   -1.2755   -5.1408   -3.9073 N   0  0  0  0  0  0  0  0  0  0  0  0
   -0.6207   -5.6595   -3.3477 H   0  0  0  0  0  0  0  0  0  0  0  0
   -1.7025   -5.5800   -4.7018 H   0  0  0  0  0  0  0  0  0  0  0  0
   -1.6547    1.3413    1.4779 C   0  0  0  0  0  0  0  0  0  0  0  0
   -2.5654    1.9858    0.9716 O   0  0  0  0  0  0  0  0  0  0  0  0
   -0.8107    1.8504    2.3808 N   0  0  0  0  0  0  0  0  0  0  0  0
   -0.1136    1.2381    2.7719 H   0  0  0  0  0  0  0  0  0  0  0  0
   -0.8954    3.2155    2.9026 C   0  0  0  0  0  0  0  0  0  0  0  0
   -1.8299    3.3430    3.4532 H   0  0  0  0  0  0  0  0  0  0  0  0
   -0.0581    3.4194    3.5712 H   0  0  0  0  0  0  0  0  0  0  0  0
   -0.8804    3.9320    2.0784 H   0  0  0  0  0  0  0  0  0  0  0  0
  5  6  2  0  0  0  0
  5  7  1  0  0  0  0
  2  3  1  0  0  0  0
  2  4  1  0  0  0  0
  2  5  1  0  0  0  0
  1  2  1  0  0  0  0
 29 30  2  0  0  0  0
 29 31  1  0  0  0  0
 26 27  1  0  0  0  0
 26 28  1  0  0  0  0
 23 24  1  0  0  0  0
 23 25  1  0  0  0  0
 22 23  1  0  0  0  0
 22 26  1  0  0  0  0
 20 21  1  0  0  0  0
 20 22  2  0  0  0  0
 17 18  1  0  0  0  0
 17 19  1  0  0  0  0
 17 20  1  0  0  0  0
 14 15  1  0  0  0  0
 14 16  1  0  0  0  0
 14 17  1  0  0  0  0
 11 12  1  0  0  0  0
 11 13  1  0  0  0  0
 11 14  1  0  0  0  0
  9 10  1  0  0  0  0
  9 11  1  0  0  0  0
  9 29  1  0  0  0  0
  7  8  1  0  0  0  0
  7  9  1  0  0  0  0
 33 34  1  0  0  0  0
 33 35  1  0  0  0  0
 33 36  1  0  0  0  0
 31 32  1  0  0  0  0
 31 33  1  0  0  0  0
M  CHG  1  20   1
M  END
$$$$
default_name
  -OEChem-02102213163D

 36 35  0     1  0  0  0  0  0999 V2000
   -4.2256   -3.6731    1.8584 H   0  0  0  0  0  0  0  0  0  0  0  0
   -4.2396   -2.6781    1.4144 C   0  0  0  0  0  0  0  0  0  0  0  0
   -4.9506   -2.0521    1.9514 H   0  0  0  0  0  0  0  0  0  0  0  0
   -4.5266   -2.7521    0.3674 H   0  0  0  0  0  0  0  0  0  0  0  0
   -2.8576   -2.0761    1.5184 C   0  0  0  0  0  0  0  0  0  0  0  0
   -1.9456   -2.7051    2.0404 O   0  0  0  0  0  0  0  0  0  0  0  0
   -2.6926   -0.8481    1.0174 N   0  0  0  0  0  0  0  0  0  0  0  0
   -3.4926   -0.3971    0.5954 H   0  0  0  0  0  0  0  0  0  0  0  0
   -1.4216   -0.1071    1.0434 C   0  0  1  0  0  0  0  0  0  0  0  0
   -0.7579   -0.5878    1.7640 H   0  0  0  0  0  0  0  0  0  0  0  0
   -0.7791   -0.1912   -0.3557 C   0  0  0  0  0  0  0  0  0  0  0  0
   -1.4601    0.2612   -1.0794 H   0  0  0  0  0  0  0  0  0  0  0  0
    0.1490    0.3847   -0.3574 H   0  0  0  0  0  0  0  0  0  0  0  0
   -0.4814   -1.6287   -0.8063 C   0  0  0  0  0  0  0  0  0  0  0  0
    0.5894   -1.8240   -0.7331 H   0  0  0  0  0  0  0  0  0  0  0  0
   -1.0197   -2.3268   -0.1645 H   0  0  0  0  0  0  0  0  0  0  0  0
   -0.9296   -1.8235   -2.2612 C   0  0  0  0  0  0  0  0  0  0  0  0
   -1.9967   -1.6001   -2.3303 H   0  0  0  0  0  0  0  0  0  0  0  0
   -0.3805   -1.1198   -2.8913 H   0  0  0  0  0  0  0  0  0  0  0  0
   -0.6835   -3.2026   -2.7308 N   0  3  0  0  0  0  0  0  0  0  0  0
   -0.2238   -3.8236   -2.0871 H   0  0  0  0  0  0  0  0  0  0  0  0
   -1.0100   -3.6954   -3.9138 C   0  0  0  0  0  0  0  0  0  0  0  0
   -1.6084   -2.9775   -4.8226 N   0  0  0  0  0  0  0  0  0  0  0  0
   -1.8288   -2.0196   -4.6146 H   0  0  0  0  0  0  0  0  0  0  0  0
   -1.8489   -3.3668   -5.7155 H   0  0  0  0  0  0  0  0  0  0  0  0
   -0.7372   -4.9342   -4.2107 N   0  0  0  0  0  0  0  0  0  0  0  0
   -0.2767   -5.5273   -3.5420 H   0  0  0  0  0  0  0  0  0  0  0  0
   -0.9868   -5.3041   -5.1093 H   0  0  0  0  0  0  0  0  0  0  0  0
   -1.6547    1.3413    1.4779 C   0  0  0  0  0  0  0  0  0  0  0  0
   -2.5654    1.9858    0.9716 O   0  0  0  0  0  0  0  0  0  0  0  0
   -0.8107    1.8504    2.3808 N   0  0  0  0  0  0  0  0  0  0  0  0
   -0.1136    1.2381    2.7719 H   0  0  0  0  0  0  0  0  0  0  0  0
   -0.8954    3.2155    2.9026 C   0  0  0  0  0  0  0  0  0  0  0  0
   -1.8299    3.3430    3.4532 H   0  0  0  0  0  0  0  0  0  0  0  0
   -0.0581    3.4194    3.5712 H   0  0  0  0  0  0  0  0  0  0  0  0
   -0.8804    3.9320    2.0784 H   0  0  0  0  0  0  0  0  0  0  0  0
  5  6  2  0  0  0  0
  5  7  1  0  0  0  0
  2  3  1  0  0  0  0
  2  4  1  0  0  0  0
  2  5  1  0  0  0  0
  1  2  1  0  0  0  0
 29 30  2  0  0  0  0
 29 31  1  0  0  0  0
 26 27  1  0  0  0  0
 26 28  1  0  0  0  0
 23 24  1  0  0  0  0
 23 25  1  0  0  0  0
 22 23  1  0  0  0  0
 22 26  1  0  0  0  0
 20 21  1  0  0  0  0
 20 22  2  0  0  0  0
 17 18  1  0  0  0  0
 17 19  1  0  0  0  0
 17 20  1  0  0  0  0
 14 15  1  0  0  0  0
 14 16  1  0  0  0  0
 14 17  1  0  0  0  0
 11 12  1  0  0  0  0
 11 13  1  0  0  0  0
 11 14  1  0  0  0  0
  9 10  1  0  0  0  0
  9 11  1  0  0  0  0
  9 29  1  0  0  0  0
  7  8  1  0  0  0  0
  7  9  1  0  0  0  0
 33 34  1  0  0  0  0
 33 35  1  0  0  0  0
 33 36  1  0  0  0  0
 31 32  1  0  0  0  0
 31 33  1  0  0  0  0
M  CHG  1  20   1
M  END
$$$$
default_name
  -OEChem-02102213163D

 36 35  0     1  0  0  0  0  0999 V2000
   -4.2256   -3.6731    1.8584 H   0  0  0  0  0  0  0  0  0  0  0  0
   -4.2396   -2.6781    1.4144 C   0  0  0  0  0  0  0  0  0  0  0  0
   -4.9506   -2.0521    1.9514 H   0  0  0  0  0  0  0  0  0  0  0  0
   -4.5266   -2.7521    0.3674 H   0  0  0  0  0  0  0  0  0  0  0  0
   -2.8576   -2.0761    1.5184 C   0  0  0  0  0  0  0  0  0  0  0  0
   -1.9456   -2.7051    2.0404 O   0  0  0  0  0  0  0  0  0  0  0  0
   -2.6926   -0.8481    1.0174 N   0  0  0  0  0  0  0  0  0  0  0  0
   -3.4926   -0.3971    0.5954 H   0  0  0  0  0  0  0  0  0  0  0  0
   -1.4216   -0.1071    1.0434 C   0  0  1  0  0  0  0  0  0  0  0  0
   -0.7579   -0.5878    1.7640 H   0  0  0  0  0  0  0  0  0  0  0  0
   -0.7791   -0.1912   -0.3557 C   0  0  0  0  0  0  0  0  0  0  0  0
   -1.4601    0.2612   -1.0794 H   0  0  0  0  0  0  0  0  0  0  0  0
    0.1490    0.3847   -0.3574 H   0  0  0  0  0  0  0  0  0  0  0  0
   -0.4814   -1.6287   -0.8063 C   0  0  0  0  0  0  0  0  0  0  0  0
    0.5227   -1.9141   -0.4897 H   0  0  0  0  0  0  0  0  0  0  0  0
   -1.2075   -2.3058   -0.3554 H   0  0  0  0  0  0  0  0  0  0  0  0
   -0.5732   -1.7265   -2.3352 C   0  0  0  0  0  0  0  0  0  0  0  0
   -1.5728   -1.4136   -2.6453 H   0  0  0  0  0  0  0  0  0  0  0  0
    0.1608   -1.0452   -2.7719 H   0  0  0  0  0  0  0  0  0  0  0  0
   -0.3167   -3.1008   -2.8131 N   0  3  0  0  0  0  0  0  0  0  0  0
   -0.0726   -3.7833   -2.1160 H   0  0  0  0  0  0  0  0  0  0  0  0
   -0.3780   -3.5164   -4.0671 C   0  0  0  0  0  0  0  0  0  0  0  0
   -0.6847   -2.7153   -5.0487 N   0  0  0  0  0  0  0  0  0  0  0  0
   -0.8819   -1.7518   -4.8432 H   0  0  0  0  0  0  0  0  0  0  0  0
   -0.7264   -3.0468   -5.9948 H   0  0  0  0  0  0  0  0  0  0  0  0
   -0.1281   -4.7603   -4.3630 N   0  0  0  0  0  0  0  0  0  0  0  0
    0.1127   -5.4160   -3.6398 H   0  0  0  0  0  0  0  0  0  0  0  0
   -0.1758   -5.0714   -5.3156 H   0  0  0  0  0  0  0  0  0  0  0  0
   -1.6547    1.3413    1.4779 C   0  0  0  0  0  0  0  0  0  0  0  0
   -2.5654    1.9858    0.9716 O   0  0  0  0  0  0  0  0  0  0  0  0
   -0.8107    1.8504    2.3808 N   0  0  0  0  0  0  0  0  0  0  0  0
   -0.1136    1.2381    2.7719 H   0  0  0  0  0  0  0  0  0  0  0  0
   -0.8954    3.2155    2.9026 C   0  0  0  0  0  0  0  0  0  0  0  0
   -1.8299    3.3430    3.4532 H   0  0  0  0  0  0  0  0  0  0  0  0
   -0.0581    3.4194    3.5712 H   0  0  0  0  0  0  0  0  0  0  0  0
   -0.8804    3.9320    2.0784 H   0  0  0  0  0  0  0  0  0  0  0  0
  5  6  2  0  0  0  0
  5  7  1  0  0  0  0
  2  3  1  0  0  0  0
  2  4  1  0  0  0  0
  2  5  1  0  0  0  0
  1  2  1  0  0  0  0
 29 30  2  0  0  0  0
 29 31  1  0  0  0  0
 26 27  1  0  0  0  0
 26 28  1  0  0  0  0
 23 24  1  0  0  0  0
 23 25  1  0  0  0  0
 22 23  1  0  0  0  0
 22 26  1  0  0  0  0
 20 21  1  0  0  0  0
 20 22  2  0  0  0  0
 17 18  1  0  0  0  0
 17 19  1  0  0  0  0
 17 20  1  0  0  0  0
 14 15  1  0  0  0  0
 14 16  1  0  0  0  0
 14 17  1  0  0  0  0
 11 12  1  0  0  0  0
 11 13  1  0  0  0  0
 11 14  1  0  0  0  0
  9 10  1  0  0  0  0
  9 11  1  0  0  0  0
  9 29  1  0  0  0  0
  7  8  1  0  0  0  0
  7  9  1  0  0  0  0
 33 34  1  0  0  0  0
 33 35  1  0  0  0  0
 33 36  1  0  0  0  0
 31 32  1  0  0  0  0
 31 33  1  0  0  0  0
M  CHG  1  20   1
M  END
$$$$
default_name
  -OEChem-02102213163D

 36 35  0     1  0  0  0  0  0999 V2000
   -4.2256   -3.6731    1.8584 H   0  0  0  0  0  0  0  0  0  0  0  0
   -4.2396   -2.6781    1.4144 C   0  0  0  0  0  0  0  0  0  0  0  0
   -4.9506   -2.0521    1.9514 H   0  0  0  0  0  0  0  0  0  0  0  0
   -4.5266   -2.7521    0.3674 H   0  0  0  0  0  0  0  0  0  0  0  0
   -2.8576   -2.0761    1.5184 C   0  0  0  0  0  0  0  0  0  0  0  0
   -1.9456   -2.7051    2.0404 O   0  0  0  0  0  0  0  0  0  0  0  0
   -2.6926   -0.8481    1.0174 N   0  0  0  0  0  0  0  0  0  0  0  0
   -3.4926   -0.3971    0.5954 H   0  0  0  0  0  0  0  0  0  0  0  0
   -1.4216   -0.1071    1.0434 C   0  0  1  0  0  0  0  0  0  0  0  0
   -0.7579   -0.5878    1.7640 H   0  0  0  0  0  0  0  0  0  0  0  0
   -0.7791   -0.1912   -0.3557 C   0  0  0  0  0  0  0  0  0  0  0  0
   -1.4601    0.2612   -1.0794 H   0  0  0  0  0  0  0  0  0  0  0  0
    0.1490    0.3847   -0.3574 H   0  0  0  0  0  0  0  0  0  0  0  0
   -0.4814   -1.6287   -0.8063 C   0  0  0  0  0  0  0  0  0  0  0  0
    0.3926   -2.0083   -0.2752 H   0  0  0  0  0  0  0  0  0  0  0  0
   -1.3411   -2.2617   -0.5843 H   0  0  0  0  0  0  0  0  0  0  0  0
   -0.2036   -1.6562   -2.3155 C   0  0  0  0  0  0  0  0  0  0  0  0
   -1.0729   -1.2498   -2.8375 H   0  0  0  0  0  0  0  0  0  0  0  0
    0.6605   -1.0202   -2.5216 H   0  0  0  0  0  0  0  0  0  0  0  0
    0.0653   -3.0262   -2.7987 N   0  3  0  0  0  0  0  0  0  0  0  0
    0.0834   -3.7543   -2.1052 H   0  0  0  0  0  0  0  0  0  0  0  0
    0.2832   -3.3838   -4.0531 C   0  0  0  0  0  0  0  0  0  0  0  0
    0.2822   -2.5209   -5.0301 N   0  0  0  0  0  0  0  0  0  0  0  0
    0.1085   -1.5536   -4.8210 H   0  0  0  0  0  0  0  0  0  0  0  0
    0.4498   -2.8089   -5.9766 H   0  0  0  0  0  0  0  0  0  0  0  0
    0.5104   -4.6310   -4.3537 N   0  0  0  0  0  0  0  0  0  0  0  0
    0.5209   -5.3332   -3.6342 H   0  0  0  0  0  0  0  0  0  0  0  0
    0.6752   -4.8980   -5.3067 H   0  0  0  0  0  0  0  0  0  0  0  0
   -1.6547    1.3413    1.4779 C   0  0  0  0  0  0  0  0  0  0  0  0
   -2.5654    1.9858    0.9716 O   0  0  0  0  0  0  0  0  0  0  0  0
   -0.8107    1.8504    2.3808 N   0  0  0  0  0  0  0  0  0  0  0  0
   -0.1136    1.2381    2.7719 H   0  0  0  0  0  0  0  0  0  0  0  0
   -0.8954    3.2155    2.9026 C   0  0  0  0  0  0  0  0  0  0  0  0
   -1.8299    3.3430    3.4532 H   0  0  0  0  0  0  0  0  0  0  0  0
   -0.0581    3.4194    3.5712 H   0  0  0  0  0  0  0  0  0  0  0  0
   -0.8804    3.9320    2.0784 H   0  0  0  0  0  0  0  0  0  0  0  0
  5  6  2  0  0  0  0
  5  7  1  0  0  0  0
  2  3  1  0  0  0  0
  2  4  1  0  0  0  0
  2  5  1  0  0  0  0
  1  2  1  0  0  0  0
 29 30  2  0  0  0  0
 29 31  1  0  0  0  0
 26 27  1  0  0  0  0
 26 28  1  0  0  0  0
 23 24  1  0  0  0  0
 23 25  1  0  0  0  0
 22 23  1  0  0  0  0
 22 26  1  0  0  0  0
 20 21  1  0  0  0  0
 20 22  2  0  0  0  0
 17 18  1  0  0  0  0
 17 19  1  0  0  0  0
 17 20  1  0  0  0  0
 14 15  1  0  0  0  0
 14 16  1  0  0  0  0
 14 17  1  0  0  0  0
 11 12  1  0  0  0  0
 11 13  1  0  0  0  0
 11 14  1  0  0  0  0
  9 10  1  0  0  0  0
  9 11  1  0  0  0  0
  9 29  1  0  0  0  0
  7  8  1  0  0  0  0
  7  9  1  0  0  0  0
 33 34  1  0  0  0  0
 33 35  1  0  0  0  0
 33 36  1  0  0  0  0
 31 32  1  0  0  0  0
 31 33  1  0  0  0  0
M  CHG  1  20   1
M  END
$$$$
default_name
  -OEChem-02102213163D

 36 35  0     1  0  0  0  0  0999 V2000
   -4.2256   -3.6731    1.8584 H   0  0  0  0  0  0  0  0  0  0  0  0
   -4.2396   -2.6781    1.4144 C   0  0  0  0  0  0  0  0  0  0  0  0
   -4.9506   -2.0521    1.9514 H   0  0  0  0  0  0  0  0  0  0  0  0
   -4.5266   -2.7521    0.3674 H   0  0  0  0  0  0  0  0  0  0  0  0
   -2.8576   -2.0761    1.5184 C   0  0  0  0  0  0  0  0  0  0  0  0
   -1.9456   -2.7051    2.0404 O   0  0  0  0  0  0  0  0  0  0  0  0
   -2.6926   -0.8481    1.0174 N   0  0  0  0  0  0  0  0  0  0  0  0
   -3.4926   -0.3971    0.5954 H   0  0  0  0  0  0  0  0  0  0  0  0
   -1.4216   -0.1071    1.0434 C   0  0  1  0  0  0  0  0  0  0  0  0
   -0.7579   -0.5878    1.7640 H   0  0  0  0  0  0  0  0  0  0  0  0
   -0.7791   -0.1912   -0.3557 C   0  0  0  0  0  0  0  0  0  0  0  0
   -1.3155    0.4831   -1.0264 H   0  0  0  0  0  0  0  0  0  0  0  0
    0.2577    0.1466   -0.2932 H   0  0  0  0  0  0  0  0  0  0  0  0
   -0.8141   -1.6021   -0.9607 C   0  0  0  0  0  0  0  0  0  0  0  0
   -0.2738   -2.2945   -0.3137 H   0  0  0  0  0  0  0  0  0  0  0  0
   -1.8502   -1.9294   -1.0531 H   0  0  0  0  0  0  0  0  0  0  0  0
   -0.1563   -1.5925   -2.3473 C   0  0  0  0  0  0  0  0  0  0  0  0
   -0.6869   -0.8773   -2.9800 H   0  0  0  0  0  0  0  0  0  0  0  0
    0.8803   -1.2653   -2.2380 H   0  0  0  0  0  0  0  0  0  0  0  0
   -0.1886   -2.9278   -2.9788 N   0  3  0  0  0  0  0  0  0  0  0  0
   -0.5793   -3.6764   -2.4327 H   0  0  0  0  0  0  0  0  0  0  0  0
    0.2461   -3.2299   -4.1907 C   0  0  0  0  0  0  0  0  0  0  0  0
    0.7702   -2.3363   -4.9819 N   0  0  0  0  0  0  0  0  0  0  0  0
    0.8439   -1.3878   -4.6589 H   0  0  0  0  0  0  0  0  0  0  0  0
    1.0957   -2.5824   -5.8987 H   0  0  0  0  0  0  0  0  0  0  0  0
    0.1626   -4.4513   -4.6362 N   0  0  0  0  0  0  0  0  0  0  0  0
   -0.2344   -5.1754   -4.0626 H   0  0  0  0  0  0  0  0  0  0  0  0
    0.4936   -4.6762   -5.5563 H   0  0  0  0  0  0  0  0  0  0  0  0
   -1.6547    1.3413    1.4779 C   0  0  0  0  0  0  0  0  0  0  0  0
   -2.5654    1.9858    0.9716 O   0  0  0  0  0  0  0  0  0  0  0  0
   -0.8107    1.8504    2.3808 N   0  0  0  0  0  0  0  0  0  0  0  0
   -0.1136    1.2381    2.7719 H   0  0  0  0  0  0  0  0  0  0  0  0
   -0.8954    3.2155    2.9026 C   0  0  0  0  0  0  0  0  0  0  0  0
   -1.8299    3.3430    3.4532 H   0  0  0  0  0  0  0  0  0  0  0  0
   -0.0581    3.4194    3.5712 H   0  0  0  0  0  0  0  0  0  0  0  0
   -0.8804    3.9320    2.0784 H   0  0  0  0  0  0  0  0  0  0  0  0
  5  6  2  0  0  0  0
  5  7  1  0  0  0  0
  2  3  1  0  0  0  0
  2  4  1  0  0  0  0
  2  5  1  0  0  0  0
  1  2  1  0  0  0  0
 29 30  2  0  0  0  0
 29 31  1  0  0  0  0
 26 27  1  0  0  0  0
 26 28  1  0  0  0  0
 23 24  1  0  0  0  0
 23 25  1  0  0  0  0
 22 23  1  0  0  0  0
 22 26  1  0  0  0  0
 20 21  1  0  0  0  0
 20 22  2  0  0  0  0
 17 18  1  0  0  0  0
 17 19  1  0  0  0  0
 17 20  1  0  0  0  0
 14 15  1  0  0  0  0
 14 16  1  0  0  0  0
 14 17  1  0  0  0  0
 11 12  1  0  0  0  0
 11 13  1  0  0  0  0
 11 14  1  0  0  0  0
  9 10  1  0  0  0  0
  9 11  1  0  0  0  0
  9 29  1  0  0  0  0
  7  8  1  0  0  0  0
  7  9  1  0  0  0  0
 33 34  1  0  0  0  0
 33 35  1  0  0  0  0
 33 36  1  0  0  0  0
 31 32  1  0  0  0  0
 31 33  1  0  0  0  0
M  CHG  1  20   1
M  END
$$$$
default_name
  -OEChem-02102213163D

 36 35  0     1  0  0  0  0  0999 V2000
   -4.2256   -3.6731    1.8584 H   0  0  0  0  0  0  0  0  0  0  0  0
   -4.2396   -2.6781    1.4144 C   0  0  0  0  0  0  0  0  0  0  0  0
   -4.9506   -2.0521    1.9514 H   0  0  0  0  0  0  0  0  0  0  0  0
   -4.5266   -2.7521    0.3674 H   0  0  0  0  0  0  0  0  0  0  0  0
   -2.8576   -2.0761    1.5184 C   0  0  0  0  0  0  0  0  0  0  0  0
   -1.9456   -2.7051    2.0404 O   0  0  0  0  0  0  0  0  0  0  0  0
   -2.6926   -0.8481    1.0174 N   0  0  0  0  0  0  0  0  0  0  0  0
   -3.4926   -0.3971    0.5954 H   0  0  0  0  0  0  0  0  0  0  0  0
   -1.4216   -0.1071    1.0434 C   0  0  1  0  0  0  0  0  0  0  0  0
   -0.7579   -0.5878    1.7640 H   0  0  0  0  0  0  0  0  0  0  0  0
   -0.7791   -0.1912   -0.3557 C   0  0  0  0  0  0  0  0  0  0  0  0
   -1.3155    0.4831   -1.0264 H   0  0  0  0  0  0  0  0  0  0  0  0
    0.2577    0.1466   -0.2932 H   0  0  0  0  0  0  0  0  0  0  0  0
   -0.8141   -1.6021   -0.9607 C   0  0  0  0  0  0  0  0  0  0  0  0
   -0.5169   -2.3338   -0.2081 H   0  0  0  0  0  0  0  0  0  0  0  0
   -1.8266   -1.8245   -1.2993 H   0  0  0  0  0  0  0  0  0  0  0  0
    0.1516   -1.6845   -2.1507 C   0  0  0  0  0  0  0  0  0  0  0  0
   -0.1372   -0.9309   -2.8869 H   0  0  0  0  0  0  0  0  0  0  0  0
    1.1606   -1.4620   -1.7956 H   0  0  0  0  0  0  0  0  0  0  0  0
    0.1332   -3.0209   -2.7803 N   0  3  0  0  0  0  0  0  0  0  0  0
   -0.4507   -3.7161   -2.3477 H   0  0  0  0  0  0  0  0  0  0  0  0
    0.8100   -3.3876   -3.8558 C   0  0  0  0  0  0  0  0  0  0  0  0
    1.5959   -2.5662   -4.4936 N   0  0  0  0  0  0  0  0  0  0  0  0
    1.6878   -1.6243   -4.1563 H   0  0  0  0  0  0  0  0  0  0  0  0
    2.1027   -2.8606   -5.3081 H   0  0  0  0  0  0  0  0  0  0  0  0
    0.7097   -4.6022   -4.3162 N   0  0  0  0  0  0  0  0  0  0  0  0
    0.1156   -5.2717   -3.8582 H   0  0  0  0  0  0  0  0  0  0  0  0
    1.2248   -4.8761   -5.1324 H   0  0  0  0  0  0  0  0  0  0  0  0
   -1.6547    1.3413    1.4779 C   0  0  0  0  0  0  0  0  0  0  0  0
   -2.5654    1.9858    0.9716 O   0  0  0  0  0  0  0  0  0  0  0  0
   -0.8107    1.8504    2.3808 N   0  0  0  0  0  0  0  0  0  0  0  0
   -0.1136    1.2381    2.7719 H   0  0  0  0  0  0  0  0  0  0  0  0
   -0.8954    3.2155    2.9026 C   0  0  0  0  0  0  0  0  0  0  0  0
   -1.8299    3.3430    3.4532 H   0  0  0  0  0  0  0  0  0  0  0  0
   -0.0581    3.4194    3.5712 H   0  0  0  0  0  0  0  0  0  0  0  0
   -0.8804    3.9320    2.0784 H   0  0  0  0  0  0  0  0  0  0  0  0
  5  6  2  0  0  0  0
  5  7  1  0  0  0  0
  2  3  1  0  0  0  0
  2  4  1  0  0  0  0
  2  5  1  0  0  0  0
  1  2  1  0  0  0  0
 29 30  2  0  0  0  0
 29 31  1  0  0  0  0
 26 27  1  0  0  0  0
 26 28  1  0  0  0  0
 23 24  1  0  0  0  0
 23 25  1  0  0  0  0
 22 23  1  0  0  0  0
 22 26  1  0  0  0  0
 20 21  1  0  0  0  0
 20 22  2  0  0  0  0
 17 18  1  0  0  0  0
 17 19  1  0  0  0  0
 17 20  1  0  0  0  0
 14 15  1  0  0  0  0
 14 16  1  0  0  0  0
 14 17  1  0  0  0  0
 11 12  1  0  0  0  0
 11 13  1  0  0  0  0
 11 14  1  0  0  0  0
  9 10  1  0  0  0  0
  9 11  1  0  0  0  0
  9 29  1  0  0  0  0
  7  8  1  0  0  0  0
  7  9  1  0  0  0  0
 33 34  1  0  0  0  0
 33 35  1  0  0  0  0
 33 36  1  0  0  0  0
 31 32  1  0  0  0  0
 31 33  1  0  0  0  0
M  CHG  1  20   1
M  END
$$$$
default_name
  -OEChem-02102213163D

 36 35  0     1  0  0  0  0  0999 V2000
   -4.2256   -3.6731    1.8584 H   0  0  0  0  0  0  0  0  0  0  0  0
   -4.2396   -2.6781    1.4144 C   0  0  0  0  0  0  0  0  0  0  0  0
   -4.9506   -2.0521    1.9514 H   0  0  0  0  0  0  0  0  0  0  0  0
   -4.5266   -2.7521    0.3674 H   0  0  0  0  0  0  0  0  0  0  0  0
   -2.8576   -2.0761    1.5184 C   0  0  0  0  0  0  0  0  0  0  0  0
   -1.9456   -2.7051    2.0404 O   0  0  0  0  0  0  0  0  0  0  0  0
   -2.6926   -0.8481    1.0174 N   0  0  0  0  0  0  0  0  0  0  0  0
   -3.4926   -0.3971    0.5954 H   0  0  0  0  0  0  0  0  0  0  0  0
   -1.4216   -0.1071    1.0434 C   0  0  1  0  0  0  0  0  0  0  0  0
   -0.7579   -0.5878    1.7640 H   0  0  0  0  0  0  0  0  0  0  0  0
   -0.7791   -0.1912   -0.3557 C   0  0  0  0  0  0  0  0  0  0  0  0
   -1.3155    0.4831   -1.0264 H   0  0  0  0  0  0  0  0  0  0  0  0
    0.2577    0.1466   -0.2932 H   0  0  0  0  0  0  0  0  0  0  0  0
   -0.8141   -1.6021   -0.9607 C   0  0  0  0  0  0  0  0  0  0  0  0
   -0.7809   -2.3463   -0.1637 H   0  0  0  0  0  0  0  0  0  0  0  0
   -1.7345   -1.7269   -1.5321 H   0  0  0  0  0  0  0  0  0  0  0  0
    0.3929   -1.8036   -1.8870 C   0  0  0  0  0  0  0  0  0  0  0  0
    0.3661   -1.0381   -2.6660 H   0  0  0  0  0  0  0  0  0  0  0  0
    1.3060   -1.6779   -1.3005 H   0  0  0  0  0  0  0  0  0  0  0  0
    0.3874   -3.1425   -2.5115 N   0  3  0  0  0  0  0  0  0  0  0  0
   -0.3507   -3.7669   -2.2349 H   0  0  0  0  0  0  0  0  0  0  0  0
    1.2589   -3.5953   -3.3972 C   0  0  0  0  0  0  0  0  0  0  0  0
    2.2539   -2.8695   -3.8243 N   0  0  0  0  0  0  0  0  0  0  0  0
    2.3592   -1.9358   -3.4687 H   0  0  0  0  0  0  0  0  0  0  0  0
    2.9067   -3.2286   -4.4965 H   0  0  0  0  0  0  0  0  0  0  0  0
    1.1467   -4.8017   -3.8761 N   0  0  0  0  0  0  0  0  0  0  0  0
    0.3953   -5.3992   -3.5771 H   0  0  0  0  0  0  0  0  0  0  0  0
    1.8099   -5.1413   -4.5479 H   0  0  0  0  0  0  0  0  0  0  0  0
   -1.6547    1.3413    1.4779 C   0  0  0  0  0  0  0  0  0  0  0  0
   -2.5654    1.9858    0.9716 O   0  0  0  0  0  0  0  0  0  0  0  0
   -0.8107    1.8504    2.3808 N   0  0  0  0  0  0  0  0  0  0  0  0
   -0.1136    1.2381    2.7719 H   0  0  0  0  0  0  0  0  0  0  0  0
   -0.8954    3.2155    2.9026 C   0  0  0  0  0  0  0  0  0  0  0  0
   -1.8299    3.3430    3.4532 H   0  0  0  0  0  0  0  0  0  0  0  0
   -0.0581    3.4194    3.5712 H   0  0  0  0  0  0  0  0  0  0  0  0
   -0.8804    3.9320    2.0784 H   0  0  0  0  0  0  0  0  0  0  0  0
  5  6  2  0  0  0  0
  5  7  1  0  0  0  0
  2  3  1  0  0  0  0
  2  4  1  0  0  0  0
  2  5  1  0  0  0  0
  1  2  1  0  0  0  0
 29 30  2  0  0  0  0
 29 31  1  0  0  0  0
 26 27  1  0  0  0  0
 26 28  1  0  0  0  0
 23 24  1  0  0  0  0
 23 25  1  0  0  0  0
 22 23  1  0  0  0  0
 22 26  1  0  0  0  0
 20 21  1  0  0  0  0
 20 22  2  0  0  0  0
 17 18  1  0  0  0  0
 17 19  1  0  0  0  0
 17 20  1  0  0  0  0
 14 15  1  0  0  0  0
 14 16  1  0  0  0  0
 14 17  1  0  0  0  0
 11 12  1  0  0  0  0
 11 13  1  0  0  0  0
 11 14  1  0  0  0  0
  9 10  1  0  0  0  0
  9 11  1  0  0  0  0
  9 29  1  0  0  0  0
  7  8  1  0  0  0  0
  7  9  1  0  0  0  0
 33 34  1  0  0  0  0
 33 35  1  0  0  0  0
 33 36  1  0  0  0  0
 31 32  1  0  0  0  0
 31 33  1  0  0  0  0
M  CHG  1  20   1
M  END
$$$$
default_name
  -OEChem-02102213163D

 36 35  0     1  0  0  0  0  0999 V2000
   -4.2256   -3.6731    1.8584 H   0  0  0  0  0  0  0  0  0  0  0  0
   -4.2396   -2.6781    1.4144 C   0  0  0  0  0  0  0  0  0  0  0  0
   -4.9506   -2.0521    1.9514 H   0  0  0  0  0  0  0  0  0  0  0  0
   -4.5266   -2.7521    0.3674 H   0  0  0  0  0  0  0  0  0  0  0  0
   -2.8576   -2.0761    1.5184 C   0  0  0  0  0  0  0  0  0  0  0  0
   -1.9456   -2.7051    2.0404 O   0  0  0  0  0  0  0  0  0  0  0  0
   -2.6926   -0.8481    1.0174 N   0  0  0  0  0  0  0  0  0  0  0  0
   -3.4926   -0.3971    0.5954 H   0  0  0  0  0  0  0  0  0  0  0  0
   -1.4216   -0.1071    1.0434 C   0  0  1  0  0  0  0  0  0  0  0  0
   -0.7579   -0.5878    1.7640 H   0  0  0  0  0  0  0  0  0  0  0  0
   -0.7791   -0.1912   -0.3557 C   0  0  0  0  0  0  0  0  0  0  0  0
   -1.3155    0.4831   -1.0264 H   0  0  0  0  0  0  0  0  0  0  0  0
    0.2577    0.1466   -0.2932 H   0  0  0  0  0  0  0  0  0  0  0  0
   -0.8141   -1.6021   -0.9607 C   0  0  0  0  0  0  0  0  0  0  0  0
   -1.0478   -2.3312   -0.1835 H   0  0  0  0  0  0  0  0  0  0  0  0
   -1.5803   -1.6435   -1.7356 H   0  0  0  0  0  0  0  0  0  0  0  0
    0.5511   -1.9416   -1.5743 C   0  0  0  0  0  0  0  0  0  0  0  0
    0.7889   -1.1917   -2.3322 H   0  0  0  0  0  0  0  0  0  0  0  0
    1.3067   -1.8984   -0.7863 H   0  0  0  0  0  0  0  0  0  0  0  0
    0.5567   -3.2843   -2.1906 N   0  3  0  0  0  0  0  0  0  0  0  0
   -0.2862   -3.8256   -2.1018 H   0  0  0  0  0  0  0  0  0  0  0  0
    1.5623   -3.8391   -2.8463 C   0  0  0  0  0  0  0  0  0  0  0  0
    2.6994   -3.2257   -3.0194 N   0  0  0  0  0  0  0  0  0  0  0  0
    2.8125   -2.3011   -2.6430 H   0  0  0  0  0  0  0  0  0  0  0  0
    3.4527   -3.6612   -3.5192 H   0  0  0  0  0  0  0  0  0  0  0  0
    1.4437   -5.0365   -3.3458 N   0  0  0  0  0  0  0  0  0  0  0  0
    0.5855   -5.5492   -3.2382 H   0  0  0  0  0  0  0  0  0  0  0  0
    2.2091   -5.4537   -3.8426 H   0  0  0  0  0  0  0  0  0  0  0  0
   -1.6547    1.3413    1.4779 C   0  0  0  0  0  0  0  0  0  0  0  0
   -2.5654    1.9858    0.9716 O   0  0  0  0  0  0  0  0  0  0  0  0
   -0.8107    1.8504    2.3808 N   0  0  0  0  0  0  0  0  0  0  0  0
   -0.1136    1.2381    2.7719 H   0  0  0  0  0  0  0  0  0  0  0  0
   -0.8954    3.2155    2.9026 C   0  0  0  0  0  0  0  0  0  0  0  0
   -1.8299    3.3430    3.4532 H   0  0  0  0  0  0  0  0  0  0  0  0
   -0.0581    3.4194    3.5712 H   0  0  0  0  0  0  0  0  0  0  0  0
   -0.8804    3.9320    2.0784 H   0  0  0  0  0  0  0  0  0  0  0  0
  5  6  2  0  0  0  0
  5  7  1  0  0  0  0
  2  3  1  0  0  0  0
  2  4  1  0  0  0  0
  2  5  1  0  0  0  0
  1  2  1  0  0  0  0
 29 30  2  0  0  0  0
 29 31  1  0  0  0  0
 26 27  1  0  0  0  0
 26 28  1  0  0  0  0
 23 24  1  0  0  0  0
 23 25  1  0  0  0  0
 22 23  1  0  0  0  0
 22 26  1  0  0  0  0
 20 21  1  0  0  0  0
 20 22  2  0  0  0  0
 17 18  1  0  0  0  0
 17 19  1  0  0  0  0
 17 20  1  0  0  0  0
 14 15  1  0  0  0  0
 14 16  1  0  0  0  0
 14 17  1  0  0  0  0
 11 12  1  0  0  0  0
 11 13  1  0  0  0  0
 11 14  1  0  0  0  0
  9 10  1  0  0  0  0
  9 11  1  0  0  0  0
  9 29  1  0  0  0  0
  7  8  1  0  0  0  0
  7  9  1  0  0  0  0
 33 34  1  0  0  0  0
 33 35  1  0  0  0  0
 33 36  1  0  0  0  0
 31 32  1  0  0  0  0
 31 33  1  0  0  0  0
M  CHG  1  20   1
M  END
$$$$
default_name
  -OEChem-02102213163D

 36 35  0     1  0  0  0  0  0999 V2000
   -4.2256   -3.6731    1.8584 H   0  0  0  0  0  0  0  0  0  0  0  0
   -4.2396   -2.6781    1.4144 C   0  0  0  0  0  0  0  0  0  0  0  0
   -4.9506   -2.0521    1.9514 H   0  0  0  0  0  0  0  0  0  0  0  0
   -4.5266   -2.7521    0.3674 H   0  0  0  0  0  0  0  0  0  0  0  0
   -2.8576   -2.0761    1.5184 C   0  0  0  0  0  0  0  0  0  0  0  0
   -1.9456   -2.7051    2.0404 O   0  0  0  0  0  0  0  0  0  0  0  0
   -2.6926   -0.8481    1.0174 N   0  0  0  0  0  0  0  0  0  0  0  0
   -3.4926   -0.3971    0.5954 H   0  0  0  0  0  0  0  0  0  0  0  0
   -1.4216   -0.1071    1.0434 C   0  0  1  0  0  0  0  0  0  0  0  0
   -0.7579   -0.5878    1.7640 H   0  0  0  0  0  0  0  0  0  0  0  0
   -0.7791   -0.1912   -0.3557 C   0  0  0  0  0  0  0  0  0  0  0  0
   -1.3155    0.4831   -1.0264 H   0  0  0  0  0  0  0  0  0  0  0  0
    0.2577    0.1466   -0.2932 H   0  0  0  0  0  0  0  0  0  0  0  0
   -0.8141   -1.6021   -0.9607 C   0  0  0  0  0  0  0  0  0  0  0  0
   -1.2993   -2.2895   -0.2662 H   0  0  0  0  0  0  0  0  0  0  0  0
   -1.3744   -1.5798   -1.8960 H   0  0  0  0  0  0  0  0  0  0  0  0
    0.6154   -2.0892   -1.2337 C   0  0  0  0  0  0  0  0  0  0  0  0
    1.1022   -1.3812   -1.9084 H   0  0  0  0  0  0  0  0  0  0  0  0
    1.1627   -2.1084   -0.2883 H   0  0  0  0  0  0  0  0  0  0  0  0
    0.6293   -3.4366   -1.8397 N   0  3  0  0  0  0  0  0  0  0  0  0
   -0.2615   -3.8881   -1.9575 H   0  0  0  0  0  0  0  0  0  0  0  0
    1.6995   -4.1023   -2.2405 C   0  0  0  0  0  0  0  0  0  0  0  0
    2.9020   -3.6104   -2.1340 N   0  0  0  0  0  0  0  0  0  0  0  0
    3.0168   -2.6953   -1.7355 H   0  0  0  0  0  0  0  0  0  0  0  0
    3.7036   -4.1290   -2.4428 H   0  0  0  0  0  0  0  0  0  0  0  0
    1.5806   -5.2904   -2.7617 N   0  0  0  0  0  0  0  0  0  0  0  0
    0.6735   -5.7115   -2.8648 H   0  0  0  0  0  0  0  0  0  0  0  0
    2.3951   -5.7919   -3.0645 H   0  0  0  0  0  0  0  0  0  0  0  0
   -1.6547    1.3413    1.4779 C   0  0  0  0  0  0  0  0  0  0  0  0
   -2.5654    1.9858    0.9716 O   0  0  0  0  0  0  0  0  0  0  0  0
   -0.8107    1.8504    2.3808 N   0  0  0  0  0  0  0  0  0  0  0  0
   -0.1136    1.2381    2.7719 H   0  0  0  0  0  0  0  0  0  0  0  0
   -0.8954    3.2155    2.9026 C   0  0  0  0  0  0  0  0  0  0  0  0
   -1.8299    3.3430    3.4532 H   0  0  0  0  0  0  0  0  0  0  0  0
   -0.0581    3.4194    3.5712 H   0  0  0  0  0  0  0  0  0  0  0  0
   -0.8804    3.9320    2.0784 H   0  0  0  0  0  0  0  0  0  0  0  0
  5  6  2  0  0  0  0
  5  7  1  0  0  0  0
  2  3  1  0  0  0  0
  2  4  1  0  0  0  0
  2  5  1  0  0  0  0
  1  2  1  0  0  0  0
 29 30  2  0  0  0  0
 29 31  1  0  0  0  0
 26 27  1  0  0  0  0
 26 28  1  0  0  0  0
 23 24  1  0  0  0  0
 23 25  1  0  0  0  0
 22 23  1  0  0  0  0
 22 26  1  0  0  0  0
 20 21  1  0  0  0  0
 20 22  2  0  0  0  0
 17 18  1  0  0  0  0
 17 19  1  0  0  0  0
 17 20  1  0  0  0  0
 14 15  1  0  0  0  0
 14 16  1  0  0  0  0
 14 17  1  0  0  0  0
 11 12  1  0  0  0  0
 11 13  1  0  0  0  0
 11 14  1  0  0  0  0
  9 10  1  0  0  0  0
  9 11  1  0  0  0  0
  9 29  1  0  0  0  0
  7  8  1  0  0  0  0
  7  9  1  0  0  0  0
 33 34  1  0  0  0  0
 33 35  1  0  0  0  0
 33 36  1  0  0  0  0
 31 32  1  0  0  0  0
 31 33  1  0  0  0  0
M  CHG  1  20   1
M  END
$$$$
default_name
  -OEChem-02102213163D

 36 35  0     1  0  0  0  0  0999 V2000
   -4.2256   -3.6731    1.8584 H   0  0  0  0  0  0  0  0  0  0  0  0
   -4.2396   -2.6781    1.4144 C   0  0  0  0  0  0  0  0  0  0  0  0
   -4.9506   -2.0521    1.9514 H   0  0  0  0  0  0  0  0  0  0  0  0
   -4.5266   -2.7521    0.3674 H   0  0  0  0  0  0  0  0  0  0  0  0
   -2.8576   -2.0761    1.5184 C   0  0  0  0  0  0  0  0  0  0  0  0
   -1.9456   -2.7051    2.0404 O   0  0  0  0  0  0  0  0  0  0  0  0
   -2.6926   -0.8481    1.0174 N   0  0  0  0  0  0  0  0  0  0  0  0
   -3.4926   -0.3971    0.5954 H   0  0  0  0  0  0  0  0  0  0  0  0
   -1.4216   -0.1071    1.0434 C   0  0  1  0  0  0  0  0  0  0  0  0
   -0.7579   -0.5878    1.7640 H   0  0  0  0  0  0  0  0  0  0  0  0
   -0.7791   -0.1912   -0.3557 C   0  0  0  0  0  0  0  0  0  0  0  0
   -1.3155    0.4831   -1.0264 H   0  0  0  0  0  0  0  0  0  0  0  0
    0.2577    0.1466   -0.2932 H   0  0  0  0  0  0  0  0  0  0  0  0
   -0.8141   -1.6021   -0.9607 C   0  0  0  0  0  0  0  0  0  0  0  0
   -1.5183   -2.2240   -0.4062 H   0  0  0  0  0  0  0  0  0  0  0  0
   -1.1309   -1.5403   -2.0023 H   0  0  0  0  0  0  0  0  0  0  0  0
    0.5816   -2.2364   -0.8886 C   0  0  0  0  0  0  0  0  0  0  0  0
    1.2847   -1.5938   -1.4234 H   0  0  0  0  0  0  0  0  0  0  0  0
    0.8837   -2.2936    0.1598 H   0  0  0  0  0  0  0  0  0  0  0  0
    0.6006   -3.5891   -1.4824 N   0  3  0  0  0  0  0  0  0  0  0  0
   -0.2783   -3.9501   -1.8120 H   0  0  0  0  0  0  0  0  0  0  0  0
    1.6611   -4.3669   -1.6213 C   0  0  0  0  0  0  0  0  0  0  0  0
    2.8479   -3.9975   -1.2283 N   0  0  0  0  0  0  0  0  0  0  0  0
    2.9581   -3.0916   -0.8080 H   0  0  0  0  0  0  0  0  0  0  0  0
    3.6422   -4.6001   -1.3407 H   0  0  0  0  0  0  0  0  0  0  0  0
    1.5481   -5.5462   -2.1633 N   0  0  0  0  0  0  0  0  0  0  0  0
    0.6530   -5.8751   -2.4822 H   0  0  0  0  0  0  0  0  0  0  0  0
    2.3552   -6.1330   -2.2668 H   0  0  0  0  0  0  0  0  0  0  0  0
   -1.6547    1.3413    1.4779 C   0  0  0  0  0  0  0  0  0  0  0  0
   -2.5654    1.9858    0.9716 O   0  0  0  0  0  0  0  0  0  0  0  0
   -0.8107    1.8504    2.3808 N   0  0  0  0  0  0  0  0  0  0  0  0
   -0.1136    1.2381    2.7719 H   0  0  0  0  0  0  0  0  0  0  0  0
   -0.8954    3.2155    2.9026 C   0  0  0  0  0  0  0  0  0  0  0  0
   -1.8299    3.3430    3.4532 H   0  0  0  0  0  0  0  0  0  0  0  0
   -0.0581    3.4194    3.5712 H   0  0  0  0  0  0  0  0  0  0  0  0
   -0.8804    3.9320    2.0784 H   0  0  0  0  0  0  0  0  0  0  0  0
  5  6  2  0  0  0  0
  5  7  1  0  0  0  0
  2  3  1  0  0  0  0
  2  4  1  0  0  0  0
  2  5  1  0  0  0  0
  1  2  1  0  0  0  0
 29 30  2  0  0  0  0
 29 31  1  0  0  0  0
 26 27  1  0  0  0  0
 26 28  1  0  0  0  0
 23 24  1  0  0  0  0
 23 25  1  0  0  0  0
 22 23  1  0  0  0  0
 22 26  1  0  0  0  0
 20 21  1  0  0  0  0
 20 22  2  0  0  0  0
 17 18  1  0  0  0  0
 17 19  1  0  0  0  0
 17 20  1  0  0  0  0
 14 15  1  0  0  0  0
 14 16  1  0  0  0  0
 14 17  1  0  0  0  0
 11 12  1  0  0  0  0
 11 13  1  0  0  0  0
 11 14  1  0  0  0  0
  9 10  1  0  0  0  0
  9 11  1  0  0  0  0
  9 29  1  0  0  0  0
  7  8  1  0  0  0  0
  7  9  1  0  0  0  0
 33 34  1  0  0  0  0
 33 35  1  0  0  0  0
 33 36  1  0  0  0  0
 31 32  1  0  0  0  0
 31 33  1  0  0  0  0
M  CHG  1  20   1
M  END
$$$$
default_name
  -OEChem-02102213163D

 36 35  0     1  0  0  0  0  0999 V2000
   -4.2256   -3.6731    1.8584 H   0  0  0  0  0  0  0  0  0  0  0  0
   -4.2396   -2.6781    1.4144 C   0  0  0  0  0  0  0  0  0  0  0  0
   -4.9506   -2.0521    1.9514 H   0  0  0  0  0  0  0  0  0  0  0  0
   -4.5266   -2.7521    0.3674 H   0  0  0  0  0  0  0  0  0  0  0  0
   -2.8576   -2.0761    1.5184 C   0  0  0  0  0  0  0  0  0  0  0  0
   -1.9456   -2.7051    2.0404 O   0  0  0  0  0  0  0  0  0  0  0  0
   -2.6926   -0.8481    1.0174 N   0  0  0  0  0  0  0  0  0  0  0  0
   -3.4926   -0.3971    0.5954 H   0  0  0  0  0  0  0  0  0  0  0  0
   -1.4216   -0.1071    1.0434 C   0  0  1  0  0  0  0  0  0  0  0  0
   -0.7579   -0.5878    1.7640 H   0  0  0  0  0  0  0  0  0  0  0  0
   -0.7791   -0.1912   -0.3557 C   0  0  0  0  0  0  0  0  0  0  0  0
   -1.3155    0.4831   -1.0264 H   0  0  0  0  0  0  0  0  0  0  0  0
    0.2577    0.1466   -0.2932 H   0  0  0  0  0  0  0  0  0  0  0  0
   -0.8141   -1.6021   -0.9607 C   0  0  0  0  0  0  0  0  0  0  0  0
   -1.6899   -2.1393   -0.5938 H   0  0  0  0  0  0  0  0  0  0  0  0
   -0.8664   -1.5275   -2.0474 H   0  0  0  0  0  0  0  0  0  0  0  0
    0.4518   -2.3730   -0.5624 C   0  0  0  0  0  0  0  0  0  0  0  0
    1.3239   -1.8148   -0.9103 H   0  0  0  0  0  0  0  0  0  0  0  0
    0.4887   -2.4415    0.5274 H   0  0  0  0  0  0  0  0  0  0  0  0
    0.4722   -3.7313   -1.1434 N   0  3  0  0  0  0  0  0  0  0  0  0
   -0.3355   -4.0074   -1.6750 H   0  0  0  0  0  0  0  0  0  0  0  0
    1.4498   -4.6149   -1.0306 C   0  0  0  0  0  0  0  0  0  0  0  0
    2.5407   -4.3605   -0.3640 N   0  0  0  0  0  0  0  0  0  0  0  0
    2.6404   -3.4629    0.0762 H   0  0  0  0  0  0  0  0  0  0  0  0
    3.2728   -5.0424   -0.2879 H   0  0  0  0  0  0  0  0  0  0  0  0
    1.3482   -5.7864   -1.5916 N   0  0  0  0  0  0  0  0  0  0  0  0
    0.5256   -6.0287   -2.1165 H   0  0  0  0  0  0  0  0  0  0  0  0
    2.0922   -6.4537   -1.5037 H   0  0  0  0  0  0  0  0  0  0  0  0
   -1.6547    1.3413    1.4779 C   0  0  0  0  0  0  0  0  0  0  0  0
   -2.5654    1.9858    0.9716 O   0  0  0  0  0  0  0  0  0  0  0  0
   -0.8107    1.8504    2.3808 N   0  0  0  0  0  0  0  0  0  0  0  0
   -0.1136    1.2381    2.7719 H   0  0  0  0  0  0  0  0  0  0  0  0
   -0.8954    3.2155    2.9026 C   0  0  0  0  0  0  0  0  0  0  0  0
   -1.8299    3.3430    3.4532 H   0  0  0  0  0  0  0  0  0  0  0  0
   -0.0581    3.4194    3.5712 H   0  0  0  0  0  0  0  0  0  0  0  0
   -0.8804    3.9320    2.0784 H   0  0  0  0  0  0  0  0  0  0  0  0
  5  6  2  0  0  0  0
  5  7  1  0  0  0  0
  2  3  1  0  0  0  0
  2  4  1  0  0  0  0
  2  5  1  0  0  0  0
  1  2  1  0  0  0  0
 29 30  2  0  0  0  0
 29 31  1  0  0  0  0
 26 27  1  0  0  0  0
 26 28  1  0  0  0  0
 23 24  1  0  0  0  0
 23 25  1  0  0  0  0
 22 23  1  0  0  0  0
 22 26  1  0  0  0  0
 20 21  1  0  0  0  0
 20 22  2  0  0  0  0
 17 18  1  0  0  0  0
 17 19  1  0  0  0  0
 17 20  1  0  0  0  0
 14 15  1  0  0  0  0
 14 16  1  0  0  0  0
 14 17  1  0  0  0  0
 11 12  1  0  0  0  0
 11 13  1  0  0  0  0
 11 14  1  0  0  0  0
  9 10  1  0  0  0  0
  9 11  1  0  0  0  0
  9 29  1  0  0  0  0
  7  8  1  0  0  0  0
  7  9  1  0  0  0  0
 33 34  1  0  0  0  0
 33 35  1  0  0  0  0
 33 36  1  0  0  0  0
 31 32  1  0  0  0  0
 31 33  1  0  0  0  0
M  CHG  1  20   1
M  END
$$$$
default_name
  -OEChem-02102213163D

 36 35  0     1  0  0  0  0  0999 V2000
   -4.2256   -3.6731    1.8584 H   0  0  0  0  0  0  0  0  0  0  0  0
   -4.2396   -2.6781    1.4144 C   0  0  0  0  0  0  0  0  0  0  0  0
   -4.9506   -2.0521    1.9514 H   0  0  0  0  0  0  0  0  0  0  0  0
   -4.5266   -2.7521    0.3674 H   0  0  0  0  0  0  0  0  0  0  0  0
   -2.8576   -2.0761    1.5184 C   0  0  0  0  0  0  0  0  0  0  0  0
   -1.9456   -2.7051    2.0404 O   0  0  0  0  0  0  0  0  0  0  0  0
   -2.6926   -0.8481    1.0174 N   0  0  0  0  0  0  0  0  0  0  0  0
   -3.4926   -0.3971    0.5954 H   0  0  0  0  0  0  0  0  0  0  0  0
   -1.4216   -0.1071    1.0434 C   0  0  1  0  0  0  0  0  0  0  0  0
   -0.7579   -0.5878    1.7640 H   0  0  0  0  0  0  0  0  0  0  0  0
   -0.7791   -0.1912   -0.3557 C   0  0  0  0  0  0  0  0  0  0  0  0
   -1.3155    0.4831   -1.0264 H   0  0  0  0  0  0  0  0  0  0  0  0
    0.2577    0.1466   -0.2932 H   0  0  0  0  0  0  0  0  0  0  0  0
   -0.8141   -1.6021   -0.9607 C   0  0  0  0  0  0  0  0  0  0  0  0
   -1.8023   -2.0411   -0.8163 H   0  0  0  0  0  0  0  0  0  0  0  0
   -0.5989   -1.5424   -2.0280 H   0  0  0  0  0  0  0  0  0  0  0  0
    0.2349   -2.4899   -0.2774 C   0  0  0  0  0  0  0  0  0  0  0  0
    1.2173   -2.0292   -0.4040 H   0  0  0  0  0  0  0  0  0  0  0  0
    0.0047   -2.5418    0.7894 H   0  0  0  0  0  0  0  0  0  0  0  0
    0.2532   -3.8536   -0.8455 N   0  3  0  0  0  0  0  0  0  0  0  0
   -0.4292   -4.0561   -1.5559 H   0  0  0  0  0  0  0  0  0  0  0  0
    1.0799   -4.8294   -0.5089 C   0  0  0  0  0  0  0  0  0  0  0  0
    2.0015   -4.6747    0.3999 N   0  0  0  0  0  0  0  0  0  0  0  0
    2.0854   -3.7839    0.8570 H   0  0  0  0  0  0  0  0  0  0  0  0
    2.6206   -5.4257    0.6438 H   0  0  0  0  0  0  0  0  0  0  0  0
    0.9947   -5.9946   -1.0855 N   0  0  0  0  0  0  0  0  0  0  0  0
    0.2999   -6.1620   -1.7927 H   0  0  0  0  0  0  0  0  0  0  0  0
    1.6239   -6.7322   -0.8272 H   0  0  0  0  0  0  0  0  0  0  0  0
   -1.6547    1.3413    1.4779 C   0  0  0  0  0  0  0  0  0  0  0  0
   -2.5654    1.9858    0.9716 O   0  0  0  0  0  0  0  0  0  0  0  0
   -0.8107    1.8504    2.3808 N   0  0  0  0  0  0  0  0  0  0  0  0
   -0.1136    1.2381    2.7719 H   0  0  0  0  0  0  0  0  0  0  0  0
   -0.8954    3.2155    2.9026 C   0  0  0  0  0  0  0  0  0  0  0  0
   -1.8299    3.3430    3.4532 H   0  0  0  0  0  0  0  0  0  0  0  0
   -0.0581    3.4194    3.5712 H   0  0  0  0  0  0  0  0  0  0  0  0
   -0.8804    3.9320    2.0784 H   0  0  0  0  0  0  0  0  0  0  0  0
  5  6  2  0  0  0  0
  5  7  1  0  0  0  0
  2  3  1  0  0  0  0
  2  4  1  0  0  0  0
  2  5  1  0  0  0  0
  1  2  1  0  0  0  0
 29 30  2  0  0  0  0
 29 31  1  0  0  0  0
 26 27  1  0  0  0  0
 26 28  1  0  0  0  0
 23 24  1  0  0  0  0
 23 25  1  0  0  0  0
 22 23  1  0  0  0  0
 22 26  1  0  0  0  0
 20 21  1  0  0  0  0
 20 22  2  0  0  0  0
 17 18  1  0  0  0  0
 17 19  1  0  0  0  0
 17 20  1  0  0  0  0
 14 15  1  0  0  0  0
 14 16  1  0  0  0  0
 14 17  1  0  0  0  0
 11 12  1  0  0  0  0
 11 13  1  0  0  0  0
 11 14  1  0  0  0  0
  9 10  1  0  0  0  0
  9 11  1  0  0  0  0
  9 29  1  0  0  0  0
  7  8  1  0  0  0  0
  7  9  1  0  0  0  0
 33 34  1  0  0  0  0
 33 35  1  0  0  0  0
 33 36  1  0  0  0  0
 31 32  1  0  0  0  0
 31 33  1  0  0  0  0
M  CHG  1  20   1
M  END
$$$$
default_name
  -OEChem-02102213163D

 36 35  0     1  0  0  0  0  0999 V2000
   -4.2256   -3.6731    1.8584 H   0  0  0  0  0  0  0  0  0  0  0  0
   -4.2396   -2.6781    1.4144 C   0  0  0  0  0  0  0  0  0  0  0  0
   -4.9506   -2.0521    1.9514 H   0  0  0  0  0  0  0  0  0  0  0  0
   -4.5266   -2.7521    0.3674 H   0  0  0  0  0  0  0  0  0  0  0  0
   -2.8576   -2.0761    1.5184 C   0  0  0  0  0  0  0  0  0  0  0  0
   -1.9456   -2.7051    2.0404 O   0  0  0  0  0  0  0  0  0  0  0  0
   -2.6926   -0.8481    1.0174 N   0  0  0  0  0  0  0  0  0  0  0  0
   -3.4926   -0.3971    0.5954 H   0  0  0  0  0  0  0  0  0  0  0  0
   -1.4216   -0.1071    1.0434 C   0  0  1  0  0  0  0  0  0  0  0  0
   -0.7579   -0.5878    1.7640 H   0  0  0  0  0  0  0  0  0  0  0  0
   -0.7791   -0.1912   -0.3557 C   0  0  0  0  0  0  0  0  0  0  0  0
   -1.3155    0.4831   -1.0264 H   0  0  0  0  0  0  0  0  0  0  0  0
    0.2577    0.1466   -0.2932 H   0  0  0  0  0  0  0  0  0  0  0  0
   -0.8141   -1.6021   -0.9607 C   0  0  0  0  0  0  0  0  0  0  0  0
   -1.8480   -1.9360   -1.0586 H   0  0  0  0  0  0  0  0  0  0  0  0
   -0.3466   -1.5840   -1.9457 H   0  0  0  0  0  0  0  0  0  0  0  0
   -0.0543   -2.5789   -0.0530 C   0  0  0  0  0  0  0  0  0  0  0  0
    0.9721   -2.2225    0.0609 H   0  0  0  0  0  0  0  0  0  0  0  0
   -0.5353   -2.5878    0.9279 H   0  0  0  0  0  0  0  0  0  0  0  0
   -0.0417   -3.9476   -0.6092 N   0  3  0  0  0  0  0  0  0  0  0  0
   -0.5529   -4.0929   -1.4629 H   0  0  0  0  0  0  0  0  0  0  0  0
    0.5767   -4.9959   -0.0917 C   0  0  0  0  0  0  0  0  0  0  0  0
    1.2669   -4.9187    1.0114 N   0  0  0  0  0  0  0  0  0  0  0  0
    1.3309   -4.0328    1.4810 H   0  0  0  0  0  0  0  0  0  0  0  0
    1.7299   -5.7240    1.3908 H   0  0  0  0  0  0  0  0  0  0  0  0
    0.5117   -6.1568   -0.6794 N   0  0  0  0  0  0  0  0  0  0  0  0
   -0.0086   -6.2657   -1.5329 H   0  0  0  0  0  0  0  0  0  0  0  0
    0.9824   -6.9494   -0.2835 H   0  0  0  0  0  0  0  0  0  0  0  0
   -1.6547    1.3413    1.4779 C   0  0  0  0  0  0  0  0  0  0  0  0
   -2.5654    1.9858    0.9716 O   0  0  0  0  0  0  0  0  0  0  0  0
   -0.8107    1.8504    2.3808 N   0  0  0  0  0  0  0  0  0  0  0  0
   -0.1136    1.2381    2.7719 H   0  0  0  0  0  0  0  0  0  0  0  0
   -0.8954    3.2155    2.9026 C   0  0  0  0  0  0  0  0  0  0  0  0
   -1.8299    3.3430    3.4532 H   0  0  0  0  0  0  0  0  0  0  0  0
   -0.0581    3.4194    3.5712 H   0  0  0  0  0  0  0  0  0  0  0  0
   -0.8804    3.9320    2.0784 H   0  0  0  0  0  0  0  0  0  0  0  0
  5  6  2  0  0  0  0
  5  7  1  0  0  0  0
  2  3  1  0  0  0  0
  2  4  1  0  0  0  0
  2  5  1  0  0  0  0
  1  2  1  0  0  0  0
 29 30  2  0  0  0  0
 29 31  1  0  0  0  0
 26 27  1  0  0  0  0
 26 28  1  0  0  0  0
 23 24  1  0  0  0  0
 23 25  1  0  0  0  0
 22 23  1  0  0  0  0
 22 26  1  0  0  0  0
 20 21  1  0  0  0  0
 20 22  2  0  0  0  0
 17 18  1  0  0  0  0
 17 19  1  0  0  0  0
 17 20  1  0  0  0  0
 14 15  1  0  0  0  0
 14 16  1  0  0  0  0
 14 17  1  0  0  0  0
 11 12  1  0  0  0  0
 11 13  1  0  0  0  0
 11 14  1  0  0  0  0
  9 10  1  0  0  0  0
  9 11  1  0  0  0  0
  9 29  1  0  0  0  0
  7  8  1  0  0  0  0
  7  9  1  0  0  0  0
 33 34  1  0  0  0  0
 33 35  1  0  0  0  0
 33 36  1  0  0  0  0
 31 32  1  0  0  0  0
 31 33  1  0  0  0  0
M  CHG  1  20   1
M  END
$$$$
default_name
  -OEChem-02102213163D

 36 35  0     1  0  0  0  0  0999 V2000
   -4.2256   -3.6731    1.8584 H   0  0  0  0  0  0  0  0  0  0  0  0
   -4.2396   -2.6781    1.4144 C   0  0  0  0  0  0  0  0  0  0  0  0
   -4.9506   -2.0521    1.9514 H   0  0  0  0  0  0  0  0  0  0  0  0
   -4.5266   -2.7521    0.3674 H   0  0  0  0  0  0  0  0  0  0  0  0
   -2.8576   -2.0761    1.5184 C   0  0  0  0  0  0  0  0  0  0  0  0
   -1.9456   -2.7051    2.0404 O   0  0  0  0  0  0  0  0  0  0  0  0
   -2.6926   -0.8481    1.0174 N   0  0  0  0  0  0  0  0  0  0  0  0
   -3.4926   -0.3971    0.5954 H   0  0  0  0  0  0  0  0  0  0  0  0
   -1.4216   -0.1071    1.0434 C   0  0  1  0  0  0  0  0  0  0  0  0
   -0.7579   -0.5878    1.7640 H   0  0  0  0  0  0  0  0  0  0  0  0
   -0.7791   -0.1912   -0.3557 C   0  0  0  0  0  0  0  0  0  0  0  0
   -1.3155    0.4831   -1.0264 H   0  0  0  0  0  0  0  0  0  0  0  0
    0.2577    0.1466   -0.2932 H   0  0  0  0  0  0  0  0  0  0  0  0
   -0.8141   -1.6021   -0.9607 C   0  0  0  0  0  0  0  0  0  0  0  0
   -1.8239   -1.8314   -1.3041 H   0  0  0  0  0  0  0  0  0  0  0  0
   -0.1267   -1.6494   -1.8059 H   0  0  0  0  0  0  0  0  0  0  0  0
   -0.3961   -2.6341    0.0955 C   0  0  0  0  0  0  0  0  0  0  0  0
    0.6049   -2.3815    0.4529 H   0  0  0  0  0  0  0  0  0  0  0  0
   -1.0946   -2.5764    0.9336 H   0  0  0  0  0  0  0  0  0  0  0  0
   -0.3924   -4.0070   -0.4505 N   0  3  0  0  0  0  0  0  0  0  0  0
   -0.6983   -4.1153   -1.4023 H   0  0  0  0  0  0  0  0  0  0  0  0
   -0.0256   -5.1028    0.1926 C   0  0  0  0  0  0  0  0  0  0  0  0
    0.3871   -5.0758    1.4288 N   0  0  0  0  0  0  0  0  0  0  0  0
    0.4283   -4.1926    1.9059 H   0  0  0  0  0  0  0  0  0  0  0  0
    0.6615   -5.9169    1.9024 H   0  0  0  0  0  0  0  0  0  0  0  0
   -0.0680   -6.2617   -0.4011 N   0  0  0  0  0  0  0  0  0  0  0  0
   -0.3791   -6.3330   -1.3546 H   0  0  0  0  0  0  0  0  0  0  0  0
    0.2113   -7.0906    0.0903 H   0  0  0  0  0  0  0  0  0  0  0  0
   -1.6547    1.3413    1.4779 C   0  0  0  0  0  0  0  0  0  0  0  0
   -2.5654    1.9858    0.9716 O   0  0  0  0  0  0  0  0  0  0  0  0
   -0.8107    1.8504    2.3808 N   0  0  0  0  0  0  0  0  0  0  0  0
   -0.1136    1.2381    2.7719 H   0  0  0  0  0  0  0  0  0  0  0  0
   -0.8954    3.2155    2.9026 C   0  0  0  0  0  0  0  0  0  0  0  0
   -1.8299    3.3430    3.4532 H   0  0  0  0  0  0  0  0  0  0  0  0
   -0.0581    3.4194    3.5712 H   0  0  0  0  0  0  0  0  0  0  0  0
   -0.8804    3.9320    2.0784 H   0  0  0  0  0  0  0  0  0  0  0  0
  5  6  2  0  0  0  0
  5  7  1  0  0  0  0
  2  3  1  0  0  0  0
  2  4  1  0  0  0  0
  2  5  1  0  0  0  0
  1  2  1  0  0  0  0
 29 30  2  0  0  0  0
 29 31  1  0  0  0  0
 26 27  1  0  0  0  0
 26 28  1  0  0  0  0
 23 24  1  0  0  0  0
 23 25  1  0  0  0  0
 22 23  1  0  0  0  0
 22 26  1  0  0  0  0
 20 21  1  0  0  0  0
 20 22  2  0  0  0  0
 17 18  1  0  0  0  0
 17 19  1  0  0  0  0
 17 20  1  0  0  0  0
 14 15  1  0  0  0  0
 14 16  1  0  0  0  0
 14 17  1  0  0  0  0
 11 12  1  0  0  0  0
 11 13  1  0  0  0  0
 11 14  1  0  0  0  0
  9 10  1  0  0  0  0
  9 11  1  0  0  0  0
  9 29  1  0  0  0  0
  7  8  1  0  0  0  0
  7  9  1  0  0  0  0
 33 34  1  0  0  0  0
 33 35  1  0  0  0  0
 33 36  1  0  0  0  0
 31 32  1  0  0  0  0
 31 33  1  0  0  0  0
M  CHG  1  20   1
M  END
$$$$
default_name
  -OEChem-02102213163D

 36 35  0     1  0  0  0  0  0999 V2000
   -4.2256   -3.6731    1.8584 H   0  0  0  0  0  0  0  0  0  0  0  0
   -4.2396   -2.6781    1.4144 C   0  0  0  0  0  0  0  0  0  0  0  0
   -4.9506   -2.0521    1.9514 H   0  0  0  0  0  0  0  0  0  0  0  0
   -4.5266   -2.7521    0.3674 H   0  0  0  0  0  0  0  0  0  0  0  0
   -2.8576   -2.0761    1.5184 C   0  0  0  0  0  0  0  0  0  0  0  0
   -1.9456   -2.7051    2.0404 O   0  0  0  0  0  0  0  0  0  0  0  0
   -2.6926   -0.8481    1.0174 N   0  0  0  0  0  0  0  0  0  0  0  0
   -3.4926   -0.3971    0.5954 H   0  0  0  0  0  0  0  0  0  0  0  0
   -1.4216   -0.1071    1.0434 C   0  0  1  0  0  0  0  0  0  0  0  0
   -0.7579   -0.5878    1.7640 H   0  0  0  0  0  0  0  0  0  0  0  0
   -0.7791   -0.1912   -0.3557 C   0  0  0  0  0  0  0  0  0  0  0  0
   -1.3155    0.4831   -1.0264 H   0  0  0  0  0  0  0  0  0  0  0  0
    0.2577    0.1466   -0.2932 H   0  0  0  0  0  0  0  0  0  0  0  0
   -0.8141   -1.6021   -0.9607 C   0  0  0  0  0  0  0  0  0  0  0  0
   -1.7315   -1.7342   -1.5362 H   0  0  0  0  0  0  0  0  0  0  0  0
    0.0458   -1.7342   -1.6182 H   0  0  0  0  0  0  0  0  0  0  0  0
   -0.7671   -2.6517    0.1580 C   0  0  0  0  0  0  0  0  0  0  0  0
    0.1408   -2.4953    0.7450 H   0  0  0  0  0  0  0  0  0  0  0  0
   -1.6350   -2.5083    0.8060 H   0  0  0  0  0  0  0  0  0  0  0  0
   -0.7749   -4.0276   -0.3802 N   0  3  0  0  0  0  0  0  0  0  0  0
   -0.8555   -4.1218   -1.3782 H   0  0  0  0  0  0  0  0  0  0  0  0
   -0.6858   -5.1431    0.3246 C   0  0  0  0  0  0  0  0  0  0  0  0
   -0.5780   -5.1355    1.6237 N   0  0  0  0  0  0  0  0  0  0  0  0
   -0.5608   -4.2524    2.1025 H   0  0  0  0  0  0  0  0  0  0  0  0
   -0.5119   -5.9912    2.1436 H   0  0  0  0  0  0  0  0  0  0  0  0
   -0.7048   -6.3023   -0.2696 N   0  0  0  0  0  0  0  0  0  0  0  0
   -0.7862   -6.3591   -1.2701 H   0  0  0  0  0  0  0  0  0  0  0  0
   -0.6369   -7.1461    0.2689 H   0  0  0  0  0  0  0  0  0  0  0  0
   -1.6547    1.3413    1.4779 C   0  0  0  0  0  0  0  0  0  0  0  0
   -2.5654    1.9858    0.9716 O   0  0  0  0  0  0  0  0  0  0  0  0
   -0.8107    1.8504    2.3808 N   0  0  0  0  0  0  0  0  0  0  0  0
   -0.1136    1.2381    2.7719 H   0  0  0  0  0  0  0  0  0  0  0  0
   -0.8954    3.2155    2.9026 C   0  0  0  0  0  0  0  0  0  0  0  0
   -1.8299    3.3430    3.4532 H   0  0  0  0  0  0  0  0  0  0  0  0
   -0.0581    3.4194    3.5712 H   0  0  0  0  0  0  0  0  0  0  0  0
   -0.8804    3.9320    2.0784 H   0  0  0  0  0  0  0  0  0  0  0  0
  5  6  2  0  0  0  0
  5  7  1  0  0  0  0
  2  3  1  0  0  0  0
  2  4  1  0  0  0  0
  2  5  1  0  0  0  0
  1  2  1  0  0  0  0
 29 30  2  0  0  0  0
 29 31  1  0  0  0  0
 26 27  1  0  0  0  0
 26 28  1  0  0  0  0
 23 24  1  0  0  0  0
 23 25  1  0  0  0  0
 22 23  1  0  0  0  0
 22 26  1  0  0  0  0
 20 21  1  0  0  0  0
 20 22  2  0  0  0  0
 17 18  1  0  0  0  0
 17 19  1  0  0  0  0
 17 20  1  0  0  0  0
 14 15  1  0  0  0  0
 14 16  1  0  0  0  0
 14 17  1  0  0  0  0
 11 12  1  0  0  0  0
 11 13  1  0  0  0  0
 11 14  1  0  0  0  0
  9 10  1  0  0  0  0
  9 11  1  0  0  0  0
  9 29  1  0  0  0  0
  7  8  1  0  0  0  0
  7  9  1  0  0  0  0
 33 34  1  0  0  0  0
 33 35  1  0  0  0  0
 33 36  1  0  0  0  0
 31 32  1  0  0  0  0
 31 33  1  0  0  0  0
M  CHG  1  20   1
M  END
$$$$
default_name
  -OEChem-02102213163D

 36 35  0     1  0  0  0  0  0999 V2000
   -4.2256   -3.6731    1.8584 H   0  0  0  0  0  0  0  0  0  0  0  0
   -4.2396   -2.6781    1.4144 C   0  0  0  0  0  0  0  0  0  0  0  0
   -4.9506   -2.0521    1.9514 H   0  0  0  0  0  0  0  0  0  0  0  0
   -4.5266   -2.7521    0.3674 H   0  0  0  0  0  0  0  0  0  0  0  0
   -2.8576   -2.0761    1.5184 C   0  0  0  0  0  0  0  0  0  0  0  0
   -1.9456   -2.7051    2.0404 O   0  0  0  0  0  0  0  0  0  0  0  0
   -2.6926   -0.8481    1.0174 N   0  0  0  0  0  0  0  0  0  0  0  0
   -3.4926   -0.3971    0.5954 H   0  0  0  0  0  0  0  0  0  0  0  0
   -1.4216   -0.1071    1.0434 C   0  0  1  0  0  0  0  0  0  0  0  0
   -0.7579   -0.5878    1.7640 H   0  0  0  0  0  0  0  0  0  0  0  0
   -0.7791   -0.1912   -0.3557 C   0  0  0  0  0  0  0  0  0  0  0  0
   -1.3155    0.4831   -1.0264 H   0  0  0  0  0  0  0  0  0  0  0  0
    0.2577    0.1466   -0.2932 H   0  0  0  0  0  0  0  0  0  0  0  0
   -0.8141   -1.6021   -0.9607 C   0  0  0  0  0  0  0  0  0  0  0  0
   -1.5771   -1.6511   -1.7389 H   0  0  0  0  0  0  0  0  0  0  0  0
    0.1591   -1.8325   -1.3953 H   0  0  0  0  0  0  0  0  0  0  0  0
   -1.1422   -2.6305    0.1303 C   0  0  0  0  0  0  0  0  0  0  0  0
   -0.3886   -2.5561    0.9176 H   0  0  0  0  0  0  0  0  0  0  0  0
   -2.1197   -2.3881    0.5539 H   0  0  0  0  0  0  0  0  0  0  0  0
   -1.1632   -4.0081   -0.4032 N   0  3  0  0  0  0  0  0  0  0  0  0
   -1.0137   -4.1118   -1.3922 H   0  0  0  0  0  0  0  0  0  0  0  0
   -1.3591   -5.1138    0.2954 C   0  0  0  0  0  0  0  0  0  0  0  0
   -1.5627   -5.0935    1.5828 N   0  0  0  0  0  0  0  0  0  0  0  0
   -1.5691   -4.2081    2.0576 H   0  0  0  0  0  0  0  0  0  0  0  0
   -1.7101   -5.9419    2.0979 H   0  0  0  0  0  0  0  0  0  0  0  0
   -1.3553   -6.2759   -0.2937 N   0  0  0  0  0  0  0  0  0  0  0  0
   -1.2022   -6.3423   -1.2852 H   0  0  0  0  0  0  0  0  0  0  0  0
   -1.5043   -7.1122    0.2400 H   0  0  0  0  0  0  0  0  0  0  0  0
   -1.6547    1.3413    1.4779 C   0  0  0  0  0  0  0  0  0  0  0  0
   -2.5654    1.9858    0.9716 O   0  0  0  0  0  0  0  0  0  0  0  0
   -0.8107    1.8504    2.3808 N   0  0  0  0  0  0  0  0  0  0  0  0
   -0.1136    1.2381    2.7719 H   0  0  0  0  0  0  0  0  0  0  0  0
   -0.8954    3.2155    2.9026 C   0  0  0  0  0  0  0  0  0  0  0  0
   -1.8299    3.3430    3.4532 H   0  0  0  0  0  0  0  0  0  0  0  0
   -0.0581    3.4194    3.5712 H   0  0  0  0  0  0  0  0  0  0  0  0
   -0.8804    3.9320    2.0784 H   0  0  0  0  0  0  0  0  0  0  0  0
  5  6  2  0  0  0  0
  5  7  1  0  0  0  0
  2  3  1  0  0  0  0
  2  4  1  0  0  0  0
  2  5  1  0  0  0  0
  1  2  1  0  0  0  0
 29 30  2  0  0  0  0
 29 31  1  0  0  0  0
 26 27  1  0  0  0  0
 26 28  1  0  0  0  0
 23 24  1  0  0  0  0
 23 25  1  0  0  0  0
 22 23  1  0  0  0  0
 22 26  1  0  0  0  0
 20 21  1  0  0  0  0
 20 22  2  0  0  0  0
 17 18  1  0  0  0  0
 17 19  1  0  0  0  0
 17 20  1  0  0  0  0
 14 15  1  0  0  0  0
 14 16  1  0  0  0  0
 14 17  1  0  0  0  0
 11 12  1  0  0  0  0
 11 13  1  0  0  0  0
 11 14  1  0  0  0  0
  9 10  1  0  0  0  0
  9 11  1  0  0  0  0
  9 29  1  0  0  0  0
  7  8  1  0  0  0  0
  7  9  1  0  0  0  0
 33 34  1  0  0  0  0
 33 35  1  0  0  0  0
 33 36  1  0  0  0  0
 31 32  1  0  0  0  0
 31 33  1  0  0  0  0
M  CHG  1  20   1
M  END
$$$$
default_name
  -OEChem-02102213163D

 36 35  0     1  0  0  0  0  0999 V2000
   -4.2256   -3.6731    1.8584 H   0  0  0  0  0  0  0  0  0  0  0  0
   -4.2396   -2.6781    1.4144 C   0  0  0  0  0  0  0  0  0  0  0  0
   -4.9506   -2.0521    1.9514 H   0  0  0  0  0  0  0  0  0  0  0  0
   -4.5266   -2.7521    0.3674 H   0  0  0  0  0  0  0  0  0  0  0  0
   -2.8576   -2.0761    1.5184 C   0  0  0  0  0  0  0  0  0  0  0  0
   -1.9456   -2.7051    2.0404 O   0  0  0  0  0  0  0  0  0  0  0  0
   -2.6926   -0.8481    1.0174 N   0  0  0  0  0  0  0  0  0  0  0  0
   -3.4926   -0.3971    0.5954 H   0  0  0  0  0  0  0  0  0  0  0  0
   -1.4216   -0.1071    1.0434 C   0  0  1  0  0  0  0  0  0  0  0  0
   -0.7579   -0.5878    1.7640 H   0  0  0  0  0  0  0  0  0  0  0  0
   -0.7791   -0.1912   -0.3557 C   0  0  0  0  0  0  0  0  0  0  0  0
   -1.3155    0.4831   -1.0264 H   0  0  0  0  0  0  0  0  0  0  0  0
    0.2577    0.1466   -0.2932 H   0  0  0  0  0  0  0  0  0  0  0  0
   -0.8141   -1.6021   -0.9607 C   0  0  0  0  0  0  0  0  0  0  0  0
   -1.3713   -1.5877   -1.8985 H   0  0  0  0  0  0  0  0  0  0  0  0
    0.2055   -1.9378   -1.1526 H   0  0  0  0  0  0  0  0  0  0  0  0
   -1.4958   -2.5719    0.0141 C   0  0  0  0  0  0  0  0  0  0  0  0
   -0.9471   -2.5599    0.9587 H   0  0  0  0  0  0  0  0  0  0  0  0
   -2.5157   -2.2241    0.1944 H   0  0  0  0  0  0  0  0  0  0  0  0
   -1.5308   -3.9498   -0.5178 N   0  3  0  0  0  0  0  0  0  0  0  0
   -1.1621   -4.0862   -1.4435 H   0  0  0  0  0  0  0  0  0  0  0  0
   -1.9995   -5.0171    0.1069 C   0  0  0  0  0  0  0  0  0  0  0  0
   -2.4999   -4.9528    1.3089 N   0  0  0  0  0  0  0  0  0  0  0  0
   -2.5279   -4.0628    1.7742 H   0  0  0  0  0  0  0  0  0  0  0  0
   -2.8517   -5.7723    1.7686 H   0  0  0  0  0  0  0  0  0  0  0  0
   -1.9753   -6.1841   -0.4718 N   0  0  0  0  0  0  0  0  0  0  0  0
   -1.5987   -6.2838   -1.3987 H   0  0  0  0  0  0  0  0  0  0  0  0
   -2.3318   -6.9912    0.0057 H   0  0  0  0  0  0  0  0  0  0  0  0
   -1.6547    1.3413    1.4779 C   0  0  0  0  0  0  0  0  0  0  0  0
   -2.5654    1.9858    0.9716 O   0  0  0  0  0  0  0  0  0  0  0  0
   -0.8107    1.8504    2.3808 N   0  0  0  0  0  0  0  0  0  0  0  0
   -0.1136    1.2381    2.7719 H   0  0  0  0  0  0  0  0  0  0  0  0
   -0.8954    3.2155    2.9026 C   0  0  0  0  0  0  0  0  0  0  0  0
   -1.8299    3.3430    3.4532 H   0  0  0  0  0  0  0  0  0  0  0  0
   -0.0581    3.4194    3.5712 H   0  0  0  0  0  0  0  0  0  0  0  0
   -0.8804    3.9320    2.0784 H   0  0  0  0  0  0  0  0  0  0  0  0
  5  6  2  0  0  0  0
  5  7  1  0  0  0  0
  2  3  1  0  0  0  0
  2  4  1  0  0  0  0
  2  5  1  0  0  0  0
  1  2  1  0  0  0  0
 29 30  2  0  0  0  0
 29 31  1  0  0  0  0
 26 27  1  0  0  0  0
 26 28  1  0  0  0  0
 23 24  1  0  0  0  0
 23 25  1  0  0  0  0
 22 23  1  0  0  0  0
 22 26  1  0  0  0  0
 20 21  1  0  0  0  0
 20 22  2  0  0  0  0
 17 18  1  0  0  0  0
 17 19  1  0  0  0  0
 17 20  1  0  0  0  0
 14 15  1  0  0  0  0
 14 16  1  0  0  0  0
 14 17  1  0  0  0  0
 11 12  1  0  0  0  0
 11 13  1  0  0  0  0
 11 14  1  0  0  0  0
  9 10  1  0  0  0  0
  9 11  1  0  0  0  0
  9 29  1  0  0  0  0
  7  8  1  0  0  0  0
  7  9  1  0  0  0  0
 33 34  1  0  0  0  0
 33 35  1  0  0  0  0
 33 36  1  0  0  0  0
 31 32  1  0  0  0  0
 31 33  1  0  0  0  0
M  CHG  1  20   1
M  END
$$$$
default_name
  -OEChem-02102213163D

 36 35  0     1  0  0  0  0  0999 V2000
   -4.2256   -3.6731    1.8584 H   0  0  0  0  0  0  0  0  0  0  0  0
   -4.2396   -2.6781    1.4144 C   0  0  0  0  0  0  0  0  0  0  0  0
   -4.9506   -2.0521    1.9514 H   0  0  0  0  0  0  0  0  0  0  0  0
   -4.5266   -2.7521    0.3674 H   0  0  0  0  0  0  0  0  0  0  0  0
   -2.8576   -2.0761    1.5184 C   0  0  0  0  0  0  0  0  0  0  0  0
   -1.9456   -2.7051    2.0404 O   0  0  0  0  0  0  0  0  0  0  0  0
   -2.6926   -0.8481    1.0174 N   0  0  0  0  0  0  0  0  0  0  0  0
   -3.4926   -0.3971    0.5954 H   0  0  0  0  0  0  0  0  0  0  0  0
   -1.4216   -0.1071    1.0434 C   0  0  1  0  0  0  0  0  0  0  0  0
   -0.7579   -0.5878    1.7640 H   0  0  0  0  0  0  0  0  0  0  0  0
   -0.7791   -0.1912   -0.3557 C   0  0  0  0  0  0  0  0  0  0  0  0
   -1.3155    0.4831   -1.0264 H   0  0  0  0  0  0  0  0  0  0  0  0
    0.2577    0.1466   -0.2932 H   0  0  0  0  0  0  0  0  0  0  0  0
   -0.8141   -1.6021   -0.9607 C   0  0  0  0  0  0  0  0  0  0  0  0
   -1.1282   -1.5485   -2.0041 H   0  0  0  0  0  0  0  0  0  0  0  0
    0.1819   -2.0428   -0.9064 H   0  0  0  0  0  0  0  0  0  0  0  0
   -1.8037   -2.4800   -0.1825 C   0  0  0  0  0  0  0  0  0  0  0  0
   -1.4968   -2.5063    0.8656 H   0  0  0  0  0  0  0  0  0  0  0  0
   -2.7959   -2.0274   -0.2481 H   0  0  0  0  0  0  0  0  0  0  0  0
   -1.8527   -3.8567   -0.7163 N   0  3  0  0  0  0  0  0  0  0  0  0
   -1.2907   -4.0466   -1.5284 H   0  0  0  0  0  0  0  0  0  0  0  0
   -2.5634   -4.8595   -0.2281 C   0  0  0  0  0  0  0  0  0  0  0  0
   -3.3256   -4.7229    0.8206 N   0  0  0  0  0  0  0  0  0  0  0  0
   -3.3718   -3.8263    1.2716 H   0  0  0  0  0  0  0  0  0  0  0  0
   -3.8588   -5.4941    1.1780 H   0  0  0  0  0  0  0  0  0  0  0  0
   -2.5224   -6.0333   -0.7919 N   0  0  0  0  0  0  0  0  0  0  0  0
   -1.9487   -6.1875   -1.6031 H   0  0  0  0  0  0  0  0  0  0  0  0
   -3.0631   -6.7913   -0.4182 H   0  0  0  0  0  0  0  0  0  0  0  0
   -1.6547    1.3413    1.4779 C   0  0  0  0  0  0  0  0  0  0  0  0
   -2.5654    1.9858    0.9716 O   0  0  0  0  0  0  0  0  0  0  0  0
   -0.8107    1.8504    2.3808 N   0  0  0  0  0  0  0  0  0  0  0  0
   -0.1136    1.2381    2.7719 H   0  0  0  0  0  0  0  0  0  0  0  0
   -0.8954    3.2155    2.9026 C   0  0  0  0  0  0  0  0  0  0  0  0
   -1.8299    3.3430    3.4532 H   0  0  0  0  0  0  0  0  0  0  0  0
   -0.0581    3.4194    3.5712 H   0  0  0  0  0  0  0  0  0  0  0  0
   -0.8804    3.9320    2.0784 H   0  0  0  0  0  0  0  0  0  0  0  0
  5  6  2  0  0  0  0
  5  7  1  0  0  0  0
  2  3  1  0  0  0  0
  2  4  1  0  0  0  0
  2  5  1  0  0  0  0
  1  2  1  0  0  0  0
 29 30  2  0  0  0  0
 29 31  1  0  0  0  0
 26 27  1  0  0  0  0
 26 28  1  0  0  0  0
 23 24  1  0  0  0  0
 23 25  1  0  0  0  0
 22 23  1  0  0  0  0
 22 26  1  0  0  0  0
 20 21  1  0  0  0  0
 20 22  2  0  0  0  0
 17 18  1  0  0  0  0
 17 19  1  0  0  0  0
 17 20  1  0  0  0  0
 14 15  1  0  0  0  0
 14 16  1  0  0  0  0
 14 17  1  0  0  0  0
 11 12  1  0  0  0  0
 11 13  1  0  0  0  0
 11 14  1  0  0  0  0
  9 10  1  0  0  0  0
  9 11  1  0  0  0  0
  9 29  1  0  0  0  0
  7  8  1  0  0  0  0
  7  9  1  0  0  0  0
 33 34  1  0  0  0  0
 33 35  1  0  0  0  0
 33 36  1  0  0  0  0
 31 32  1  0  0  0  0
 31 33  1  0  0  0  0
M  CHG  1  20   1
M  END
$$$$
default_name
  -OEChem-02102213163D

 36 35  0     1  0  0  0  0  0999 V2000
   -4.2256   -3.6731    1.8584 H   0  0  0  0  0  0  0  0  0  0  0  0
   -4.2396   -2.6781    1.4144 C   0  0  0  0  0  0  0  0  0  0  0  0
   -4.9506   -2.0521    1.9514 H   0  0  0  0  0  0  0  0  0  0  0  0
   -4.5266   -2.7521    0.3674 H   0  0  0  0  0  0  0  0  0  0  0  0
   -2.8576   -2.0761    1.5184 C   0  0  0  0  0  0  0  0  0  0  0  0
   -1.9456   -2.7051    2.0404 O   0  0  0  0  0  0  0  0  0  0  0  0
   -2.6926   -0.8481    1.0174 N   0  0  0  0  0  0  0  0  0  0  0  0
   -3.4926   -0.3971    0.5954 H   0  0  0  0  0  0  0  0  0  0  0  0
   -1.4216   -0.1071    1.0434 C   0  0  1  0  0  0  0  0  0  0  0  0
   -0.7579   -0.5878    1.7640 H   0  0  0  0  0  0  0  0  0  0  0  0
   -0.7791   -0.1912   -0.3557 C   0  0  0  0  0  0  0  0  0  0  0  0
   -1.3155    0.4831   -1.0264 H   0  0  0  0  0  0  0  0  0  0  0  0
    0.2577    0.1466   -0.2932 H   0  0  0  0  0  0  0  0  0  0  0  0
   -0.8141   -1.6021   -0.9607 C   0  0  0  0  0  0  0  0  0  0  0  0
   -0.8642   -1.5360   -2.0485 H   0  0  0  0  0  0  0  0  0  0  0  0
    0.0898   -2.1403   -0.6737 H   0  0  0  0  0  0  0  0  0  0  0  0
   -2.0450   -2.3609   -0.4462 C   0  0  0  0  0  0  0  0  0  0  0  0
   -2.0002   -2.3991    0.6447 H   0  0  0  0  0  0  0  0  0  0  0  0
   -2.9414   -1.8115   -0.7432 H   0  0  0  0  0  0  0  0  0  0  0  0
   -2.1069   -3.7351   -0.9852 N   0  3  0  0  0  0  0  0  0  0  0  0
   -1.3907   -3.9957   -1.6413 H   0  0  0  0  0  0  0  0  0  0  0  0
   -3.0123   -4.6517   -0.6867 C   0  0  0  0  0  0  0  0  0  0  0  0
   -3.9836   -4.4195    0.1512 N   0  0  0  0  0  0  0  0  0  0  0  0
   -4.0432   -3.5148    0.5840 H   0  0  0  0  0  0  0  0  0  0  0  0
   -4.6627   -5.1261    0.3664 H   0  0  0  0  0  0  0  0  0  0  0  0
   -2.9593   -5.8337   -1.2320 N   0  0  0  0  0  0  0  0  0  0  0  0
   -2.2284   -6.0600   -1.8842 H   0  0  0  0  0  0  0  0  0  0  0  0
   -3.6482   -6.5261   -1.0027 H   0  0  0  0  0  0  0  0  0  0  0  0
   -1.6547    1.3413    1.4779 C   0  0  0  0  0  0  0  0  0  0  0  0
   -2.5654    1.9858    0.9716 O   0  0  0  0  0  0  0  0  0  0  0  0
   -0.8107    1.8504    2.3808 N   0  0  0  0  0  0  0  0  0  0  0  0
   -0.1136    1.2381    2.7719 H   0  0  0  0  0  0  0  0  0  0  0  0
   -0.8954    3.2155    2.9026 C   0  0  0  0  0  0  0  0  0  0  0  0
   -1.8299    3.3430    3.4532 H   0  0  0  0  0  0  0  0  0  0  0  0
   -0.0581    3.4194    3.5712 H   0  0  0  0  0  0  0  0  0  0  0  0
   -0.8804    3.9320    2.0784 H   0  0  0  0  0  0  0  0  0  0  0  0
  5  6  2  0  0  0  0
  5  7  1  0  0  0  0
  2  3  1  0  0  0  0
  2  4  1  0  0  0  0
  2  5  1  0  0  0  0
  1  2  1  0  0  0  0
 29 30  2  0  0  0  0
 29 31  1  0  0  0  0
 26 27  1  0  0  0  0
 26 28  1  0  0  0  0
 23 24  1  0  0  0  0
 23 25  1  0  0  0  0
 22 23  1  0  0  0  0
 22 26  1  0  0  0  0
 20 21  1  0  0  0  0
 20 22  2  0  0  0  0
 17 18  1  0  0  0  0
 17 19  1  0  0  0  0
 17 20  1  0  0  0  0
 14 15  1  0  0  0  0
 14 16  1  0  0  0  0
 14 17  1  0  0  0  0
 11 12  1  0  0  0  0
 11 13  1  0  0  0  0
 11 14  1  0  0  0  0
  9 10  1  0  0  0  0
  9 11  1  0  0  0  0
  9 29  1  0  0  0  0
  7  8  1  0  0  0  0
  7  9  1  0  0  0  0
 33 34  1  0  0  0  0
 33 35  1  0  0  0  0
 33 36  1  0  0  0  0
 31 32  1  0  0  0  0
 31 33  1  0  0  0  0
M  CHG  1  20   1
M  END
$$$$
default_name
  -OEChem-02102213163D

 36 35  0     1  0  0  0  0  0999 V2000
   -4.2256   -3.6731    1.8584 H   0  0  0  0  0  0  0  0  0  0  0  0
   -4.2396   -2.6781    1.4144 C   0  0  0  0  0  0  0  0  0  0  0  0
   -4.9506   -2.0521    1.9514 H   0  0  0  0  0  0  0  0  0  0  0  0
   -4.5266   -2.7521    0.3674 H   0  0  0  0  0  0  0  0  0  0  0  0
   -2.8576   -2.0761    1.5184 C   0  0  0  0  0  0  0  0  0  0  0  0
   -1.9456   -2.7051    2.0404 O   0  0  0  0  0  0  0  0  0  0  0  0
   -2.6926   -0.8481    1.0174 N   0  0  0  0  0  0  0  0  0  0  0  0
   -3.4926   -0.3971    0.5954 H   0  0  0  0  0  0  0  0  0  0  0  0
   -1.4216   -0.1071    1.0434 C   0  0  1  0  0  0  0  0  0  0  0  0
   -0.7579   -0.5878    1.7640 H   0  0  0  0  0  0  0  0  0  0  0  0
   -0.7791   -0.1912   -0.3557 C   0  0  0  0  0  0  0  0  0  0  0  0
   -1.3155    0.4831   -1.0264 H   0  0  0  0  0  0  0  0  0  0  0  0
    0.2577    0.1466   -0.2932 H   0  0  0  0  0  0  0  0  0  0  0  0
   -0.8141   -1.6021   -0.9607 C   0  0  0  0  0  0  0  0  0  0  0  0
   -0.5973   -1.5511   -2.0286 H   0  0  0  0  0  0  0  0  0  0  0  0
   -0.0644   -2.2237   -0.4701 H   0  0  0  0  0  0  0  0  0  0  0  0
   -2.2032   -2.2229   -0.7589 C   0  0  0  0  0  0  0  0  0  0  0  0
   -2.4229   -2.2455    0.3109 H   0  0  0  0  0  0  0  0  0  0  0  0
   -2.9421   -1.5910   -1.2573 H   0  0  0  0  0  0  0  0  0  0  0  0
   -2.2761   -3.5933   -1.3060 N   0  3  0  0  0  0  0  0  0  0  0  0
   -1.4552   -3.9370   -1.7744 H   0  0  0  0  0  0  0  0  0  0  0  0
   -3.3157   -4.4079   -1.2376 C   0  0  0  0  0  0  0  0  0  0  0  0
   -4.4290   -4.0634   -0.6536 N   0  0  0  0  0  0  0  0  0  0  0  0
   -4.4966   -3.1495   -0.2417 H   0  0  0  0  0  0  0  0  0  0  0  0
   -5.2087   -4.6935   -0.6108 H   0  0  0  0  0  0  0  0  0  0  0  0
   -3.2564   -5.5989   -1.7622 N   0  0  0  0  0  0  0  0  0  0  0  0
   -2.4186   -5.9100   -2.2231 H   0  0  0  0  0  0  0  0  0  0  0  0
   -4.0474   -6.2138   -1.7080 H   0  0  0  0  0  0  0  0  0  0  0  0
   -1.6547    1.3413    1.4779 C   0  0  0  0  0  0  0  0  0  0  0  0
   -2.5654    1.9858    0.9716 O   0  0  0  0  0  0  0  0  0  0  0  0
   -0.8107    1.8504    2.3808 N   0  0  0  0  0  0  0  0  0  0  0  0
   -0.1136    1.2381    2.7719 H   0  0  0  0  0  0  0  0  0  0  0  0
   -0.8954    3.2155    2.9026 C   0  0  0  0  0  0  0  0  0  0  0  0
   -1.8299    3.3430    3.4532 H   0  0  0  0  0  0  0  0  0  0  0  0
   -0.0581    3.4194    3.5712 H   0  0  0  0  0  0  0  0  0  0  0  0
   -0.8804    3.9320    2.0784 H   0  0  0  0  0  0  0  0  0  0  0  0
  5  6  2  0  0  0  0
  5  7  1  0  0  0  0
  2  3  1  0  0  0  0
  2  4  1  0  0  0  0
  2  5  1  0  0  0  0
  1  2  1  0  0  0  0
 29 30  2  0  0  0  0
 29 31  1  0  0  0  0
 26 27  1  0  0  0  0
 26 28  1  0  0  0  0
 23 24  1  0  0  0  0
 23 25  1  0  0  0  0
 22 23  1  0  0  0  0
 22 26  1  0  0  0  0
 20 21  1  0  0  0  0
 20 22  2  0  0  0  0
 17 18  1  0  0  0  0
 17 19  1  0  0  0  0
 17 20  1  0  0  0  0
 14 15  1  0  0  0  0
 14 16  1  0  0  0  0
 14 17  1  0  0  0  0
 11 12  1  0  0  0  0
 11 13  1  0  0  0  0
 11 14  1  0  0  0  0
  9 10  1  0  0  0  0
  9 11  1  0  0  0  0
  9 29  1  0  0  0  0
  7  8  1  0  0  0  0
  7  9  1  0  0  0  0
 33 34  1  0  0  0  0
 33 35  1  0  0  0  0
 33 36  1  0  0  0  0
 31 32  1  0  0  0  0
 31 33  1  0  0  0  0
M  CHG  1  20   1
M  END
$$$$
default_name
  -OEChem-02102213163D

 36 35  0     1  0  0  0  0  0999 V2000
   -4.2256   -3.6731    1.8584 H   0  0  0  0  0  0  0  0  0  0  0  0
   -4.2396   -2.6781    1.4144 C   0  0  0  0  0  0  0  0  0  0  0  0
   -4.9506   -2.0521    1.9514 H   0  0  0  0  0  0  0  0  0  0  0  0
   -4.5266   -2.7521    0.3674 H   0  0  0  0  0  0  0  0  0  0  0  0
   -2.8576   -2.0761    1.5184 C   0  0  0  0  0  0  0  0  0  0  0  0
   -1.9456   -2.7051    2.0404 O   0  0  0  0  0  0  0  0  0  0  0  0
   -2.6926   -0.8481    1.0174 N   0  0  0  0  0  0  0  0  0  0  0  0
   -3.4926   -0.3971    0.5954 H   0  0  0  0  0  0  0  0  0  0  0  0
   -1.4216   -0.1071    1.0434 C   0  0  1  0  0  0  0  0  0  0  0  0
   -0.7579   -0.5878    1.7640 H   0  0  0  0  0  0  0  0  0  0  0  0
   -0.7791   -0.1912   -0.3557 C   0  0  0  0  0  0  0  0  0  0  0  0
   -1.3155    0.4831   -1.0264 H   0  0  0  0  0  0  0  0  0  0  0  0
    0.2577    0.1466   -0.2932 H   0  0  0  0  0  0  0  0  0  0  0  0
   -0.8141   -1.6021   -0.9607 C   0  0  0  0  0  0  0  0  0  0  0  0
   -0.3458   -1.5928   -1.9459 H   0  0  0  0  0  0  0  0  0  0  0  0
   -0.2703   -2.2874   -0.3097 H   0  0  0  0  0  0  0  0  0  0  0  0
   -2.2675   -2.0753   -1.0995 C   0  0  0  0  0  0  0  0  0  0  0  0
   -2.7362   -2.0560   -0.1129 H   0  0  0  0  0  0  0  0  0  0  0  0
   -2.7980   -1.3810   -1.7554 H   0  0  0  0  0  0  0  0  0  0  0  0
   -2.3488   -3.4410   -1.6570 N   0  3  0  0  0  0  0  0  0  0  0  0
   -1.4799   -3.8745   -1.9186 H   0  0  0  0  0  0  0  0  0  0  0  0
   -3.4529   -4.1448   -1.8433 C   0  0  0  0  0  0  0  0  0  0  0  0
   -4.6316   -3.6786   -1.5391 N   0  0  0  0  0  0  0  0  0  0  0  0
   -4.7008   -2.7553   -1.1492 H   0  0  0  0  0  0  0  0  0  0  0  0
   -5.4596   -4.2257   -1.6872 H   0  0  0  0  0  0  0  0  0  0  0  0
   -3.3933   -5.3450   -2.3464 N   0  0  0  0  0  0  0  0  0  0  0  0
   -2.5066   -5.7477   -2.5965 H   0  0  0  0  0  0  0  0  0  0  0  0
   -4.2333   -5.8755   -2.4861 H   0  0  0  0  0  0  0  0  0  0  0  0
   -1.6547    1.3413    1.4779 C   0  0  0  0  0  0  0  0  0  0  0  0
   -2.5654    1.9858    0.9716 O   0  0  0  0  0  0  0  0  0  0  0  0
   -0.8107    1.8504    2.3808 N   0  0  0  0  0  0  0  0  0  0  0  0
   -0.1136    1.2381    2.7719 H   0  0  0  0  0  0  0  0  0  0  0  0
   -0.8954    3.2155    2.9026 C   0  0  0  0  0  0  0  0  0  0  0  0
   -1.8299    3.3430    3.4532 H   0  0  0  0  0  0  0  0  0  0  0  0
   -0.0581    3.4194    3.5712 H   0  0  0  0  0  0  0  0  0  0  0  0
   -0.8804    3.9320    2.0784 H   0  0  0  0  0  0  0  0  0  0  0  0
  5  6  2  0  0  0  0
  5  7  1  0  0  0  0
  2  3  1  0  0  0  0
  2  4  1  0  0  0  0
  2  5  1  0  0  0  0
  1  2  1  0  0  0  0
 29 30  2  0  0  0  0
 29 31  1  0  0  0  0
 26 27  1  0  0  0  0
 26 28  1  0  0  0  0
 23 24  1  0  0  0  0
 23 25  1  0  0  0  0
 22 23  1  0  0  0  0
 22 26  1  0  0  0  0
 20 21  1  0  0  0  0
 20 22  2  0  0  0  0
 17 18  1  0  0  0  0
 17 19  1  0  0  0  0
 17 20  1  0  0  0  0
 14 15  1  0  0  0  0
 14 16  1  0  0  0  0
 14 17  1  0  0  0  0
 11 12  1  0  0  0  0
 11 13  1  0  0  0  0
 11 14  1  0  0  0  0
  9 10  1  0  0  0  0
  9 11  1  0  0  0  0
  9 29  1  0  0  0  0
  7  8  1  0  0  0  0
  7  9  1  0  0  0  0
 33 34  1  0  0  0  0
 33 35  1  0  0  0  0
 33 36  1  0  0  0  0
 31 32  1  0  0  0  0
 31 33  1  0  0  0  0
M  CHG  1  20   1
M  END
$$$$
default_name
  -OEChem-02102213163D

 36 35  0     1  0  0  0  0  0999 V2000
   -4.2256   -3.6731    1.8584 H   0  0  0  0  0  0  0  0  0  0  0  0
   -4.2396   -2.6781    1.4144 C   0  0  0  0  0  0  0  0  0  0  0  0
   -4.9506   -2.0521    1.9514 H   0  0  0  0  0  0  0  0  0  0  0  0
   -4.5266   -2.7521    0.3674 H   0  0  0  0  0  0  0  0  0  0  0  0
   -2.8576   -2.0761    1.5184 C   0  0  0  0  0  0  0  0  0  0  0  0
   -1.9456   -2.7051    2.0404 O   0  0  0  0  0  0  0  0  0  0  0  0
   -2.6926   -0.8481    1.0174 N   0  0  0  0  0  0  0  0  0  0  0  0
   -3.4926   -0.3971    0.5954 H   0  0  0  0  0  0  0  0  0  0  0  0
   -1.4216   -0.1071    1.0434 C   0  0  1  0  0  0  0  0  0  0  0  0
   -0.7579   -0.5878    1.7640 H   0  0  0  0  0  0  0  0  0  0  0  0
   -0.7791   -0.1912   -0.3557 C   0  0  0  0  0  0  0  0  0  0  0  0
   -1.3155    0.4831   -1.0264 H   0  0  0  0  0  0  0  0  0  0  0  0
    0.2577    0.1466   -0.2932 H   0  0  0  0  0  0  0  0  0  0  0  0
   -0.8141   -1.6021   -0.9607 C   0  0  0  0  0  0  0  0  0  0  0  0
   -0.1268   -1.6583   -1.8060 H   0  0  0  0  0  0  0  0  0  0  0  0
   -0.5138   -2.3270   -0.2034 H   0  0  0  0  0  0  0  0  0  0  0  0
   -2.2337   -1.9281   -1.4446 C   0  0  0  0  0  0  0  0  0  0  0  0
   -2.9187   -1.8435   -0.5979 H   0  0  0  0  0  0  0  0  0  0  0  0
   -2.5190   -1.1958   -2.2035 H   0  0  0  0  0  0  0  0  0  0  0  0
   -2.3200   -3.2886   -2.0142 N   0  3  0  0  0  0  0  0  0  0  0  0
   -1.4631   -3.8125   -2.0642 H   0  0  0  0  0  0  0  0  0  0  0  0
   -3.4145   -3.8802   -2.4626 C   0  0  0  0  0  0  0  0  0  0  0  0
   -4.5775   -3.2916   -2.4448 N   0  0  0  0  0  0  0  0  0  0  0  0
   -4.6421   -2.3590   -2.0766 H   0  0  0  0  0  0  0  0  0  0  0  0
   -5.3983   -3.7546   -2.7894 H   0  0  0  0  0  0  0  0  0  0  0  0
   -3.3607   -5.0893   -2.9447 N   0  0  0  0  0  0  0  0  0  0  0  0
   -2.4861   -5.5841   -2.9791 H   0  0  0  0  0  0  0  0  0  0  0  0
   -4.1934   -5.5344   -3.2838 H   0  0  0  0  0  0  0  0  0  0  0  0
   -1.6547    1.3413    1.4779 C   0  0  0  0  0  0  0  0  0  0  0  0
   -2.5654    1.9858    0.9716 O   0  0  0  0  0  0  0  0  0  0  0  0
   -0.8107    1.8504    2.3808 N   0  0  0  0  0  0  0  0  0  0  0  0
   -0.1136    1.2381    2.7719 H   0  0  0  0  0  0  0  0  0  0  0  0
   -0.8954    3.2155    2.9026 C   0  0  0  0  0  0  0  0  0  0  0  0
   -1.8299    3.3430    3.4532 H   0  0  0  0  0  0  0  0  0  0  0  0
   -0.0581    3.4194    3.5712 H   0  0  0  0  0  0  0  0  0  0  0  0
   -0.8804    3.9320    2.0784 H   0  0  0  0  0  0  0  0  0  0  0  0
  5  6  2  0  0  0  0
  5  7  1  0  0  0  0
  2  3  1  0  0  0  0
  2  4  1  0  0  0  0
  2  5  1  0  0  0  0
  1  2  1  0  0  0  0
 29 30  2  0  0  0  0
 29 31  1  0  0  0  0
 26 27  1  0  0  0  0
 26 28  1  0  0  0  0
 23 24  1  0  0  0  0
 23 25  1  0  0  0  0
 22 23  1  0  0  0  0
 22 26  1  0  0  0  0
 20 21  1  0  0  0  0
 20 22  2  0  0  0  0
 17 18  1  0  0  0  0
 17 19  1  0  0  0  0
 17 20  1  0  0  0  0
 14 15  1  0  0  0  0
 14 16  1  0  0  0  0
 14 17  1  0  0  0  0
 11 12  1  0  0  0  0
 11 13  1  0  0  0  0
 11 14  1  0  0  0  0
  9 10  1  0  0  0  0
  9 11  1  0  0  0  0
  9 29  1  0  0  0  0
  7  8  1  0  0  0  0
  7  9  1  0  0  0  0
 33 34  1  0  0  0  0
 33 35  1  0  0  0  0
 33 36  1  0  0  0  0
 31 32  1  0  0  0  0
 31 33  1  0  0  0  0
M  CHG  1  20   1
M  END
$$$$
default_name
  -OEChem-02102213163D

 36 35  0     1  0  0  0  0  0999 V2000
   -4.2256   -3.6731    1.8584 H   0  0  0  0  0  0  0  0  0  0  0  0
   -4.2396   -2.6781    1.4144 C   0  0  0  0  0  0  0  0  0  0  0  0
   -4.9506   -2.0521    1.9514 H   0  0  0  0  0  0  0  0  0  0  0  0
   -4.5266   -2.7521    0.3674 H   0  0  0  0  0  0  0  0  0  0  0  0
   -2.8576   -2.0761    1.5184 C   0  0  0  0  0  0  0  0  0  0  0  0
   -1.9456   -2.7051    2.0404 O   0  0  0  0  0  0  0  0  0  0  0  0
   -2.6926   -0.8481    1.0174 N   0  0  0  0  0  0  0  0  0  0  0  0
   -3.4926   -0.3971    0.5954 H   0  0  0  0  0  0  0  0  0  0  0  0
   -1.4216   -0.1071    1.0434 C   0  0  1  0  0  0  0  0  0  0  0  0
   -0.7579   -0.5878    1.7640 H   0  0  0  0  0  0  0  0  0  0  0  0
   -0.7791   -0.1912   -0.3557 C   0  0  0  0  0  0  0  0  0  0  0  0
   -1.3155    0.4831   -1.0264 H   0  0  0  0  0  0  0  0  0  0  0  0
    0.2577    0.1466   -0.2932 H   0  0  0  0  0  0  0  0  0  0  0  0
   -0.8141   -1.6021   -0.9607 C   0  0  0  0  0  0  0  0  0  0  0  0
    0.0448   -1.7430   -1.6184 H   0  0  0  0  0  0  0  0  0  0  0  0
   -0.7783   -2.3397   -0.1583 H   0  0  0  0  0  0  0  0  0  0  0  0
   -2.1039   -1.7914   -1.7708 C   0  0  0  0  0  0  0  0  0  0  0  0
   -2.9580   -1.6224   -1.1110 H   0  0  0  0  0  0  0  0  0  0  0  0
   -2.1240   -1.0479   -2.5711 H   0  0  0  0  0  0  0  0  0  0  0  0
   -2.1917   -3.1463   -2.3533 N   0  3  0  0  0  0  0  0  0  0  0  0
   -1.4059   -3.7552   -2.2012 H   0  0  0  0  0  0  0  0  0  0  0  0
   -3.2032   -3.6321   -3.0532 C   0  0  0  0  0  0  0  0  0  0  0  0
   -4.2703   -2.9286   -3.3090 N   0  0  0  0  0  0  0  0  0  0  0  0
   -4.3244   -1.9877   -2.9609 H   0  0  0  0  0  0  0  0  0  0  0  0
   -5.0289   -3.3123   -3.8421 H   0  0  0  0  0  0  0  0  0  0  0  0
   -3.1609   -4.8491   -3.5165 N   0  0  0  0  0  0  0  0  0  0  0  0
   -2.3587   -5.4305   -3.3448 H   0  0  0  0  0  0  0  0  0  0  0  0
   -3.9304   -5.2137   -4.0469 H   0  0  0  0  0  0  0  0  0  0  0  0
   -1.6547    1.3413    1.4779 C   0  0  0  0  0  0  0  0  0  0  0  0
   -2.5654    1.9858    0.9716 O   0  0  0  0  0  0  0  0  0  0  0  0
   -0.8107    1.8504    2.3808 N   0  0  0  0  0  0  0  0  0  0  0  0
   -0.1136    1.2381    2.7719 H   0  0  0  0  0  0  0  0  0  0  0  0
   -0.8954    3.2155    2.9026 C   0  0  0  0  0  0  0  0  0  0  0  0
   -1.8299    3.3430    3.4532 H   0  0  0  0  0  0  0  0  0  0  0  0
   -0.0581    3.4194    3.5712 H   0  0  0  0  0  0  0  0  0  0  0  0
   -0.8804    3.9320    2.0784 H   0  0  0  0  0  0  0  0  0  0  0  0
  5  6  2  0  0  0  0
  5  7  1  0  0  0  0
  2  3  1  0  0  0  0
  2  4  1  0  0  0  0
  2  5  1  0  0  0  0
  1  2  1  0  0  0  0
 29 30  2  0  0  0  0
 29 31  1  0  0  0  0
 26 27  1  0  0  0  0
 26 28  1  0  0  0  0
 23 24  1  0  0  0  0
 23 25  1  0  0  0  0
 22 23  1  0  0  0  0
 22 26  1  0  0  0  0
 20 21  1  0  0  0  0
 20 22  2  0  0  0  0
 17 18  1  0  0  0  0
 17 19  1  0  0  0  0
 17 20  1  0  0  0  0
 14 15  1  0  0  0  0
 14 16  1  0  0  0  0
 14 17  1  0  0  0  0
 11 12  1  0  0  0  0
 11 13  1  0  0  0  0
 11 14  1  0  0  0  0
  9 10  1  0  0  0  0
  9 11  1  0  0  0  0
  9 29  1  0  0  0  0
  7  8  1  0  0  0  0
  7  9  1  0  0  0  0
 33 34  1  0  0  0  0
 33 35  1  0  0  0  0
 33 36  1  0  0  0  0
 31 32  1  0  0  0  0
 31 33  1  0  0  0  0
M  CHG  1  20   1
M  END
$$$$
default_name
  -OEChem-02102213163D

 36 35  0     1  0  0  0  0  0999 V2000
   -4.2256   -3.6731    1.8584 H   0  0  0  0  0  0  0  0  0  0  0  0
   -4.2396   -2.6781    1.4144 C   0  0  0  0  0  0  0  0  0  0  0  0
   -4.9506   -2.0521    1.9514 H   0  0  0  0  0  0  0  0  0  0  0  0
   -4.5266   -2.7521    0.3674 H   0  0  0  0  0  0  0  0  0  0  0  0
   -2.8576   -2.0761    1.5184 C   0  0  0  0  0  0  0  0  0  0  0  0
   -1.9456   -2.7051    2.0404 O   0  0  0  0  0  0  0  0  0  0  0  0
   -2.6926   -0.8481    1.0174 N   0  0  0  0  0  0  0  0  0  0  0  0
   -3.4926   -0.3971    0.5954 H   0  0  0  0  0  0  0  0  0  0  0  0
   -1.4216   -0.1071    1.0434 C   0  0  1  0  0  0  0  0  0  0  0  0
   -0.7579   -0.5878    1.7640 H   0  0  0  0  0  0  0  0  0  0  0  0
   -0.7791   -0.1912   -0.3557 C   0  0  0  0  0  0  0  0  0  0  0  0
   -1.3155    0.4831   -1.0264 H   0  0  0  0  0  0  0  0  0  0  0  0
    0.2577    0.1466   -0.2932 H   0  0  0  0  0  0  0  0  0  0  0  0
   -0.8141   -1.6021   -0.9607 C   0  0  0  0  0  0  0  0  0  0  0  0
    0.1572   -1.8412   -1.3958 H   0  0  0  0  0  0  0  0  0  0  0  0
   -1.0459   -2.3248   -0.1777 H   0  0  0  0  0  0  0  0  0  0  0  0
   -1.8870   -1.6746   -2.0558 C   0  0  0  0  0  0  0  0  0  0  0  0
   -2.8514   -1.4080   -1.6173 H   0  0  0  0  0  0  0  0  0  0  0  0
   -1.6400   -0.9476   -2.8331 H   0  0  0  0  0  0  0  0  0  0  0  0
   -1.9726   -3.0241   -2.6511 N   0  3  0  0  0  0  0  0  0  0  0  0
   -1.3122   -3.7065   -2.3202 H   0  0  0  0  0  0  0  0  0  0  0  0
   -2.8333   -3.4176   -3.5749 C   0  0  0  0  0  0  0  0  0  0  0  0
   -3.7311   -2.6144   -4.0729 N   0  0  0  0  0  0  0  0  0  0  0  0
   -3.7694   -1.6667   -3.7416 H   0  0  0  0  0  0  0  0  0  0  0  0
   -4.3766   -2.9290   -4.7738 H   0  0  0  0  0  0  0  0  0  0  0  0
   -2.8074   -4.6408   -4.0226 N   0  0  0  0  0  0  0  0  0  0  0  0
   -2.1330   -5.2972   -3.6686 H   0  0  0  0  0  0  0  0  0  0  0  0
   -3.4622   -4.9352   -4.7234 H   0  0  0  0  0  0  0  0  0  0  0  0
   -1.6547    1.3413    1.4779 C   0  0  0  0  0  0  0  0  0  0  0  0
   -2.5654    1.9858    0.9716 O   0  0  0  0  0  0  0  0  0  0  0  0
   -0.8107    1.8504    2.3808 N   0  0  0  0  0  0  0  0  0  0  0  0
   -0.1136    1.2381    2.7719 H   0  0  0  0  0  0  0  0  0  0  0  0
   -0.8954    3.2155    2.9026 C   0  0  0  0  0  0  0  0  0  0  0  0
   -1.8299    3.3430    3.4532 H   0  0  0  0  0  0  0  0  0  0  0  0
   -0.0581    3.4194    3.5712 H   0  0  0  0  0  0  0  0  0  0  0  0
   -0.8804    3.9320    2.0784 H   0  0  0  0  0  0  0  0  0  0  0  0
  5  6  2  0  0  0  0
  5  7  1  0  0  0  0
  2  3  1  0  0  0  0
  2  4  1  0  0  0  0
  2  5  1  0  0  0  0
  1  2  1  0  0  0  0
 29 30  2  0  0  0  0
 29 31  1  0  0  0  0
 26 27  1  0  0  0  0
 26 28  1  0  0  0  0
 23 24  1  0  0  0  0
 23 25  1  0  0  0  0
 22 23  1  0  0  0  0
 22 26  1  0  0  0  0
 20 21  1  0  0  0  0
 20 22  2  0  0  0  0
 17 18  1  0  0  0  0
 17 19  1  0  0  0  0
 17 20  1  0  0  0  0
 14 15  1  0  0  0  0
 14 16  1  0  0  0  0
 14 17  1  0  0  0  0
 11 12  1  0  0  0  0
 11 13  1  0  0  0  0
 11 14  1  0  0  0  0
  9 10  1  0  0  0  0
  9 11  1  0  0  0  0
  9 29  1  0  0  0  0
  7  8  1  0  0  0  0
  7  9  1  0  0  0  0
 33 34  1  0  0  0  0
 33 35  1  0  0  0  0
 33 36  1  0  0  0  0
 31 32  1  0  0  0  0
 31 33  1  0  0  0  0
M  CHG  1  20   1
M  END
$$$$
default_name
  -OEChem-02102213163D

 36 35  0     1  0  0  0  0  0999 V2000
   -4.2256   -3.6731    1.8584 H   0  0  0  0  0  0  0  0  0  0  0  0
   -4.2396   -2.6781    1.4144 C   0  0  0  0  0  0  0  0  0  0  0  0
   -4.9506   -2.0521    1.9514 H   0  0  0  0  0  0  0  0  0  0  0  0
   -4.5266   -2.7521    0.3674 H   0  0  0  0  0  0  0  0  0  0  0  0
   -2.8576   -2.0761    1.5184 C   0  0  0  0  0  0  0  0  0  0  0  0
   -1.9456   -2.7051    2.0404 O   0  0  0  0  0  0  0  0  0  0  0  0
   -2.6926   -0.8481    1.0174 N   0  0  0  0  0  0  0  0  0  0  0  0
   -3.4926   -0.3971    0.5954 H   0  0  0  0  0  0  0  0  0  0  0  0
   -1.4216   -0.1071    1.0434 C   0  0  1  0  0  0  0  0  0  0  0  0
   -0.7579   -0.5878    1.7640 H   0  0  0  0  0  0  0  0  0  0  0  0
   -0.7791   -0.1912   -0.3557 C   0  0  0  0  0  0  0  0  0  0  0  0
   -1.3155    0.4831   -1.0264 H   0  0  0  0  0  0  0  0  0  0  0  0
    0.2577    0.1466   -0.2932 H   0  0  0  0  0  0  0  0  0  0  0  0
   -0.8141   -1.6021   -0.9607 C   0  0  0  0  0  0  0  0  0  0  0  0
    0.2030   -1.9462   -1.1536 H   0  0  0  0  0  0  0  0  0  0  0  0
   -1.2982   -2.2832   -0.2600 H   0  0  0  0  0  0  0  0  0  0  0  0
   -1.5978   -1.5856   -2.2802 C   0  0  0  0  0  0  0  0  0  0  0  0
   -2.6061   -1.2147   -2.0823 H   0  0  0  0  0  0  0  0  0  0  0  0
   -1.1000   -0.9016   -2.9716 H   0  0  0  0  0  0  0  0  0  0  0  0
   -1.6777   -2.9300   -2.8875 N   0  3  0  0  0  0  0  0  0  0  0  0
   -1.1885   -3.6697   -2.4132 H   0  0  0  0  0  0  0  0  0  0  0  0
   -2.3301   -3.2512   -3.9921 C   0  0  0  0  0  0  0  0  0  0  0  0
   -2.9966   -2.3704   -4.6844 N   0  0  0  0  0  0  0  0  0  0  0  0
   -3.0149   -1.4178   -4.3657 H   0  0  0  0  0  0  0  0  0  0  0  0
   -3.4859   -2.6307   -5.5209 H   0  0  0  0  0  0  0  0  0  0  0  0
   -2.3243   -4.4787   -4.4286 N   0  0  0  0  0  0  0  0  0  0  0  0
   -1.8244   -5.1934   -3.9284 H   0  0  0  0  0  0  0  0  0  0  0  0
   -2.8206   -4.7180   -5.2671 H   0  0  0  0  0  0  0  0  0  0  0  0
   -1.6547    1.3413    1.4779 C   0  0  0  0  0  0  0  0  0  0  0  0
   -2.5654    1.9858    0.9716 O   0  0  0  0  0  0  0  0  0  0  0  0
   -0.8107    1.8504    2.3808 N   0  0  0  0  0  0  0  0  0  0  0  0
   -0.1136    1.2381    2.7719 H   0  0  0  0  0  0  0  0  0  0  0  0
   -0.8954    3.2155    2.9026 C   0  0  0  0  0  0  0  0  0  0  0  0
   -1.8299    3.3430    3.4532 H   0  0  0  0  0  0  0  0  0  0  0  0
   -0.0581    3.4194    3.5712 H   0  0  0  0  0  0  0  0  0  0  0  0
   -0.8804    3.9320    2.0784 H   0  0  0  0  0  0  0  0  0  0  0  0
  5  6  2  0  0  0  0
  5  7  1  0  0  0  0
  2  3  1  0  0  0  0
  2  4  1  0  0  0  0
  2  5  1  0  0  0  0
  1  2  1  0  0  0  0
 29 30  2  0  0  0  0
 29 31  1  0  0  0  0
 26 27  1  0  0  0  0
 26 28  1  0  0  0  0
 23 24  1  0  0  0  0
 23 25  1  0  0  0  0
 22 23  1  0  0  0  0
 22 26  1  0  0  0  0
 20 21  1  0  0  0  0
 20 22  2  0  0  0  0
 17 18  1  0  0  0  0
 17 19  1  0  0  0  0
 17 20  1  0  0  0  0
 14 15  1  0  0  0  0
 14 16  1  0  0  0  0
 14 17  1  0  0  0  0
 11 12  1  0  0  0  0
 11 13  1  0  0  0  0
 11 14  1  0  0  0  0
  9 10  1  0  0  0  0
  9 11  1  0  0  0  0
  9 29  1  0  0  0  0
  7  8  1  0  0  0  0
  7  9  1  0  0  0  0
 33 34  1  0  0  0  0
 33 35  1  0  0  0  0
 33 36  1  0  0  0  0
 31 32  1  0  0  0  0
 31 33  1  0  0  0  0
M  CHG  1  20   1
M  END
$$$$
default_name
  -OEChem-02102213163D

 36 35  0     1  0  0  0  0  0999 V2000
   -4.2256   -3.6731    1.8584 H   0  0  0  0  0  0  0  0  0  0  0  0
   -4.2396   -2.6781    1.4144 C   0  0  0  0  0  0  0  0  0  0  0  0
   -4.9506   -2.0521    1.9514 H   0  0  0  0  0  0  0  0  0  0  0  0
   -4.5266   -2.7521    0.3674 H   0  0  0  0  0  0  0  0  0  0  0  0
   -2.8576   -2.0761    1.5184 C   0  0  0  0  0  0  0  0  0  0  0  0
   -1.9456   -2.7051    2.0404 O   0  0  0  0  0  0  0  0  0  0  0  0
   -2.6926   -0.8481    1.0174 N   0  0  0  0  0  0  0  0  0  0  0  0
   -3.4926   -0.3971    0.5954 H   0  0  0  0  0  0  0  0  0  0  0  0
   -1.4216   -0.1071    1.0434 C   0  0  1  0  0  0  0  0  0  0  0  0
   -0.7579   -0.5878    1.7640 H   0  0  0  0  0  0  0  0  0  0  0  0
   -0.7791   -0.1912   -0.3557 C   0  0  0  0  0  0  0  0  0  0  0  0
   -1.3155    0.4831   -1.0264 H   0  0  0  0  0  0  0  0  0  0  0  0
    0.2577    0.1466   -0.2932 H   0  0  0  0  0  0  0  0  0  0  0  0
   -0.8141   -1.6021   -0.9607 C   0  0  0  0  0  0  0  0  0  0  0  0
    0.1788   -2.0509   -0.9080 H   0  0  0  0  0  0  0  0  0  0  0  0
   -1.5180   -2.2178   -0.3998 H   0  0  0  0  0  0  0  0  0  0  0  0
   -1.2560   -1.5303   -2.4287 C   0  0  0  0  0  0  0  0  0  0  0  0
   -2.2389   -1.0557   -2.4742 H   0  0  0  0  0  0  0  0  0  0  0  0
   -0.5407   -0.9130   -2.9773 H   0  0  0  0  0  0  0  0  0  0  0  0
   -1.3270   -2.8707   -3.0462 N   0  3  0  0  0  0  0  0  0  0  0  0
   -1.0430   -3.6473   -2.4738 H   0  0  0  0  0  0  0  0  0  0  0  0
   -1.7278   -3.1442   -4.2765 C   0  0  0  0  0  0  0  0  0  0  0  0
   -2.1167   -2.2132   -5.1019 N   0  0  0  0  0  0  0  0  0  0  0  0
   -2.1123   -1.2580   -4.7906 H   0  0  0  0  0  0  0  0  0  0  0  0
   -2.4175   -2.4379   -6.0324 H   0  0  0  0  0  0  0  0  0  0  0  0
   -1.7447   -4.3737   -4.7069 N   0  0  0  0  0  0  0  0  0  0  0  0
   -1.4540   -5.1262   -4.1067 H   0  0  0  0  0  0  0  0  0  0  0  0
   -2.0495   -4.5768   -5.6409 H   0  0  0  0  0  0  0  0  0  0  0  0
   -1.6547    1.3413    1.4779 C   0  0  0  0  0  0  0  0  0  0  0  0
   -2.5654    1.9858    0.9716 O   0  0  0  0  0  0  0  0  0  0  0  0
   -0.8107    1.8504    2.3808 N   0  0  0  0  0  0  0  0  0  0  0  0
   -0.1136    1.2381    2.7719 H   0  0  0  0  0  0  0  0  0  0  0  0
   -0.8954    3.2155    2.9026 C   0  0  0  0  0  0  0  0  0  0  0  0
   -1.8299    3.3430    3.4532 H   0  0  0  0  0  0  0  0  0  0  0  0
   -0.0581    3.4194    3.5712 H   0  0  0  0  0  0  0  0  0  0  0  0
   -0.8804    3.9320    2.0784 H   0  0  0  0  0  0  0  0  0  0  0  0
  5  6  2  0  0  0  0
  5  7  1  0  0  0  0
  2  3  1  0  0  0  0
  2  4  1  0  0  0  0
  2  5  1  0  0  0  0
  1  2  1  0  0  0  0
 29 30  2  0  0  0  0
 29 31  1  0  0  0  0
 26 27  1  0  0  0  0
 26 28  1  0  0  0  0
 23 24  1  0  0  0  0
 23 25  1  0  0  0  0
 22 23  1  0  0  0  0
 22 26  1  0  0  0  0
 20 21  1  0  0  0  0
 20 22  2  0  0  0  0
 17 18  1  0  0  0  0
 17 19  1  0  0  0  0
 17 20  1  0  0  0  0
 14 15  1  0  0  0  0
 14 16  1  0  0  0  0
 14 17  1  0  0  0  0
 11 12  1  0  0  0  0
 11 13  1  0  0  0  0
 11 14  1  0  0  0  0
  9 10  1  0  0  0  0
  9 11  1  0  0  0  0
  9 29  1  0  0  0  0
  7  8  1  0  0  0  0
  7  9  1  0  0  0  0
 33 34  1  0  0  0  0
 33 35  1  0  0  0  0
 33 36  1  0  0  0  0
 31 32  1  0  0  0  0
 31 33  1  0  0  0  0
M  CHG  1  20   1
M  END
$$$$
default_name
  -OEChem-02102213163D

 36 35  0     1  0  0  0  0  0999 V2000
   -4.2256   -3.6731    1.8584 H   0  0  0  0  0  0  0  0  0  0  0  0
   -4.2396   -2.6781    1.4144 C   0  0  0  0  0  0  0  0  0  0  0  0
   -4.9506   -2.0521    1.9514 H   0  0  0  0  0  0  0  0  0  0  0  0
   -4.5266   -2.7521    0.3674 H   0  0  0  0  0  0  0  0  0  0  0  0
   -2.8576   -2.0761    1.5184 C   0  0  0  0  0  0  0  0  0  0  0  0
   -1.9456   -2.7051    2.0404 O   0  0  0  0  0  0  0  0  0  0  0  0
   -2.6926   -0.8481    1.0174 N   0  0  0  0  0  0  0  0  0  0  0  0
   -3.4926   -0.3971    0.5954 H   0  0  0  0  0  0  0  0  0  0  0  0
   -1.4216   -0.1071    1.0434 C   0  0  1  0  0  0  0  0  0  0  0  0
   -0.7579   -0.5878    1.7640 H   0  0  0  0  0  0  0  0  0  0  0  0
   -0.7791   -0.1912   -0.3557 C   0  0  0  0  0  0  0  0  0  0  0  0
   -1.3155    0.4831   -1.0264 H   0  0  0  0  0  0  0  0  0  0  0  0
    0.2577    0.1466   -0.2932 H   0  0  0  0  0  0  0  0  0  0  0  0
   -0.8141   -1.6021   -0.9607 C   0  0  0  0  0  0  0  0  0  0  0  0
    0.0864   -2.1481   -0.6760 H   0  0  0  0  0  0  0  0  0  0  0  0
   -1.6905   -2.1330   -0.5875 H   0  0  0  0  0  0  0  0  0  0  0  0
   -0.8849   -1.5128   -2.4912 C   0  0  0  0  0  0  0  0  0  0  0  0
   -1.7748   -0.9420   -2.7664 H   0  0  0  0  0  0  0  0  0  0  0  0
   -0.0003   -0.9812   -2.8497 H   0  0  0  0  0  0  0  0  0  0  0  0
   -0.9445   -2.8500   -3.1164 N   0  3  0  0  0  0  0  0  0  0  0  0
   -0.8859   -3.6408   -2.4980 H   0  0  0  0  0  0  0  0  0  0  0  0
   -1.0675   -3.1039   -4.4085 C   0  0  0  0  0  0  0  0  0  0  0  0
   -1.1516   -2.1536   -5.2968 N   0  0  0  0  0  0  0  0  0  0  0  0
   -1.1232   -1.1982   -4.9872 H   0  0  0  0  0  0  0  0  0  0  0  0
   -1.2442   -2.3635   -6.2736 H   0  0  0  0  0  0  0  0  0  0  0  0
   -1.1079   -4.3331   -4.8385 N   0  0  0  0  0  0  0  0  0  0  0  0
   -1.0469   -5.1000   -4.1912 H   0  0  0  0  0  0  0  0  0  0  0  0
   -1.2013   -4.5213   -5.8195 H   0  0  0  0  0  0  0  0  0  0  0  0
   -1.6547    1.3413    1.4779 C   0  0  0  0  0  0  0  0  0  0  0  0
   -2.5654    1.9858    0.9716 O   0  0  0  0  0  0  0  0  0  0  0  0
   -0.8107    1.8504    2.3808 N   0  0  0  0  0  0  0  0  0  0  0  0
   -0.1136    1.2381    2.7719 H   0  0  0  0  0  0  0  0  0  0  0  0
   -0.8954    3.2155    2.9026 C   0  0  0  0  0  0  0  0  0  0  0  0
   -1.8299    3.3430    3.4532 H   0  0  0  0  0  0  0  0  0  0  0  0
   -0.0581    3.4194    3.5712 H   0  0  0  0  0  0  0  0  0  0  0  0
   -0.8804    3.9320    2.0784 H   0  0  0  0  0  0  0  0  0  0  0  0
  5  6  2  0  0  0  0
  5  7  1  0  0  0  0
  2  3  1  0  0  0  0
  2  4  1  0  0  0  0
  2  5  1  0  0  0  0
  1  2  1  0  0  0  0
 29 30  2  0  0  0  0
 29 31  1  0  0  0  0
 26 27  1  0  0  0  0
 26 28  1  0  0  0  0
 23 24  1  0  0  0  0
 23 25  1  0  0  0  0
 22 23  1  0  0  0  0
 22 26  1  0  0  0  0
 20 21  1  0  0  0  0
 20 22  2  0  0  0  0
 17 18  1  0  0  0  0
 17 19  1  0  0  0  0
 17 20  1  0  0  0  0
 14 15  1  0  0  0  0
 14 16  1  0  0  0  0
 14 17  1  0  0  0  0
 11 12  1  0  0  0  0
 11 13  1  0  0  0  0
 11 14  1  0  0  0  0
  9 10  1  0  0  0  0
  9 11  1  0  0  0  0
  9 29  1  0  0  0  0
  7  8  1  0  0  0  0
  7  9  1  0  0  0  0
 33 34  1  0  0  0  0
 33 35  1  0  0  0  0
 33 36  1  0  0  0  0
 31 32  1  0  0  0  0
 31 33  1  0  0  0  0
M  CHG  1  20   1
M  END
$$$$
default_name
  -OEChem-02102213163D

 36 35  0     1  0  0  0  0  0999 V2000
   -4.2256   -3.6731    1.8584 H   0  0  0  0  0  0  0  0  0  0  0  0
   -4.2396   -2.6781    1.4144 C   0  0  0  0  0  0  0  0  0  0  0  0
   -4.9506   -2.0521    1.9514 H   0  0  0  0  0  0  0  0  0  0  0  0
   -4.5266   -2.7521    0.3674 H   0  0  0  0  0  0  0  0  0  0  0  0
   -2.8576   -2.0761    1.5184 C   0  0  0  0  0  0  0  0  0  0  0  0
   -1.9456   -2.7051    2.0404 O   0  0  0  0  0  0  0  0  0  0  0  0
   -2.6926   -0.8481    1.0174 N   0  0  0  0  0  0  0  0  0  0  0  0
   -3.4926   -0.3971    0.5954 H   0  0  0  0  0  0  0  0  0  0  0  0
   -1.4216   -0.1071    1.0434 C   0  0  1  0  0  0  0  0  0  0  0  0
   -0.7579   -0.5878    1.7640 H   0  0  0  0  0  0  0  0  0  0  0  0
   -0.7791   -0.1912   -0.3557 C   0  0  0  0  0  0  0  0  0  0  0  0
   -1.3155    0.4831   -1.0264 H   0  0  0  0  0  0  0  0  0  0  0  0
    0.2577    0.1466   -0.2932 H   0  0  0  0  0  0  0  0  0  0  0  0
   -0.8141   -1.6021   -0.9607 C   0  0  0  0  0  0  0  0  0  0  0  0
   -0.0680   -2.2312   -0.4733 H   0  0  0  0  0  0  0  0  0  0  0  0
   -1.8038   -2.0347   -0.8104 H   0  0  0  0  0  0  0  0  0  0  0  0
   -0.5099   -1.5340   -2.4635 C   0  0  0  0  0  0  0  0  0  0  0  0
   -1.2455   -0.8811   -2.9389 H   0  0  0  0  0  0  0  0  0  0  0  0
    0.4844   -1.1013   -2.5976 H   0  0  0  0  0  0  0  0  0  0  0  0
   -0.5562   -2.8695   -3.0935 N   0  3  0  0  0  0  0  0  0  0  0  0
   -0.7277   -3.6508   -2.4839 H   0  0  0  0  0  0  0  0  0  0  0  0
   -0.3943   -3.1332   -4.3793 C   0  0  0  0  0  0  0  0  0  0  0  0
   -0.1669   -2.1956   -5.2559 N   0  0  0  0  0  0  0  0  0  0  0  0
   -0.1149   -1.2425   -4.9423 H   0  0  0  0  0  0  0  0  0  0  0  0
   -0.0459   -2.4128   -6.2280 H   0  0  0  0  0  0  0  0  0  0  0  0
   -0.4573   -4.3596   -4.8144 N   0  0  0  0  0  0  0  0  0  0  0  0
   -0.6309   -5.1168   -4.1761 H   0  0  0  0  0  0  0  0  0  0  0  0
   -0.3340   -4.5552   -5.7906 H   0  0  0  0  0  0  0  0  0  0  0  0
   -1.6547    1.3413    1.4779 C   0  0  0  0  0  0  0  0  0  0  0  0
   -2.5654    1.9858    0.9716 O   0  0  0  0  0  0  0  0  0  0  0  0
   -0.8107    1.8504    2.3808 N   0  0  0  0  0  0  0  0  0  0  0  0
   -0.1136    1.2381    2.7719 H   0  0  0  0  0  0  0  0  0  0  0  0
   -0.8954    3.2155    2.9026 C   0  0  0  0  0  0  0  0  0  0  0  0
   -1.8299    3.3430    3.4532 H   0  0  0  0  0  0  0  0  0  0  0  0
   -0.0581    3.4194    3.5712 H   0  0  0  0  0  0  0  0  0  0  0  0
   -0.8804    3.9320    2.0784 H   0  0  0  0  0  0  0  0  0  0  0  0
  5  6  2  0  0  0  0
  5  7  1  0  0  0  0
  2  3  1  0  0  0  0
  2  4  1  0  0  0  0
  2  5  1  0  0  0  0
  1  2  1  0  0  0  0
 29 30  2  0  0  0  0
 29 31  1  0  0  0  0
 26 27  1  0  0  0  0
 26 28  1  0  0  0  0
 23 24  1  0  0  0  0
 23 25  1  0  0  0  0
 22 23  1  0  0  0  0
 22 26  1  0  0  0  0
 20 21  1  0  0  0  0
 20 22  2  0  0  0  0
 17 18  1  0  0  0  0
 17 19  1  0  0  0  0
 17 20  1  0  0  0  0
 14 15  1  0  0  0  0
 14 16  1  0  0  0  0
 14 17  1  0  0  0  0
 11 12  1  0  0  0  0
 11 13  1  0  0  0  0
 11 14  1  0  0  0  0
  9 10  1  0  0  0  0
  9 11  1  0  0  0  0
  9 29  1  0  0  0  0
  7  8  1  0  0  0  0
  7  9  1  0  0  0  0
 33 34  1  0  0  0  0
 33 35  1  0  0  0  0
 33 36  1  0  0  0  0
 31 32  1  0  0  0  0
 31 33  1  0  0  0  0
M  CHG  1  20   1
M  END
$$$$
default_name
  -OEChem-02102213163D

 36 35  0     1  0  0  0  0  0999 V2000
   -4.2256   -3.6731    1.8584 H   0  0  0  0  0  0  0  0  0  0  0  0
   -4.2396   -2.6781    1.4144 C   0  0  0  0  0  0  0  0  0  0  0  0
   -4.9506   -2.0521    1.9514 H   0  0  0  0  0  0  0  0  0  0  0  0
   -4.5266   -2.7521    0.3674 H   0  0  0  0  0  0  0  0  0  0  0  0
   -2.8576   -2.0761    1.5184 C   0  0  0  0  0  0  0  0  0  0  0  0
   -1.9456   -2.7051    2.0404 O   0  0  0  0  0  0  0  0  0  0  0  0
   -2.6926   -0.8481    1.0174 N   0  0  0  0  0  0  0  0  0  0  0  0
   -3.4926   -0.3971    0.5954 H   0  0  0  0  0  0  0  0  0  0  0  0
   -1.4216   -0.1071    1.0434 C   0  0  1  0  0  0  0  0  0  0  0  0
   -0.7579   -0.5878    1.7640 H   0  0  0  0  0  0  0  0  0  0  0  0
   -0.7791   -0.1912   -0.3557 C   0  0  0  0  0  0  0  0  0  0  0  0
   -1.1244    0.6578   -0.9491 H   0  0  0  0  0  0  0  0  0  0  0  0
    0.3059   -0.1158   -0.2553 H   0  0  0  0  0  0  0  0  0  0  0  0
   -1.1271   -1.4817   -1.1117 C   0  0  0  0  0  0  0  0  0  0  0  0
   -0.7815   -2.3466   -0.5437 H   0  0  0  0  0  0  0  0  0  0  0  0
   -2.2081   -1.5440   -1.2406 H   0  0  0  0  0  0  0  0  0  0  0  0
   -0.4481   -1.4803   -2.4881 C   0  0  0  0  0  0  0  0  0  0  0  0
   -0.7793   -0.5972   -3.0393 H   0  0  0  0  0  0  0  0  0  0  0  0
    0.6330   -1.4200   -2.3423 H   0  0  0  0  0  0  0  0  0  0  0  0
   -0.7751   -2.6955   -3.2620 N   0  3  0  0  0  0  0  0  0  0  0  0
   -1.3447   -3.3846   -2.8017 H   0  0  0  0  0  0  0  0  0  0  0  0
   -0.3906   -2.9611   -4.4992 C   0  0  0  0  0  0  0  0  0  0  0  0
    0.3493   -2.1374   -5.1871 N   0  0  0  0  0  0  0  0  0  0  0  0
    0.6342   -1.2728   -4.7621 H   0  0  0  0  0  0  0  0  0  0  0  0
    0.6327   -2.3545   -6.1249 H   0  0  0  0  0  0  0  0  0  0  0  0
   -0.7456   -4.0741   -5.0759 N   0  0  0  0  0  0  0  0  0  0  0  0
   -1.3165   -4.7409   -4.5855 H   0  0  0  0  0  0  0  0  0  0  0  0
   -0.4518   -4.2717   -6.0147 H   0  0  0  0  0  0  0  0  0  0  0  0
   -1.6547    1.3413    1.4779 C   0  0  0  0  0  0  0  0  0  0  0  0
   -2.5654    1.9858    0.9716 O   0  0  0  0  0  0  0  0  0  0  0  0
   -0.8107    1.8504    2.3808 N   0  0  0  0  0  0  0  0  0  0  0  0
   -0.1136    1.2381    2.7719 H   0  0  0  0  0  0  0  0  0  0  0  0
   -0.8954    3.2155    2.9026 C   0  0  0  0  0  0  0  0  0  0  0  0
   -1.8299    3.3430    3.4532 H   0  0  0  0  0  0  0  0  0  0  0  0
   -0.0581    3.4194    3.5712 H   0  0  0  0  0  0  0  0  0  0  0  0
   -0.8804    3.9320    2.0784 H   0  0  0  0  0  0  0  0  0  0  0  0
  5  6  2  0  0  0  0
  5  7  1  0  0  0  0
  2  3  1  0  0  0  0
  2  4  1  0  0  0  0
  2  5  1  0  0  0  0
  1  2  1  0  0  0  0
 29 30  2  0  0  0  0
 29 31  1  0  0  0  0
 26 27  1  0  0  0  0
 26 28  1  0  0  0  0
 23 24  1  0  0  0  0
 23 25  1  0  0  0  0
 22 23  1  0  0  0  0
 22 26  1  0  0  0  0
 20 21  1  0  0  0  0
 20 22  2  0  0  0  0
 17 18  1  0  0  0  0
 17 19  1  0  0  0  0
 17 20  1  0  0  0  0
 14 15  1  0  0  0  0
 14 16  1  0  0  0  0
 14 17  1  0  0  0  0
 11 12  1  0  0  0  0
 11 13  1  0  0  0  0
 11 14  1  0  0  0  0
  9 10  1  0  0  0  0
  9 11  1  0  0  0  0
  9 29  1  0  0  0  0
  7  8  1  0  0  0  0
  7  9  1  0  0  0  0
 33 34  1  0  0  0  0
 33 35  1  0  0  0  0
 33 36  1  0  0  0  0
 31 32  1  0  0  0  0
 31 33  1  0  0  0  0
M  CHG  1  20   1
M  END
$$$$
default_name
  -OEChem-02102213163D

 36 35  0     1  0  0  0  0  0999 V2000
   -4.2256   -3.6731    1.8584 H   0  0  0  0  0  0  0  0  0  0  0  0
   -4.2396   -2.6781    1.4144 C   0  0  0  0  0  0  0  0  0  0  0  0
   -4.9506   -2.0521    1.9514 H   0  0  0  0  0  0  0  0  0  0  0  0
   -4.5266   -2.7521    0.3674 H   0  0  0  0  0  0  0  0  0  0  0  0
   -2.8576   -2.0761    1.5184 C   0  0  0  0  0  0  0  0  0  0  0  0
   -1.9456   -2.7051    2.0404 O   0  0  0  0  0  0  0  0  0  0  0  0
   -2.6926   -0.8481    1.0174 N   0  0  0  0  0  0  0  0  0  0  0  0
   -3.4926   -0.3971    0.5954 H   0  0  0  0  0  0  0  0  0  0  0  0
   -1.4216   -0.1071    1.0434 C   0  0  1  0  0  0  0  0  0  0  0  0
   -0.7579   -0.5878    1.7640 H   0  0  0  0  0  0  0  0  0  0  0  0
   -0.7791   -0.1912   -0.3557 C   0  0  0  0  0  0  0  0  0  0  0  0
   -1.1244    0.6578   -0.9491 H   0  0  0  0  0  0  0  0  0  0  0  0
    0.3059   -0.1158   -0.2553 H   0  0  0  0  0  0  0  0  0  0  0  0
   -1.1271   -1.4817   -1.1117 C   0  0  0  0  0  0  0  0  0  0  0  0
   -1.0299   -2.3384   -0.4433 H   0  0  0  0  0  0  0  0  0  0  0  0
   -2.1540   -1.4220   -1.4738 H   0  0  0  0  0  0  0  0  0  0  0  0
   -0.1757   -1.6625   -2.3023 C   0  0  0  0  0  0  0  0  0  0  0  0
   -0.2602   -0.7883   -2.9519 H   0  0  0  0  0  0  0  0  0  0  0  0
    0.8474   -1.7230   -1.9238 H   0  0  0  0  0  0  0  0  0  0  0  0
   -0.4894   -2.8824   -3.0745 N   0  3  0  0  0  0  0  0  0  0  0  0
   -1.2313   -3.4622   -2.7214 H   0  0  0  0  0  0  0  0  0  0  0  0
    0.1115   -3.2818   -4.1829 C   0  0  0  0  0  0  0  0  0  0  0  0
    1.0848   -2.6058   -4.7260 N   0  0  0  0  0  0  0  0  0  0  0  0
    1.3854   -1.7534   -4.2874 H   0  0  0  0  0  0  0  0  0  0  0  0
    1.5303   -2.9233   -5.5671 H   0  0  0  0  0  0  0  0  0  0  0  0
   -0.2579   -4.3827   -4.7737 N   0  0  0  0  0  0  0  0  0  0  0  0
   -1.0044   -4.9381   -4.3925 H   0  0  0  0  0  0  0  0  0  0  0  0
    0.2006   -4.6821   -5.6143 H   0  0  0  0  0  0  0  0  0  0  0  0
   -1.6547    1.3413    1.4779 C   0  0  0  0  0  0  0  0  0  0  0  0
   -2.5654    1.9858    0.9716 O   0  0  0  0  0  0  0  0  0  0  0  0
   -0.8107    1.8504    2.3808 N   0  0  0  0  0  0  0  0  0  0  0  0
   -0.1136    1.2381    2.7719 H   0  0  0  0  0  0  0  0  0  0  0  0
   -0.8954    3.2155    2.9026 C   0  0  0  0  0  0  0  0  0  0  0  0
   -1.8299    3.3430    3.4532 H   0  0  0  0  0  0  0  0  0  0  0  0
   -0.0581    3.4194    3.5712 H   0  0  0  0  0  0  0  0  0  0  0  0
   -0.8804    3.9320    2.0784 H   0  0  0  0  0  0  0  0  0  0  0  0
  5  6  2  0  0  0  0
  5  7  1  0  0  0  0
  2  3  1  0  0  0  0
  2  4  1  0  0  0  0
  2  5  1  0  0  0  0
  1  2  1  0  0  0  0
 29 30  2  0  0  0  0
 29 31  1  0  0  0  0
 26 27  1  0  0  0  0
 26 28  1  0  0  0  0
 23 24  1  0  0  0  0
 23 25  1  0  0  0  0
 22 23  1  0  0  0  0
 22 26  1  0  0  0  0
 20 21  1  0  0  0  0
 20 22  2  0  0  0  0
 17 18  1  0  0  0  0
 17 19  1  0  0  0  0
 17 20  1  0  0  0  0
 14 15  1  0  0  0  0
 14 16  1  0  0  0  0
 14 17  1  0  0  0  0
 11 12  1  0  0  0  0
 11 13  1  0  0  0  0
 11 14  1  0  0  0  0
  9 10  1  0  0  0  0
  9 11  1  0  0  0  0
  9 29  1  0  0  0  0
  7  8  1  0  0  0  0
  7  9  1  0  0  0  0
 33 34  1  0  0  0  0
 33 35  1  0  0  0  0
 33 36  1  0  0  0  0
 31 32  1  0  0  0  0
 31 33  1  0  0  0  0
M  CHG  1  20   1
M  END
$$$$
default_name
  -OEChem-02102213163D

 36 35  0     1  0  0  0  0  0999 V2000
   -4.2256   -3.6731    1.8584 H   0  0  0  0  0  0  0  0  0  0  0  0
   -4.2396   -2.6781    1.4144 C   0  0  0  0  0  0  0  0  0  0  0  0
   -4.9506   -2.0521    1.9514 H   0  0  0  0  0  0  0  0  0  0  0  0
   -4.5266   -2.7521    0.3674 H   0  0  0  0  0  0  0  0  0  0  0  0
   -2.8576   -2.0761    1.5184 C   0  0  0  0  0  0  0  0  0  0  0  0
   -1.9456   -2.7051    2.0404 O   0  0  0  0  0  0  0  0  0  0  0  0
   -2.6926   -0.8481    1.0174 N   0  0  0  0  0  0  0  0  0  0  0  0
   -3.4926   -0.3971    0.5954 H   0  0  0  0  0  0  0  0  0  0  0  0
   -1.4216   -0.1071    1.0434 C   0  0  1  0  0  0  0  0  0  0  0  0
   -0.7579   -0.5878    1.7640 H   0  0  0  0  0  0  0  0  0  0  0  0
   -0.7791   -0.1912   -0.3557 C   0  0  0  0  0  0  0  0  0  0  0  0
   -1.1244    0.6578   -0.9491 H   0  0  0  0  0  0  0  0  0  0  0  0
    0.3059   -0.1158   -0.2553 H   0  0  0  0  0  0  0  0  0  0  0  0
   -1.1271   -1.4817   -1.1117 C   0  0  0  0  0  0  0  0  0  0  0  0
   -1.2905   -2.2930   -0.4009 H   0  0  0  0  0  0  0  0  0  0  0  0
   -2.0354   -1.3248   -1.6944 H   0  0  0  0  0  0  0  0  0  0  0  0
    0.0238   -1.8624   -2.0530 C   0  0  0  0  0  0  0  0  0  0  0  0
    0.1980   -1.0340   -2.7435 H   0  0  0  0  0  0  0  0  0  0  0  0
    0.9248   -2.0184   -1.4551 H   0  0  0  0  0  0  0  0  0  0  0  0
   -0.2781   -3.0883   -2.8203 N   0  3  0  0  0  0  0  0  0  0  0  0
   -1.1491   -3.5469   -2.6147 H   0  0  0  0  0  0  0  0  0  0  0  0
    0.4867   -3.6370   -3.7493 C   0  0  0  0  0  0  0  0  0  0  0  0
    1.6352   -3.1250   -4.0931 N   0  0  0  0  0  0  0  0  0  0  0  0
    1.9465   -2.2855   -3.6372 H   0  0  0  0  0  0  0  0  0  0  0  0
    2.2036   -3.5543   -4.7998 H   0  0  0  0  0  0  0  0  0  0  0  0
    0.1082   -4.7252   -4.3575 N   0  0  0  0  0  0  0  0  0  0  0  0
   -0.7700   -5.1570   -4.1267 H   0  0  0  0  0  0  0  0  0  0  0  0
    0.6914   -5.1382   -5.0617 H   0  0  0  0  0  0  0  0  0  0  0  0
   -1.6547    1.3413    1.4779 C   0  0  0  0  0  0  0  0  0  0  0  0
   -2.5654    1.9858    0.9716 O   0  0  0  0  0  0  0  0  0  0  0  0
   -0.8107    1.8504    2.3808 N   0  0  0  0  0  0  0  0  0  0  0  0
   -0.1136    1.2381    2.7719 H   0  0  0  0  0  0  0  0  0  0  0  0
   -0.8954    3.2155    2.9026 C   0  0  0  0  0  0  0  0  0  0  0  0
   -1.8299    3.3430    3.4532 H   0  0  0  0  0  0  0  0  0  0  0  0
   -0.0581    3.4194    3.5712 H   0  0  0  0  0  0  0  0  0  0  0  0
   -0.8804    3.9320    2.0784 H   0  0  0  0  0  0  0  0  0  0  0  0
  5  6  2  0  0  0  0
  5  7  1  0  0  0  0
  2  3  1  0  0  0  0
  2  4  1  0  0  0  0
  2  5  1  0  0  0  0
  1  2  1  0  0  0  0
 29 30  2  0  0  0  0
 29 31  1  0  0  0  0
 26 27  1  0  0  0  0
 26 28  1  0  0  0  0
 23 24  1  0  0  0  0
 23 25  1  0  0  0  0
 22 23  1  0  0  0  0
 22 26  1  0  0  0  0
 20 21  1  0  0  0  0
 20 22  2  0  0  0  0
 17 18  1  0  0  0  0
 17 19  1  0  0  0  0
 17 20  1  0  0  0  0
 14 15  1  0  0  0  0
 14 16  1  0  0  0  0
 14 17  1  0  0  0  0
 11 12  1  0  0  0  0
 11 13  1  0  0  0  0
 11 14  1  0  0  0  0
  9 10  1  0  0  0  0
  9 11  1  0  0  0  0
  9 29  1  0  0  0  0
  7  8  1  0  0  0  0
  7  9  1  0  0  0  0
 33 34  1  0  0  0  0
 33 35  1  0  0  0  0
 33 36  1  0  0  0  0
 31 32  1  0  0  0  0
 31 33  1  0  0  0  0
M  CHG  1  20   1
M  END
$$$$
default_name
  -OEChem-02102213163D

 36 35  0     1  0  0  0  0  0999 V2000
   -4.2256   -3.6731    1.8584 H   0  0  0  0  0  0  0  0  0  0  0  0
   -4.2396   -2.6781    1.4144 C   0  0  0  0  0  0  0  0  0  0  0  0
   -4.9506   -2.0521    1.9514 H   0  0  0  0  0  0  0  0  0  0  0  0
   -4.5266   -2.7521    0.3674 H   0  0  0  0  0  0  0  0  0  0  0  0
   -2.8576   -2.0761    1.5184 C   0  0  0  0  0  0  0  0  0  0  0  0
   -1.9456   -2.7051    2.0404 O   0  0  0  0  0  0  0  0  0  0  0  0
   -2.6926   -0.8481    1.0174 N   0  0  0  0  0  0  0  0  0  0  0  0
   -3.4926   -0.3971    0.5954 H   0  0  0  0  0  0  0  0  0  0  0  0
   -1.4216   -0.1071    1.0434 C   0  0  1  0  0  0  0  0  0  0  0  0
   -0.7579   -0.5878    1.7640 H   0  0  0  0  0  0  0  0  0  0  0  0
   -0.7791   -0.1912   -0.3557 C   0  0  0  0  0  0  0  0  0  0  0  0
   -1.1244    0.6578   -0.9491 H   0  0  0  0  0  0  0  0  0  0  0  0
    0.3059   -0.1158   -0.2553 H   0  0  0  0  0  0  0  0  0  0  0  0
   -1.1271   -1.4817   -1.1117 C   0  0  0  0  0  0  0  0  0  0  0  0
   -1.5458   -2.2134   -0.4193 H   0  0  0  0  0  0  0  0  0  0  0  0
   -1.8605   -1.2589   -1.8873 H   0  0  0  0  0  0  0  0  0  0  0  0
    0.1368   -2.0662   -1.7570 C   0  0  0  0  0  0  0  0  0  0  0  0
    0.5638   -1.3174   -2.4280 H   0  0  0  0  0  0  0  0  0  0  0  0
    0.8600   -2.2862   -0.9682 H   0  0  0  0  0  0  0  0  0  0  0  0
   -0.1555   -3.2992   -2.5167 N   0  3  0  0  0  0  0  0  0  0  0  0
   -1.1037   -3.6329   -2.4887 H   0  0  0  0  0  0  0  0  0  0  0  0
    0.7097   -4.0025   -3.2280 C   0  0  0  0  0  0  0  0  0  0  0  0
    1.9630   -3.6595   -3.3315 N   0  0  0  0  0  0  0  0  0  0  0  0
    2.2792   -2.8329   -2.8560 H   0  0  0  0  0  0  0  0  0  0  0  0
    2.6066   -4.2047   -3.8751 H   0  0  0  0  0  0  0  0  0  0  0  0
    0.3276   -5.0782   -3.8558 N   0  0  0  0  0  0  0  0  0  0  0  0
   -0.6293   -5.3827   -3.8061 H   0  0  0  0  0  0  0  0  0  0  0  0
    0.9872   -5.6088   -4.3943 H   0  0  0  0  0  0  0  0  0  0  0  0
   -1.6547    1.3413    1.4779 C   0  0  0  0  0  0  0  0  0  0  0  0
   -2.5654    1.9858    0.9716 O   0  0  0  0  0  0  0  0  0  0  0  0
   -0.8107    1.8504    2.3808 N   0  0  0  0  0  0  0  0  0  0  0  0
   -0.1136    1.2381    2.7719 H   0  0  0  0  0  0  0  0  0  0  0  0
   -0.8954    3.2155    2.9026 C   0  0  0  0  0  0  0  0  0  0  0  0
   -1.8299    3.3430    3.4532 H   0  0  0  0  0  0  0  0  0  0  0  0
   -0.0581    3.4194    3.5712 H   0  0  0  0  0  0  0  0  0  0  0  0
   -0.8804    3.9320    2.0784 H   0  0  0  0  0  0  0  0  0  0  0  0
  5  6  2  0  0  0  0
  5  7  1  0  0  0  0
  2  3  1  0  0  0  0
  2  4  1  0  0  0  0
  2  5  1  0  0  0  0
  1  2  1  0  0  0  0
 29 30  2  0  0  0  0
 29 31  1  0  0  0  0
 26 27  1  0  0  0  0
 26 28  1  0  0  0  0
 23 24  1  0  0  0  0
 23 25  1  0  0  0  0
 22 23  1  0  0  0  0
 22 26  1  0  0  0  0
 20 21  1  0  0  0  0
 20 22  2  0  0  0  0
 17 18  1  0  0  0  0
 17 19  1  0  0  0  0
 17 20  1  0  0  0  0
 14 15  1  0  0  0  0
 14 16  1  0  0  0  0
 14 17  1  0  0  0  0
 11 12  1  0  0  0  0
 11 13  1  0  0  0  0
 11 14  1  0  0  0  0
  9 10  1  0  0  0  0
  9 11  1  0  0  0  0
  9 29  1  0  0  0  0
  7  8  1  0  0  0  0
  7  9  1  0  0  0  0
 33 34  1  0  0  0  0
 33 35  1  0  0  0  0
 33 36  1  0  0  0  0
 31 32  1  0  0  0  0
 31 33  1  0  0  0  0
M  CHG  1  20   1
M  END
$$$$
default_name
  -OEChem-02102213163D

 36 35  0     1  0  0  0  0  0999 V2000
   -4.2256   -3.6731    1.8584 H   0  0  0  0  0  0  0  0  0  0  0  0
   -4.2396   -2.6781    1.4144 C   0  0  0  0  0  0  0  0  0  0  0  0
   -4.9506   -2.0521    1.9514 H   0  0  0  0  0  0  0  0  0  0  0  0
   -4.5266   -2.7521    0.3674 H   0  0  0  0  0  0  0  0  0  0  0  0
   -2.8576   -2.0761    1.5184 C   0  0  0  0  0  0  0  0  0  0  0  0
   -1.9456   -2.7051    2.0404 O   0  0  0  0  0  0  0  0  0  0  0  0
   -2.6926   -0.8481    1.0174 N   0  0  0  0  0  0  0  0  0  0  0  0
   -3.4926   -0.3971    0.5954 H   0  0  0  0  0  0  0  0  0  0  0  0
   -1.4216   -0.1071    1.0434 C   0  0  1  0  0  0  0  0  0  0  0  0
   -0.7579   -0.5878    1.7640 H   0  0  0  0  0  0  0  0  0  0  0  0
   -0.7791   -0.1912   -0.3557 C   0  0  0  0  0  0  0  0  0  0  0  0
   -1.1244    0.6578   -0.9491 H   0  0  0  0  0  0  0  0  0  0  0  0
    0.3059   -0.1158   -0.2553 H   0  0  0  0  0  0  0  0  0  0  0  0
   -1.1271   -1.4817   -1.1117 C   0  0  0  0  0  0  0  0  0  0  0  0
   -1.7782   -2.1051   -0.4972 H   0  0  0  0  0  0  0  0  0  0  0  0
   -1.6412   -1.2289   -2.0395 H   0  0  0  0  0  0  0  0  0  0  0  0
    0.1556   -2.2602   -1.4346 C   0  0  0  0  0  0  0  0  0  0  0  0
    0.8125   -1.6193   -2.0271 H   0  0  0  0  0  0  0  0  0  0  0  0
    0.6574   -2.5080   -0.4963 H   0  0  0  0  0  0  0  0  0  0  0  0
   -0.1300   -3.5007   -2.1845 N   0  3  0  0  0  0  0  0  0  0  0  0
   -1.0982   -3.7144   -2.3522 H   0  0  0  0  0  0  0  0  0  0  0  0
    0.7650   -4.3533   -2.6545 C   0  0  0  0  0  0  0  0  0  0  0  0
    2.0459   -4.1729   -2.4933 N   0  0  0  0  0  0  0  0  0  0  0  0
    2.3610   -3.3582   -1.9969 H   0  0  0  0  0  0  0  0  0  0  0  0
    2.7119   -4.8299   -2.8561 H   0  0  0  0  0  0  0  0  0  0  0  0
    0.3855   -5.4178   -3.3028 N   0  0  0  0  0  0  0  0  0  0  0  0
   -0.5920   -5.5999   -3.4525 H   0  0  0  0  0  0  0  0  0  0  0  0
    1.0677   -6.0620   -3.6578 H   0  0  0  0  0  0  0  0  0  0  0  0
   -1.6547    1.3413    1.4779 C   0  0  0  0  0  0  0  0  0  0  0  0
   -2.5654    1.9858    0.9716 O   0  0  0  0  0  0  0  0  0  0  0  0
   -0.8107    1.8504    2.3808 N   0  0  0  0  0  0  0  0  0  0  0  0
   -0.1136    1.2381    2.7719 H   0  0  0  0  0  0  0  0  0  0  0  0
   -0.8954    3.2155    2.9026 C   0  0  0  0  0  0  0  0  0  0  0  0
   -1.8299    3.3430    3.4532 H   0  0  0  0  0  0  0  0  0  0  0  0
   -0.0581    3.4194    3.5712 H   0  0  0  0  0  0  0  0  0  0  0  0
   -0.8804    3.9320    2.0784 H   0  0  0  0  0  0  0  0  0  0  0  0
  5  6  2  0  0  0  0
  5  7  1  0  0  0  0
  2  3  1  0  0  0  0
  2  4  1  0  0  0  0
  2  5  1  0  0  0  0
  1  2  1  0  0  0  0
 29 30  2  0  0  0  0
 29 31  1  0  0  0  0
 26 27  1  0  0  0  0
 26 28  1  0  0  0  0
 23 24  1  0  0  0  0
 23 25  1  0  0  0  0
 22 23  1  0  0  0  0
 22 26  1  0  0  0  0
 20 21  1  0  0  0  0
 20 22  2  0  0  0  0
 17 18  1  0  0  0  0
 17 19  1  0  0  0  0
 17 20  1  0  0  0  0
 14 15  1  0  0  0  0
 14 16  1  0  0  0  0
 14 17  1  0  0  0  0
 11 12  1  0  0  0  0
 11 13  1  0  0  0  0
 11 14  1  0  0  0  0
  9 10  1  0  0  0  0
  9 11  1  0  0  0  0
  9 29  1  0  0  0  0
  7  8  1  0  0  0  0
  7  9  1  0  0  0  0
 33 34  1  0  0  0  0
 33 35  1  0  0  0  0
 33 36  1  0  0  0  0
 31 32  1  0  0  0  0
 31 33  1  0  0  0  0
M  CHG  1  20   1
M  END
$$$$
default_name
  -OEChem-02102213163D

 36 35  0     1  0  0  0  0  0999 V2000
   -4.2256   -3.6731    1.8584 H   0  0  0  0  0  0  0  0  0  0  0  0
   -4.2396   -2.6781    1.4144 C   0  0  0  0  0  0  0  0  0  0  0  0
   -4.9506   -2.0521    1.9514 H   0  0  0  0  0  0  0  0  0  0  0  0
   -4.5266   -2.7521    0.3674 H   0  0  0  0  0  0  0  0  0  0  0  0
   -2.8576   -2.0761    1.5184 C   0  0  0  0  0  0  0  0  0  0  0  0
   -1.9456   -2.7051    2.0404 O   0  0  0  0  0  0  0  0  0  0  0  0
   -2.6926   -0.8481    1.0174 N   0  0  0  0  0  0  0  0  0  0  0  0
   -3.4926   -0.3971    0.5954 H   0  0  0  0  0  0  0  0  0  0  0  0
   -1.4216   -0.1071    1.0434 C   0  0  1  0  0  0  0  0  0  0  0  0
   -0.7579   -0.5878    1.7640 H   0  0  0  0  0  0  0  0  0  0  0  0
   -0.7791   -0.1912   -0.3557 C   0  0  0  0  0  0  0  0  0  0  0  0
   -1.1244    0.6578   -0.9491 H   0  0  0  0  0  0  0  0  0  0  0  0
    0.3059   -0.1158   -0.2553 H   0  0  0  0  0  0  0  0  0  0  0  0
   -1.1271   -1.4817   -1.1117 C   0  0  0  0  0  0  0  0  0  0  0  0
   -1.9720   -1.9754   -0.6294 H   0  0  0  0  0  0  0  0  0  0  0  0
   -1.3924   -1.2367   -2.1406 H   0  0  0  0  0  0  0  0  0  0  0  0
    0.0789   -2.4310   -1.1077 C   0  0  0  0  0  0  0  0  0  0  0  0
    0.9270   -1.9190   -1.5681 H   0  0  0  0  0  0  0  0  0  0  0  0
    0.3308   -2.6687   -0.0715 H   0  0  0  0  0  0  0  0  0  0  0  0
   -0.2033   -3.6791   -1.8461 N   0  3  0  0  0  0  0  0  0  0  0  0
   -1.1330   -3.7858   -2.2143 H   0  0  0  0  0  0  0  0  0  0  0  0
    0.6491   -4.6657   -2.0680 C   0  0  0  0  0  0  0  0  0  0  0  0
    1.8783   -4.6302   -1.6355 N   0  0  0  0  0  0  0  0  0  0  0  0
    2.1861   -3.8256   -1.1184 H   0  0  0  0  0  0  0  0  0  0  0  0
    2.5122   -5.3876   -1.8123 H   0  0  0  0  0  0  0  0  0  0  0  0
    0.2778   -5.7207   -2.7361 N   0  0  0  0  0  0  0  0  0  0  0  0
   -0.6604   -5.7937   -3.0902 H   0  0  0  0  0  0  0  0  0  0  0  0
    0.9276   -6.4668   -2.9022 H   0  0  0  0  0  0  0  0  0  0  0  0
   -1.6547    1.3413    1.4779 C   0  0  0  0  0  0  0  0  0  0  0  0
   -2.5654    1.9858    0.9716 O   0  0  0  0  0  0  0  0  0  0  0  0
   -0.8107    1.8504    2.3808 N   0  0  0  0  0  0  0  0  0  0  0  0
   -0.1136    1.2381    2.7719 H   0  0  0  0  0  0  0  0  0  0  0  0
   -0.8954    3.2155    2.9026 C   0  0  0  0  0  0  0  0  0  0  0  0
   -1.8299    3.3430    3.4532 H   0  0  0  0  0  0  0  0  0  0  0  0
   -0.0581    3.4194    3.5712 H   0  0  0  0  0  0  0  0  0  0  0  0
   -0.8804    3.9320    2.0784 H   0  0  0  0  0  0  0  0  0  0  0  0
  5  6  2  0  0  0  0
  5  7  1  0  0  0  0
  2  3  1  0  0  0  0
  2  4  1  0  0  0  0
  2  5  1  0  0  0  0
  1  2  1  0  0  0  0
 29 30  2  0  0  0  0
 29 31  1  0  0  0  0
 26 27  1  0  0  0  0
 26 28  1  0  0  0  0
 23 24  1  0  0  0  0
 23 25  1  0  0  0  0
 22 23  1  0  0  0  0
 22 26  1  0  0  0  0
 20 21  1  0  0  0  0
 20 22  2  0  0  0  0
 17 18  1  0  0  0  0
 17 19  1  0  0  0  0
 17 20  1  0  0  0  0
 14 15  1  0  0  0  0
 14 16  1  0  0  0  0
 14 17  1  0  0  0  0
 11 12  1  0  0  0  0
 11 13  1  0  0  0  0
 11 14  1  0  0  0  0
  9 10  1  0  0  0  0
  9 11  1  0  0  0  0
  9 29  1  0  0  0  0
  7  8  1  0  0  0  0
  7  9  1  0  0  0  0
 33 34  1  0  0  0  0
 33 35  1  0  0  0  0
 33 36  1  0  0  0  0
 31 32  1  0  0  0  0
 31 33  1  0  0  0  0
M  CHG  1  20   1
M  END
$$$$
default_name
  -OEChem-02102213163D

 36 35  0     1  0  0  0  0  0999 V2000
   -4.2256   -3.6731    1.8584 H   0  0  0  0  0  0  0  0  0  0  0  0
   -4.2396   -2.6781    1.4144 C   0  0  0  0  0  0  0  0  0  0  0  0
   -4.9506   -2.0521    1.9514 H   0  0  0  0  0  0  0  0  0  0  0  0
   -4.5266   -2.7521    0.3674 H   0  0  0  0  0  0  0  0  0  0  0  0
   -2.8576   -2.0761    1.5184 C   0  0  0  0  0  0  0  0  0  0  0  0
   -1.9456   -2.7051    2.0404 O   0  0  0  0  0  0  0  0  0  0  0  0
   -2.6926   -0.8481    1.0174 N   0  0  0  0  0  0  0  0  0  0  0  0
   -3.4926   -0.3971    0.5954 H   0  0  0  0  0  0  0  0  0  0  0  0
   -1.4216   -0.1071    1.0434 C   0  0  1  0  0  0  0  0  0  0  0  0
   -0.7579   -0.5878    1.7640 H   0  0  0  0  0  0  0  0  0  0  0  0
   -0.7791   -0.1912   -0.3557 C   0  0  0  0  0  0  0  0  0  0  0  0
   -1.1244    0.6578   -0.9491 H   0  0  0  0  0  0  0  0  0  0  0  0
    0.3059   -0.1158   -0.2553 H   0  0  0  0  0  0  0  0  0  0  0  0
   -1.1271   -1.4817   -1.1117 C   0  0  0  0  0  0  0  0  0  0  0  0
   -2.1138   -1.8332   -0.8068 H   0  0  0  0  0  0  0  0  0  0  0  0
   -1.1311   -1.2819   -2.1837 H   0  0  0  0  0  0  0  0  0  0  0  0
   -0.0881   -2.5670   -0.7986 C   0  0  0  0  0  0  0  0  0  0  0  0
    0.8996   -2.1963   -1.0822 H   0  0  0  0  0  0  0  0  0  0  0  0
   -0.0976   -2.7575    0.2772 H   0  0  0  0  0  0  0  0  0  0  0  0
   -0.3704   -3.8223   -1.5248 N   0  3  0  0  0  0  0  0  0  0  0  0
   -1.2057   -3.8422   -2.0845 H   0  0  0  0  0  0  0  0  0  0  0  0
    0.3697   -4.9182   -1.5084 C   0  0  0  0  0  0  0  0  0  0  0  0
    1.4715   -5.0002   -0.8166 N   0  0  0  0  0  0  0  0  0  0  0  0
    1.7666   -4.2033   -0.2806 H   0  0  0  0  0  0  0  0  0  0  0  0
    2.0213   -5.8396   -0.8147 H   0  0  0  0  0  0  0  0  0  0  0  0
    0.0119   -5.9663   -2.1944 N   0  0  0  0  0  0  0  0  0  0  0  0
   -0.8301   -5.9509   -2.7437 H   0  0  0  0  0  0  0  0  0  0  0  0
    0.5763   -6.7957   -2.1792 H   0  0  0  0  0  0  0  0  0  0  0  0
   -1.6547    1.3413    1.4779 C   0  0  0  0  0  0  0  0  0  0  0  0
   -2.5654    1.9858    0.9716 O   0  0  0  0  0  0  0  0  0  0  0  0
   -0.8107    1.8504    2.3808 N   0  0  0  0  0  0  0  0  0  0  0  0
   -0.1136    1.2381    2.7719 H   0  0  0  0  0  0  0  0  0  0  0  0
   -0.8954    3.2155    2.9026 C   0  0  0  0  0  0  0  0  0  0  0  0
   -1.8299    3.3430    3.4532 H   0  0  0  0  0  0  0  0  0  0  0  0
   -0.0581    3.4194    3.5712 H   0  0  0  0  0  0  0  0  0  0  0  0
   -0.8804    3.9320    2.0784 H   0  0  0  0  0  0  0  0  0  0  0  0
  5  6  2  0  0  0  0
  5  7  1  0  0  0  0
  2  3  1  0  0  0  0
  2  4  1  0  0  0  0
  2  5  1  0  0  0  0
  1  2  1  0  0  0  0
 29 30  2  0  0  0  0
 29 31  1  0  0  0  0
 26 27  1  0  0  0  0
 26 28  1  0  0  0  0
 23 24  1  0  0  0  0
 23 25  1  0  0  0  0
 22 23  1  0  0  0  0
 22 26  1  0  0  0  0
 20 21  1  0  0  0  0
 20 22  2  0  0  0  0
 17 18  1  0  0  0  0
 17 19  1  0  0  0  0
 17 20  1  0  0  0  0
 14 15  1  0  0  0  0
 14 16  1  0  0  0  0
 14 17  1  0  0  0  0
 11 12  1  0  0  0  0
 11 13  1  0  0  0  0
 11 14  1  0  0  0  0
  9 10  1  0  0  0  0
  9 11  1  0  0  0  0
  9 29  1  0  0  0  0
  7  8  1  0  0  0  0
  7  9  1  0  0  0  0
 33 34  1  0  0  0  0
 33 35  1  0  0  0  0
 33 36  1  0  0  0  0
 31 32  1  0  0  0  0
 31 33  1  0  0  0  0
M  CHG  1  20   1
M  END
$$$$
default_name
  -OEChem-02102213163D

 36 35  0     1  0  0  0  0  0999 V2000
   -4.2256   -3.6731    1.8584 H   0  0  0  0  0  0  0  0  0  0  0  0
   -4.2396   -2.6781    1.4144 C   0  0  0  0  0  0  0  0  0  0  0  0
   -4.9506   -2.0521    1.9514 H   0  0  0  0  0  0  0  0  0  0  0  0
   -4.5266   -2.7521    0.3674 H   0  0  0  0  0  0  0  0  0  0  0  0
   -2.8576   -2.0761    1.5184 C   0  0  0  0  0  0  0  0  0  0  0  0
   -1.9456   -2.7051    2.0404 O   0  0  0  0  0  0  0  0  0  0  0  0
   -2.6926   -0.8481    1.0174 N   0  0  0  0  0  0  0  0  0  0  0  0
   -3.4926   -0.3971    0.5954 H   0  0  0  0  0  0  0  0  0  0  0  0
   -1.4216   -0.1071    1.0434 C   0  0  1  0  0  0  0  0  0  0  0  0
   -0.7579   -0.5878    1.7640 H   0  0  0  0  0  0  0  0  0  0  0  0
   -0.7791   -0.1912   -0.3557 C   0  0  0  0  0  0  0  0  0  0  0  0
   -1.1244    0.6578   -0.9491 H   0  0  0  0  0  0  0  0  0  0  0  0
    0.3059   -0.1158   -0.2553 H   0  0  0  0  0  0  0  0  0  0  0  0
   -1.1271   -1.4817   -1.1117 C   0  0  0  0  0  0  0  0  0  0  0  0
   -2.1941   -1.6882   -1.0174 H   0  0  0  0  0  0  0  0  0  0  0  0
   -0.8751   -1.3615   -2.1658 H   0  0  0  0  0  0  0  0  0  0  0  0
   -0.3339   -2.6590   -0.5284 C   0  0  0  0  0  0  0  0  0  0  0  0
    0.7321   -2.4321   -0.6026 H   0  0  0  0  0  0  0  0  0  0  0  0
   -0.5985   -2.7682    0.5260 H   0  0  0  0  0  0  0  0  0  0  0  0
   -0.6200   -3.9204   -1.2424 N   0  3  0  0  0  0  0  0  0  0  0  0
   -1.3114   -3.8799   -1.9716 H   0  0  0  0  0  0  0  0  0  0  0  0
   -0.0541   -5.0936   -1.0138 C   0  0  0  0  0  0  0  0  0  0  0  0
    0.8533   -5.2578   -0.0923 N   0  0  0  0  0  0  0  0  0  0  0  0
    1.1310   -4.4656    0.4597 H   0  0  0  0  0  0  0  0  0  0  0  0
    1.2725   -6.1551    0.0686 H   0  0  0  0  0  0  0  0  0  0  0  0
   -0.3940   -6.1380   -1.7146 N   0  0  0  0  0  0  0  0  0  0  0  0
   -1.0893   -6.0608   -2.4367 H   0  0  0  0  0  0  0  0  0  0  0  0
    0.0378   -7.0261   -1.5379 H   0  0  0  0  0  0  0  0  0  0  0  0
   -1.6547    1.3413    1.4779 C   0  0  0  0  0  0  0  0  0  0  0  0
   -2.5654    1.9858    0.9716 O   0  0  0  0  0  0  0  0  0  0  0  0
   -0.8107    1.8504    2.3808 N   0  0  0  0  0  0  0  0  0  0  0  0
   -0.1136    1.2381    2.7719 H   0  0  0  0  0  0  0  0  0  0  0  0
   -0.8954    3.2155    2.9026 C   0  0  0  0  0  0  0  0  0  0  0  0
   -1.8299    3.3430    3.4532 H   0  0  0  0  0  0  0  0  0  0  0  0
   -0.0581    3.4194    3.5712 H   0  0  0  0  0  0  0  0  0  0  0  0
   -0.8804    3.9320    2.0784 H   0  0  0  0  0  0  0  0  0  0  0  0
  5  6  2  0  0  0  0
  5  7  1  0  0  0  0
  2  3  1  0  0  0  0
  2  4  1  0  0  0  0
  2  5  1  0  0  0  0
  1  2  1  0  0  0  0
 29 30  2  0  0  0  0
 29 31  1  0  0  0  0
 26 27  1  0  0  0  0
 26 28  1  0  0  0  0
 23 24  1  0  0  0  0
 23 25  1  0  0  0  0
 22 23  1  0  0  0  0
 22 26  1  0  0  0  0
 20 21  1  0  0  0  0
 20 22  2  0  0  0  0
 17 18  1  0  0  0  0
 17 19  1  0  0  0  0
 17 20  1  0  0  0  0
 14 15  1  0  0  0  0
 14 16  1  0  0  0  0
 14 17  1  0  0  0  0
 11 12  1  0  0  0  0
 11 13  1  0  0  0  0
 11 14  1  0  0  0  0
  9 10  1  0  0  0  0
  9 11  1  0  0  0  0
  9 29  1  0  0  0  0
  7  8  1  0  0  0  0
  7  9  1  0  0  0  0
 33 34  1  0  0  0  0
 33 35  1  0  0  0  0
 33 36  1  0  0  0  0
 31 32  1  0  0  0  0
 31 33  1  0  0  0  0
M  CHG  1  20   1
M  END
$$$$
default_name
  -OEChem-02102213163D

 36 35  0     1  0  0  0  0  0999 V2000
   -4.2256   -3.6731    1.8584 H   0  0  0  0  0  0  0  0  0  0  0  0
   -4.2396   -2.6781    1.4144 C   0  0  0  0  0  0  0  0  0  0  0  0
   -4.9506   -2.0521    1.9514 H   0  0  0  0  0  0  0  0  0  0  0  0
   -4.5266   -2.7521    0.3674 H   0  0  0  0  0  0  0  0  0  0  0  0
   -2.8576   -2.0761    1.5184 C   0  0  0  0  0  0  0  0  0  0  0  0
   -1.9456   -2.7051    2.0404 O   0  0  0  0  0  0  0  0  0  0  0  0
   -2.6926   -0.8481    1.0174 N   0  0  0  0  0  0  0  0  0  0  0  0
   -3.4926   -0.3971    0.5954 H   0  0  0  0  0  0  0  0  0  0  0  0
   -1.4216   -0.1071    1.0434 C   0  0  1  0  0  0  0  0  0  0  0  0
   -0.7579   -0.5878    1.7640 H   0  0  0  0  0  0  0  0  0  0  0  0
   -0.7791   -0.1912   -0.3557 C   0  0  0  0  0  0  0  0  0  0  0  0
   -1.1244    0.6578   -0.9491 H   0  0  0  0  0  0  0  0  0  0  0  0
    0.3059   -0.1158   -0.2553 H   0  0  0  0  0  0  0  0  0  0  0  0
   -1.1271   -1.4817   -1.1117 C   0  0  0  0  0  0  0  0  0  0  0  0
   -2.2074   -1.5503   -1.2468 H   0  0  0  0  0  0  0  0  0  0  0  0
   -0.6419   -1.4698   -2.0881 H   0  0  0  0  0  0  0  0  0  0  0  0
   -0.6418   -2.7007   -0.3154 C   0  0  0  0  0  0  0  0  0  0  0  0
    0.4360   -2.6104   -0.1619 H   0  0  0  0  0  0  0  0  0  0  0  0
   -1.1379   -2.7001    0.6580 H   0  0  0  0  0  0  0  0  0  0  0  0
   -0.9350   -3.9668   -1.0182 N   0  3  0  0  0  0  0  0  0  0  0  0
   -1.4428   -3.8961   -1.8833 H   0  0  0  0  0  0  0  0  0  0  0  0
   -0.5933   -5.1801   -0.6179 C   0  0  0  0  0  0  0  0  0  0  0  0
    0.0658   -5.3853    0.4879 N   0  0  0  0  0  0  0  0  0  0  0  0
    0.3227   -4.5945    1.0518 H   0  0  0  0  0  0  0  0  0  0  0  0
    0.3169   -6.3126    0.7774 H   0  0  0  0  0  0  0  0  0  0  0  0
   -0.9124   -6.2239   -1.3293 N   0  0  0  0  0  0  0  0  0  0  0  0
   -1.4206   -6.1160   -2.1902 H   0  0  0  0  0  0  0  0  0  0  0  0
   -0.6512   -7.1425   -1.0220 H   0  0  0  0  0  0  0  0  0  0  0  0
   -1.6547    1.3413    1.4779 C   0  0  0  0  0  0  0  0  0  0  0  0
   -2.5654    1.9858    0.9716 O   0  0  0  0  0  0  0  0  0  0  0  0
   -0.8107    1.8504    2.3808 N   0  0  0  0  0  0  0  0  0  0  0  0
   -0.1136    1.2381    2.7719 H   0  0  0  0  0  0  0  0  0  0  0  0
   -0.8954    3.2155    2.9026 C   0  0  0  0  0  0  0  0  0  0  0  0
   -1.8299    3.3430    3.4532 H   0  0  0  0  0  0  0  0  0  0  0  0
   -0.0581    3.4194    3.5712 H   0  0  0  0  0  0  0  0  0  0  0  0
   -0.8804    3.9320    2.0784 H   0  0  0  0  0  0  0  0  0  0  0  0
  5  6  2  0  0  0  0
  5  7  1  0  0  0  0
  2  3  1  0  0  0  0
  2  4  1  0  0  0  0
  2  5  1  0  0  0  0
  1  2  1  0  0  0  0
 29 30  2  0  0  0  0
 29 31  1  0  0  0  0
 26 27  1  0  0  0  0
 26 28  1  0  0  0  0
 23 24  1  0  0  0  0
 23 25  1  0  0  0  0
 22 23  1  0  0  0  0
 22 26  1  0  0  0  0
 20 21  1  0  0  0  0
 20 22  2  0  0  0  0
 17 18  1  0  0  0  0
 17 19  1  0  0  0  0
 17 20  1  0  0  0  0
 14 15  1  0  0  0  0
 14 16  1  0  0  0  0
 14 17  1  0  0  0  0
 11 12  1  0  0  0  0
 11 13  1  0  0  0  0
 11 14  1  0  0  0  0
  9 10  1  0  0  0  0
  9 11  1  0  0  0  0
  9 29  1  0  0  0  0
  7  8  1  0  0  0  0
  7  9  1  0  0  0  0
 33 34  1  0  0  0  0
 33 35  1  0  0  0  0
 33 36  1  0  0  0  0
 31 32  1  0  0  0  0
 31 33  1  0  0  0  0
M  CHG  1  20   1
M  END
$$$$
default_name
  -OEChem-02102213163D

 36 35  0     1  0  0  0  0  0999 V2000
   -4.2256   -3.6731    1.8584 H   0  0  0  0  0  0  0  0  0  0  0  0
   -4.2396   -2.6781    1.4144 C   0  0  0  0  0  0  0  0  0  0  0  0
   -4.9506   -2.0521    1.9514 H   0  0  0  0  0  0  0  0  0  0  0  0
   -4.5266   -2.7521    0.3674 H   0  0  0  0  0  0  0  0  0  0  0  0
   -2.8576   -2.0761    1.5184 C   0  0  0  0  0  0  0  0  0  0  0  0
   -1.9456   -2.7051    2.0404 O   0  0  0  0  0  0  0  0  0  0  0  0
   -2.6926   -0.8481    1.0174 N   0  0  0  0  0  0  0  0  0  0  0  0
   -3.4926   -0.3971    0.5954 H   0  0  0  0  0  0  0  0  0  0  0  0
   -1.4216   -0.1071    1.0434 C   0  0  1  0  0  0  0  0  0  0  0  0
   -0.7579   -0.5878    1.7640 H   0  0  0  0  0  0  0  0  0  0  0  0
   -0.7791   -0.1912   -0.3557 C   0  0  0  0  0  0  0  0  0  0  0  0
   -1.1244    0.6578   -0.9491 H   0  0  0  0  0  0  0  0  0  0  0  0
    0.3059   -0.1158   -0.2553 H   0  0  0  0  0  0  0  0  0  0  0  0
   -1.1271   -1.4817   -1.1117 C   0  0  0  0  0  0  0  0  0  0  0  0
   -2.1528   -1.4288   -1.4793 H   0  0  0  0  0  0  0  0  0  0  0  0
   -0.4473   -1.5996   -1.9561 H   0  0  0  0  0  0  0  0  0  0  0  0
   -0.9909   -2.6893   -0.1743 C   0  0  0  0  0  0  0  0  0  0  0  0
    0.0314   -2.7190    0.2098 H   0  0  0  0  0  0  0  0  0  0  0  0
   -1.6789   -2.5579    0.6642 H   0  0  0  0  0  0  0  0  0  0  0  0
   -1.2940   -3.9584   -0.8673 N   0  3  0  0  0  0  0  0  0  0  0  0
   -1.5909   -3.8900   -1.8257 H   0  0  0  0  0  0  0  0  0  0  0  0
   -1.2114   -5.1717   -0.3477 C   0  0  0  0  0  0  0  0  0  0  0  0
   -0.8373   -5.3741    0.8845 N   0  0  0  0  0  0  0  0  0  0  0  0
   -0.6034   -4.5812    1.4555 H   0  0  0  0  0  0  0  0  0  0  0  0
   -0.7803   -6.3015    1.2634 H   0  0  0  0  0  0  0  0  0  0  0  0
   -1.5078   -6.2182   -1.0649 N   0  0  0  0  0  0  0  0  0  0  0  0
   -1.8011   -6.1126   -2.0208 H   0  0  0  0  0  0  0  0  0  0  0  0
   -1.4437   -7.1369   -0.6668 H   0  0  0  0  0  0  0  0  0  0  0  0
   -1.6547    1.3413    1.4779 C   0  0  0  0  0  0  0  0  0  0  0  0
   -2.5654    1.9858    0.9716 O   0  0  0  0  0  0  0  0  0  0  0  0
   -0.8107    1.8504    2.3808 N   0  0  0  0  0  0  0  0  0  0  0  0
   -0.1136    1.2381    2.7719 H   0  0  0  0  0  0  0  0  0  0  0  0
   -0.8954    3.2155    2.9026 C   0  0  0  0  0  0  0  0  0  0  0  0
   -1.8299    3.3430    3.4532 H   0  0  0  0  0  0  0  0  0  0  0  0
   -0.0581    3.4194    3.5712 H   0  0  0  0  0  0  0  0  0  0  0  0
   -0.8804    3.9320    2.0784 H   0  0  0  0  0  0  0  0  0  0  0  0
  5  6  2  0  0  0  0
  5  7  1  0  0  0  0
  2  3  1  0  0  0  0
  2  4  1  0  0  0  0
  2  5  1  0  0  0  0
  1  2  1  0  0  0  0
 29 30  2  0  0  0  0
 29 31  1  0  0  0  0
 26 27  1  0  0  0  0
 26 28  1  0  0  0  0
 23 24  1  0  0  0  0
 23 25  1  0  0  0  0
 22 23  1  0  0  0  0
 22 26  1  0  0  0  0
 20 21  1  0  0  0  0
 20 22  2  0  0  0  0
 17 18  1  0  0  0  0
 17 19  1  0  0  0  0
 17 20  1  0  0  0  0
 14 15  1  0  0  0  0
 14 16  1  0  0  0  0
 14 17  1  0  0  0  0
 11 12  1  0  0  0  0
 11 13  1  0  0  0  0
 11 14  1  0  0  0  0
  9 10  1  0  0  0  0
  9 11  1  0  0  0  0
  9 29  1  0  0  0  0
  7  8  1  0  0  0  0
  7  9  1  0  0  0  0
 33 34  1  0  0  0  0
 33 35  1  0  0  0  0
 33 36  1  0  0  0  0
 31 32  1  0  0  0  0
 31 33  1  0  0  0  0
M  CHG  1  20   1
M  END
$$$$
default_name
  -OEChem-02102213163D

 36 35  0     1  0  0  0  0  0999 V2000
   -4.2256   -3.6731    1.8584 H   0  0  0  0  0  0  0  0  0  0  0  0
   -4.2396   -2.6781    1.4144 C   0  0  0  0  0  0  0  0  0  0  0  0
   -4.9506   -2.0521    1.9514 H   0  0  0  0  0  0  0  0  0  0  0  0
   -4.5266   -2.7521    0.3674 H   0  0  0  0  0  0  0  0  0  0  0  0
   -2.8576   -2.0761    1.5184 C   0  0  0  0  0  0  0  0  0  0  0  0
   -1.9456   -2.7051    2.0404 O   0  0  0  0  0  0  0  0  0  0  0  0
   -2.6926   -0.8481    1.0174 N   0  0  0  0  0  0  0  0  0  0  0  0
   -3.4926   -0.3971    0.5954 H   0  0  0  0  0  0  0  0  0  0  0  0
   -1.4216   -0.1071    1.0434 C   0  0  1  0  0  0  0  0  0  0  0  0
   -0.7579   -0.5878    1.7640 H   0  0  0  0  0  0  0  0  0  0  0  0
   -0.7791   -0.1912   -0.3557 C   0  0  0  0  0  0  0  0  0  0  0  0
   -1.1244    0.6578   -0.9491 H   0  0  0  0  0  0  0  0  0  0  0  0
    0.3059   -0.1158   -0.2553 H   0  0  0  0  0  0  0  0  0  0  0  0
   -1.1271   -1.4817   -1.1117 C   0  0  0  0  0  0  0  0  0  0  0  0
   -2.0340   -1.3320   -1.6992 H   0  0  0  0  0  0  0  0  0  0  0  0
   -0.3046   -1.7421   -1.7786 H   0  0  0  0  0  0  0  0  0  0  0  0
   -1.3573   -2.6255   -0.1145 C   0  0  0  0  0  0  0  0  0  0  0  0
   -0.4542   -2.7506    0.4872 H   0  0  0  0  0  0  0  0  0  0  0  0
   -2.1847   -2.3512    0.5442 H   0  0  0  0  0  0  0  0  0  0  0  0
   -1.6724   -3.8957   -0.8002 N   0  3  0  0  0  0  0  0  0  0  0  0
   -1.7458   -3.8617   -1.8026 H   0  0  0  0  0  0  0  0  0  0  0  0
   -1.8660   -5.0690   -0.2217 C   0  0  0  0  0  0  0  0  0  0  0  0
   -1.7945   -5.2250    1.0705 N   0  0  0  0  0  0  0  0  0  0  0  0
   -1.5840   -4.4268    1.6432 H   0  0  0  0  0  0  0  0  0  0  0  0
   -1.9445   -6.1224    1.4936 H   0  0  0  0  0  0  0  0  0  0  0  0
   -2.1397   -6.1214   -0.9393 N   0  0  0  0  0  0  0  0  0  0  0  0
   -2.2051   -6.0508   -1.9402 H   0  0  0  0  0  0  0  0  0  0  0  0
   -2.2858   -7.0097   -0.4964 H   0  0  0  0  0  0  0  0  0  0  0  0
   -1.6547    1.3413    1.4779 C   0  0  0  0  0  0  0  0  0  0  0  0
   -2.5654    1.9858    0.9716 O   0  0  0  0  0  0  0  0  0  0  0  0
   -0.8107    1.8504    2.3808 N   0  0  0  0  0  0  0  0  0  0  0  0
   -0.1136    1.2381    2.7719 H   0  0  0  0  0  0  0  0  0  0  0  0
   -0.8954    3.2155    2.9026 C   0  0  0  0  0  0  0  0  0  0  0  0
   -1.8299    3.3430    3.4532 H   0  0  0  0  0  0  0  0  0  0  0  0
   -0.0581    3.4194    3.5712 H   0  0  0  0  0  0  0  0  0  0  0  0
   -0.8804    3.9320    2.0784 H   0  0  0  0  0  0  0  0  0  0  0  0
  5  6  2  0  0  0  0
  5  7  1  0  0  0  0
  2  3  1  0  0  0  0
  2  4  1  0  0  0  0
  2  5  1  0  0  0  0
  1  2  1  0  0  0  0
 29 30  2  0  0  0  0
 29 31  1  0  0  0  0
 26 27  1  0  0  0  0
 26 28  1  0  0  0  0
 23 24  1  0  0  0  0
 23 25  1  0  0  0  0
 22 23  1  0  0  0  0
 22 26  1  0  0  0  0
 20 21  1  0  0  0  0
 20 22  2  0  0  0  0
 17 18  1  0  0  0  0
 17 19  1  0  0  0  0
 17 20  1  0  0  0  0
 14 15  1  0  0  0  0
 14 16  1  0  0  0  0
 14 17  1  0  0  0  0
 11 12  1  0  0  0  0
 11 13  1  0  0  0  0
 11 14  1  0  0  0  0
  9 10  1  0  0  0  0
  9 11  1  0  0  0  0
  9 29  1  0  0  0  0
  7  8  1  0  0  0  0
  7  9  1  0  0  0  0
 33 34  1  0  0  0  0
 33 35  1  0  0  0  0
 33 36  1  0  0  0  0
 31 32  1  0  0  0  0
 31 33  1  0  0  0  0
M  CHG  1  20   1
M  END
$$$$
default_name
  -OEChem-02102213163D

 36 35  0     1  0  0  0  0  0999 V2000
   -4.2256   -3.6731    1.8584 H   0  0  0  0  0  0  0  0  0  0  0  0
   -4.2396   -2.6781    1.4144 C   0  0  0  0  0  0  0  0  0  0  0  0
   -4.9506   -2.0521    1.9514 H   0  0  0  0  0  0  0  0  0  0  0  0
   -4.5266   -2.7521    0.3674 H   0  0  0  0  0  0  0  0  0  0  0  0
   -2.8576   -2.0761    1.5184 C   0  0  0  0  0  0  0  0  0  0  0  0
   -1.9456   -2.7051    2.0404 O   0  0  0  0  0  0  0  0  0  0  0  0
   -2.6926   -0.8481    1.0174 N   0  0  0  0  0  0  0  0  0  0  0  0
   -3.4926   -0.3971    0.5954 H   0  0  0  0  0  0  0  0  0  0  0  0
   -1.4216   -0.1071    1.0434 C   0  0  1  0  0  0  0  0  0  0  0  0
   -0.7579   -0.5878    1.7640 H   0  0  0  0  0  0  0  0  0  0  0  0
   -0.7791   -0.1912   -0.3557 C   0  0  0  0  0  0  0  0  0  0  0  0
   -1.1244    0.6578   -0.9491 H   0  0  0  0  0  0  0  0  0  0  0  0
    0.3059   -0.1158   -0.2553 H   0  0  0  0  0  0  0  0  0  0  0  0
   -1.1271   -1.4817   -1.1117 C   0  0  0  0  0  0  0  0  0  0  0  0
   -1.8591   -1.2666   -1.8914 H   0  0  0  0  0  0  0  0  0  0  0  0
   -0.2235   -1.8875   -1.5677 H   0  0  0  0  0  0  0  0  0  0  0  0
   -1.7162   -2.5137   -0.1403 C   0  0  0  0  0  0  0  0  0  0  0  0
   -0.9875   -2.7029    0.6514 H   0  0  0  0  0  0  0  0  0  0  0  0
   -2.6208   -2.0941    0.3062 H   0  0  0  0  0  0  0  0  0  0  0  0
   -2.0446   -3.7829   -0.8214 N   0  3  0  0  0  0  0  0  0  0  0  0
   -1.8969   -3.8133   -1.8157 H   0  0  0  0  0  0  0  0  0  0  0  0
   -2.5127   -4.8791   -0.2484 C   0  0  0  0  0  0  0  0  0  0  0  0
   -2.7405   -4.9481    1.0332 N   0  0  0  0  0  0  0  0  0  0  0  0
   -2.5523   -4.1417    1.6022 H   0  0  0  0  0  0  0  0  0  0  0  0
   -3.0963   -5.7876    1.4522 H   0  0  0  0  0  0  0  0  0  0  0  0
   -2.7651   -5.9400   -0.9612 N   0  0  0  0  0  0  0  0  0  0  0  0
   -2.6051   -5.9350   -1.9538 H   0  0  0  0  0  0  0  0  0  0  0  0
   -3.1201   -6.7695   -0.5225 H   0  0  0  0  0  0  0  0  0  0  0  0
   -1.6547    1.3413    1.4779 C   0  0  0  0  0  0  0  0  0  0  0  0
   -2.5654    1.9858    0.9716 O   0  0  0  0  0  0  0  0  0  0  0  0
   -0.8107    1.8504    2.3808 N   0  0  0  0  0  0  0  0  0  0  0  0
   -0.1136    1.2381    2.7719 H   0  0  0  0  0  0  0  0  0  0  0  0
   -0.8954    3.2155    2.9026 C   0  0  0  0  0  0  0  0  0  0  0  0
   -1.8299    3.3430    3.4532 H   0  0  0  0  0  0  0  0  0  0  0  0
   -0.0581    3.4194    3.5712 H   0  0  0  0  0  0  0  0  0  0  0  0
   -0.8804    3.9320    2.0784 H   0  0  0  0  0  0  0  0  0  0  0  0
  5  6  2  0  0  0  0
  5  7  1  0  0  0  0
  2  3  1  0  0  0  0
  2  4  1  0  0  0  0
  2  5  1  0  0  0  0
  1  2  1  0  0  0  0
 29 30  2  0  0  0  0
 29 31  1  0  0  0  0
 26 27  1  0  0  0  0
 26 28  1  0  0  0  0
 23 24  1  0  0  0  0
 23 25  1  0  0  0  0
 22 23  1  0  0  0  0
 22 26  1  0  0  0  0
 20 21  1  0  0  0  0
 20 22  2  0  0  0  0
 17 18  1  0  0  0  0
 17 19  1  0  0  0  0
 17 20  1  0  0  0  0
 14 15  1  0  0  0  0
 14 16  1  0  0  0  0
 14 17  1  0  0  0  0
 11 12  1  0  0  0  0
 11 13  1  0  0  0  0
 11 14  1  0  0  0  0
  9 10  1  0  0  0  0
  9 11  1  0  0  0  0
  9 29  1  0  0  0  0
  7  8  1  0  0  0  0
  7  9  1  0  0  0  0
 33 34  1  0  0  0  0
 33 35  1  0  0  0  0
 33 36  1  0  0  0  0
 31 32  1  0  0  0  0
 31 33  1  0  0  0  0
M  CHG  1  20   1
M  END
$$$$
default_name
  -OEChem-02102213163D

 36 35  0     1  0  0  0  0  0999 V2000
   -4.2256   -3.6731    1.8584 H   0  0  0  0  0  0  0  0  0  0  0  0
   -4.2396   -2.6781    1.4144 C   0  0  0  0  0  0  0  0  0  0  0  0
   -4.9506   -2.0521    1.9514 H   0  0  0  0  0  0  0  0  0  0  0  0
   -4.5266   -2.7521    0.3674 H   0  0  0  0  0  0  0  0  0  0  0  0
   -2.8576   -2.0761    1.5184 C   0  0  0  0  0  0  0  0  0  0  0  0
   -1.9456   -2.7051    2.0404 O   0  0  0  0  0  0  0  0  0  0  0  0
   -2.6926   -0.8481    1.0174 N   0  0  0  0  0  0  0  0  0  0  0  0
   -3.4926   -0.3971    0.5954 H   0  0  0  0  0  0  0  0  0  0  0  0
   -1.4216   -0.1071    1.0434 C   0  0  1  0  0  0  0  0  0  0  0  0
   -0.7579   -0.5878    1.7640 H   0  0  0  0  0  0  0  0  0  0  0  0
   -0.7791   -0.1912   -0.3557 C   0  0  0  0  0  0  0  0  0  0  0  0
   -1.1244    0.6578   -0.9491 H   0  0  0  0  0  0  0  0  0  0  0  0
    0.3059   -0.1158   -0.2553 H   0  0  0  0  0  0  0  0  0  0  0  0
   -1.1271   -1.4817   -1.1117 C   0  0  0  0  0  0  0  0  0  0  0  0
   -1.6399   -1.2370   -2.0429 H   0  0  0  0  0  0  0  0  0  0  0  0
   -0.2096   -2.0259   -1.3379 H   0  0  0  0  0  0  0  0  0  0  0  0
   -2.0429   -2.3615   -0.2497 C   0  0  0  0  0  0  0  0  0  0  0  0
   -1.5324   -2.5794    0.6912 H   0  0  0  0  0  0  0  0  0  0  0  0
   -2.9575   -1.8042   -0.0337 H   0  0  0  0  0  0  0  0  0  0  0  0
   -2.3851   -3.6278   -0.9294 N   0  3  0  0  0  0  0  0  0  0  0  0
   -2.0337   -3.7481   -1.8640 H   0  0  0  0  0  0  0  0  0  0  0  0
   -3.1073   -4.6147   -0.4260 C   0  0  0  0  0  0  0  0  0  0  0  0
   -3.6110   -4.5622    0.7752 N   0  0  0  0  0  0  0  0  0  0  0  0
   -3.4424   -3.7453    1.3352 H   0  0  0  0  0  0  0  0  0  0  0  0
   -4.1572   -5.3199    1.1420 H   0  0  0  0  0  0  0  0  0  0  0  0
   -3.3413   -5.6863   -1.1290 N   0  0  0  0  0  0  0  0  0  0  0  0
   -2.9736   -5.7730   -2.0608 H   0  0  0  0  0  0  0  0  0  0  0  0
   -3.8896   -6.4327   -0.7432 H   0  0  0  0  0  0  0  0  0  0  0  0
   -1.6547    1.3413    1.4779 C   0  0  0  0  0  0  0  0  0  0  0  0
   -2.5654    1.9858    0.9716 O   0  0  0  0  0  0  0  0  0  0  0  0
   -0.8107    1.8504    2.3808 N   0  0  0  0  0  0  0  0  0  0  0  0
   -0.1136    1.2381    2.7719 H   0  0  0  0  0  0  0  0  0  0  0  0
   -0.8954    3.2155    2.9026 C   0  0  0  0  0  0  0  0  0  0  0  0
   -1.8299    3.3430    3.4532 H   0  0  0  0  0  0  0  0  0  0  0  0
   -0.0581    3.4194    3.5712 H   0  0  0  0  0  0  0  0  0  0  0  0
   -0.8804    3.9320    2.0784 H   0  0  0  0  0  0  0  0  0  0  0  0
  5  6  2  0  0  0  0
  5  7  1  0  0  0  0
  2  3  1  0  0  0  0
  2  4  1  0  0  0  0
  2  5  1  0  0  0  0
  1  2  1  0  0  0  0
 29 30  2  0  0  0  0
 29 31  1  0  0  0  0
 26 27  1  0  0  0  0
 26 28  1  0  0  0  0
 23 24  1  0  0  0  0
 23 25  1  0  0  0  0
 22 23  1  0  0  0  0
 22 26  1  0  0  0  0
 20 21  1  0  0  0  0
 20 22  2  0  0  0  0
 17 18  1  0  0  0  0
 17 19  1  0  0  0  0
 17 20  1  0  0  0  0
 14 15  1  0  0  0  0
 14 16  1  0  0  0  0
 14 17  1  0  0  0  0
 11 12  1  0  0  0  0
 11 13  1  0  0  0  0
 11 14  1  0  0  0  0
  9 10  1  0  0  0  0
  9 11  1  0  0  0  0
  9 29  1  0  0  0  0
  7  8  1  0  0  0  0
  7  9  1  0  0  0  0
 33 34  1  0  0  0  0
 33 35  1  0  0  0  0
 33 36  1  0  0  0  0
 31 32  1  0  0  0  0
 31 33  1  0  0  0  0
M  CHG  1  20   1
M  END
$$$$
default_name
  -OEChem-02102213163D

 36 35  0     1  0  0  0  0  0999 V2000
   -4.2256   -3.6731    1.8584 H   0  0  0  0  0  0  0  0  0  0  0  0
   -4.2396   -2.6781    1.4144 C   0  0  0  0  0  0  0  0  0  0  0  0
   -4.9506   -2.0521    1.9514 H   0  0  0  0  0  0  0  0  0  0  0  0
   -4.5266   -2.7521    0.3674 H   0  0  0  0  0  0  0  0  0  0  0  0
   -2.8576   -2.0761    1.5184 C   0  0  0  0  0  0  0  0  0  0  0  0
   -1.9456   -2.7051    2.0404 O   0  0  0  0  0  0  0  0  0  0  0  0
   -2.6926   -0.8481    1.0174 N   0  0  0  0  0  0  0  0  0  0  0  0
   -3.4926   -0.3971    0.5954 H   0  0  0  0  0  0  0  0  0  0  0  0
   -1.4216   -0.1071    1.0434 C   0  0  1  0  0  0  0  0  0  0  0  0
   -0.7579   -0.5878    1.7640 H   0  0  0  0  0  0  0  0  0  0  0  0
   -0.7791   -0.1912   -0.3557 C   0  0  0  0  0  0  0  0  0  0  0  0
   -1.1244    0.6578   -0.9491 H   0  0  0  0  0  0  0  0  0  0  0  0
    0.3059   -0.1158   -0.2553 H   0  0  0  0  0  0  0  0  0  0  0  0
   -1.1271   -1.4817   -1.1117 C   0  0  0  0  0  0  0  0  0  0  0  0
   -1.3916   -1.2451   -2.1432 H   0  0  0  0  0  0  0  0  0  0  0  0
   -0.2638   -2.1478   -1.1047 H   0  0  0  0  0  0  0  0  0  0  0  0
   -2.3153   -2.1792   -0.4355 C   0  0  0  0  0  0  0  0  0  0  0  0
   -2.0515   -2.3882    0.6038 H   0  0  0  0  0  0  0  0  0  0  0  0
   -3.1719   -1.5012   -0.4523 H   0  0  0  0  0  0  0  0  0  0  0  0
   -2.6708   -3.4409   -1.1169 N   0  3  0  0  0  0  0  0  0  0  0  0
   -2.1471   -3.6705   -1.9442 H   0  0  0  0  0  0  0  0  0  0  0  0
   -3.6094   -4.2940   -0.7423 C   0  0  0  0  0  0  0  0  0  0  0  0
   -4.3464   -4.0938    0.3140 N   0  0  0  0  0  0  0  0  0  0  0  0
   -4.1936   -3.2646    0.8605 H   0  0  0  0  0  0  0  0  0  0  0  0
   -5.0548   -4.7511    0.5842 H   0  0  0  0  0  0  0  0  0  0  0  0
   -3.8291   -5.3777   -1.4312 N   0  0  0  0  0  0  0  0  0  0  0  0
   -3.2857   -5.5758   -2.2537 H   0  0  0  0  0  0  0  0  0  0  0  0
   -4.5421   -6.0223   -1.1435 H   0  0  0  0  0  0  0  0  0  0  0  0
   -1.6547    1.3413    1.4779 C   0  0  0  0  0  0  0  0  0  0  0  0
   -2.5654    1.9858    0.9716 O   0  0  0  0  0  0  0  0  0  0  0  0
   -0.8107    1.8504    2.3808 N   0  0  0  0  0  0  0  0  0  0  0  0
   -0.1136    1.2381    2.7719 H   0  0  0  0  0  0  0  0  0  0  0  0
   -0.8954    3.2155    2.9026 C   0  0  0  0  0  0  0  0  0  0  0  0
   -1.8299    3.3430    3.4532 H   0  0  0  0  0  0  0  0  0  0  0  0
   -0.0581    3.4194    3.5712 H   0  0  0  0  0  0  0  0  0  0  0  0
   -0.8804    3.9320    2.0784 H   0  0  0  0  0  0  0  0  0  0  0  0
  5  6  2  0  0  0  0
  5  7  1  0  0  0  0
  2  3  1  0  0  0  0
  2  4  1  0  0  0  0
  2  5  1  0  0  0  0
  1  2  1  0  0  0  0
 29 30  2  0  0  0  0
 29 31  1  0  0  0  0
 26 27  1  0  0  0  0
 26 28  1  0  0  0  0
 23 24  1  0  0  0  0
 23 25  1  0  0  0  0
 22 23  1  0  0  0  0
 22 26  1  0  0  0  0
 20 21  1  0  0  0  0
 20 22  2  0  0  0  0
 17 18  1  0  0  0  0
 17 19  1  0  0  0  0
 17 20  1  0  0  0  0
 14 15  1  0  0  0  0
 14 16  1  0  0  0  0
 14 17  1  0  0  0  0
 11 12  1  0  0  0  0
 11 13  1  0  0  0  0
 11 14  1  0  0  0  0
  9 10  1  0  0  0  0
  9 11  1  0  0  0  0
  9 29  1  0  0  0  0
  7  8  1  0  0  0  0
  7  9  1  0  0  0  0
 33 34  1  0  0  0  0
 33 35  1  0  0  0  0
 33 36  1  0  0  0  0
 31 32  1  0  0  0  0
 31 33  1  0  0  0  0
M  CHG  1  20   1
M  END
$$$$
default_name
  -OEChem-02102213163D

 36 35  0     1  0  0  0  0  0999 V2000
   -4.2256   -3.6731    1.8584 H   0  0  0  0  0  0  0  0  0  0  0  0
   -4.2396   -2.6781    1.4144 C   0  0  0  0  0  0  0  0  0  0  0  0
   -4.9506   -2.0521    1.9514 H   0  0  0  0  0  0  0  0  0  0  0  0
   -4.5266   -2.7521    0.3674 H   0  0  0  0  0  0  0  0  0  0  0  0
   -2.8576   -2.0761    1.5184 C   0  0  0  0  0  0  0  0  0  0  0  0
   -1.9456   -2.7051    2.0404 O   0  0  0  0  0  0  0  0  0  0  0  0
   -2.6926   -0.8481    1.0174 N   0  0  0  0  0  0  0  0  0  0  0  0
   -3.4926   -0.3971    0.5954 H   0  0  0  0  0  0  0  0  0  0  0  0
   -1.4216   -0.1071    1.0434 C   0  0  1  0  0  0  0  0  0  0  0  0
   -0.7579   -0.5878    1.7640 H   0  0  0  0  0  0  0  0  0  0  0  0
   -0.7791   -0.1912   -0.3557 C   0  0  0  0  0  0  0  0  0  0  0  0
   -1.1244    0.6578   -0.9491 H   0  0  0  0  0  0  0  0  0  0  0  0
    0.3059   -0.1158   -0.2553 H   0  0  0  0  0  0  0  0  0  0  0  0
   -1.1271   -1.4817   -1.1117 C   0  0  0  0  0  0  0  0  0  0  0  0
   -1.1309   -1.2906   -2.1857 H   0  0  0  0  0  0  0  0  0  0  0  0
   -0.3824   -2.2451   -0.8842 H   0  0  0  0  0  0  0  0  0  0  0  0
   -2.5148   -1.9793   -0.6848 C   0  0  0  0  0  0  0  0  0  0  0  0
   -2.5096   -2.1426    0.3953 H   0  0  0  0  0  0  0  0  0  0  0  0
   -3.2493   -1.2058   -0.9210 H   0  0  0  0  0  0  0  0  0  0  0  0
   -2.8821   -3.2350   -1.3711 N   0  3  0  0  0  0  0  0  0  0  0  0
   -2.2293   -3.5859   -2.0510 H   0  0  0  0  0  0  0  0  0  0  0  0
   -3.9846   -3.9388   -1.1759 C   0  0  0  0  0  0  0  0  0  0  0  0
   -4.8968   -3.5746   -0.3189 N   0  0  0  0  0  0  0  0  0  0  0  0
   -4.7547   -2.7325    0.2103 H   0  0  0  0  0  0  0  0  0  0  0  0
   -5.7281   -4.1200   -0.1831 H   0  0  0  0  0  0  0  0  0  0  0  0
   -4.1951   -5.0352   -1.8474 N   0  0  0  0  0  0  0  0  0  0  0  0
   -3.5201   -5.3569   -2.5196 H   0  0  0  0  0  0  0  0  0  0  0  0
   -5.0329   -5.5662   -1.6962 H   0  0  0  0  0  0  0  0  0  0  0  0
   -1.6547    1.3413    1.4779 C   0  0  0  0  0  0  0  0  0  0  0  0
   -2.5654    1.9858    0.9716 O   0  0  0  0  0  0  0  0  0  0  0  0
   -0.8107    1.8504    2.3808 N   0  0  0  0  0  0  0  0  0  0  0  0
   -0.1136    1.2381    2.7719 H   0  0  0  0  0  0  0  0  0  0  0  0
   -0.8954    3.2155    2.9026 C   0  0  0  0  0  0  0  0  0  0  0  0
   -1.8299    3.3430    3.4532 H   0  0  0  0  0  0  0  0  0  0  0  0
   -0.0581    3.4194    3.5712 H   0  0  0  0  0  0  0  0  0  0  0  0
   -0.8804    3.9320    2.0784 H   0  0  0  0  0  0  0  0  0  0  0  0
  5  6  2  0  0  0  0
  5  7  1  0  0  0  0
  2  3  1  0  0  0  0
  2  4  1  0  0  0  0
  2  5  1  0  0  0  0
  1  2  1  0  0  0  0
 29 30  2  0  0  0  0
 29 31  1  0  0  0  0
 26 27  1  0  0  0  0
 26 28  1  0  0  0  0
 23 24  1  0  0  0  0
 23 25  1  0  0  0  0
 22 23  1  0  0  0  0
 22 26  1  0  0  0  0
 20 21  1  0  0  0  0
 20 22  2  0  0  0  0
 17 18  1  0  0  0  0
 17 19  1  0  0  0  0
 17 20  1  0  0  0  0
 14 15  1  0  0  0  0
 14 16  1  0  0  0  0
 14 17  1  0  0  0  0
 11 12  1  0  0  0  0
 11 13  1  0  0  0  0
 11 14  1  0  0  0  0
  9 10  1  0  0  0  0
  9 11  1  0  0  0  0
  9 29  1  0  0  0  0
  7  8  1  0  0  0  0
  7  9  1  0  0  0  0
 33 34  1  0  0  0  0
 33 35  1  0  0  0  0
 33 36  1  0  0  0  0
 31 32  1  0  0  0  0
 31 33  1  0  0  0  0
M  CHG  1  20   1
M  END
$$$$
default_name
  -OEChem-02102213163D

 36 35  0     1  0  0  0  0  0999 V2000
   -4.2256   -3.6731    1.8584 H   0  0  0  0  0  0  0  0  0  0  0  0
   -4.2396   -2.6781    1.4144 C   0  0  0  0  0  0  0  0  0  0  0  0
   -4.9506   -2.0521    1.9514 H   0  0  0  0  0  0  0  0  0  0  0  0
   -4.5266   -2.7521    0.3674 H   0  0  0  0  0  0  0  0  0  0  0  0
   -2.8576   -2.0761    1.5184 C   0  0  0  0  0  0  0  0  0  0  0  0
   -1.9456   -2.7051    2.0404 O   0  0  0  0  0  0  0  0  0  0  0  0
   -2.6926   -0.8481    1.0174 N   0  0  0  0  0  0  0  0  0  0  0  0
   -3.4926   -0.3971    0.5954 H   0  0  0  0  0  0  0  0  0  0  0  0
   -1.4216   -0.1071    1.0434 C   0  0  1  0  0  0  0  0  0  0  0  0
   -0.7579   -0.5878    1.7640 H   0  0  0  0  0  0  0  0  0  0  0  0
   -0.7791   -0.1912   -0.3557 C   0  0  0  0  0  0  0  0  0  0  0  0
   -1.1244    0.6578   -0.9491 H   0  0  0  0  0  0  0  0  0  0  0  0
    0.3059   -0.1158   -0.2553 H   0  0  0  0  0  0  0  0  0  0  0  0
   -1.1271   -1.4817   -1.1117 C   0  0  0  0  0  0  0  0  0  0  0  0
   -0.8756   -1.3702   -2.1673 H   0  0  0  0  0  0  0  0  0  0  0  0
   -0.5573   -2.3109   -0.6912 H   0  0  0  0  0  0  0  0  0  0  0  0
   -2.6278   -1.7755   -0.9808 C   0  0  0  0  0  0  0  0  0  0  0  0
   -2.8755   -1.8591    0.0799 H   0  0  0  0  0  0  0  0  0  0  0  0
   -3.1845   -0.9381   -1.4079 H   0  0  0  0  0  0  0  0  0  0  0  0
   -3.0047   -3.0242   -1.6747 N   0  3  0  0  0  0  0  0  0  0  0  0
   -2.2747   -3.4998   -2.1769 H   0  0  0  0  0  0  0  0  0  0  0  0
   -4.2076   -3.5733   -1.6972 C   0  0  0  0  0  0  0  0  0  0  0  0
   -5.2246   -3.0401   -1.0804 N   0  0  0  0  0  0  0  0  0  0  0  0
   -5.0875   -2.1851   -0.5709 H   0  0  0  0  0  0  0  0  0  0  0  0
   -6.1311   -3.4697   -1.1078 H   0  0  0  0  0  0  0  0  0  0  0  0
   -4.4146   -4.6822   -2.3491 N   0  0  0  0  0  0  0  0  0  0  0  0
   -3.6608   -5.1311   -2.8402 H   0  0  0  0  0  0  0  0  0  0  0  0
   -5.3286   -5.0955   -2.3635 H   0  0  0  0  0  0  0  0  0  0  0  0
   -1.6547    1.3413    1.4779 C   0  0  0  0  0  0  0  0  0  0  0  0
   -2.5654    1.9858    0.9716 O   0  0  0  0  0  0  0  0  0  0  0  0
   -0.8107    1.8504    2.3808 N   0  0  0  0  0  0  0  0  0  0  0  0
   -0.1136    1.2381    2.7719 H   0  0  0  0  0  0  0  0  0  0  0  0
   -0.8954    3.2155    2.9026 C   0  0  0  0  0  0  0  0  0  0  0  0
   -1.8299    3.3430    3.4532 H   0  0  0  0  0  0  0  0  0  0  0  0
   -0.0581    3.4194    3.5712 H   0  0  0  0  0  0  0  0  0  0  0  0
   -0.8804    3.9320    2.0784 H   0  0  0  0  0  0  0  0  0  0  0  0
  5  6  2  0  0  0  0
  5  7  1  0  0  0  0
  2  3  1  0  0  0  0
  2  4  1  0  0  0  0
  2  5  1  0  0  0  0
  1  2  1  0  0  0  0
 29 30  2  0  0  0  0
 29 31  1  0  0  0  0
 26 27  1  0  0  0  0
 26 28  1  0  0  0  0
 23 24  1  0  0  0  0
 23 25  1  0  0  0  0
 22 23  1  0  0  0  0
 22 26  1  0  0  0  0
 20 21  1  0  0  0  0
 20 22  2  0  0  0  0
 17 18  1  0  0  0  0
 17 19  1  0  0  0  0
 17 20  1  0  0  0  0
 14 15  1  0  0  0  0
 14 16  1  0  0  0  0
 14 17  1  0  0  0  0
 11 12  1  0  0  0  0
 11 13  1  0  0  0  0
 11 14  1  0  0  0  0
  9 10  1  0  0  0  0
  9 11  1  0  0  0  0
  9 29  1  0  0  0  0
  7  8  1  0  0  0  0
  7  9  1  0  0  0  0
 33 34  1  0  0  0  0
 33 35  1  0  0  0  0
 33 36  1  0  0  0  0
 31 32  1  0  0  0  0
 31 33  1  0  0  0  0
M  CHG  1  20   1
M  END
$$$$
default_name
  -OEChem-02102213163D

 36 35  0     1  0  0  0  0  0999 V2000
   -4.2256   -3.6731    1.8584 H   0  0  0  0  0  0  0  0  0  0  0  0
   -4.2396   -2.6781    1.4144 C   0  0  0  0  0  0  0  0  0  0  0  0
   -4.9506   -2.0521    1.9514 H   0  0  0  0  0  0  0  0  0  0  0  0
   -4.5266   -2.7521    0.3674 H   0  0  0  0  0  0  0  0  0  0  0  0
   -2.8576   -2.0761    1.5184 C   0  0  0  0  0  0  0  0  0  0  0  0
   -1.9456   -2.7051    2.0404 O   0  0  0  0  0  0  0  0  0  0  0  0
   -2.6926   -0.8481    1.0174 N   0  0  0  0  0  0  0  0  0  0  0  0
   -3.4926   -0.3971    0.5954 H   0  0  0  0  0  0  0  0  0  0  0  0
   -1.4216   -0.1071    1.0434 C   0  0  1  0  0  0  0  0  0  0  0  0
   -0.7579   -0.5878    1.7640 H   0  0  0  0  0  0  0  0  0  0  0  0
   -0.7791   -0.1912   -0.3557 C   0  0  0  0  0  0  0  0  0  0  0  0
   -1.1244    0.6578   -0.9491 H   0  0  0  0  0  0  0  0  0  0  0  0
    0.3059   -0.1158   -0.2553 H   0  0  0  0  0  0  0  0  0  0  0  0
   -1.1271   -1.4817   -1.1117 C   0  0  0  0  0  0  0  0  0  0  0  0
   -0.6432   -1.4785   -2.0894 H   0  0  0  0  0  0  0  0  0  0  0  0
   -0.7766   -2.3410   -0.5390 H   0  0  0  0  0  0  0  0  0  0  0  0
   -2.6466   -1.5816   -1.3032 C   0  0  0  0  0  0  0  0  0  0  0  0
   -3.1242   -1.5572   -0.3210 H   0  0  0  0  0  0  0  0  0  0  0  0
   -2.9819   -0.7163   -1.8798 H   0  0  0  0  0  0  0  0  0  0  0  0
   -3.0302   -2.8226   -2.0070 N   0  3  0  0  0  0  0  0  0  0  0  0
   -2.2802   -3.4184   -2.3135 H   0  0  0  0  0  0  0  0  0  0  0  0
   -4.2629   -3.2225   -2.2707 C   0  0  0  0  0  0  0  0  0  0  0  0
   -5.3076   -2.5268   -1.9186 N   0  0  0  0  0  0  0  0  0  0  0  0
   -5.1692   -1.6598   -1.4300 H   0  0  0  0  0  0  0  0  0  0  0  0
   -6.2363   -2.8444   -2.1268 H   0  0  0  0  0  0  0  0  0  0  0  0
   -4.4724   -4.3426   -2.9021 N   0  0  0  0  0  0  0  0  0  0  0  0
   -3.6981   -4.9140   -3.1937 H   0  0  0  0  0  0  0  0  0  0  0  0
   -5.4092   -4.6423   -3.1000 H   0  0  0  0  0  0  0  0  0  0  0  0
   -1.6547    1.3413    1.4779 C   0  0  0  0  0  0  0  0  0  0  0  0
   -2.5654    1.9858    0.9716 O   0  0  0  0  0  0  0  0  0  0  0  0
   -0.8107    1.8504    2.3808 N   0  0  0  0  0  0  0  0  0  0  0  0
   -0.1136    1.2381    2.7719 H   0  0  0  0  0  0  0  0  0  0  0  0
   -0.8954    3.2155    2.9026 C   0  0  0  0  0  0  0  0  0  0  0  0
   -1.8299    3.3430    3.4532 H   0  0  0  0  0  0  0  0  0  0  0  0
   -0.0581    3.4194    3.5712 H   0  0  0  0  0  0  0  0  0  0  0  0
   -0.8804    3.9320    2.0784 H   0  0  0  0  0  0  0  0  0  0  0  0
  5  6  2  0  0  0  0
  5  7  1  0  0  0  0
  2  3  1  0  0  0  0
  2  4  1  0  0  0  0
  2  5  1  0  0  0  0
  1  2  1  0  0  0  0
 29 30  2  0  0  0  0
 29 31  1  0  0  0  0
 26 27  1  0  0  0  0
 26 28  1  0  0  0  0
 23 24  1  0  0  0  0
 23 25  1  0  0  0  0
 22 23  1  0  0  0  0
 22 26  1  0  0  0  0
 20 21  1  0  0  0  0
 20 22  2  0  0  0  0
 17 18  1  0  0  0  0
 17 19  1  0  0  0  0
 17 20  1  0  0  0  0
 14 15  1  0  0  0  0
 14 16  1  0  0  0  0
 14 17  1  0  0  0  0
 11 12  1  0  0  0  0
 11 13  1  0  0  0  0
 11 14  1  0  0  0  0
  9 10  1  0  0  0  0
  9 11  1  0  0  0  0
  9 29  1  0  0  0  0
  7  8  1  0  0  0  0
  7  9  1  0  0  0  0
 33 34  1  0  0  0  0
 33 35  1  0  0  0  0
 33 36  1  0  0  0  0
 31 32  1  0  0  0  0
 31 33  1  0  0  0  0
M  CHG  1  20   1
M  END
$$$$
default_name
  -OEChem-02102213163D

 36 35  0     1  0  0  0  0  0999 V2000
   -4.2256   -3.6731    1.8584 H   0  0  0  0  0  0  0  0  0  0  0  0
   -4.2396   -2.6781    1.4144 C   0  0  0  0  0  0  0  0  0  0  0  0
   -4.9506   -2.0521    1.9514 H   0  0  0  0  0  0  0  0  0  0  0  0
   -4.5266   -2.7521    0.3674 H   0  0  0  0  0  0  0  0  0  0  0  0
   -2.8576   -2.0761    1.5184 C   0  0  0  0  0  0  0  0  0  0  0  0
   -1.9456   -2.7051    2.0404 O   0  0  0  0  0  0  0  0  0  0  0  0
   -2.6926   -0.8481    1.0174 N   0  0  0  0  0  0  0  0  0  0  0  0
   -3.4926   -0.3971    0.5954 H   0  0  0  0  0  0  0  0  0  0  0  0
   -1.4216   -0.1071    1.0434 C   0  0  1  0  0  0  0  0  0  0  0  0
   -0.7579   -0.5878    1.7640 H   0  0  0  0  0  0  0  0  0  0  0  0
   -0.7791   -0.1912   -0.3557 C   0  0  0  0  0  0  0  0  0  0  0  0
   -1.1244    0.6578   -0.9491 H   0  0  0  0  0  0  0  0  0  0  0  0
    0.3059   -0.1158   -0.2553 H   0  0  0  0  0  0  0  0  0  0  0  0
   -1.1271   -1.4817   -1.1117 C   0  0  0  0  0  0  0  0  0  0  0  0
   -0.4495   -1.6082   -1.9572 H   0  0  0  0  0  0  0  0  0  0  0  0
   -1.0253   -2.3331   -0.4379 H   0  0  0  0  0  0  0  0  0  0  0  0
   -2.5699   -1.4108   -1.6301 C   0  0  0  0  0  0  0  0  0  0  0  0
   -3.2387   -1.2575   -0.7800 H   0  0  0  0  0  0  0  0  0  0  0  0
   -2.6553   -0.5555   -2.3046 H   0  0  0  0  0  0  0  0  0  0  0  0
   -2.9569   -2.6442   -2.3453 N   0  3  0  0  0  0  0  0  0  0  0  0
   -2.2454   -3.3470   -2.4514 H   0  0  0  0  0  0  0  0  0  0  0  0
   -4.1470   -2.9102   -2.8572 C   0  0  0  0  0  0  0  0  0  0  0  0
   -5.1399   -2.0695   -2.7764 N   0  0  0  0  0  0  0  0  0  0  0  0
   -4.9944   -1.1924   -2.3084 H   0  0  0  0  0  0  0  0  0  0  0  0
   -6.0367   -2.2868   -3.1706 H   0  0  0  0  0  0  0  0  0  0  0  0
   -4.3647   -4.0397   -3.4688 N   0  0  0  0  0  0  0  0  0  0  0  0
   -3.6297   -4.7202   -3.5561 H   0  0  0  0  0  0  0  0  0  0  0  0
   -5.2691   -4.2375   -3.8556 H   0  0  0  0  0  0  0  0  0  0  0  0
   -1.6547    1.3413    1.4779 C   0  0  0  0  0  0  0  0  0  0  0  0
   -2.5654    1.9858    0.9716 O   0  0  0  0  0  0  0  0  0  0  0  0
   -0.8107    1.8504    2.3808 N   0  0  0  0  0  0  0  0  0  0  0  0
   -0.1136    1.2381    2.7719 H   0  0  0  0  0  0  0  0  0  0  0  0
   -0.8954    3.2155    2.9026 C   0  0  0  0  0  0  0  0  0  0  0  0
   -1.8299    3.3430    3.4532 H   0  0  0  0  0  0  0  0  0  0  0  0
   -0.0581    3.4194    3.5712 H   0  0  0  0  0  0  0  0  0  0  0  0
   -0.8804    3.9320    2.0784 H   0  0  0  0  0  0  0  0  0  0  0  0
  5  6  2  0  0  0  0
  5  7  1  0  0  0  0
  2  3  1  0  0  0  0
  2  4  1  0  0  0  0
  2  5  1  0  0  0  0
  1  2  1  0  0  0  0
 29 30  2  0  0  0  0
 29 31  1  0  0  0  0
 26 27  1  0  0  0  0
 26 28  1  0  0  0  0
 23 24  1  0  0  0  0
 23 25  1  0  0  0  0
 22 23  1  0  0  0  0
 22 26  1  0  0  0  0
 20 21  1  0  0  0  0
 20 22  2  0  0  0  0
 17 18  1  0  0  0  0
 17 19  1  0  0  0  0
 17 20  1  0  0  0  0
 14 15  1  0  0  0  0
 14 16  1  0  0  0  0
 14 17  1  0  0  0  0
 11 12  1  0  0  0  0
 11 13  1  0  0  0  0
 11 14  1  0  0  0  0
  9 10  1  0  0  0  0
  9 11  1  0  0  0  0
  9 29  1  0  0  0  0
  7  8  1  0  0  0  0
  7  9  1  0  0  0  0
 33 34  1  0  0  0  0
 33 35  1  0  0  0  0
 33 36  1  0  0  0  0
 31 32  1  0  0  0  0
 31 33  1  0  0  0  0
M  CHG  1  20   1
M  END
$$$$
default_name
  -OEChem-02102213163D

 36 35  0     1  0  0  0  0  0999 V2000
   -4.2256   -3.6731    1.8584 H   0  0  0  0  0  0  0  0  0  0  0  0
   -4.2396   -2.6781    1.4144 C   0  0  0  0  0  0  0  0  0  0  0  0
   -4.9506   -2.0521    1.9514 H   0  0  0  0  0  0  0  0  0  0  0  0
   -4.5266   -2.7521    0.3674 H   0  0  0  0  0  0  0  0  0  0  0  0
   -2.8576   -2.0761    1.5184 C   0  0  0  0  0  0  0  0  0  0  0  0
   -1.9456   -2.7051    2.0404 O   0  0  0  0  0  0  0  0  0  0  0  0
   -2.6926   -0.8481    1.0174 N   0  0  0  0  0  0  0  0  0  0  0  0
   -3.4926   -0.3971    0.5954 H   0  0  0  0  0  0  0  0  0  0  0  0
   -1.4216   -0.1071    1.0434 C   0  0  1  0  0  0  0  0  0  0  0  0
   -0.7579   -0.5878    1.7640 H   0  0  0  0  0  0  0  0  0  0  0  0
   -0.7791   -0.1912   -0.3557 C   0  0  0  0  0  0  0  0  0  0  0  0
   -1.1244    0.6578   -0.9491 H   0  0  0  0  0  0  0  0  0  0  0  0
    0.3059   -0.1158   -0.2553 H   0  0  0  0  0  0  0  0  0  0  0  0
   -1.1271   -1.4817   -1.1117 C   0  0  0  0  0  0  0  0  0  0  0  0
   -0.3076   -1.7503   -1.7797 H   0  0  0  0  0  0  0  0  0  0  0  0
   -1.2866   -2.2879   -0.3949 H   0  0  0  0  0  0  0  0  0  0  0  0
   -2.4030   -1.2747   -1.9392 C   0  0  0  0  0  0  0  0  0  0  0  0
   -3.2113   -0.9802   -1.2659 H   0  0  0  0  0  0  0  0  0  0  0  0
   -2.2269   -0.4667   -2.6532 H   0  0  0  0  0  0  0  0  0  0  0  0
   -2.7897   -2.5011   -2.6667 N   0  3  0  0  0  0  0  0  0  0  0  0
   -2.1727   -3.2905   -2.5812 H   0  0  0  0  0  0  0  0  0  0  0  0
   -3.8676   -2.6577   -3.4168 C   0  0  0  0  0  0  0  0  0  0  0  0
   -4.7331   -1.6994   -3.5953 N   0  0  0  0  0  0  0  0  0  0  0  0
   -4.5748   -0.8147   -3.1463 H   0  0  0  0  0  0  0  0  0  0  0  0
   -5.5458   -1.8348   -4.1682 H   0  0  0  0  0  0  0  0  0  0  0  0
   -4.0989   -3.7941   -4.0105 N   0  0  0  0  0  0  0  0  0  0  0  0
   -3.4600   -4.5630   -3.9025 H   0  0  0  0  0  0  0  0  0  0  0  0
   -4.9178   -3.9087   -4.5787 H   0  0  0  0  0  0  0  0  0  0  0  0
   -1.6547    1.3413    1.4779 C   0  0  0  0  0  0  0  0  0  0  0  0
   -2.5654    1.9858    0.9716 O   0  0  0  0  0  0  0  0  0  0  0  0
   -0.8107    1.8504    2.3808 N   0  0  0  0  0  0  0  0  0  0  0  0
   -0.1136    1.2381    2.7719 H   0  0  0  0  0  0  0  0  0  0  0  0
   -0.8954    3.2155    2.9026 C   0  0  0  0  0  0  0  0  0  0  0  0
   -1.8299    3.3430    3.4532 H   0  0  0  0  0  0  0  0  0  0  0  0
   -0.0581    3.4194    3.5712 H   0  0  0  0  0  0  0  0  0  0  0  0
   -0.8804    3.9320    2.0784 H   0  0  0  0  0  0  0  0  0  0  0  0
  5  6  2  0  0  0  0
  5  7  1  0  0  0  0
  2  3  1  0  0  0  0
  2  4  1  0  0  0  0
  2  5  1  0  0  0  0
  1  2  1  0  0  0  0
 29 30  2  0  0  0  0
 29 31  1  0  0  0  0
 26 27  1  0  0  0  0
 26 28  1  0  0  0  0
 23 24  1  0  0  0  0
 23 25  1  0  0  0  0
 22 23  1  0  0  0  0
 22 26  1  0  0  0  0
 20 21  1  0  0  0  0
 20 22  2  0  0  0  0
 17 18  1  0  0  0  0
 17 19  1  0  0  0  0
 17 20  1  0  0  0  0
 14 15  1  0  0  0  0
 14 16  1  0  0  0  0
 14 17  1  0  0  0  0
 11 12  1  0  0  0  0
 11 13  1  0  0  0  0
 11 14  1  0  0  0  0
  9 10  1  0  0  0  0
  9 11  1  0  0  0  0
  9 29  1  0  0  0  0
  7  8  1  0  0  0  0
  7  9  1  0  0  0  0
 33 34  1  0  0  0  0
 33 35  1  0  0  0  0
 33 36  1  0  0  0  0
 31 32  1  0  0  0  0
 31 33  1  0  0  0  0
M  CHG  1  20   1
M  END
$$$$
default_name
  -OEChem-02102213163D

 36 35  0     1  0  0  0  0  0999 V2000
   -4.2256   -3.6731    1.8584 H   0  0  0  0  0  0  0  0  0  0  0  0
   -4.2396   -2.6781    1.4144 C   0  0  0  0  0  0  0  0  0  0  0  0
   -4.9506   -2.0521    1.9514 H   0  0  0  0  0  0  0  0  0  0  0  0
   -4.5266   -2.7521    0.3674 H   0  0  0  0  0  0  0  0  0  0  0  0
   -2.8576   -2.0761    1.5184 C   0  0  0  0  0  0  0  0  0  0  0  0
   -1.9456   -2.7051    2.0404 O   0  0  0  0  0  0  0  0  0  0  0  0
   -2.6926   -0.8481    1.0174 N   0  0  0  0  0  0  0  0  0  0  0  0
   -3.4926   -0.3971    0.5954 H   0  0  0  0  0  0  0  0  0  0  0  0
   -1.4216   -0.1071    1.0434 C   0  0  1  0  0  0  0  0  0  0  0  0
   -0.7579   -0.5878    1.7640 H   0  0  0  0  0  0  0  0  0  0  0  0
   -0.7791   -0.1912   -0.3557 C   0  0  0  0  0  0  0  0  0  0  0  0
   -1.1244    0.6578   -0.9491 H   0  0  0  0  0  0  0  0  0  0  0  0
    0.3059   -0.1158   -0.2553 H   0  0  0  0  0  0  0  0  0  0  0  0
   -1.1271   -1.4817   -1.1117 C   0  0  0  0  0  0  0  0  0  0  0  0
   -0.2273   -1.8954   -1.5692 H   0  0  0  0  0  0  0  0  0  0  0  0
   -1.5426   -2.2084   -0.4128 H   0  0  0  0  0  0  0  0  0  0  0  0
   -2.1572   -1.1827   -2.2094 C   0  0  0  0  0  0  0  0  0  0  0  0
   -3.0438   -0.7444   -1.7455 H   0  0  0  0  0  0  0  0  0  0  0  0
   -1.7260   -0.4561   -2.9021 H   0  0  0  0  0  0  0  0  0  0  0  0
   -2.5402   -2.4029   -2.9491 N   0  3  0  0  0  0  0  0  0  0  0  0
   -2.0671   -3.2529   -2.6941 H   0  0  0  0  0  0  0  0  0  0  0  0
   -3.4438   -2.4822   -3.9114 C   0  0  0  0  0  0  0  0  0  0  0  0
   -4.1149   -1.4419   -4.3196 N   0  0  0  0  0  0  0  0  0  0  0  0
   -3.9393   -0.5525   -3.8865 H   0  0  0  0  0  0  0  0  0  0  0  0
   -4.7970   -1.5193   -5.0515 H   0  0  0  0  0  0  0  0  0  0  0  0
   -3.6929   -3.6224   -4.4903 N   0  0  0  0  0  0  0  0  0  0  0  0
   -3.2008   -4.4530   -4.2095 H   0  0  0  0  0  0  0  0  0  0  0  0
   -4.3793   -3.6782   -5.2200 H   0  0  0  0  0  0  0  0  0  0  0  0
   -1.6547    1.3413    1.4779 C   0  0  0  0  0  0  0  0  0  0  0  0
   -2.5654    1.9858    0.9716 O   0  0  0  0  0  0  0  0  0  0  0  0
   -0.8107    1.8504    2.3808 N   0  0  0  0  0  0  0  0  0  0  0  0
   -0.1136    1.2381    2.7719 H   0  0  0  0  0  0  0  0  0  0  0  0
   -0.8954    3.2155    2.9026 C   0  0  0  0  0  0  0  0  0  0  0  0
   -1.8299    3.3430    3.4532 H   0  0  0  0  0  0  0  0  0  0  0  0
   -0.0581    3.4194    3.5712 H   0  0  0  0  0  0  0  0  0  0  0  0
   -0.8804    3.9320    2.0784 H   0  0  0  0  0  0  0  0  0  0  0  0
  5  6  2  0  0  0  0
  5  7  1  0  0  0  0
  2  3  1  0  0  0  0
  2  4  1  0  0  0  0
  2  5  1  0  0  0  0
  1  2  1  0  0  0  0
 29 30  2  0  0  0  0
 29 31  1  0  0  0  0
 26 27  1  0  0  0  0
 26 28  1  0  0  0  0
 23 24  1  0  0  0  0
 23 25  1  0  0  0  0
 22 23  1  0  0  0  0
 22 26  1  0  0  0  0
 20 21  1  0  0  0  0
 20 22  2  0  0  0  0
 17 18  1  0  0  0  0
 17 19  1  0  0  0  0
 17 20  1  0  0  0  0
 14 15  1  0  0  0  0
 14 16  1  0  0  0  0
 14 17  1  0  0  0  0
 11 12  1  0  0  0  0
 11 13  1  0  0  0  0
 11 14  1  0  0  0  0
  9 10  1  0  0  0  0
  9 11  1  0  0  0  0
  9 29  1  0  0  0  0
  7  8  1  0  0  0  0
  7  9  1  0  0  0  0
 33 34  1  0  0  0  0
 33 35  1  0  0  0  0
 33 36  1  0  0  0  0
 31 32  1  0  0  0  0
 31 33  1  0  0  0  0
M  CHG  1  20   1
M  END
$$$$
default_name
  -OEChem-02102213163D

 36 35  0     1  0  0  0  0  0999 V2000
   -4.2256   -3.6731    1.8584 H   0  0  0  0  0  0  0  0  0  0  0  0
   -4.2396   -2.6781    1.4144 C   0  0  0  0  0  0  0  0  0  0  0  0
   -4.9506   -2.0521    1.9514 H   0  0  0  0  0  0  0  0  0  0  0  0
   -4.5266   -2.7521    0.3674 H   0  0  0  0  0  0  0  0  0  0  0  0
   -2.8576   -2.0761    1.5184 C   0  0  0  0  0  0  0  0  0  0  0  0
   -1.9456   -2.7051    2.0404 O   0  0  0  0  0  0  0  0  0  0  0  0
   -2.6926   -0.8481    1.0174 N   0  0  0  0  0  0  0  0  0  0  0  0
   -3.4926   -0.3971    0.5954 H   0  0  0  0  0  0  0  0  0  0  0  0
   -1.4216   -0.1071    1.0434 C   0  0  1  0  0  0  0  0  0  0  0  0
   -0.7579   -0.5878    1.7640 H   0  0  0  0  0  0  0  0  0  0  0  0
   -0.7791   -0.1912   -0.3557 C   0  0  0  0  0  0  0  0  0  0  0  0
   -1.1244    0.6578   -0.9491 H   0  0  0  0  0  0  0  0  0  0  0  0
    0.3059   -0.1158   -0.2553 H   0  0  0  0  0  0  0  0  0  0  0  0
   -1.1271   -1.4817   -1.1117 C   0  0  0  0  0  0  0  0  0  0  0  0
   -0.2140   -2.0333   -1.3398 H   0  0  0  0  0  0  0  0  0  0  0  0
   -1.7758   -2.1000   -0.4904 H   0  0  0  0  0  0  0  0  0  0  0  0
   -1.8492   -1.1410   -2.4224 C   0  0  0  0  0  0  0  0  0  0  0  0
   -2.7477   -0.5661   -2.1862 H   0  0  0  0  0  0  0  0  0  0  0  0
   -1.1867   -0.5241   -3.0341 H   0  0  0  0  0  0  0  0  0  0  0  0
   -2.2252   -2.3565   -3.1733 N   0  3  0  0  0  0  0  0  0  0  0  0
   -1.9357   -3.2366   -2.7823 H   0  0  0  0  0  0  0  0  0  0  0  0
   -2.9046   -2.3957   -4.3073 C   0  0  0  0  0  0  0  0  0  0  0  0
   -3.3274   -1.3143   -4.8998 N   0  0  0  0  0  0  0  0  0  0  0  0
   -3.1309   -0.4236   -4.4787 H   0  0  0  0  0  0  0  0  0  0  0  0
   -3.8414   -1.3617   -5.7603 H   0  0  0  0  0  0  0  0  0  0  0  0
   -3.1746   -3.5365   -4.8756 N   0  0  0  0  0  0  0  0  0  0  0  0
   -2.8695   -4.3979   -4.4561 H   0  0  0  0  0  0  0  0  0  0  0  0
   -3.6903   -3.5618   -5.7358 H   0  0  0  0  0  0  0  0  0  0  0  0
   -1.6547    1.3413    1.4779 C   0  0  0  0  0  0  0  0  0  0  0  0
   -2.5654    1.9858    0.9716 O   0  0  0  0  0  0  0  0  0  0  0  0
   -0.8107    1.8504    2.3808 N   0  0  0  0  0  0  0  0  0  0  0  0
   -0.1136    1.2381    2.7719 H   0  0  0  0  0  0  0  0  0  0  0  0
   -0.8954    3.2155    2.9026 C   0  0  0  0  0  0  0  0  0  0  0  0
   -1.8299    3.3430    3.4532 H   0  0  0  0  0  0  0  0  0  0  0  0
   -0.0581    3.4194    3.5712 H   0  0  0  0  0  0  0  0  0  0  0  0
   -0.8804    3.9320    2.0784 H   0  0  0  0  0  0  0  0  0  0  0  0
  5  6  2  0  0  0  0
  5  7  1  0  0  0  0
  2  3  1  0  0  0  0
  2  4  1  0  0  0  0
  2  5  1  0  0  0  0
  1  2  1  0  0  0  0
 29 30  2  0  0  0  0
 29 31  1  0  0  0  0
 26 27  1  0  0  0  0
 26 28  1  0  0  0  0
 23 24  1  0  0  0  0
 23 25  1  0  0  0  0
 22 23  1  0  0  0  0
 22 26  1  0  0  0  0
 20 21  1  0  0  0  0
 20 22  2  0  0  0  0
 17 18  1  0  0  0  0
 17 19  1  0  0  0  0
 17 20  1  0  0  0  0
 14 15  1  0  0  0  0
 14 16  1  0  0  0  0
 14 17  1  0  0  0  0
 11 12  1  0  0  0  0
 11 13  1  0  0  0  0
 11 14  1  0  0  0  0
  9 10  1  0  0  0  0
  9 11  1  0  0  0  0
  9 29  1  0  0  0  0
  7  8  1  0  0  0  0
  7  9  1  0  0  0  0
 33 34  1  0  0  0  0
 33 35  1  0  0  0  0
 33 36  1  0  0  0  0
 31 32  1  0  0  0  0
 31 33  1  0  0  0  0
M  CHG  1  20   1
M  END
$$$$
default_name
  -OEChem-02102213163D

 36 35  0     1  0  0  0  0  0999 V2000
   -4.2256   -3.6731    1.8584 H   0  0  0  0  0  0  0  0  0  0  0  0
   -4.2396   -2.6781    1.4144 C   0  0  0  0  0  0  0  0  0  0  0  0
   -4.9506   -2.0521    1.9514 H   0  0  0  0  0  0  0  0  0  0  0  0
   -4.5266   -2.7521    0.3674 H   0  0  0  0  0  0  0  0  0  0  0  0
   -2.8576   -2.0761    1.5184 C   0  0  0  0  0  0  0  0  0  0  0  0
   -1.9456   -2.7051    2.0404 O   0  0  0  0  0  0  0  0  0  0  0  0
   -2.6926   -0.8481    1.0174 N   0  0  0  0  0  0  0  0  0  0  0  0
   -3.4926   -0.3971    0.5954 H   0  0  0  0  0  0  0  0  0  0  0  0
   -1.4216   -0.1071    1.0434 C   0  0  1  0  0  0  0  0  0  0  0  0
   -0.7579   -0.5878    1.7640 H   0  0  0  0  0  0  0  0  0  0  0  0
   -0.7791   -0.1912   -0.3557 C   0  0  0  0  0  0  0  0  0  0  0  0
   -1.1244    0.6578   -0.9491 H   0  0  0  0  0  0  0  0  0  0  0  0
    0.3059   -0.1158   -0.2553 H   0  0  0  0  0  0  0  0  0  0  0  0
   -1.1271   -1.4817   -1.1117 C   0  0  0  0  0  0  0  0  0  0  0  0
   -0.2686   -2.1548   -1.1072 H   0  0  0  0  0  0  0  0  0  0  0  0
   -1.9704   -1.9702   -0.6224 H   0  0  0  0  0  0  0  0  0  0  0  0
   -1.5001   -1.1524   -2.5635 C   0  0  0  0  0  0  0  0  0  0  0  0
   -2.3430   -0.4575   -2.5579 H   0  0  0  0  0  0  0  0  0  0  0  0
   -0.6457   -0.6664   -3.0403 H   0  0  0  0  0  0  0  0  0  0  0  0
   -1.8662   -2.3649   -3.3241 N   0  3  0  0  0  0  0  0  0  0  0  0
   -1.7875   -3.2428   -2.8400 H   0  0  0  0  0  0  0  0  0  0  0  0
   -2.2865   -2.4041   -4.5775 C   0  0  0  0  0  0  0  0  0  0  0  0
   -2.4243   -1.3255   -5.2964 N   0  0  0  0  0  0  0  0  0  0  0  0
   -2.2049   -0.4368   -4.8823 H   0  0  0  0  0  0  0  0  0  0  0  0
   -2.7441   -1.3728   -6.2463 H   0  0  0  0  0  0  0  0  0  0  0  0
   -2.5791   -3.5422   -5.1400 N   0  0  0  0  0  0  0  0  0  0  0  0
   -2.4890   -4.4013   -4.6255 H   0  0  0  0  0  0  0  0  0  0  0  0
   -2.8977   -3.5674   -6.0910 H   0  0  0  0  0  0  0  0  0  0  0  0
   -1.6547    1.3413    1.4779 C   0  0  0  0  0  0  0  0  0  0  0  0
   -2.5654    1.9858    0.9716 O   0  0  0  0  0  0  0  0  0  0  0  0
   -0.8107    1.8504    2.3808 N   0  0  0  0  0  0  0  0  0  0  0  0
   -0.1136    1.2381    2.7719 H   0  0  0  0  0  0  0  0  0  0  0  0
   -0.8954    3.2155    2.9026 C   0  0  0  0  0  0  0  0  0  0  0  0
   -1.8299    3.3430    3.4532 H   0  0  0  0  0  0  0  0  0  0  0  0
   -0.0581    3.4194    3.5712 H   0  0  0  0  0  0  0  0  0  0  0  0
   -0.8804    3.9320    2.0784 H   0  0  0  0  0  0  0  0  0  0  0  0
  5  6  2  0  0  0  0
  5  7  1  0  0  0  0
  2  3  1  0  0  0  0
  2  4  1  0  0  0  0
  2  5  1  0  0  0  0
  1  2  1  0  0  0  0
 29 30  2  0  0  0  0
 29 31  1  0  0  0  0
 26 27  1  0  0  0  0
 26 28  1  0  0  0  0
 23 24  1  0  0  0  0
 23 25  1  0  0  0  0
 22 23  1  0  0  0  0
 22 26  1  0  0  0  0
 20 21  1  0  0  0  0
 20 22  2  0  0  0  0
 17 18  1  0  0  0  0
 17 19  1  0  0  0  0
 17 20  1  0  0  0  0
 14 15  1  0  0  0  0
 14 16  1  0  0  0  0
 14 17  1  0  0  0  0
 11 12  1  0  0  0  0
 11 13  1  0  0  0  0
 11 14  1  0  0  0  0
  9 10  1  0  0  0  0
  9 11  1  0  0  0  0
  9 29  1  0  0  0  0
  7  8  1  0  0  0  0
  7  9  1  0  0  0  0
 33 34  1  0  0  0  0
 33 35  1  0  0  0  0
 33 36  1  0  0  0  0
 31 32  1  0  0  0  0
 31 33  1  0  0  0  0
M  CHG  1  20   1
M  END
$$$$
default_name
  -OEChem-02102213163D

 36 35  0     1  0  0  0  0  0999 V2000
   -4.2256   -3.6731    1.8584 H   0  0  0  0  0  0  0  0  0  0  0  0
   -4.2396   -2.6781    1.4144 C   0  0  0  0  0  0  0  0  0  0  0  0
   -4.9506   -2.0521    1.9514 H   0  0  0  0  0  0  0  0  0  0  0  0
   -4.5266   -2.7521    0.3674 H   0  0  0  0  0  0  0  0  0  0  0  0
   -2.8576   -2.0761    1.5184 C   0  0  0  0  0  0  0  0  0  0  0  0
   -1.9456   -2.7051    2.0404 O   0  0  0  0  0  0  0  0  0  0  0  0
   -2.6926   -0.8481    1.0174 N   0  0  0  0  0  0  0  0  0  0  0  0
   -3.4926   -0.3971    0.5954 H   0  0  0  0  0  0  0  0  0  0  0  0
   -1.4216   -0.1071    1.0434 C   0  0  1  0  0  0  0  0  0  0  0  0
   -0.7579   -0.5878    1.7640 H   0  0  0  0  0  0  0  0  0  0  0  0
   -0.7791   -0.1912   -0.3557 C   0  0  0  0  0  0  0  0  0  0  0  0
   -1.1244    0.6578   -0.9491 H   0  0  0  0  0  0  0  0  0  0  0  0
    0.3059   -0.1158   -0.2553 H   0  0  0  0  0  0  0  0  0  0  0  0
   -1.1271   -1.4817   -1.1117 C   0  0  0  0  0  0  0  0  0  0  0  0
   -0.3875   -2.2516   -0.8874 H   0  0  0  0  0  0  0  0  0  0  0  0
   -2.1131   -1.8277   -0.8000 H   0  0  0  0  0  0  0  0  0  0  0  0
   -1.1337   -1.2162   -2.6233 C   0  0  0  0  0  0  0  0  0  0  0  0
   -1.8575   -0.4259   -2.8353 H   0  0  0  0  0  0  0  0  0  0  0  0
   -0.1399   -0.8731   -2.9203 H   0  0  0  0  0  0  0  0  0  0  0  0
   -1.4878   -2.4277   -3.3912 N   0  3  0  0  0  0  0  0  0  0  0  0
   -1.6326   -3.2711   -2.8630 H   0  0  0  0  0  0  0  0  0  0  0  0
   -1.6319   -2.5068   -4.7035 C   0  0  0  0  0  0  0  0  0  0  0  0
   -1.4671   -1.4746   -5.4824 N   0  0  0  0  0  0  0  0  0  0  0  0
   -1.2243   -0.5912   -5.0701 H   0  0  0  0  0  0  0  0  0  0  0  0
   -1.5799   -1.5519   -6.4765 H   0  0  0  0  0  0  0  0  0  0  0  0
   -1.9472   -3.6390   -5.2656 N   0  0  0  0  0  0  0  0  0  0  0  0
   -2.0850   -4.4630   -4.7061 H   0  0  0  0  0  0  0  0  0  0  0  0
   -2.0556   -3.6947   -6.2614 H   0  0  0  0  0  0  0  0  0  0  0  0
   -1.6547    1.3413    1.4779 C   0  0  0  0  0  0  0  0  0  0  0  0
   -2.5654    1.9858    0.9716 O   0  0  0  0  0  0  0  0  0  0  0  0
   -0.8107    1.8504    2.3808 N   0  0  0  0  0  0  0  0  0  0  0  0
   -0.1136    1.2381    2.7719 H   0  0  0  0  0  0  0  0  0  0  0  0
   -0.8954    3.2155    2.9026 C   0  0  0  0  0  0  0  0  0  0  0  0
   -1.8299    3.3430    3.4532 H   0  0  0  0  0  0  0  0  0  0  0  0
   -0.0581    3.4194    3.5712 H   0  0  0  0  0  0  0  0  0  0  0  0
   -0.8804    3.9320    2.0784 H   0  0  0  0  0  0  0  0  0  0  0  0
  5  6  2  0  0  0  0
  5  7  1  0  0  0  0
  2  3  1  0  0  0  0
  2  4  1  0  0  0  0
  2  5  1  0  0  0  0
  1  2  1  0  0  0  0
 29 30  2  0  0  0  0
 29 31  1  0  0  0  0
 26 27  1  0  0  0  0
 26 28  1  0  0  0  0
 23 24  1  0  0  0  0
 23 25  1  0  0  0  0
 22 23  1  0  0  0  0
 22 26  1  0  0  0  0
 20 21  1  0  0  0  0
 20 22  2  0  0  0  0
 17 18  1  0  0  0  0
 17 19  1  0  0  0  0
 17 20  1  0  0  0  0
 14 15  1  0  0  0  0
 14 16  1  0  0  0  0
 14 17  1  0  0  0  0
 11 12  1  0  0  0  0
 11 13  1  0  0  0  0
 11 14  1  0  0  0  0
  9 10  1  0  0  0  0
  9 11  1  0  0  0  0
  9 29  1  0  0  0  0
  7  8  1  0  0  0  0
  7  9  1  0  0  0  0
 33 34  1  0  0  0  0
 33 35  1  0  0  0  0
 33 36  1  0  0  0  0
 31 32  1  0  0  0  0
 31 33  1  0  0  0  0
M  CHG  1  20   1
M  END
$$$$
default_name
  -OEChem-02102213163D

 36 35  0     1  0  0  0  0  0999 V2000
   -4.2256   -3.6731    1.8584 H   0  0  0  0  0  0  0  0  0  0  0  0
   -4.2396   -2.6781    1.4144 C   0  0  0  0  0  0  0  0  0  0  0  0
   -4.9506   -2.0521    1.9514 H   0  0  0  0  0  0  0  0  0  0  0  0
   -4.5266   -2.7521    0.3674 H   0  0  0  0  0  0  0  0  0  0  0  0
   -2.8576   -2.0761    1.5184 C   0  0  0  0  0  0  0  0  0  0  0  0
   -1.9456   -2.7051    2.0404 O   0  0  0  0  0  0  0  0  0  0  0  0
   -2.6926   -0.8481    1.0174 N   0  0  0  0  0  0  0  0  0  0  0  0
   -3.4926   -0.3971    0.5954 H   0  0  0  0  0  0  0  0  0  0  0  0
   -1.4216   -0.1071    1.0434 C   0  0  1  0  0  0  0  0  0  0  0  0
   -0.7579   -0.5878    1.7640 H   0  0  0  0  0  0  0  0  0  0  0  0
   -0.7791   -0.1912   -0.3557 C   0  0  0  0  0  0  0  0  0  0  0  0
   -1.1244    0.6578   -0.9491 H   0  0  0  0  0  0  0  0  0  0  0  0
    0.3059   -0.1158   -0.2553 H   0  0  0  0  0  0  0  0  0  0  0  0
   -1.1271   -1.4817   -1.1117 C   0  0  0  0  0  0  0  0  0  0  0  0
   -0.5624   -2.3170   -0.6952 H   0  0  0  0  0  0  0  0  0  0  0  0
   -2.1942   -1.6823   -1.0108 H   0  0  0  0  0  0  0  0  0  0  0  0
   -0.7749   -1.3280   -2.5975 C   0  0  0  0  0  0  0  0  0  0  0  0
   -1.3241   -0.4736   -2.9995 H   0  0  0  0  0  0  0  0  0  0  0  0
    0.2962   -1.1301   -2.6822 H   0  0  0  0  0  0  0  0  0  0  0  0
   -1.1156   -2.5404   -3.3701 N   0  3  0  0  0  0  0  0  0  0  0  0
   -1.4816   -3.3194   -2.8500 H   0  0  0  0  0  0  0  0  0  0  0  0
   -0.9852   -2.6968   -4.6768 C   0  0  0  0  0  0  0  0  0  0  0  0
   -0.5211   -1.7515   -5.4452 N   0  0  0  0  0  0  0  0  0  0  0  0
   -0.2559   -0.8764   -5.0291 H   0  0  0  0  0  0  0  0  0  0  0  0
   -0.4282   -1.8867   -6.4351 H   0  0  0  0  0  0  0  0  0  0  0  0
   -1.3218   -3.8205   -5.2437 N   0  0  0  0  0  0  0  0  0  0  0  0
   -1.6850   -4.5788   -4.6924 H   0  0  0  0  0  0  0  0  0  0  0  0
   -1.2214   -3.9349   -6.2354 H   0  0  0  0  0  0  0  0  0  0  0  0
   -1.6547    1.3413    1.4779 C   0  0  0  0  0  0  0  0  0  0  0  0
   -2.5654    1.9858    0.9716 O   0  0  0  0  0  0  0  0  0  0  0  0
   -0.8107    1.8504    2.3808 N   0  0  0  0  0  0  0  0  0  0  0  0
   -0.1136    1.2381    2.7719 H   0  0  0  0  0  0  0  0  0  0  0  0
   -0.8954    3.2155    2.9026 C   0  0  0  0  0  0  0  0  0  0  0  0
   -1.8299    3.3430    3.4532 H   0  0  0  0  0  0  0  0  0  0  0  0
   -0.0581    3.4194    3.5712 H   0  0  0  0  0  0  0  0  0  0  0  0
   -0.8804    3.9320    2.0784 H   0  0  0  0  0  0  0  0  0  0  0  0
  5  6  2  0  0  0  0
  5  7  1  0  0  0  0
  2  3  1  0  0  0  0
  2  4  1  0  0  0  0
  2  5  1  0  0  0  0
  1  2  1  0  0  0  0
 29 30  2  0  0  0  0
 29 31  1  0  0  0  0
 26 27  1  0  0  0  0
 26 28  1  0  0  0  0
 23 24  1  0  0  0  0
 23 25  1  0  0  0  0
 22 23  1  0  0  0  0
 22 26  1  0  0  0  0
 20 21  1  0  0  0  0
 20 22  2  0  0  0  0
 17 18  1  0  0  0  0
 17 19  1  0  0  0  0
 17 20  1  0  0  0  0
 14 15  1  0  0  0  0
 14 16  1  0  0  0  0
 14 17  1  0  0  0  0
 11 12  1  0  0  0  0
 11 13  1  0  0  0  0
 11 14  1  0  0  0  0
  9 10  1  0  0  0  0
  9 11  1  0  0  0  0
  9 29  1  0  0  0  0
  7  8  1  0  0  0  0
  7  9  1  0  0  0  0
 33 34  1  0  0  0  0
 33 35  1  0  0  0  0
 33 36  1  0  0  0  0
 31 32  1  0  0  0  0
 31 33  1  0  0  0  0
M  CHG  1  20   1
M  END
$$$$
default_name
  -OEChem-02102213163D

 36 35  0     1  0  0  0  0  0999 V2000
   -4.2256   -3.6731    1.8584 H   0  0  0  0  0  0  0  0  0  0  0  0
   -4.2396   -2.6781    1.4144 C   0  0  0  0  0  0  0  0  0  0  0  0
   -4.9506   -2.0521    1.9514 H   0  0  0  0  0  0  0  0  0  0  0  0
   -4.5266   -2.7521    0.3674 H   0  0  0  0  0  0  0  0  0  0  0  0
   -2.8576   -2.0761    1.5184 C   0  0  0  0  0  0  0  0  0  0  0  0
   -1.9456   -2.7051    2.0404 O   0  0  0  0  0  0  0  0  0  0  0  0
   -2.6926   -0.8481    1.0174 N   0  0  0  0  0  0  0  0  0  0  0  0
   -3.4926   -0.3971    0.5954 H   0  0  0  0  0  0  0  0  0  0  0  0
   -1.4216   -0.1071    1.0434 C   0  0  1  0  0  0  0  0  0  0  0  0
   -0.7579   -0.5878    1.7640 H   0  0  0  0  0  0  0  0  0  0  0  0
   -0.7791   -0.1912   -0.3557 C   0  0  0  0  0  0  0  0  0  0  0  0
   -0.9000    0.7733   -0.8530 H   0  0  0  0  0  0  0  0  0  0  0  0
    0.2902   -0.3846   -0.2463 H   0  0  0  0  0  0  0  0  0  0  0  0
   -1.3990   -1.2756   -1.2489 C   0  0  0  0  0  0  0  0  0  0  0  0
   -1.2809   -2.2529   -0.7787 H   0  0  0  0  0  0  0  0  0  0  0  0
   -2.4607   -1.0673   -1.3852 H   0  0  0  0  0  0  0  0  0  0  0  0
   -0.7017   -1.2881   -2.6160 C   0  0  0  0  0  0  0  0  0  0  0  0
   -0.8019   -0.2984   -3.0676 H   0  0  0  0  0  0  0  0  0  0  0  0
    0.3592   -1.5001   -2.4633 H   0  0  0  0  0  0  0  0  0  0  0  0
   -1.2830   -2.3028   -3.5188 N   0  3  0  0  0  0  0  0  0  0  0  0
   -2.0103   -2.8832   -3.1374 H   0  0  0  0  0  0  0  0  0  0  0  0
   -0.9381   -2.5187   -4.7772 C   0  0  0  0  0  0  0  0  0  0  0  0
   -0.0077   -1.8243   -5.3699 N   0  0  0  0  0  0  0  0  0  0  0  0
    0.4601   -1.1013   -4.8523 H   0  0  0  0  0  0  0  0  0  0  0  0
    0.2422   -2.0012   -6.3254 H   0  0  0  0  0  0  0  0  0  0  0  0
   -1.5281   -3.4490   -5.4728 N   0  0  0  0  0  0  0  0  0  0  0  0
   -2.2522   -4.0107   -5.0590 H   0  0  0  0  0  0  0  0  0  0  0  0
   -1.2635   -3.6094   -6.4271 H   0  0  0  0  0  0  0  0  0  0  0  0
   -1.6547    1.3413    1.4779 C   0  0  0  0  0  0  0  0  0  0  0  0
   -2.5654    1.9858    0.9716 O   0  0  0  0  0  0  0  0  0  0  0  0
   -0.8107    1.8504    2.3808 N   0  0  0  0  0  0  0  0  0  0  0  0
   -0.1136    1.2381    2.7719 H   0  0  0  0  0  0  0  0  0  0  0  0
   -0.8954    3.2155    2.9026 C   0  0  0  0  0  0  0  0  0  0  0  0
   -1.8299    3.3430    3.4532 H   0  0  0  0  0  0  0  0  0  0  0  0
   -0.0581    3.4194    3.5712 H   0  0  0  0  0  0  0  0  0  0  0  0
   -0.8804    3.9320    2.0784 H   0  0  0  0  0  0  0  0  0  0  0  0
  5  6  2  0  0  0  0
  5  7  1  0  0  0  0
  2  3  1  0  0  0  0
  2  4  1  0  0  0  0
  2  5  1  0  0  0  0
  1  2  1  0  0  0  0
 29 30  2  0  0  0  0
 29 31  1  0  0  0  0
 26 27  1  0  0  0  0
 26 28  1  0  0  0  0
 23 24  1  0  0  0  0
 23 25  1  0  0  0  0
 22 23  1  0  0  0  0
 22 26  1  0  0  0  0
 20 21  1  0  0  0  0
 20 22  2  0  0  0  0
 17 18  1  0  0  0  0
 17 19  1  0  0  0  0
 17 20  1  0  0  0  0
 14 15  1  0  0  0  0
 14 16  1  0  0  0  0
 14 17  1  0  0  0  0
 11 12  1  0  0  0  0
 11 13  1  0  0  0  0
 11 14  1  0  0  0  0
  9 10  1  0  0  0  0
  9 11  1  0  0  0  0
  9 29  1  0  0  0  0
  7  8  1  0  0  0  0
  7  9  1  0  0  0  0
 33 34  1  0  0  0  0
 33 35  1  0  0  0  0
 33 36  1  0  0  0  0
 31 32  1  0  0  0  0
 31 33  1  0  0  0  0
M  CHG  1  20   1
M  END
$$$$
default_name
  -OEChem-02102213163D

 36 35  0     1  0  0  0  0  0999 V2000
   -4.2256   -3.6731    1.8584 H   0  0  0  0  0  0  0  0  0  0  0  0
   -4.2396   -2.6781    1.4144 C   0  0  0  0  0  0  0  0  0  0  0  0
   -4.9506   -2.0521    1.9514 H   0  0  0  0  0  0  0  0  0  0  0  0
   -4.5266   -2.7521    0.3674 H   0  0  0  0  0  0  0  0  0  0  0  0
   -2.8576   -2.0761    1.5184 C   0  0  0  0  0  0  0  0  0  0  0  0
   -1.9456   -2.7051    2.0404 O   0  0  0  0  0  0  0  0  0  0  0  0
   -2.6926   -0.8481    1.0174 N   0  0  0  0  0  0  0  0  0  0  0  0
   -3.4926   -0.3971    0.5954 H   0  0  0  0  0  0  0  0  0  0  0  0
   -1.4216   -0.1071    1.0434 C   0  0  1  0  0  0  0  0  0  0  0  0
   -0.7579   -0.5878    1.7640 H   0  0  0  0  0  0  0  0  0  0  0  0
   -0.7791   -0.1912   -0.3557 C   0  0  0  0  0  0  0  0  0  0  0  0
   -0.9000    0.7733   -0.8530 H   0  0  0  0  0  0  0  0  0  0  0  0
    0.2902   -0.3846   -0.2463 H   0  0  0  0  0  0  0  0  0  0  0  0
   -1.3990   -1.2756   -1.2489 C   0  0  0  0  0  0  0  0  0  0  0  0
   -1.5231   -2.1971   -0.6783 H   0  0  0  0  0  0  0  0  0  0  0  0
   -2.3732   -0.9375   -1.6035 H   0  0  0  0  0  0  0  0  0  0  0  0
   -0.4846   -1.5481   -2.4510 C   0  0  0  0  0  0  0  0  0  0  0  0
   -0.3445   -0.6147   -3.0011 H   0  0  0  0  0  0  0  0  0  0  0  0
    0.4853   -1.8877   -2.0801 H   0  0  0  0  0  0  0  0  0  0  0  0
   -1.0542   -2.5706   -3.3526 N   0  3  0  0  0  0  0  0  0  0  0  0
   -1.9204   -2.9934   -3.0660 H   0  0  0  0  0  0  0  0  0  0  0  0
   -0.5338   -2.9804   -4.4973 C   0  0  0  0  0  0  0  0  0  0  0  0
    0.5850   -2.4991   -4.9619 N   0  0  0  0  0  0  0  0  0  0  0  0
    1.0648   -1.7930   -4.4322 H   0  0  0  0  0  0  0  0  0  0  0  0
    0.9664   -2.8214   -5.8322 H   0  0  0  0  0  0  0  0  0  0  0  0
   -1.1345   -3.8941   -5.2055 N   0  0  0  0  0  0  0  0  0  0  0  0
   -2.0003   -4.2952   -4.8884 H   0  0  0  0  0  0  0  0  0  0  0  0
   -0.7363   -4.2021   -6.0734 H   0  0  0  0  0  0  0  0  0  0  0  0
   -1.6547    1.3413    1.4779 C   0  0  0  0  0  0  0  0  0  0  0  0
   -2.5654    1.9858    0.9716 O   0  0  0  0  0  0  0  0  0  0  0  0
   -0.8107    1.8504    2.3808 N   0  0  0  0  0  0  0  0  0  0  0  0
   -0.1136    1.2381    2.7719 H   0  0  0  0  0  0  0  0  0  0  0  0
   -0.8954    3.2155    2.9026 C   0  0  0  0  0  0  0  0  0  0  0  0
   -1.8299    3.3430    3.4532 H   0  0  0  0  0  0  0  0  0  0  0  0
   -0.0581    3.4194    3.5712 H   0  0  0  0  0  0  0  0  0  0  0  0
   -0.8804    3.9320    2.0784 H   0  0  0  0  0  0  0  0  0  0  0  0
  5  6  2  0  0  0  0
  5  7  1  0  0  0  0
  2  3  1  0  0  0  0
  2  4  1  0  0  0  0
  2  5  1  0  0  0  0
  1  2  1  0  0  0  0
 29 30  2  0  0  0  0
 29 31  1  0  0  0  0
 26 27  1  0  0  0  0
 26 28  1  0  0  0  0
 23 24  1  0  0  0  0
 23 25  1  0  0  0  0
 22 23  1  0  0  0  0
 22 26  1  0  0  0  0
 20 21  1  0  0  0  0
 20 22  2  0  0  0  0
 17 18  1  0  0  0  0
 17 19  1  0  0  0  0
 17 20  1  0  0  0  0
 14 15  1  0  0  0  0
 14 16  1  0  0  0  0
 14 17  1  0  0  0  0
 11 12  1  0  0  0  0
 11 13  1  0  0  0  0
 11 14  1  0  0  0  0
  9 10  1  0  0  0  0
  9 11  1  0  0  0  0
  9 29  1  0  0  0  0
  7  8  1  0  0  0  0
  7  9  1  0  0  0  0
 33 34  1  0  0  0  0
 33 35  1  0  0  0  0
 33 36  1  0  0  0  0
 31 32  1  0  0  0  0
 31 33  1  0  0  0  0
M  CHG  1  20   1
M  END
$$$$
default_name
  -OEChem-02102213163D

 36 35  0     1  0  0  0  0  0999 V2000
   -4.2256   -3.6731    1.8584 H   0  0  0  0  0  0  0  0  0  0  0  0
   -4.2396   -2.6781    1.4144 C   0  0  0  0  0  0  0  0  0  0  0  0
   -4.9506   -2.0521    1.9514 H   0  0  0  0  0  0  0  0  0  0  0  0
   -4.5266   -2.7521    0.3674 H   0  0  0  0  0  0  0  0  0  0  0  0
   -2.8576   -2.0761    1.5184 C   0  0  0  0  0  0  0  0  0  0  0  0
   -1.9456   -2.7051    2.0404 O   0  0  0  0  0  0  0  0  0  0  0  0
   -2.6926   -0.8481    1.0174 N   0  0  0  0  0  0  0  0  0  0  0  0
   -3.4926   -0.3971    0.5954 H   0  0  0  0  0  0  0  0  0  0  0  0
   -1.4216   -0.1071    1.0434 C   0  0  1  0  0  0  0  0  0  0  0  0
   -0.7579   -0.5878    1.7640 H   0  0  0  0  0  0  0  0  0  0  0  0
   -0.7791   -0.1912   -0.3557 C   0  0  0  0  0  0  0  0  0  0  0  0
   -0.9000    0.7733   -0.8530 H   0  0  0  0  0  0  0  0  0  0  0  0
    0.2902   -0.3846   -0.2463 H   0  0  0  0  0  0  0  0  0  0  0  0
   -1.3990   -1.2756   -1.2489 C   0  0  0  0  0  0  0  0  0  0  0  0
   -1.7669   -2.0963   -0.6315 H   0  0  0  0  0  0  0  0  0  0  0  0
   -2.2292   -0.8481   -1.8120 H   0  0  0  0  0  0  0  0  0  0  0  0
   -0.3443   -1.8146   -2.2248 C   0  0  0  0  0  0  0  0  0  0  0  0
    0.0376   -0.9821   -2.8202 H   0  0  0  0  0  0  0  0  0  0  0  0
    0.4787   -2.2411   -1.6465 H   0  0  0  0  0  0  0  0  0  0  0  0
   -0.9039   -2.8463   -3.1222 N   0  3  0  0  0  0  0  0  0  0  0  0
   -1.8633   -3.1059   -2.9691 H   0  0  0  0  0  0  0  0  0  0  0  0
   -0.2640   -3.4580   -4.1047 C   0  0  0  0  0  0  0  0  0  0  0  0
    0.9813   -3.1975   -4.3890 N   0  0  0  0  0  0  0  0  0  0  0  0
    1.4680   -2.5083   -3.8435 H   0  0  0  0  0  0  0  0  0  0  0  0
    1.4523   -3.6711   -5.1377 H   0  0  0  0  0  0  0  0  0  0  0  0
   -0.8701   -4.3554   -4.8289 N   0  0  0  0  0  0  0  0  0  0  0  0
   -1.8309   -4.5901   -4.6479 H   0  0  0  0  0  0  0  0  0  0  0  0
   -0.3810   -4.8170   -5.5734 H   0  0  0  0  0  0  0  0  0  0  0  0
   -1.6547    1.3413    1.4779 C   0  0  0  0  0  0  0  0  0  0  0  0
   -2.5654    1.9858    0.9716 O   0  0  0  0  0  0  0  0  0  0  0  0
   -0.8107    1.8504    2.3808 N   0  0  0  0  0  0  0  0  0  0  0  0
   -0.1136    1.2381    2.7719 H   0  0  0  0  0  0  0  0  0  0  0  0
   -0.8954    3.2155    2.9026 C   0  0  0  0  0  0  0  0  0  0  0  0
   -1.8299    3.3430    3.4532 H   0  0  0  0  0  0  0  0  0  0  0  0
   -0.0581    3.4194    3.5712 H   0  0  0  0  0  0  0  0  0  0  0  0
   -0.8804    3.9320    2.0784 H   0  0  0  0  0  0  0  0  0  0  0  0
  5  6  2  0  0  0  0
  5  7  1  0  0  0  0
  2  3  1  0  0  0  0
  2  4  1  0  0  0  0
  2  5  1  0  0  0  0
  1  2  1  0  0  0  0
 29 30  2  0  0  0  0
 29 31  1  0  0  0  0
 26 27  1  0  0  0  0
 26 28  1  0  0  0  0
 23 24  1  0  0  0  0
 23 25  1  0  0  0  0
 22 23  1  0  0  0  0
 22 26  1  0  0  0  0
 20 21  1  0  0  0  0
 20 22  2  0  0  0  0
 17 18  1  0  0  0  0
 17 19  1  0  0  0  0
 17 20  1  0  0  0  0
 14 15  1  0  0  0  0
 14 16  1  0  0  0  0
 14 17  1  0  0  0  0
 11 12  1  0  0  0  0
 11 13  1  0  0  0  0
 11 14  1  0  0  0  0
  9 10  1  0  0  0  0
  9 11  1  0  0  0  0
  9 29  1  0  0  0  0
  7  8  1  0  0  0  0
  7  9  1  0  0  0  0
 33 34  1  0  0  0  0
 33 35  1  0  0  0  0
 33 36  1  0  0  0  0
 31 32  1  0  0  0  0
 31 33  1  0  0  0  0
M  CHG  1  20   1
M  END
$$$$
default_name
  -OEChem-02102213163D

 36 35  0     1  0  0  0  0  0999 V2000
   -4.2256   -3.6731    1.8584 H   0  0  0  0  0  0  0  0  0  0  0  0
   -4.2396   -2.6781    1.4144 C   0  0  0  0  0  0  0  0  0  0  0  0
   -4.9506   -2.0521    1.9514 H   0  0  0  0  0  0  0  0  0  0  0  0
   -4.5266   -2.7521    0.3674 H   0  0  0  0  0  0  0  0  0  0  0  0
   -2.8576   -2.0761    1.5184 C   0  0  0  0  0  0  0  0  0  0  0  0
   -1.9456   -2.7051    2.0404 O   0  0  0  0  0  0  0  0  0  0  0  0
   -2.6926   -0.8481    1.0174 N   0  0  0  0  0  0  0  0  0  0  0  0
   -3.4926   -0.3971    0.5954 H   0  0  0  0  0  0  0  0  0  0  0  0
   -1.4216   -0.1071    1.0434 C   0  0  1  0  0  0  0  0  0  0  0  0
   -0.7579   -0.5878    1.7640 H   0  0  0  0  0  0  0  0  0  0  0  0
   -0.7791   -0.1912   -0.3557 C   0  0  0  0  0  0  0  0  0  0  0  0
   -0.9000    0.7733   -0.8530 H   0  0  0  0  0  0  0  0  0  0  0  0
    0.2902   -0.3846   -0.2463 H   0  0  0  0  0  0  0  0  0  0  0  0
   -1.3990   -1.2756   -1.2489 C   0  0  0  0  0  0  0  0  0  0  0  0
   -1.9959   -1.9573   -0.6413 H   0  0  0  0  0  0  0  0  0  0  0  0
   -2.0386   -0.8052   -1.9964 H   0  0  0  0  0  0  0  0  0  0  0  0
   -0.2901   -2.0696   -1.9528 C   0  0  0  0  0  0  0  0  0  0  0  0
    0.3183   -1.3756   -2.5373 H   0  0  0  0  0  0  0  0  0  0  0  0
    0.3399   -2.5362   -1.1920 H   0  0  0  0  0  0  0  0  0  0  0  0
   -0.8423   -3.1111   -2.8434 N   0  3  0  0  0  0  0  0  0  0  0  0
   -1.8427   -3.2131   -2.8533 H   0  0  0  0  0  0  0  0  0  0  0  0
   -0.1469   -3.9189   -3.6263 C   0  0  0  0  0  0  0  0  0  0  0  0
    1.1542   -3.8719   -3.6902 N   0  0  0  0  0  0  0  0  0  0  0  0
    1.6422   -3.1984   -3.1265 H   0  0  0  0  0  0  0  0  0  0  0  0
    1.6667   -4.4925   -4.2894 H   0  0  0  0  0  0  0  0  0  0  0  0
   -0.7531   -4.8014   -4.3687 N   0  0  0  0  0  0  0  0  0  0  0  0
   -1.7557   -4.8754   -4.3537 H   0  0  0  0  0  0  0  0  0  0  0  0
   -0.2218   -5.4122   -4.9613 H   0  0  0  0  0  0  0  0  0  0  0  0
   -1.6547    1.3413    1.4779 C   0  0  0  0  0  0  0  0  0  0  0  0
   -2.5654    1.9858    0.9716 O   0  0  0  0  0  0  0  0  0  0  0  0
   -0.8107    1.8504    2.3808 N   0  0  0  0  0  0  0  0  0  0  0  0
   -0.1136    1.2381    2.7719 H   0  0  0  0  0  0  0  0  0  0  0  0
   -0.8954    3.2155    2.9026 C   0  0  0  0  0  0  0  0  0  0  0  0
   -1.8299    3.3430    3.4532 H   0  0  0  0  0  0  0  0  0  0  0  0
   -0.0581    3.4194    3.5712 H   0  0  0  0  0  0  0  0  0  0  0  0
   -0.8804    3.9320    2.0784 H   0  0  0  0  0  0  0  0  0  0  0  0
  5  6  2  0  0  0  0
  5  7  1  0  0  0  0
  2  3  1  0  0  0  0
  2  4  1  0  0  0  0
  2  5  1  0  0  0  0
  1  2  1  0  0  0  0
 29 30  2  0  0  0  0
 29 31  1  0  0  0  0
 26 27  1  0  0  0  0
 26 28  1  0  0  0  0
 23 24  1  0  0  0  0
 23 25  1  0  0  0  0
 22 23  1  0  0  0  0
 22 26  1  0  0  0  0
 20 21  1  0  0  0  0
 20 22  2  0  0  0  0
 17 18  1  0  0  0  0
 17 19  1  0  0  0  0
 17 20  1  0  0  0  0
 14 15  1  0  0  0  0
 14 16  1  0  0  0  0
 14 17  1  0  0  0  0
 11 12  1  0  0  0  0
 11 13  1  0  0  0  0
 11 14  1  0  0  0  0
  9 10  1  0  0  0  0
  9 11  1  0  0  0  0
  9 29  1  0  0  0  0
  7  8  1  0  0  0  0
  7  9  1  0  0  0  0
 33 34  1  0  0  0  0
 33 35  1  0  0  0  0
 33 36  1  0  0  0  0
 31 32  1  0  0  0  0
 31 33  1  0  0  0  0
M  CHG  1  20   1
M  END
$$$$
default_name
  -OEChem-02102213163D

 36 35  0     1  0  0  0  0  0999 V2000
   -4.2256   -3.6731    1.8584 H   0  0  0  0  0  0  0  0  0  0  0  0
   -4.2396   -2.6781    1.4144 C   0  0  0  0  0  0  0  0  0  0  0  0
   -4.9506   -2.0521    1.9514 H   0  0  0  0  0  0  0  0  0  0  0  0
   -4.5266   -2.7521    0.3674 H   0  0  0  0  0  0  0  0  0  0  0  0
   -2.8576   -2.0761    1.5184 C   0  0  0  0  0  0  0  0  0  0  0  0
   -1.9456   -2.7051    2.0404 O   0  0  0  0  0  0  0  0  0  0  0  0
   -2.6926   -0.8481    1.0174 N   0  0  0  0  0  0  0  0  0  0  0  0
   -3.4926   -0.3971    0.5954 H   0  0  0  0  0  0  0  0  0  0  0  0
   -1.4216   -0.1071    1.0434 C   0  0  1  0  0  0  0  0  0  0  0  0
   -0.7579   -0.5878    1.7640 H   0  0  0  0  0  0  0  0  0  0  0  0
   -0.7791   -0.1912   -0.3557 C   0  0  0  0  0  0  0  0  0  0  0  0
   -0.9000    0.7733   -0.8530 H   0  0  0  0  0  0  0  0  0  0  0  0
    0.2902   -0.3846   -0.2463 H   0  0  0  0  0  0  0  0  0  0  0  0
   -1.3990   -1.2756   -1.2489 C   0  0  0  0  0  0  0  0  0  0  0  0
   -2.1943   -1.7896   -0.7072 H   0  0  0  0  0  0  0  0  0  0  0  0
   -1.8143   -0.8117   -2.1441 H   0  0  0  0  0  0  0  0  0  0  0  0
   -0.3260   -2.2956   -1.6536 C   0  0  0  0  0  0  0  0  0  0  0  0
    0.4785   -1.7684   -2.1715 H   0  0  0  0  0  0  0  0  0  0  0  0
    0.0784   -2.7528   -0.7474 H   0  0  0  0  0  0  0  0  0  0  0  0
   -0.8736   -3.3471   -2.5352 N   0  3  0  0  0  0  0  0  0  0  0  0
   -1.8601   -3.3076   -2.7264 H   0  0  0  0  0  0  0  0  0  0  0  0
   -0.1907   -4.3318   -3.0947 C   0  0  0  0  0  0  0  0  0  0  0  0
    1.0920   -4.4763   -2.9131 N   0  0  0  0  0  0  0  0  0  0  0  0
    1.5755   -3.8163   -2.3300 H   0  0  0  0  0  0  0  0  0  0  0  0
    1.5952   -5.2295   -3.3449 H   0  0  0  0  0  0  0  0  0  0  0  0
   -0.7913   -5.2018   -3.8561 N   0  0  0  0  0  0  0  0  0  0  0  0
   -1.7798   -5.1315   -4.0261 H   0  0  0  0  0  0  0  0  0  0  0  0
   -0.2694   -5.9472   -4.2787 H   0  0  0  0  0  0  0  0  0  0  0  0
   -1.6547    1.3413    1.4779 C   0  0  0  0  0  0  0  0  0  0  0  0
   -2.5654    1.9858    0.9716 O   0  0  0  0  0  0  0  0  0  0  0  0
   -0.8107    1.8504    2.3808 N   0  0  0  0  0  0  0  0  0  0  0  0
   -0.1136    1.2381    2.7719 H   0  0  0  0  0  0  0  0  0  0  0  0
   -0.8954    3.2155    2.9026 C   0  0  0  0  0  0  0  0  0  0  0  0
   -1.8299    3.3430    3.4532 H   0  0  0  0  0  0  0  0  0  0  0  0
   -0.0581    3.4194    3.5712 H   0  0  0  0  0  0  0  0  0  0  0  0
   -0.8804    3.9320    2.0784 H   0  0  0  0  0  0  0  0  0  0  0  0
  5  6  2  0  0  0  0
  5  7  1  0  0  0  0
  2  3  1  0  0  0  0
  2  4  1  0  0  0  0
  2  5  1  0  0  0  0
  1  2  1  0  0  0  0
 29 30  2  0  0  0  0
 29 31  1  0  0  0  0
 26 27  1  0  0  0  0
 26 28  1  0  0  0  0
 23 24  1  0  0  0  0
 23 25  1  0  0  0  0
 22 23  1  0  0  0  0
 22 26  1  0  0  0  0
 20 21  1  0  0  0  0
 20 22  2  0  0  0  0
 17 18  1  0  0  0  0
 17 19  1  0  0  0  0
 17 20  1  0  0  0  0
 14 15  1  0  0  0  0
 14 16  1  0  0  0  0
 14 17  1  0  0  0  0
 11 12  1  0  0  0  0
 11 13  1  0  0  0  0
 11 14  1  0  0  0  0
  9 10  1  0  0  0  0
  9 11  1  0  0  0  0
  9 29  1  0  0  0  0
  7  8  1  0  0  0  0
  7  9  1  0  0  0  0
 33 34  1  0  0  0  0
 33 35  1  0  0  0  0
 33 36  1  0  0  0  0
 31 32  1  0  0  0  0
 31 33  1  0  0  0  0
M  CHG  1  20   1
M  END
$$$$
default_name
  -OEChem-02102213163D

 36 35  0     1  0  0  0  0  0999 V2000
   -4.2256   -3.6731    1.8584 H   0  0  0  0  0  0  0  0  0  0  0  0
   -4.2396   -2.6781    1.4144 C   0  0  0  0  0  0  0  0  0  0  0  0
   -4.9506   -2.0521    1.9514 H   0  0  0  0  0  0  0  0  0  0  0  0
   -4.5266   -2.7521    0.3674 H   0  0  0  0  0  0  0  0  0  0  0  0
   -2.8576   -2.0761    1.5184 C   0  0  0  0  0  0  0  0  0  0  0  0
   -1.9456   -2.7051    2.0404 O   0  0  0  0  0  0  0  0  0  0  0  0
   -2.6926   -0.8481    1.0174 N   0  0  0  0  0  0  0  0  0  0  0  0
   -3.4926   -0.3971    0.5954 H   0  0  0  0  0  0  0  0  0  0  0  0
   -1.4216   -0.1071    1.0434 C   0  0  1  0  0  0  0  0  0  0  0  0
   -0.7579   -0.5878    1.7640 H   0  0  0  0  0  0  0  0  0  0  0  0
   -0.7791   -0.1912   -0.3557 C   0  0  0  0  0  0  0  0  0  0  0  0
   -0.9000    0.7733   -0.8530 H   0  0  0  0  0  0  0  0  0  0  0  0
    0.2902   -0.3846   -0.2463 H   0  0  0  0  0  0  0  0  0  0  0  0
   -1.3990   -1.2756   -1.2489 C   0  0  0  0  0  0  0  0  0  0  0  0
   -2.3486   -1.6047   -0.8246 H   0  0  0  0  0  0  0  0  0  0  0  0
   -1.5717   -0.8672   -2.2451 H   0  0  0  0  0  0  0  0  0  0  0  0
   -0.4493   -2.4772   -1.3475 C   0  0  0  0  0  0  0  0  0  0  0  0
    0.5072   -2.1337   -1.7480 H   0  0  0  0  0  0  0  0  0  0  0  0
   -0.2881   -2.8763   -0.3432 H   0  0  0  0  0  0  0  0  0  0  0  0
   -0.9958   -3.5381   -2.2185 N   0  3  0  0  0  0  0  0  0  0  0  0
   -1.9144   -3.3830   -2.5972 H   0  0  0  0  0  0  0  0  0  0  0  0
   -0.3924   -4.6684   -2.5460 C   0  0  0  0  0  0  0  0  0  0  0  0
    0.7989   -4.9697   -2.1108 N   0  0  0  0  0  0  0  0  0  0  0  0
    1.2724   -4.3199   -1.5083 H   0  0  0  0  0  0  0  0  0  0  0  0
    1.2425   -5.8320   -2.3686 H   0  0  0  0  0  0  0  0  0  0  0  0
   -0.9821   -5.5292   -3.3261 N   0  0  0  0  0  0  0  0  0  0  0  0
   -1.9015   -5.3410   -3.6872 H   0  0  0  0  0  0  0  0  0  0  0  0
   -0.5208   -6.3854   -3.5722 H   0  0  0  0  0  0  0  0  0  0  0  0
   -1.6547    1.3413    1.4779 C   0  0  0  0  0  0  0  0  0  0  0  0
   -2.5654    1.9858    0.9716 O   0  0  0  0  0  0  0  0  0  0  0  0
   -0.8107    1.8504    2.3808 N   0  0  0  0  0  0  0  0  0  0  0  0
   -0.1136    1.2381    2.7719 H   0  0  0  0  0  0  0  0  0  0  0  0
   -0.8954    3.2155    2.9026 C   0  0  0  0  0  0  0  0  0  0  0  0
   -1.8299    3.3430    3.4532 H   0  0  0  0  0  0  0  0  0  0  0  0
   -0.0581    3.4194    3.5712 H   0  0  0  0  0  0  0  0  0  0  0  0
   -0.8804    3.9320    2.0784 H   0  0  0  0  0  0  0  0  0  0  0  0
  5  6  2  0  0  0  0
  5  7  1  0  0  0  0
  2  3  1  0  0  0  0
  2  4  1  0  0  0  0
  2  5  1  0  0  0  0
  1  2  1  0  0  0  0
 29 30  2  0  0  0  0
 29 31  1  0  0  0  0
 26 27  1  0  0  0  0
 26 28  1  0  0  0  0
 23 24  1  0  0  0  0
 23 25  1  0  0  0  0
 22 23  1  0  0  0  0
 22 26  1  0  0  0  0
 20 21  1  0  0  0  0
 20 22  2  0  0  0  0
 17 18  1  0  0  0  0
 17 19  1  0  0  0  0
 17 20  1  0  0  0  0
 14 15  1  0  0  0  0
 14 16  1  0  0  0  0
 14 17  1  0  0  0  0
 11 12  1  0  0  0  0
 11 13  1  0  0  0  0
 11 14  1  0  0  0  0
  9 10  1  0  0  0  0
  9 11  1  0  0  0  0
  9 29  1  0  0  0  0
  7  8  1  0  0  0  0
  7  9  1  0  0  0  0
 33 34  1  0  0  0  0
 33 35  1  0  0  0  0
 33 36  1  0  0  0  0
 31 32  1  0  0  0  0
 31 33  1  0  0  0  0
M  CHG  1  20   1
M  END
$$$$
default_name
  -OEChem-02102213163D

 36 35  0     1  0  0  0  0  0999 V2000
   -4.2256   -3.6731    1.8584 H   0  0  0  0  0  0  0  0  0  0  0  0
   -4.2396   -2.6781    1.4144 C   0  0  0  0  0  0  0  0  0  0  0  0
   -4.9506   -2.0521    1.9514 H   0  0  0  0  0  0  0  0  0  0  0  0
   -4.5266   -2.7521    0.3674 H   0  0  0  0  0  0  0  0  0  0  0  0
   -2.8576   -2.0761    1.5184 C   0  0  0  0  0  0  0  0  0  0  0  0
   -1.9456   -2.7051    2.0404 O   0  0  0  0  0  0  0  0  0  0  0  0
   -2.6926   -0.8481    1.0174 N   0  0  0  0  0  0  0  0  0  0  0  0
   -3.4926   -0.3971    0.5954 H   0  0  0  0  0  0  0  0  0  0  0  0
   -1.4216   -0.1071    1.0434 C   0  0  1  0  0  0  0  0  0  0  0  0
   -0.7579   -0.5878    1.7640 H   0  0  0  0  0  0  0  0  0  0  0  0
   -0.7791   -0.1912   -0.3557 C   0  0  0  0  0  0  0  0  0  0  0  0
   -0.9000    0.7733   -0.8530 H   0  0  0  0  0  0  0  0  0  0  0  0
    0.2902   -0.3846   -0.2463 H   0  0  0  0  0  0  0  0  0  0  0  0
   -1.3990   -1.2756   -1.2489 C   0  0  0  0  0  0  0  0  0  0  0  0
   -2.4484   -1.4151   -0.9856 H   0  0  0  0  0  0  0  0  0  0  0  0
   -1.3272   -0.9679   -2.2926 H   0  0  0  0  0  0  0  0  0  0  0  0
   -0.6517   -2.6021   -1.0553 C   0  0  0  0  0  0  0  0  0  0  0  0
    0.4026   -2.4466   -1.2954 H   0  0  0  0  0  0  0  0  0  0  0  0
   -0.7346   -2.8981   -0.0069 H   0  0  0  0  0  0  0  0  0  0  0  0
   -1.2004   -3.6711   -1.9150 N   0  3  0  0  0  0  0  0  0  0  0  0
   -2.0017   -3.4341   -2.4745 H   0  0  0  0  0  0  0  0  0  0  0  0
   -0.7381   -4.9059   -2.0178 C   0  0  0  0  0  0  0  0  0  0  0  0
    0.2948   -5.3182   -1.3378 N   0  0  0  0  0  0  0  0  0  0  0  0
    0.7537   -4.6749   -0.7174 H   0  0  0  0  0  0  0  0  0  0  0  0
    0.6326   -6.2588   -1.4272 H   0  0  0  0  0  0  0  0  0  0  0  0
   -1.3126   -5.7613   -2.8149 N   0  0  0  0  0  0  0  0  0  0  0  0
   -2.1125   -5.4897   -3.3603 H   0  0  0  0  0  0  0  0  0  0  0  0
   -0.9587   -6.6971   -2.8899 H   0  0  0  0  0  0  0  0  0  0  0  0
   -1.6547    1.3413    1.4779 C   0  0  0  0  0  0  0  0  0  0  0  0
   -2.5654    1.9858    0.9716 O   0  0  0  0  0  0  0  0  0  0  0  0
   -0.8107    1.8504    2.3808 N   0  0  0  0  0  0  0  0  0  0  0  0
   -0.1136    1.2381    2.7719 H   0  0  0  0  0  0  0  0  0  0  0  0
   -0.8954    3.2155    2.9026 C   0  0  0  0  0  0  0  0  0  0  0  0
   -1.8299    3.3430    3.4532 H   0  0  0  0  0  0  0  0  0  0  0  0
   -0.0581    3.4194    3.5712 H   0  0  0  0  0  0  0  0  0  0  0  0
   -0.8804    3.9320    2.0784 H   0  0  0  0  0  0  0  0  0  0  0  0
  5  6  2  0  0  0  0
  5  7  1  0  0  0  0
  2  3  1  0  0  0  0
  2  4  1  0  0  0  0
  2  5  1  0  0  0  0
  1  2  1  0  0  0  0
 29 30  2  0  0  0  0
 29 31  1  0  0  0  0
 26 27  1  0  0  0  0
 26 28  1  0  0  0  0
 23 24  1  0  0  0  0
 23 25  1  0  0  0  0
 22 23  1  0  0  0  0
 22 26  1  0  0  0  0
 20 21  1  0  0  0  0
 20 22  2  0  0  0  0
 17 18  1  0  0  0  0
 17 19  1  0  0  0  0
 17 20  1  0  0  0  0
 14 15  1  0  0  0  0
 14 16  1  0  0  0  0
 14 17  1  0  0  0  0
 11 12  1  0  0  0  0
 11 13  1  0  0  0  0
 11 14  1  0  0  0  0
  9 10  1  0  0  0  0
  9 11  1  0  0  0  0
  9 29  1  0  0  0  0
  7  8  1  0  0  0  0
  7  9  1  0  0  0  0
 33 34  1  0  0  0  0
 33 35  1  0  0  0  0
 33 36  1  0  0  0  0
 31 32  1  0  0  0  0
 31 33  1  0  0  0  0
M  CHG  1  20   1
M  END
$$$$
default_name
  -OEChem-02102213163D

 36 35  0     1  0  0  0  0  0999 V2000
   -4.2256   -3.6731    1.8584 H   0  0  0  0  0  0  0  0  0  0  0  0
   -4.2396   -2.6781    1.4144 C   0  0  0  0  0  0  0  0  0  0  0  0
   -4.9506   -2.0521    1.9514 H   0  0  0  0  0  0  0  0  0  0  0  0
   -4.5266   -2.7521    0.3674 H   0  0  0  0  0  0  0  0  0  0  0  0
   -2.8576   -2.0761    1.5184 C   0  0  0  0  0  0  0  0  0  0  0  0
   -1.9456   -2.7051    2.0404 O   0  0  0  0  0  0  0  0  0  0  0  0
   -2.6926   -0.8481    1.0174 N   0  0  0  0  0  0  0  0  0  0  0  0
   -3.4926   -0.3971    0.5954 H   0  0  0  0  0  0  0  0  0  0  0  0
   -1.4216   -0.1071    1.0434 C   0  0  1  0  0  0  0  0  0  0  0  0
   -0.7579   -0.5878    1.7640 H   0  0  0  0  0  0  0  0  0  0  0  0
   -0.7791   -0.1912   -0.3557 C   0  0  0  0  0  0  0  0  0  0  0  0
   -0.9000    0.7733   -0.8530 H   0  0  0  0  0  0  0  0  0  0  0  0
    0.2902   -0.3846   -0.2463 H   0  0  0  0  0  0  0  0  0  0  0  0
   -1.3990   -1.2756   -1.2489 C   0  0  0  0  0  0  0  0  0  0  0  0
   -2.4869   -1.2337   -1.1791 H   0  0  0  0  0  0  0  0  0  0  0  0
   -1.0975   -1.1069   -2.2832 H   0  0  0  0  0  0  0  0  0  0  0  0
   -0.9194   -2.6618   -0.7971 C   0  0  0  0  0  0  0  0  0  0  0  0
    0.1717   -2.6858   -0.8447 H   0  0  0  0  0  0  0  0  0  0  0  0
   -1.2307   -2.8168    0.2387 H   0  0  0  0  0  0  0  0  0  0  0  0
   -1.4735   -3.7371   -1.6453 N   0  3  0  0  0  0  0  0  0  0  0  0
   -2.1162   -3.4576   -2.3665 H   0  0  0  0  0  0  0  0  0  0  0  0
   -1.2043   -5.0281   -1.5459 C   0  0  0  0  0  0  0  0  0  0  0  0
   -0.3858   -5.4982   -0.6469 N   0  0  0  0  0  0  0  0  0  0  0  0
    0.0547   -4.8570   -0.0111 H   0  0  0  0  0  0  0  0  0  0  0  0
   -0.1928   -6.4809   -0.5847 H   0  0  0  0  0  0  0  0  0  0  0  0
   -1.7603   -5.8824   -2.3572 N   0  0  0  0  0  0  0  0  0  0  0  0
   -2.3985   -5.5674   -3.0675 H   0  0  0  0  0  0  0  0  0  0  0  0
   -1.5532   -6.8609   -2.2784 H   0  0  0  0  0  0  0  0  0  0  0  0
   -1.6547    1.3413    1.4779 C   0  0  0  0  0  0  0  0  0  0  0  0
   -2.5654    1.9858    0.9716 O   0  0  0  0  0  0  0  0  0  0  0  0
   -0.8107    1.8504    2.3808 N   0  0  0  0  0  0  0  0  0  0  0  0
   -0.1136    1.2381    2.7719 H   0  0  0  0  0  0  0  0  0  0  0  0
   -0.8954    3.2155    2.9026 C   0  0  0  0  0  0  0  0  0  0  0  0
   -1.8299    3.3430    3.4532 H   0  0  0  0  0  0  0  0  0  0  0  0
   -0.0581    3.4194    3.5712 H   0  0  0  0  0  0  0  0  0  0  0  0
   -0.8804    3.9320    2.0784 H   0  0  0  0  0  0  0  0  0  0  0  0
  5  6  2  0  0  0  0
  5  7  1  0  0  0  0
  2  3  1  0  0  0  0
  2  4  1  0  0  0  0
  2  5  1  0  0  0  0
  1  2  1  0  0  0  0
 29 30  2  0  0  0  0
 29 31  1  0  0  0  0
 26 27  1  0  0  0  0
 26 28  1  0  0  0  0
 23 24  1  0  0  0  0
 23 25  1  0  0  0  0
 22 23  1  0  0  0  0
 22 26  1  0  0  0  0
 20 21  1  0  0  0  0
 20 22  2  0  0  0  0
 17 18  1  0  0  0  0
 17 19  1  0  0  0  0
 17 20  1  0  0  0  0
 14 15  1  0  0  0  0
 14 16  1  0  0  0  0
 14 17  1  0  0  0  0
 11 12  1  0  0  0  0
 11 13  1  0  0  0  0
 11 14  1  0  0  0  0
  9 10  1  0  0  0  0
  9 11  1  0  0  0  0
  9 29  1  0  0  0  0
  7  8  1  0  0  0  0
  7  9  1  0  0  0  0
 33 34  1  0  0  0  0
 33 35  1  0  0  0  0
 33 36  1  0  0  0  0
 31 32  1  0  0  0  0
 31 33  1  0  0  0  0
M  CHG  1  20   1
M  END
$$$$
default_name
  -OEChem-02102213163D

 36 35  0     1  0  0  0  0  0999 V2000
   -4.2256   -3.6731    1.8584 H   0  0  0  0  0  0  0  0  0  0  0  0
   -4.2396   -2.6781    1.4144 C   0  0  0  0  0  0  0  0  0  0  0  0
   -4.9506   -2.0521    1.9514 H   0  0  0  0  0  0  0  0  0  0  0  0
   -4.5266   -2.7521    0.3674 H   0  0  0  0  0  0  0  0  0  0  0  0
   -2.8576   -2.0761    1.5184 C   0  0  0  0  0  0  0  0  0  0  0  0
   -1.9456   -2.7051    2.0404 O   0  0  0  0  0  0  0  0  0  0  0  0
   -2.6926   -0.8481    1.0174 N   0  0  0  0  0  0  0  0  0  0  0  0
   -3.4926   -0.3971    0.5954 H   0  0  0  0  0  0  0  0  0  0  0  0
   -1.4216   -0.1071    1.0434 C   0  0  1  0  0  0  0  0  0  0  0  0
   -0.7579   -0.5878    1.7640 H   0  0  0  0  0  0  0  0  0  0  0  0
   -0.7791   -0.1912   -0.3557 C   0  0  0  0  0  0  0  0  0  0  0  0
   -0.9000    0.7733   -0.8530 H   0  0  0  0  0  0  0  0  0  0  0  0
    0.2902   -0.3846   -0.2463 H   0  0  0  0  0  0  0  0  0  0  0  0
   -1.3990   -1.2756   -1.2489 C   0  0  0  0  0  0  0  0  0  0  0  0
   -2.4613   -1.0729   -1.3920 H   0  0  0  0  0  0  0  0  0  0  0  0
   -0.8983   -1.2748   -2.2176 H   0  0  0  0  0  0  0  0  0  0  0  0
   -1.2342   -2.6521   -0.5904 C   0  0  0  0  0  0  0  0  0  0  0  0
   -0.1698   -2.8351   -0.4266 H   0  0  0  0  0  0  0  0  0  0  0  0
   -1.7424   -2.6379    0.3767 H   0  0  0  0  0  0  0  0  0  0  0  0
   -1.7966   -3.7315   -1.4279 N   0  3  0  0  0  0  0  0  0  0  0  0
   -2.2501   -3.4517   -2.2807 H   0  0  0  0  0  0  0  0  0  0  0  0
   -1.7593   -5.0266   -1.1625 C   0  0  0  0  0  0  0  0  0  0  0  0
   -1.1966   -5.4975   -0.0851 N   0  0  0  0  0  0  0  0  0  0  0  0
   -0.7771   -4.8539    0.5624 H   0  0  0  0  0  0  0  0  0  0  0  0
   -1.1774   -6.4832    0.1014 H   0  0  0  0  0  0  0  0  0  0  0  0
   -2.2945   -5.8842   -1.9844 N   0  0  0  0  0  0  0  0  0  0  0  0
   -2.7399   -5.5688   -2.8288 H   0  0  0  0  0  0  0  0  0  0  0  0
   -2.2640   -6.8658   -1.7792 H   0  0  0  0  0  0  0  0  0  0  0  0
   -1.6547    1.3413    1.4779 C   0  0  0  0  0  0  0  0  0  0  0  0
   -2.5654    1.9858    0.9716 O   0  0  0  0  0  0  0  0  0  0  0  0
   -0.8107    1.8504    2.3808 N   0  0  0  0  0  0  0  0  0  0  0  0
   -0.1136    1.2381    2.7719 H   0  0  0  0  0  0  0  0  0  0  0  0
   -0.8954    3.2155    2.9026 C   0  0  0  0  0  0  0  0  0  0  0  0
   -1.8299    3.3430    3.4532 H   0  0  0  0  0  0  0  0  0  0  0  0
   -0.0581    3.4194    3.5712 H   0  0  0  0  0  0  0  0  0  0  0  0
   -0.8804    3.9320    2.0784 H   0  0  0  0  0  0  0  0  0  0  0  0
  5  6  2  0  0  0  0
  5  7  1  0  0  0  0
  2  3  1  0  0  0  0
  2  4  1  0  0  0  0
  2  5  1  0  0  0  0
  1  2  1  0  0  0  0
 29 30  2  0  0  0  0
 29 31  1  0  0  0  0
 26 27  1  0  0  0  0
 26 28  1  0  0  0  0
 23 24  1  0  0  0  0
 23 25  1  0  0  0  0
 22 23  1  0  0  0  0
 22 26  1  0  0  0  0
 20 21  1  0  0  0  0
 20 22  2  0  0  0  0
 17 18  1  0  0  0  0
 17 19  1  0  0  0  0
 17 20  1  0  0  0  0
 14 15  1  0  0  0  0
 14 16  1  0  0  0  0
 14 17  1  0  0  0  0
 11 12  1  0  0  0  0
 11 13  1  0  0  0  0
 11 14  1  0  0  0  0
  9 10  1  0  0  0  0
  9 11  1  0  0  0  0
  9 29  1  0  0  0  0
  7  8  1  0  0  0  0
  7  9  1  0  0  0  0
 33 34  1  0  0  0  0
 33 35  1  0  0  0  0
 33 36  1  0  0  0  0
 31 32  1  0  0  0  0
 31 33  1  0  0  0  0
M  CHG  1  20   1
M  END
$$$$
default_name
  -OEChem-02102213163D

 36 35  0     1  0  0  0  0  0999 V2000
   -4.2256   -3.6731    1.8584 H   0  0  0  0  0  0  0  0  0  0  0  0
   -4.2396   -2.6781    1.4144 C   0  0  0  0  0  0  0  0  0  0  0  0
   -4.9506   -2.0521    1.9514 H   0  0  0  0  0  0  0  0  0  0  0  0
   -4.5266   -2.7521    0.3674 H   0  0  0  0  0  0  0  0  0  0  0  0
   -2.8576   -2.0761    1.5184 C   0  0  0  0  0  0  0  0  0  0  0  0
   -1.9456   -2.7051    2.0404 O   0  0  0  0  0  0  0  0  0  0  0  0
   -2.6926   -0.8481    1.0174 N   0  0  0  0  0  0  0  0  0  0  0  0
   -3.4926   -0.3971    0.5954 H   0  0  0  0  0  0  0  0  0  0  0  0
   -1.4216   -0.1071    1.0434 C   0  0  1  0  0  0  0  0  0  0  0  0
   -0.7579   -0.5878    1.7640 H   0  0  0  0  0  0  0  0  0  0  0  0
   -0.7791   -0.1912   -0.3557 C   0  0  0  0  0  0  0  0  0  0  0  0
   -0.9000    0.7733   -0.8530 H   0  0  0  0  0  0  0  0  0  0  0  0
    0.2902   -0.3846   -0.2463 H   0  0  0  0  0  0  0  0  0  0  0  0
   -1.3990   -1.2756   -1.2489 C   0  0  0  0  0  0  0  0  0  0  0  0
   -2.3735   -0.9438   -1.6098 H   0  0  0  0  0  0  0  0  0  0  0  0
   -0.7431   -1.4601   -2.1003 H   0  0  0  0  0  0  0  0  0  0  0  0
   -1.5746   -2.5738   -0.4492 C   0  0  0  0  0  0  0  0  0  0  0  0
   -0.5985   -2.8841   -0.0695 H   0  0  0  0  0  0  0  0  0  0  0  0
   -2.2351   -2.3737    0.3978 H   0  0  0  0  0  0  0  0  0  0  0  0
   -2.1475   -3.6548   -1.2775 N   0  3  0  0  0  0  0  0  0  0  0  0
   -2.3943   -3.4169   -2.2230 H   0  0  0  0  0  0  0  0  0  0  0  0
   -2.3653   -4.9015   -0.8938 C   0  0  0  0  0  0  0  0  0  0  0  0
   -2.0824   -5.3160    0.3093 N   0  0  0  0  0  0  0  0  0  0  0  0
   -1.6848   -4.6658    0.9640 H   0  0  0  0  0  0  0  0  0  0  0  0
   -2.2543   -6.2655    0.5844 H   0  0  0  0  0  0  0  0  0  0  0  0
   -2.8790   -5.7665   -1.7216 N   0  0  0  0  0  0  0  0  0  0  0  0
   -3.1135   -5.4938   -2.6606 H   0  0  0  0  0  0  0  0  0  0  0  0
   -3.0425   -6.7113   -1.4265 H   0  0  0  0  0  0  0  0  0  0  0  0
   -1.6547    1.3413    1.4779 C   0  0  0  0  0  0  0  0  0  0  0  0
   -2.5654    1.9858    0.9716 O   0  0  0  0  0  0  0  0  0  0  0  0
   -0.8107    1.8504    2.3808 N   0  0  0  0  0  0  0  0  0  0  0  0
   -0.1136    1.2381    2.7719 H   0  0  0  0  0  0  0  0  0  0  0  0
   -0.8954    3.2155    2.9026 C   0  0  0  0  0  0  0  0  0  0  0  0
   -1.8299    3.3430    3.4532 H   0  0  0  0  0  0  0  0  0  0  0  0
   -0.0581    3.4194    3.5712 H   0  0  0  0  0  0  0  0  0  0  0  0
   -0.8804    3.9320    2.0784 H   0  0  0  0  0  0  0  0  0  0  0  0
  5  6  2  0  0  0  0
  5  7  1  0  0  0  0
  2  3  1  0  0  0  0
  2  4  1  0  0  0  0
  2  5  1  0  0  0  0
  1  2  1  0  0  0  0
 29 30  2  0  0  0  0
 29 31  1  0  0  0  0
 26 27  1  0  0  0  0
 26 28  1  0  0  0  0
 23 24  1  0  0  0  0
 23 25  1  0  0  0  0
 22 23  1  0  0  0  0
 22 26  1  0  0  0  0
 20 21  1  0  0  0  0
 20 22  2  0  0  0  0
 17 18  1  0  0  0  0
 17 19  1  0  0  0  0
 17 20  1  0  0  0  0
 14 15  1  0  0  0  0
 14 16  1  0  0  0  0
 14 17  1  0  0  0  0
 11 12  1  0  0  0  0
 11 13  1  0  0  0  0
 11 14  1  0  0  0  0
  9 10  1  0  0  0  0
  9 11  1  0  0  0  0
  9 29  1  0  0  0  0
  7  8  1  0  0  0  0
  7  9  1  0  0  0  0
 33 34  1  0  0  0  0
 33 35  1  0  0  0  0
 33 36  1  0  0  0  0
 31 32  1  0  0  0  0
 31 33  1  0  0  0  0
M  CHG  1  20   1
M  END
$$$$
default_name
  -OEChem-02102213163D

 36 35  0     1  0  0  0  0  0999 V2000
   -4.2256   -3.6731    1.8584 H   0  0  0  0  0  0  0  0  0  0  0  0
   -4.2396   -2.6781    1.4144 C   0  0  0  0  0  0  0  0  0  0  0  0
   -4.9506   -2.0521    1.9514 H   0  0  0  0  0  0  0  0  0  0  0  0
   -4.5266   -2.7521    0.3674 H   0  0  0  0  0  0  0  0  0  0  0  0
   -2.8576   -2.0761    1.5184 C   0  0  0  0  0  0  0  0  0  0  0  0
   -1.9456   -2.7051    2.0404 O   0  0  0  0  0  0  0  0  0  0  0  0
   -2.6926   -0.8481    1.0174 N   0  0  0  0  0  0  0  0  0  0  0  0
   -3.4926   -0.3971    0.5954 H   0  0  0  0  0  0  0  0  0  0  0  0
   -1.4216   -0.1071    1.0434 C   0  0  1  0  0  0  0  0  0  0  0  0
   -0.7579   -0.5878    1.7640 H   0  0  0  0  0  0  0  0  0  0  0  0
   -0.7791   -0.1912   -0.3557 C   0  0  0  0  0  0  0  0  0  0  0  0
   -0.9000    0.7733   -0.8530 H   0  0  0  0  0  0  0  0  0  0  0  0
    0.2902   -0.3846   -0.2463 H   0  0  0  0  0  0  0  0  0  0  0  0
   -1.3990   -1.2756   -1.2489 C   0  0  0  0  0  0  0  0  0  0  0  0
   -2.2295   -0.8549   -1.8176 H   0  0  0  0  0  0  0  0  0  0  0  0
   -0.6426   -1.6502   -1.9393 H   0  0  0  0  0  0  0  0  0  0  0  0
   -1.9174   -2.4322   -0.3833 C   0  0  0  0  0  0  0  0  0  0  0  0
   -1.0852   -2.8297    0.2022 H   0  0  0  0  0  0  0  0  0  0  0  0
   -2.6750   -2.0421    0.3005 H   0  0  0  0  0  0  0  0  0  0  0  0
   -2.5024   -3.5121   -1.2044 N   0  3  0  0  0  0  0  0  0  0  0  0
   -2.5388   -3.3556   -2.1971 H   0  0  0  0  0  0  0  0  0  0  0  0
   -2.9809   -4.6614   -0.7581 C   0  0  0  0  0  0  0  0  0  0  0  0
   -2.9828   -4.9661    0.5094 N   0  0  0  0  0  0  0  0  0  0  0  0
   -2.6068   -4.3055    1.1663 H   0  0  0  0  0  0  0  0  0  0  0  0
   -3.3500   -5.8426    0.8314 H   0  0  0  0  0  0  0  0  0  0  0  0
   -3.4739   -5.5373   -1.5870 N   0  0  0  0  0  0  0  0  0  0  0  0
   -3.4939   -5.3475   -2.5742 H   0  0  0  0  0  0  0  0  0  0  0  0
   -3.8357   -6.4081   -1.2442 H   0  0  0  0  0  0  0  0  0  0  0  0
   -1.6547    1.3413    1.4779 C   0  0  0  0  0  0  0  0  0  0  0  0
   -2.5654    1.9858    0.9716 O   0  0  0  0  0  0  0  0  0  0  0  0
   -0.8107    1.8504    2.3808 N   0  0  0  0  0  0  0  0  0  0  0  0
   -0.1136    1.2381    2.7719 H   0  0  0  0  0  0  0  0  0  0  0  0
   -0.8954    3.2155    2.9026 C   0  0  0  0  0  0  0  0  0  0  0  0
   -1.8299    3.3430    3.4532 H   0  0  0  0  0  0  0  0  0  0  0  0
   -0.0581    3.4194    3.5712 H   0  0  0  0  0  0  0  0  0  0  0  0
   -0.8804    3.9320    2.0784 H   0  0  0  0  0  0  0  0  0  0  0  0
  5  6  2  0  0  0  0
  5  7  1  0  0  0  0
  2  3  1  0  0  0  0
  2  4  1  0  0  0  0
  2  5  1  0  0  0  0
  1  2  1  0  0  0  0
 29 30  2  0  0  0  0
 29 31  1  0  0  0  0
 26 27  1  0  0  0  0
 26 28  1  0  0  0  0
 23 24  1  0  0  0  0
 23 25  1  0  0  0  0
 22 23  1  0  0  0  0
 22 26  1  0  0  0  0
 20 21  1  0  0  0  0
 20 22  2  0  0  0  0
 17 18  1  0  0  0  0
 17 19  1  0  0  0  0
 17 20  1  0  0  0  0
 14 15  1  0  0  0  0
 14 16  1  0  0  0  0
 14 17  1  0  0  0  0
 11 12  1  0  0  0  0
 11 13  1  0  0  0  0
 11 14  1  0  0  0  0
  9 10  1  0  0  0  0
  9 11  1  0  0  0  0
  9 29  1  0  0  0  0
  7  8  1  0  0  0  0
  7  9  1  0  0  0  0
 33 34  1  0  0  0  0
 33 35  1  0  0  0  0
 33 36  1  0  0  0  0
 31 32  1  0  0  0  0
 31 33  1  0  0  0  0
M  CHG  1  20   1
M  END
$$$$
default_name
  -OEChem-02102213163D

 36 35  0     1  0  0  0  0  0999 V2000
   -4.2256   -3.6731    1.8584 H   0  0  0  0  0  0  0  0  0  0  0  0
   -4.2396   -2.6781    1.4144 C   0  0  0  0  0  0  0  0  0  0  0  0
   -4.9506   -2.0521    1.9514 H   0  0  0  0  0  0  0  0  0  0  0  0
   -4.5266   -2.7521    0.3674 H   0  0  0  0  0  0  0  0  0  0  0  0
   -2.8576   -2.0761    1.5184 C   0  0  0  0  0  0  0  0  0  0  0  0
   -1.9456   -2.7051    2.0404 O   0  0  0  0  0  0  0  0  0  0  0  0
   -2.6926   -0.8481    1.0174 N   0  0  0  0  0  0  0  0  0  0  0  0
   -3.4926   -0.3971    0.5954 H   0  0  0  0  0  0  0  0  0  0  0  0
   -1.4216   -0.1071    1.0434 C   0  0  1  0  0  0  0  0  0  0  0  0
   -0.7579   -0.5878    1.7640 H   0  0  0  0  0  0  0  0  0  0  0  0
   -0.7791   -0.1912   -0.3557 C   0  0  0  0  0  0  0  0  0  0  0  0
   -0.9000    0.7733   -0.8530 H   0  0  0  0  0  0  0  0  0  0  0  0
    0.2902   -0.3846   -0.2463 H   0  0  0  0  0  0  0  0  0  0  0  0
   -1.3990   -1.2756   -1.2489 C   0  0  0  0  0  0  0  0  0  0  0  0
   -2.0389   -0.8126   -2.0013 H   0  0  0  0  0  0  0  0  0  0  0  0
   -0.6035   -1.8321   -1.7455 H   0  0  0  0  0  0  0  0  0  0  0  0
   -2.2392   -2.2368   -0.3971 C   0  0  0  0  0  0  0  0  0  0  0  0
   -1.5968   -2.6754    0.3700 H   0  0  0  0  0  0  0  0  0  0  0  0
   -3.0322   -1.6658    0.0915 H   0  0  0  0  0  0  0  0  0  0  0  0
   -2.8372   -3.3132   -1.2135 N   0  3  0  0  0  0  0  0  0  0  0  0
   -2.6739   -3.2719   -2.2050 H   0  0  0  0  0  0  0  0  0  0  0  0
   -3.5641   -4.3227   -0.7646 C   0  0  0  0  0  0  0  0  0  0  0  0
   -3.8363   -4.4717    0.5015 N   0  0  0  0  0  0  0  0  0  0  0  0
   -3.4800   -3.7975    1.1556 H   0  0  0  0  0  0  0  0  0  0  0  0
   -4.3899   -5.2434    0.8255 H   0  0  0  0  0  0  0  0  0  0  0  0
   -4.0386   -5.2124   -1.5896 N   0  0  0  0  0  0  0  0  0  0  0  0
   -3.8551   -5.1400   -2.5755 H   0  0  0  0  0  0  0  0  0  0  0  0
   -4.5895   -5.9767   -1.2448 H   0  0  0  0  0  0  0  0  0  0  0  0
   -1.6547    1.3413    1.4779 C   0  0  0  0  0  0  0  0  0  0  0  0
   -2.5654    1.9858    0.9716 O   0  0  0  0  0  0  0  0  0  0  0  0
   -0.8107    1.8504    2.3808 N   0  0  0  0  0  0  0  0  0  0  0  0
   -0.1136    1.2381    2.7719 H   0  0  0  0  0  0  0  0  0  0  0  0
   -0.8954    3.2155    2.9026 C   0  0  0  0  0  0  0  0  0  0  0  0
   -1.8299    3.3430    3.4532 H   0  0  0  0  0  0  0  0  0  0  0  0
   -0.0581    3.4194    3.5712 H   0  0  0  0  0  0  0  0  0  0  0  0
   -0.8804    3.9320    2.0784 H   0  0  0  0  0  0  0  0  0  0  0  0
  5  6  2  0  0  0  0
  5  7  1  0  0  0  0
  2  3  1  0  0  0  0
  2  4  1  0  0  0  0
  2  5  1  0  0  0  0
  1  2  1  0  0  0  0
 29 30  2  0  0  0  0
 29 31  1  0  0  0  0
 26 27  1  0  0  0  0
 26 28  1  0  0  0  0
 23 24  1  0  0  0  0
 23 25  1  0  0  0  0
 22 23  1  0  0  0  0
 22 26  1  0  0  0  0
 20 21  1  0  0  0  0
 20 22  2  0  0  0  0
 17 18  1  0  0  0  0
 17 19  1  0  0  0  0
 17 20  1  0  0  0  0
 14 15  1  0  0  0  0
 14 16  1  0  0  0  0
 14 17  1  0  0  0  0
 11 12  1  0  0  0  0
 11 13  1  0  0  0  0
 11 14  1  0  0  0  0
  9 10  1  0  0  0  0
  9 11  1  0  0  0  0
  9 29  1  0  0  0  0
  7  8  1  0  0  0  0
  7  9  1  0  0  0  0
 33 34  1  0  0  0  0
 33 35  1  0  0  0  0
 33 36  1  0  0  0  0
 31 32  1  0  0  0  0
 31 33  1  0  0  0  0
M  CHG  1  20   1
M  END
$$$$
default_name
  -OEChem-02102213163D

 36 35  0     1  0  0  0  0  0999 V2000
   -4.2256   -3.6731    1.8584 H   0  0  0  0  0  0  0  0  0  0  0  0
   -4.2396   -2.6781    1.4144 C   0  0  0  0  0  0  0  0  0  0  0  0
   -4.9506   -2.0521    1.9514 H   0  0  0  0  0  0  0  0  0  0  0  0
   -4.5266   -2.7521    0.3674 H   0  0  0  0  0  0  0  0  0  0  0  0
   -2.8576   -2.0761    1.5184 C   0  0  0  0  0  0  0  0  0  0  0  0
   -1.9456   -2.7051    2.0404 O   0  0  0  0  0  0  0  0  0  0  0  0
   -2.6926   -0.8481    1.0174 N   0  0  0  0  0  0  0  0  0  0  0  0
   -3.4926   -0.3971    0.5954 H   0  0  0  0  0  0  0  0  0  0  0  0
   -1.4216   -0.1071    1.0434 C   0  0  1  0  0  0  0  0  0  0  0  0
   -0.7579   -0.5878    1.7640 H   0  0  0  0  0  0  0  0  0  0  0  0
   -0.7791   -0.1912   -0.3557 C   0  0  0  0  0  0  0  0  0  0  0  0
   -0.9000    0.7733   -0.8530 H   0  0  0  0  0  0  0  0  0  0  0  0
    0.2902   -0.3846   -0.2463 H   0  0  0  0  0  0  0  0  0  0  0  0
   -1.3990   -1.2756   -1.2489 C   0  0  0  0  0  0  0  0  0  0  0  0
   -1.8150   -0.8195   -2.1483 H   0  0  0  0  0  0  0  0  0  0  0  0
   -0.6286   -1.9935   -1.5322 H   0  0  0  0  0  0  0  0  0  0  0  0
   -2.5182   -2.0012   -0.4896 C   0  0  0  0  0  0  0  0  0  0  0  0
   -2.0984   -2.4319    0.4224 H   0  0  0  0  0  0  0  0  0  0  0  0
   -3.2825   -1.2703   -0.2150 H   0  0  0  0  0  0  0  0  0  0  0  0
   -3.1289   -3.0717   -1.3043 N   0  3  0  0  0  0  0  0  0  0  0  0
   -2.7903   -3.1715   -2.2460 H   0  0  0  0  0  0  0  0  0  0  0  0
   -4.0753   -3.9084   -0.9129 C   0  0  0  0  0  0  0  0  0  0  0  0
   -4.5849   -3.8665    0.2862 N   0  0  0  0  0  0  0  0  0  0  0  0
   -4.2450   -3.1765    0.9325 H   0  0  0  0  0  0  0  0  0  0  0  0
   -5.3030   -4.5086    0.5672 H   0  0  0  0  0  0  0  0  0  0  0  0
   -4.5346   -4.8138   -1.7293 N   0  0  0  0  0  0  0  0  0  0  0  0
   -4.1725   -4.8853   -2.6645 H   0  0  0  0  0  0  0  0  0  0  0  0
   -5.2526   -5.4466   -1.4282 H   0  0  0  0  0  0  0  0  0  0  0  0
   -1.6547    1.3413    1.4779 C   0  0  0  0  0  0  0  0  0  0  0  0
   -2.5654    1.9858    0.9716 O   0  0  0  0  0  0  0  0  0  0  0  0
   -0.8107    1.8504    2.3808 N   0  0  0  0  0  0  0  0  0  0  0  0
   -0.1136    1.2381    2.7719 H   0  0  0  0  0  0  0  0  0  0  0  0
   -0.8954    3.2155    2.9026 C   0  0  0  0  0  0  0  0  0  0  0  0
   -1.8299    3.3430    3.4532 H   0  0  0  0  0  0  0  0  0  0  0  0
   -0.0581    3.4194    3.5712 H   0  0  0  0  0  0  0  0  0  0  0  0
   -0.8804    3.9320    2.0784 H   0  0  0  0  0  0  0  0  0  0  0  0
  5  6  2  0  0  0  0
  5  7  1  0  0  0  0
  2  3  1  0  0  0  0
  2  4  1  0  0  0  0
  2  5  1  0  0  0  0
  1  2  1  0  0  0  0
 29 30  2  0  0  0  0
 29 31  1  0  0  0  0
 26 27  1  0  0  0  0
 26 28  1  0  0  0  0
 23 24  1  0  0  0  0
 23 25  1  0  0  0  0
 22 23  1  0  0  0  0
 22 26  1  0  0  0  0
 20 21  1  0  0  0  0
 20 22  2  0  0  0  0
 17 18  1  0  0  0  0
 17 19  1  0  0  0  0
 17 20  1  0  0  0  0
 14 15  1  0  0  0  0
 14 16  1  0  0  0  0
 14 17  1  0  0  0  0
 11 12  1  0  0  0  0
 11 13  1  0  0  0  0
 11 14  1  0  0  0  0
  9 10  1  0  0  0  0
  9 11  1  0  0  0  0
  9 29  1  0  0  0  0
  7  8  1  0  0  0  0
  7  9  1  0  0  0  0
 33 34  1  0  0  0  0
 33 35  1  0  0  0  0
 33 36  1  0  0  0  0
 31 32  1  0  0  0  0
 31 33  1  0  0  0  0
M  CHG  1  20   1
M  END
$$$$
default_name
  -OEChem-02102213163D

 36 35  0     1  0  0  0  0  0999 V2000
   -4.2256   -3.6731    1.8584 H   0  0  0  0  0  0  0  0  0  0  0  0
   -4.2396   -2.6781    1.4144 C   0  0  0  0  0  0  0  0  0  0  0  0
   -4.9506   -2.0521    1.9514 H   0  0  0  0  0  0  0  0  0  0  0  0
   -4.5266   -2.7521    0.3674 H   0  0  0  0  0  0  0  0  0  0  0  0
   -2.8576   -2.0761    1.5184 C   0  0  0  0  0  0  0  0  0  0  0  0
   -1.9456   -2.7051    2.0404 O   0  0  0  0  0  0  0  0  0  0  0  0
   -2.6926   -0.8481    1.0174 N   0  0  0  0  0  0  0  0  0  0  0  0
   -3.4926   -0.3971    0.5954 H   0  0  0  0  0  0  0  0  0  0  0  0
   -1.4216   -0.1071    1.0434 C   0  0  1  0  0  0  0  0  0  0  0  0
   -0.7579   -0.5878    1.7640 H   0  0  0  0  0  0  0  0  0  0  0  0
   -0.7791   -0.1912   -0.3557 C   0  0  0  0  0  0  0  0  0  0  0  0
   -0.9000    0.7733   -0.8530 H   0  0  0  0  0  0  0  0  0  0  0  0
    0.2902   -0.3846   -0.2463 H   0  0  0  0  0  0  0  0  0  0  0  0
   -1.3990   -1.2756   -1.2489 C   0  0  0  0  0  0  0  0  0  0  0  0
   -1.5728   -0.8753   -2.2487 H   0  0  0  0  0  0  0  0  0  0  0  0
   -0.7161   -2.1233   -1.3139 H   0  0  0  0  0  0  0  0  0  0  0  0
   -2.7353   -1.7412   -0.6546 C   0  0  0  0  0  0  0  0  0  0  0  0
   -2.5559   -2.1156    0.3559 H   0  0  0  0  0  0  0  0  0  0  0  0
   -3.4086   -0.8827   -0.5981 H   0  0  0  0  0  0  0  0  0  0  0  0
   -3.3577   -2.8040   -1.4706 N   0  3  0  0  0  0  0  0  0  0  0  0
   -2.8802   -3.0614   -2.3174 H   0  0  0  0  0  0  0  0  0  0  0  0
   -4.4797   -3.4467   -1.1928 C   0  0  0  0  0  0  0  0  0  0  0  0
   -5.1776   -3.1917   -0.1218 N   0  0  0  0  0  0  0  0  0  0  0  0
   -4.8497   -2.4848    0.5124 H   0  0  0  0  0  0  0  0  0  0  0  0
   -6.0272   -3.6885    0.0739 H   0  0  0  0  0  0  0  0  0  0  0  0
   -4.9283   -4.3687   -1.9965 N   0  0  0  0  0  0  0  0  0  0  0  0
   -4.4244   -4.6007   -2.8351 H   0  0  0  0  0  0  0  0  0  0  0  0
   -5.7798   -4.8539   -1.7820 H   0  0  0  0  0  0  0  0  0  0  0  0
   -1.6547    1.3413    1.4779 C   0  0  0  0  0  0  0  0  0  0  0  0
   -2.5654    1.9858    0.9716 O   0  0  0  0  0  0  0  0  0  0  0  0
   -0.8107    1.8504    2.3808 N   0  0  0  0  0  0  0  0  0  0  0  0
   -0.1136    1.2381    2.7719 H   0  0  0  0  0  0  0  0  0  0  0  0
   -0.8954    3.2155    2.9026 C   0  0  0  0  0  0  0  0  0  0  0  0
   -1.8299    3.3430    3.4532 H   0  0  0  0  0  0  0  0  0  0  0  0
   -0.0581    3.4194    3.5712 H   0  0  0  0  0  0  0  0  0  0  0  0
   -0.8804    3.9320    2.0784 H   0  0  0  0  0  0  0  0  0  0  0  0
  5  6  2  0  0  0  0
  5  7  1  0  0  0  0
  2  3  1  0  0  0  0
  2  4  1  0  0  0  0
  2  5  1  0  0  0  0
  1  2  1  0  0  0  0
 29 30  2  0  0  0  0
 29 31  1  0  0  0  0
 26 27  1  0  0  0  0
 26 28  1  0  0  0  0
 23 24  1  0  0  0  0
 23 25  1  0  0  0  0
 22 23  1  0  0  0  0
 22 26  1  0  0  0  0
 20 21  1  0  0  0  0
 20 22  2  0  0  0  0
 17 18  1  0  0  0  0
 17 19  1  0  0  0  0
 17 20  1  0  0  0  0
 14 15  1  0  0  0  0
 14 16  1  0  0  0  0
 14 17  1  0  0  0  0
 11 12  1  0  0  0  0
 11 13  1  0  0  0  0
 11 14  1  0  0  0  0
  9 10  1  0  0  0  0
  9 11  1  0  0  0  0
  9 29  1  0  0  0  0
  7  8  1  0  0  0  0
  7  9  1  0  0  0  0
 33 34  1  0  0  0  0
 33 35  1  0  0  0  0
 33 36  1  0  0  0  0
 31 32  1  0  0  0  0
 31 33  1  0  0  0  0
M  CHG  1  20   1
M  END
$$$$
default_name
  -OEChem-02102213163D

 36 35  0     1  0  0  0  0  0999 V2000
   -4.2256   -3.6731    1.8584 H   0  0  0  0  0  0  0  0  0  0  0  0
   -4.2396   -2.6781    1.4144 C   0  0  0  0  0  0  0  0  0  0  0  0
   -4.9506   -2.0521    1.9514 H   0  0  0  0  0  0  0  0  0  0  0  0
   -4.5266   -2.7521    0.3674 H   0  0  0  0  0  0  0  0  0  0  0  0
   -2.8576   -2.0761    1.5184 C   0  0  0  0  0  0  0  0  0  0  0  0
   -1.9456   -2.7051    2.0404 O   0  0  0  0  0  0  0  0  0  0  0  0
   -2.6926   -0.8481    1.0174 N   0  0  0  0  0  0  0  0  0  0  0  0
   -3.4926   -0.3971    0.5954 H   0  0  0  0  0  0  0  0  0  0  0  0
   -1.4216   -0.1071    1.0434 C   0  0  1  0  0  0  0  0  0  0  0  0
   -0.7579   -0.5878    1.7640 H   0  0  0  0  0  0  0  0  0  0  0  0
   -0.7791   -0.1912   -0.3557 C   0  0  0  0  0  0  0  0  0  0  0  0
   -0.9000    0.7733   -0.8530 H   0  0  0  0  0  0  0  0  0  0  0  0
    0.2902   -0.3846   -0.2463 H   0  0  0  0  0  0  0  0  0  0  0  0
   -1.3990   -1.2756   -1.2489 C   0  0  0  0  0  0  0  0  0  0  0  0
   -1.3290   -0.9761   -2.2955 H   0  0  0  0  0  0  0  0  0  0  0  0
   -0.8601   -2.2127   -1.1055 H   0  0  0  0  0  0  0  0  0  0  0  0
   -2.8756   -1.4747   -0.8808 C   0  0  0  0  0  0  0  0  0  0  0  0
   -2.9380   -1.7482    0.1750 H   0  0  0  0  0  0  0  0  0  0  0  0
   -3.4020   -0.5293   -1.0317 H   0  0  0  0  0  0  0  0  0  0  0  0
   -3.5080   -2.5283   -1.7010 N   0  3  0  0  0  0  0  0  0  0  0  0
   -2.9374   -2.9488   -2.4144 H   0  0  0  0  0  0  0  0  0  0  0  0
   -4.7495   -2.9691   -1.5854 C   0  0  0  0  0  0  0  0  0  0  0  0
   -5.5739   -2.4933   -0.6947 N   0  0  0  0  0  0  0  0  0  0  0  0
   -5.2529   -1.7695   -0.0763 H   0  0  0  0  0  0  0  0  0  0  0  0
   -6.5131   -2.8387   -0.6205 H   0  0  0  0  0  0  0  0  0  0  0  0
   -5.1926   -3.9074   -2.3731 N   0  0  0  0  0  0  0  0  0  0  0  0
   -4.5937   -4.3058   -3.0757 H   0  0  0  0  0  0  0  0  0  0  0  0
   -6.1351   -4.2389   -2.2820 H   0  0  0  0  0  0  0  0  0  0  0  0
   -1.6547    1.3413    1.4779 C   0  0  0  0  0  0  0  0  0  0  0  0
   -2.5654    1.9858    0.9716 O   0  0  0  0  0  0  0  0  0  0  0  0
   -0.8107    1.8504    2.3808 N   0  0  0  0  0  0  0  0  0  0  0  0
   -0.1136    1.2381    2.7719 H   0  0  0  0  0  0  0  0  0  0  0  0
   -0.8954    3.2155    2.9026 C   0  0  0  0  0  0  0  0  0  0  0  0
   -1.8299    3.3430    3.4532 H   0  0  0  0  0  0  0  0  0  0  0  0
   -0.0581    3.4194    3.5712 H   0  0  0  0  0  0  0  0  0  0  0  0
   -0.8804    3.9320    2.0784 H   0  0  0  0  0  0  0  0  0  0  0  0
  5  6  2  0  0  0  0
  5  7  1  0  0  0  0
  2  3  1  0  0  0  0
  2  4  1  0  0  0  0
  2  5  1  0  0  0  0
  1  2  1  0  0  0  0
 29 30  2  0  0  0  0
 29 31  1  0  0  0  0
 26 27  1  0  0  0  0
 26 28  1  0  0  0  0
 23 24  1  0  0  0  0
 23 25  1  0  0  0  0
 22 23  1  0  0  0  0
 22 26  1  0  0  0  0
 20 21  1  0  0  0  0
 20 22  2  0  0  0  0
 17 18  1  0  0  0  0
 17 19  1  0  0  0  0
 17 20  1  0  0  0  0
 14 15  1  0  0  0  0
 14 16  1  0  0  0  0
 14 17  1  0  0  0  0
 11 12  1  0  0  0  0
 11 13  1  0  0  0  0
 11 14  1  0  0  0  0
  9 10  1  0  0  0  0
  9 11  1  0  0  0  0
  9 29  1  0  0  0  0
  7  8  1  0  0  0  0
  7  9  1  0  0  0  0
 33 34  1  0  0  0  0
 33 35  1  0  0  0  0
 33 36  1  0  0  0  0
 31 32  1  0  0  0  0
 31 33  1  0  0  0  0
M  CHG  1  20   1
M  END
$$$$
default_name
  -OEChem-02102213163D

 36 35  0     1  0  0  0  0  0999 V2000
   -4.2256   -3.6731    1.8584 H   0  0  0  0  0  0  0  0  0  0  0  0
   -4.2396   -2.6781    1.4144 C   0  0  0  0  0  0  0  0  0  0  0  0
   -4.9506   -2.0521    1.9514 H   0  0  0  0  0  0  0  0  0  0  0  0
   -4.5266   -2.7521    0.3674 H   0  0  0  0  0  0  0  0  0  0  0  0
   -2.8576   -2.0761    1.5184 C   0  0  0  0  0  0  0  0  0  0  0  0
   -1.9456   -2.7051    2.0404 O   0  0  0  0  0  0  0  0  0  0  0  0
   -2.6926   -0.8481    1.0174 N   0  0  0  0  0  0  0  0  0  0  0  0
   -3.4926   -0.3971    0.5954 H   0  0  0  0  0  0  0  0  0  0  0  0
   -1.4216   -0.1071    1.0434 C   0  0  1  0  0  0  0  0  0  0  0  0
   -0.7579   -0.5878    1.7640 H   0  0  0  0  0  0  0  0  0  0  0  0
   -0.7791   -0.1912   -0.3557 C   0  0  0  0  0  0  0  0  0  0  0  0
   -0.9000    0.7733   -0.8530 H   0  0  0  0  0  0  0  0  0  0  0  0
    0.2902   -0.3846   -0.2463 H   0  0  0  0  0  0  0  0  0  0  0  0
   -1.3990   -1.2756   -1.2489 C   0  0  0  0  0  0  0  0  0  0  0  0
   -1.1000   -1.1150   -2.2856 H   0  0  0  0  0  0  0  0  0  0  0  0
   -1.0507   -2.2556   -0.9211 H   0  0  0  0  0  0  0  0  0  0  0  0
   -2.9297   -1.2197   -1.1528 C   0  0  0  0  0  0  0  0  0  0  0  0
   -3.2187   -1.3547   -0.1080 H   0  0  0  0  0  0  0  0  0  0  0  0
   -3.2632   -0.2342   -1.4863 H   0  0  0  0  0  0  0  0  0  0  0  0
   -3.5696   -2.2635   -1.9798 N   0  3  0  0  0  0  0  0  0  0  0  0
   -2.9580   -2.8417   -2.5302 H   0  0  0  0  0  0  0  0  0  0  0  0
   -4.8665   -2.5082   -2.0638 C   0  0  0  0  0  0  0  0  0  0  0  0
   -5.7468   -1.8189   -1.3935 N   0  0  0  0  0  0  0  0  0  0  0  0
   -5.4271   -1.0794   -0.7933 H   0  0  0  0  0  0  0  0  0  0  0  0
   -6.7275   -2.0174   -1.4689 H   0  0  0  0  0  0  0  0  0  0  0  0
   -5.3097   -3.4614   -2.8334 N   0  0  0  0  0  0  0  0  0  0  0  0
   -4.6689   -4.0205   -3.3698 H   0  0  0  0  0  0  0  0  0  0  0  0
   -6.2944   -3.6437   -2.8941 H   0  0  0  0  0  0  0  0  0  0  0  0
   -1.6547    1.3413    1.4779 C   0  0  0  0  0  0  0  0  0  0  0  0
   -2.5654    1.9858    0.9716 O   0  0  0  0  0  0  0  0  0  0  0  0
   -0.8107    1.8504    2.3808 N   0  0  0  0  0  0  0  0  0  0  0  0
   -0.1136    1.2381    2.7719 H   0  0  0  0  0  0  0  0  0  0  0  0
   -0.8954    3.2155    2.9026 C   0  0  0  0  0  0  0  0  0  0  0  0
   -1.8299    3.3430    3.4532 H   0  0  0  0  0  0  0  0  0  0  0  0
   -0.0581    3.4194    3.5712 H   0  0  0  0  0  0  0  0  0  0  0  0
   -0.8804    3.9320    2.0784 H   0  0  0  0  0  0  0  0  0  0  0  0
  5  6  2  0  0  0  0
  5  7  1  0  0  0  0
  2  3  1  0  0  0  0
  2  4  1  0  0  0  0
  2  5  1  0  0  0  0
  1  2  1  0  0  0  0
 29 30  2  0  0  0  0
 29 31  1  0  0  0  0
 26 27  1  0  0  0  0
 26 28  1  0  0  0  0
 23 24  1  0  0  0  0
 23 25  1  0  0  0  0
 22 23  1  0  0  0  0
 22 26  1  0  0  0  0
 20 21  1  0  0  0  0
 20 22  2  0  0  0  0
 17 18  1  0  0  0  0
 17 19  1  0  0  0  0
 17 20  1  0  0  0  0
 14 15  1  0  0  0  0
 14 16  1  0  0  0  0
 14 17  1  0  0  0  0
 11 12  1  0  0  0  0
 11 13  1  0  0  0  0
 11 14  1  0  0  0  0
  9 10  1  0  0  0  0
  9 11  1  0  0  0  0
  9 29  1  0  0  0  0
  7  8  1  0  0  0  0
  7  9  1  0  0  0  0
 33 34  1  0  0  0  0
 33 35  1  0  0  0  0
 33 36  1  0  0  0  0
 31 32  1  0  0  0  0
 31 33  1  0  0  0  0
M  CHG  1  20   1
M  END
$$$$
default_name
  -OEChem-02102213163D

 36 35  0     1  0  0  0  0  0999 V2000
   -4.2256   -3.6731    1.8584 H   0  0  0  0  0  0  0  0  0  0  0  0
   -4.2396   -2.6781    1.4144 C   0  0  0  0  0  0  0  0  0  0  0  0
   -4.9506   -2.0521    1.9514 H   0  0  0  0  0  0  0  0  0  0  0  0
   -4.5266   -2.7521    0.3674 H   0  0  0  0  0  0  0  0  0  0  0  0
   -2.8576   -2.0761    1.5184 C   0  0  0  0  0  0  0  0  0  0  0  0
   -1.9456   -2.7051    2.0404 O   0  0  0  0  0  0  0  0  0  0  0  0
   -2.6926   -0.8481    1.0174 N   0  0  0  0  0  0  0  0  0  0  0  0
   -3.4926   -0.3971    0.5954 H   0  0  0  0  0  0  0  0  0  0  0  0
   -1.4216   -0.1071    1.0434 C   0  0  1  0  0  0  0  0  0  0  0  0
   -0.7579   -0.5878    1.7640 H   0  0  0  0  0  0  0  0  0  0  0  0
   -0.7791   -0.1912   -0.3557 C   0  0  0  0  0  0  0  0  0  0  0  0
   -0.9000    0.7733   -0.8530 H   0  0  0  0  0  0  0  0  0  0  0  0
    0.2902   -0.3846   -0.2463 H   0  0  0  0  0  0  0  0  0  0  0  0
   -1.3990   -1.2756   -1.2489 C   0  0  0  0  0  0  0  0  0  0  0  0
   -0.9016   -1.2827   -2.2198 H   0  0  0  0  0  0  0  0  0  0  0  0
   -1.2749   -2.2491   -0.7734 H   0  0  0  0  0  0  0  0  0  0  0  0
   -2.8939   -0.9937   -1.4521 C   0  0  0  0  0  0  0  0  0  0  0  0
   -3.3789   -0.9619   -0.4737 H   0  0  0  0  0  0  0  0  0  0  0  0
   -3.0017   -0.0176   -1.9308 H   0  0  0  0  0  0  0  0  0  0  0  0
   -3.5382   -2.0275   -2.2880 N   0  3  0  0  0  0  0  0  0  0  0  0
   -2.9405   -2.7472   -2.6570 H   0  0  0  0  0  0  0  0  0  0  0  0
   -4.8227   -2.0953   -2.5954 C   0  0  0  0  0  0  0  0  0  0  0  0
   -5.6846   -1.2144   -2.1705 N   0  0  0  0  0  0  0  0  0  0  0  0
   -5.3604   -0.4615   -1.5898 H   0  0  0  0  0  0  0  0  0  0  0  0
   -6.6559   -1.2803   -2.4134 H   0  0  0  0  0  0  0  0  0  0  0  0
   -5.2715   -3.0610   -3.3460 N   0  0  0  0  0  0  0  0  0  0  0  0
   -4.6449   -3.7644   -3.6975 H   0  0  0  0  0  0  0  0  0  0  0  0
   -6.2467   -3.1088   -3.5767 H   0  0  0  0  0  0  0  0  0  0  0  0
   -1.6547    1.3413    1.4779 C   0  0  0  0  0  0  0  0  0  0  0  0
   -2.5654    1.9858    0.9716 O   0  0  0  0  0  0  0  0  0  0  0  0
   -0.8107    1.8504    2.3808 N   0  0  0  0  0  0  0  0  0  0  0  0
   -0.1136    1.2381    2.7719 H   0  0  0  0  0  0  0  0  0  0  0  0
   -0.8954    3.2155    2.9026 C   0  0  0  0  0  0  0  0  0  0  0  0
   -1.8299    3.3430    3.4532 H   0  0  0  0  0  0  0  0  0  0  0  0
   -0.0581    3.4194    3.5712 H   0  0  0  0  0  0  0  0  0  0  0  0
   -0.8804    3.9320    2.0784 H   0  0  0  0  0  0  0  0  0  0  0  0
  5  6  2  0  0  0  0
  5  7  1  0  0  0  0
  2  3  1  0  0  0  0
  2  4  1  0  0  0  0
  2  5  1  0  0  0  0
  1  2  1  0  0  0  0
 29 30  2  0  0  0  0
 29 31  1  0  0  0  0
 26 27  1  0  0  0  0
 26 28  1  0  0  0  0
 23 24  1  0  0  0  0
 23 25  1  0  0  0  0
 22 23  1  0  0  0  0
 22 26  1  0  0  0  0
 20 21  1  0  0  0  0
 20 22  2  0  0  0  0
 17 18  1  0  0  0  0
 17 19  1  0  0  0  0
 17 20  1  0  0  0  0
 14 15  1  0  0  0  0
 14 16  1  0  0  0  0
 14 17  1  0  0  0  0
 11 12  1  0  0  0  0
 11 13  1  0  0  0  0
 11 14  1  0  0  0  0
  9 10  1  0  0  0  0
  9 11  1  0  0  0  0
  9 29  1  0  0  0  0
  7  8  1  0  0  0  0
  7  9  1  0  0  0  0
 33 34  1  0  0  0  0
 33 35  1  0  0  0  0
 33 36  1  0  0  0  0
 31 32  1  0  0  0  0
 31 33  1  0  0  0  0
M  CHG  1  20   1
M  END
$$$$
default_name
  -OEChem-02102213163D

 36 35  0     1  0  0  0  0  0999 V2000
   -4.2256   -3.6731    1.8584 H   0  0  0  0  0  0  0  0  0  0  0  0
   -4.2396   -2.6781    1.4144 C   0  0  0  0  0  0  0  0  0  0  0  0
   -4.9506   -2.0521    1.9514 H   0  0  0  0  0  0  0  0  0  0  0  0
   -4.5266   -2.7521    0.3674 H   0  0  0  0  0  0  0  0  0  0  0  0
   -2.8576   -2.0761    1.5184 C   0  0  0  0  0  0  0  0  0  0  0  0
   -1.9456   -2.7051    2.0404 O   0  0  0  0  0  0  0  0  0  0  0  0
   -2.6926   -0.8481    1.0174 N   0  0  0  0  0  0  0  0  0  0  0  0
   -3.4926   -0.3971    0.5954 H   0  0  0  0  0  0  0  0  0  0  0  0
   -1.4216   -0.1071    1.0434 C   0  0  1  0  0  0  0  0  0  0  0  0
   -0.7579   -0.5878    1.7640 H   0  0  0  0  0  0  0  0  0  0  0  0
   -0.7791   -0.1912   -0.3557 C   0  0  0  0  0  0  0  0  0  0  0  0
   -0.9000    0.7733   -0.8530 H   0  0  0  0  0  0  0  0  0  0  0  0
    0.2902   -0.3846   -0.2463 H   0  0  0  0  0  0  0  0  0  0  0  0
   -1.3990   -1.2756   -1.2489 C   0  0  0  0  0  0  0  0  0  0  0  0
   -0.7472   -1.4677   -2.1023 H   0  0  0  0  0  0  0  0  0  0  0  0
   -1.5176   -2.1936   -0.6723 H   0  0  0  0  0  0  0  0  0  0  0  0
   -2.7706   -0.8121   -1.7582 C   0  0  0  0  0  0  0  0  0  0  0  0
   -3.4076   -0.5966   -0.8973 H   0  0  0  0  0  0  0  0  0  0  0  0
   -2.6352    0.1059   -2.3350 H   0  0  0  0  0  0  0  0  0  0  0  0
   -3.4161   -1.8365   -2.6047 N   0  3  0  0  0  0  0  0  0  0  0  0
   -2.8863   -2.6718   -2.7862 H   0  0  0  0  0  0  0  0  0  0  0  0
   -4.6211   -1.7587   -3.1441 C   0  0  0  0  0  0  0  0  0  0  0  0
   -5.3915   -0.7211   -2.9729 N   0  0  0  0  0  0  0  0  0  0  0  0
   -5.0573    0.0421   -2.4115 H   0  0  0  0  0  0  0  0  0  0  0  0
   -6.3032   -0.6779   -3.3896 H   0  0  0  0  0  0  0  0  0  0  0  0
   -5.0806   -2.7336   -3.8759 N   0  0  0  0  0  0  0  0  0  0  0  0
   -4.5232   -3.5549   -4.0363 H   0  0  0  0  0  0  0  0  0  0  0  0
   -5.9954   -2.6705   -4.2832 H   0  0  0  0  0  0  0  0  0  0  0  0
   -1.6547    1.3413    1.4779 C   0  0  0  0  0  0  0  0  0  0  0  0
   -2.5654    1.9858    0.9716 O   0  0  0  0  0  0  0  0  0  0  0  0
   -0.8107    1.8504    2.3808 N   0  0  0  0  0  0  0  0  0  0  0  0
   -0.1136    1.2381    2.7719 H   0  0  0  0  0  0  0  0  0  0  0  0
   -0.8954    3.2155    2.9026 C   0  0  0  0  0  0  0  0  0  0  0  0
   -1.8299    3.3430    3.4532 H   0  0  0  0  0  0  0  0  0  0  0  0
   -0.0581    3.4194    3.5712 H   0  0  0  0  0  0  0  0  0  0  0  0
   -0.8804    3.9320    2.0784 H   0  0  0  0  0  0  0  0  0  0  0  0
  5  6  2  0  0  0  0
  5  7  1  0  0  0  0
  2  3  1  0  0  0  0
  2  4  1  0  0  0  0
  2  5  1  0  0  0  0
  1  2  1  0  0  0  0
 29 30  2  0  0  0  0
 29 31  1  0  0  0  0
 26 27  1  0  0  0  0
 26 28  1  0  0  0  0
 23 24  1  0  0  0  0
 23 25  1  0  0  0  0
 22 23  1  0  0  0  0
 22 26  1  0  0  0  0
 20 21  1  0  0  0  0
 20 22  2  0  0  0  0
 17 18  1  0  0  0  0
 17 19  1  0  0  0  0
 17 20  1  0  0  0  0
 14 15  1  0  0  0  0
 14 16  1  0  0  0  0
 14 17  1  0  0  0  0
 11 12  1  0  0  0  0
 11 13  1  0  0  0  0
 11 14  1  0  0  0  0
  9 10  1  0  0  0  0
  9 11  1  0  0  0  0
  9 29  1  0  0  0  0
  7  8  1  0  0  0  0
  7  9  1  0  0  0  0
 33 34  1  0  0  0  0
 33 35  1  0  0  0  0
 33 36  1  0  0  0  0
 31 32  1  0  0  0  0
 31 33  1  0  0  0  0
M  CHG  1  20   1
M  END
$$$$
default_name
  -OEChem-02102213163D

 36 35  0     1  0  0  0  0  0999 V2000
   -4.2256   -3.6731    1.8584 H   0  0  0  0  0  0  0  0  0  0  0  0
   -4.2396   -2.6781    1.4144 C   0  0  0  0  0  0  0  0  0  0  0  0
   -4.9506   -2.0521    1.9514 H   0  0  0  0  0  0  0  0  0  0  0  0
   -4.5266   -2.7521    0.3674 H   0  0  0  0  0  0  0  0  0  0  0  0
   -2.8576   -2.0761    1.5184 C   0  0  0  0  0  0  0  0  0  0  0  0
   -1.9456   -2.7051    2.0404 O   0  0  0  0  0  0  0  0  0  0  0  0
   -2.6926   -0.8481    1.0174 N   0  0  0  0  0  0  0  0  0  0  0  0
   -3.4926   -0.3971    0.5954 H   0  0  0  0  0  0  0  0  0  0  0  0
   -1.4216   -0.1071    1.0434 C   0  0  1  0  0  0  0  0  0  0  0  0
   -0.7579   -0.5878    1.7640 H   0  0  0  0  0  0  0  0  0  0  0  0
   -0.7791   -0.1912   -0.3557 C   0  0  0  0  0  0  0  0  0  0  0  0
   -0.9000    0.7733   -0.8530 H   0  0  0  0  0  0  0  0  0  0  0  0
    0.2902   -0.3846   -0.2463 H   0  0  0  0  0  0  0  0  0  0  0  0
   -1.3990   -1.2756   -1.2489 C   0  0  0  0  0  0  0  0  0  0  0  0
   -0.6475   -1.6573   -1.9414 H   0  0  0  0  0  0  0  0  0  0  0  0
   -1.7621   -2.0929   -0.6249 H   0  0  0  0  0  0  0  0  0  0  0  0
   -2.5682   -0.6872   -2.0503 C   0  0  0  0  0  0  0  0  0  0  0  0
   -3.3030   -0.2837   -1.3498 H   0  0  0  0  0  0  0  0  0  0  0  0
   -2.1887    0.1277   -2.6714 H   0  0  0  0  0  0  0  0  0  0  0  0
   -3.2115   -1.7035   -2.9082 N   0  3  0  0  0  0  0  0  0  0  0  0
   -2.7989   -2.6206   -2.9090 H   0  0  0  0  0  0  0  0  0  0  0  0
   -4.2754   -1.5212   -3.6723 C   0  0  0  0  0  0  0  0  0  0  0  0
   -4.8874   -0.3726   -3.7459 N   0  0  0  0  0  0  0  0  0  0  0  0
   -4.5386    0.3971   -3.2024 H   0  0  0  0  0  0  0  0  0  0  0  0
   -5.6934   -0.2510   -4.3311 H   0  0  0  0  0  0  0  0  0  0  0  0
   -4.7501   -2.5014   -4.3872 N   0  0  0  0  0  0  0  0  0  0  0  0
   -4.3122   -3.4062   -4.3633 H   0  0  0  0  0  0  0  0  0  0  0  0
   -5.5575   -2.3589   -4.9655 H   0  0  0  0  0  0  0  0  0  0  0  0
   -1.6547    1.3413    1.4779 C   0  0  0  0  0  0  0  0  0  0  0  0
   -2.5654    1.9858    0.9716 O   0  0  0  0  0  0  0  0  0  0  0  0
   -0.8107    1.8504    2.3808 N   0  0  0  0  0  0  0  0  0  0  0  0
   -0.1136    1.2381    2.7719 H   0  0  0  0  0  0  0  0  0  0  0  0
   -0.8954    3.2155    2.9026 C   0  0  0  0  0  0  0  0  0  0  0  0
   -1.8299    3.3430    3.4532 H   0  0  0  0  0  0  0  0  0  0  0  0
   -0.0581    3.4194    3.5712 H   0  0  0  0  0  0  0  0  0  0  0  0
   -0.8804    3.9320    2.0784 H   0  0  0  0  0  0  0  0  0  0  0  0
  5  6  2  0  0  0  0
  5  7  1  0  0  0  0
  2  3  1  0  0  0  0
  2  4  1  0  0  0  0
  2  5  1  0  0  0  0
  1  2  1  0  0  0  0
 29 30  2  0  0  0  0
 29 31  1  0  0  0  0
 26 27  1  0  0  0  0
 26 28  1  0  0  0  0
 23 24  1  0  0  0  0
 23 25  1  0  0  0  0
 22 23  1  0  0  0  0
 22 26  1  0  0  0  0
 20 21  1  0  0  0  0
 20 22  2  0  0  0  0
 17 18  1  0  0  0  0
 17 19  1  0  0  0  0
 17 20  1  0  0  0  0
 14 15  1  0  0  0  0
 14 16  1  0  0  0  0
 14 17  1  0  0  0  0
 11 12  1  0  0  0  0
 11 13  1  0  0  0  0
 11 14  1  0  0  0  0
  9 10  1  0  0  0  0
  9 11  1  0  0  0  0
  9 29  1  0  0  0  0
  7  8  1  0  0  0  0
  7  9  1  0  0  0  0
 33 34  1  0  0  0  0
 33 35  1  0  0  0  0
 33 36  1  0  0  0  0
 31 32  1  0  0  0  0
 31 33  1  0  0  0  0
M  CHG  1  20   1
M  END
$$$$
default_name
  -OEChem-02102213163D

 36 35  0     1  0  0  0  0  0999 V2000
   -4.2256   -3.6731    1.8584 H   0  0  0  0  0  0  0  0  0  0  0  0
   -4.2396   -2.6781    1.4144 C   0  0  0  0  0  0  0  0  0  0  0  0
   -4.9506   -2.0521    1.9514 H   0  0  0  0  0  0  0  0  0  0  0  0
   -4.5266   -2.7521    0.3674 H   0  0  0  0  0  0  0  0  0  0  0  0
   -2.8576   -2.0761    1.5184 C   0  0  0  0  0  0  0  0  0  0  0  0
   -1.9456   -2.7051    2.0404 O   0  0  0  0  0  0  0  0  0  0  0  0
   -2.6926   -0.8481    1.0174 N   0  0  0  0  0  0  0  0  0  0  0  0
   -3.4926   -0.3971    0.5954 H   0  0  0  0  0  0  0  0  0  0  0  0
   -1.4216   -0.1071    1.0434 C   0  0  1  0  0  0  0  0  0  0  0  0
   -0.7579   -0.5878    1.7640 H   0  0  0  0  0  0  0  0  0  0  0  0
   -0.7791   -0.1912   -0.3557 C   0  0  0  0  0  0  0  0  0  0  0  0
   -0.9000    0.7733   -0.8530 H   0  0  0  0  0  0  0  0  0  0  0  0
    0.2902   -0.3846   -0.2463 H   0  0  0  0  0  0  0  0  0  0  0  0
   -1.3990   -1.2756   -1.2489 C   0  0  0  0  0  0  0  0  0  0  0  0
   -0.6090   -1.8387   -1.7478 H   0  0  0  0  0  0  0  0  0  0  0  0
   -1.9918   -1.9539   -0.6343 H   0  0  0  0  0  0  0  0  0  0  0  0
   -2.3004   -0.6275   -2.3085 C   0  0  0  0  0  0  0  0  0  0  0  0
   -3.0720   -0.0444   -1.8005 H   0  0  0  0  0  0  0  0  0  0  0  0
   -1.6926    0.0464   -2.9169 H   0  0  0  0  0  0  0  0  0  0  0  0
   -2.9383   -1.6375   -3.1778 N   0  3  0  0  0  0  0  0  0  0  0  0
   -2.6844   -2.5972   -3.0169 H   0  0  0  0  0  0  0  0  0  0  0  0
   -3.8091   -1.3990   -4.1442 C   0  0  0  0  0  0  0  0  0  0  0  0
   -4.2068   -0.1926   -4.4368 N   0  0  0  0  0  0  0  0  0  0  0  0
   -3.8396    0.5793   -3.9087 H   0  0  0  0  0  0  0  0  0  0  0  0
   -4.8680   -0.0289   -5.1736 H   0  0  0  0  0  0  0  0  0  0  0  0
   -4.3025   -2.3804   -4.8448 N   0  0  0  0  0  0  0  0  0  0  0  0
   -4.0262   -3.3285   -4.6561 H   0  0  0  0  0  0  0  0  0  0  0  0
   -4.9629   -2.1950   -5.5770 H   0  0  0  0  0  0  0  0  0  0  0  0
   -1.6547    1.3413    1.4779 C   0  0  0  0  0  0  0  0  0  0  0  0
   -2.5654    1.9858    0.9716 O   0  0  0  0  0  0  0  0  0  0  0  0
   -0.8107    1.8504    2.3808 N   0  0  0  0  0  0  0  0  0  0  0  0
   -0.1136    1.2381    2.7719 H   0  0  0  0  0  0  0  0  0  0  0  0
   -0.8954    3.2155    2.9026 C   0  0  0  0  0  0  0  0  0  0  0  0
   -1.8299    3.3430    3.4532 H   0  0  0  0  0  0  0  0  0  0  0  0
   -0.0581    3.4194    3.5712 H   0  0  0  0  0  0  0  0  0  0  0  0
   -0.8804    3.9320    2.0784 H   0  0  0  0  0  0  0  0  0  0  0  0
  5  6  2  0  0  0  0
  5  7  1  0  0  0  0
  2  3  1  0  0  0  0
  2  4  1  0  0  0  0
  2  5  1  0  0  0  0
  1  2  1  0  0  0  0
 29 30  2  0  0  0  0
 29 31  1  0  0  0  0
 26 27  1  0  0  0  0
 26 28  1  0  0  0  0
 23 24  1  0  0  0  0
 23 25  1  0  0  0  0
 22 23  1  0  0  0  0
 22 26  1  0  0  0  0
 20 21  1  0  0  0  0
 20 22  2  0  0  0  0
 17 18  1  0  0  0  0
 17 19  1  0  0  0  0
 17 20  1  0  0  0  0
 14 15  1  0  0  0  0
 14 16  1  0  0  0  0
 14 17  1  0  0  0  0
 11 12  1  0  0  0  0
 11 13  1  0  0  0  0
 11 14  1  0  0  0  0
  9 10  1  0  0  0  0
  9 11  1  0  0  0  0
  9 29  1  0  0  0  0
  7  8  1  0  0  0  0
  7  9  1  0  0  0  0
 33 34  1  0  0  0  0
 33 35  1  0  0  0  0
 33 36  1  0  0  0  0
 31 32  1  0  0  0  0
 31 33  1  0  0  0  0
M  CHG  1  20   1
M  END
$$$$
default_name
  -OEChem-02102213163D

 36 35  0     1  0  0  0  0  0999 V2000
   -4.2256   -3.6731    1.8584 H   0  0  0  0  0  0  0  0  0  0  0  0
   -4.2396   -2.6781    1.4144 C   0  0  0  0  0  0  0  0  0  0  0  0
   -4.9506   -2.0521    1.9514 H   0  0  0  0  0  0  0  0  0  0  0  0
   -4.5266   -2.7521    0.3674 H   0  0  0  0  0  0  0  0  0  0  0  0
   -2.8576   -2.0761    1.5184 C   0  0  0  0  0  0  0  0  0  0  0  0
   -1.9456   -2.7051    2.0404 O   0  0  0  0  0  0  0  0  0  0  0  0
   -2.6926   -0.8481    1.0174 N   0  0  0  0  0  0  0  0  0  0  0  0
   -3.4926   -0.3971    0.5954 H   0  0  0  0  0  0  0  0  0  0  0  0
   -1.4216   -0.1071    1.0434 C   0  0  1  0  0  0  0  0  0  0  0  0
   -0.7579   -0.5878    1.7640 H   0  0  0  0  0  0  0  0  0  0  0  0
   -0.7791   -0.1912   -0.3557 C   0  0  0  0  0  0  0  0  0  0  0  0
   -0.9000    0.7733   -0.8530 H   0  0  0  0  0  0  0  0  0  0  0  0
    0.2902   -0.3846   -0.2463 H   0  0  0  0  0  0  0  0  0  0  0  0
   -1.3990   -1.2756   -1.2489 C   0  0  0  0  0  0  0  0  0  0  0  0
   -0.6346   -1.9994   -1.5349 H   0  0  0  0  0  0  0  0  0  0  0  0
   -2.1910   -1.7860   -0.6999 H   0  0  0  0  0  0  0  0  0  0  0  0
   -1.9857   -0.6372   -2.5153 C   0  0  0  0  0  0  0  0  0  0  0  0
   -2.7306    0.1048   -2.2187 H   0  0  0  0  0  0  0  0  0  0  0  0
   -1.1809   -0.1325   -3.0549 H   0  0  0  0  0  0  0  0  0  0  0  0
   -2.6153   -1.6431   -3.3953 N   0  3  0  0  0  0  0  0  0  0  0  0
   -2.5505   -2.6030   -3.1027 H   0  0  0  0  0  0  0  0  0  0  0  0
   -3.2541   -1.4005   -4.5276 C   0  0  0  0  0  0  0  0  0  0  0  0
   -3.3960   -0.1933   -4.9986 N   0  0  0  0  0  0  0  0  0  0  0  0
   -3.0078    0.5762   -4.4822 H   0  0  0  0  0  0  0  0  0  0  0  0
   -3.8833   -0.0266   -5.8597 H   0  0  0  0  0  0  0  0  0  0  0  0
   -3.7682   -2.3786   -5.2177 N   0  0  0  0  0  0  0  0  0  0  0  0
   -3.6848   -3.3271   -4.8947 H   0  0  0  0  0  0  0  0  0  0  0  0
   -4.2521   -2.1902   -6.0762 H   0  0  0  0  0  0  0  0  0  0  0  0
   -1.6547    1.3413    1.4779 C   0  0  0  0  0  0  0  0  0  0  0  0
   -2.5654    1.9858    0.9716 O   0  0  0  0  0  0  0  0  0  0  0  0
   -0.8107    1.8504    2.3808 N   0  0  0  0  0  0  0  0  0  0  0  0
   -0.1136    1.2381    2.7719 H   0  0  0  0  0  0  0  0  0  0  0  0
   -0.8954    3.2155    2.9026 C   0  0  0  0  0  0  0  0  0  0  0  0
   -1.8299    3.3430    3.4532 H   0  0  0  0  0  0  0  0  0  0  0  0
   -0.0581    3.4194    3.5712 H   0  0  0  0  0  0  0  0  0  0  0  0
   -0.8804    3.9320    2.0784 H   0  0  0  0  0  0  0  0  0  0  0  0
  5  6  2  0  0  0  0
  5  7  1  0  0  0  0
  2  3  1  0  0  0  0
  2  4  1  0  0  0  0
  2  5  1  0  0  0  0
  1  2  1  0  0  0  0
 29 30  2  0  0  0  0
 29 31  1  0  0  0  0
 26 27  1  0  0  0  0
 26 28  1  0  0  0  0
 23 24  1  0  0  0  0
 23 25  1  0  0  0  0
 22 23  1  0  0  0  0
 22 26  1  0  0  0  0
 20 21  1  0  0  0  0
 20 22  2  0  0  0  0
 17 18  1  0  0  0  0
 17 19  1  0  0  0  0
 17 20  1  0  0  0  0
 14 15  1  0  0  0  0
 14 16  1  0  0  0  0
 14 17  1  0  0  0  0
 11 12  1  0  0  0  0
 11 13  1  0  0  0  0
 11 14  1  0  0  0  0
  9 10  1  0  0  0  0
  9 11  1  0  0  0  0
  9 29  1  0  0  0  0
  7  8  1  0  0  0  0
  7  9  1  0  0  0  0
 33 34  1  0  0  0  0
 33 35  1  0  0  0  0
 33 36  1  0  0  0  0
 31 32  1  0  0  0  0
 31 33  1  0  0  0  0
M  CHG  1  20   1
M  END
$$$$
default_name
  -OEChem-02102213163D

 36 35  0     1  0  0  0  0  0999 V2000
   -4.2256   -3.6731    1.8584 H   0  0  0  0  0  0  0  0  0  0  0  0
   -4.2396   -2.6781    1.4144 C   0  0  0  0  0  0  0  0  0  0  0  0
   -4.9506   -2.0521    1.9514 H   0  0  0  0  0  0  0  0  0  0  0  0
   -4.5266   -2.7521    0.3674 H   0  0  0  0  0  0  0  0  0  0  0  0
   -2.8576   -2.0761    1.5184 C   0  0  0  0  0  0  0  0  0  0  0  0
   -1.9456   -2.7051    2.0404 O   0  0  0  0  0  0  0  0  0  0  0  0
   -2.6926   -0.8481    1.0174 N   0  0  0  0  0  0  0  0  0  0  0  0
   -3.4926   -0.3971    0.5954 H   0  0  0  0  0  0  0  0  0  0  0  0
   -1.4216   -0.1071    1.0434 C   0  0  1  0  0  0  0  0  0  0  0  0
   -0.7579   -0.5878    1.7640 H   0  0  0  0  0  0  0  0  0  0  0  0
   -0.7791   -0.1912   -0.3557 C   0  0  0  0  0  0  0  0  0  0  0  0
   -0.9000    0.7733   -0.8530 H   0  0  0  0  0  0  0  0  0  0  0  0
    0.2902   -0.3846   -0.2463 H   0  0  0  0  0  0  0  0  0  0  0  0
   -1.3990   -1.2756   -1.2489 C   0  0  0  0  0  0  0  0  0  0  0  0
   -0.7224   -2.1286   -1.3172 H   0  0  0  0  0  0  0  0  0  0  0  0
   -2.3461   -1.6007   -0.8171 H   0  0  0  0  0  0  0  0  0  0  0  0
   -1.6453   -0.7155   -2.6564 C   0  0  0  0  0  0  0  0  0  0  0  0
   -2.3019    0.1538   -2.5757 H   0  0  0  0  0  0  0  0  0  0  0  0
   -0.6882   -0.3967   -3.0760 H   0  0  0  0  0  0  0  0  0  0  0  0
   -2.2643   -1.7198   -3.5457 N   0  3  0  0  0  0  0  0  0  0  0  0
   -2.4064   -2.6378   -3.1605 H   0  0  0  0  0  0  0  0  0  0  0  0
   -2.6482   -1.5256   -4.7963 C   0  0  0  0  0  0  0  0  0  0  0  0
   -2.5102   -0.3748   -5.3929 N   0  0  0  0  0  0  0  0  0  0  0  0
   -2.1001    0.3880   -4.8838 H   0  0  0  0  0  0  0  0  0  0  0  0
   -2.8064   -0.2443   -6.3427 H   0  0  0  0  0  0  0  0  0  0  0  0
   -3.1838   -2.4963   -5.4804 N   0  0  0  0  0  0  0  0  0  0  0  0
   -3.3111   -3.4021   -5.0630 H   0  0  0  0  0  0  0  0  0  0  0  0
   -3.4736   -2.3447   -6.4289 H   0  0  0  0  0  0  0  0  0  0  0  0
   -1.6547    1.3413    1.4779 C   0  0  0  0  0  0  0  0  0  0  0  0
   -2.5654    1.9858    0.9716 O   0  0  0  0  0  0  0  0  0  0  0  0
   -0.8107    1.8504    2.3808 N   0  0  0  0  0  0  0  0  0  0  0  0
   -0.1136    1.2381    2.7719 H   0  0  0  0  0  0  0  0  0  0  0  0
   -0.8954    3.2155    2.9026 C   0  0  0  0  0  0  0  0  0  0  0  0
   -1.8299    3.3430    3.4532 H   0  0  0  0  0  0  0  0  0  0  0  0
   -0.0581    3.4194    3.5712 H   0  0  0  0  0  0  0  0  0  0  0  0
   -0.8804    3.9320    2.0784 H   0  0  0  0  0  0  0  0  0  0  0  0
  5  6  2  0  0  0  0
  5  7  1  0  0  0  0
  2  3  1  0  0  0  0
  2  4  1  0  0  0  0
  2  5  1  0  0  0  0
  1  2  1  0  0  0  0
 29 30  2  0  0  0  0
 29 31  1  0  0  0  0
 26 27  1  0  0  0  0
 26 28  1  0  0  0  0
 23 24  1  0  0  0  0
 23 25  1  0  0  0  0
 22 23  1  0  0  0  0
 22 26  1  0  0  0  0
 20 21  1  0  0  0  0
 20 22  2  0  0  0  0
 17 18  1  0  0  0  0
 17 19  1  0  0  0  0
 17 20  1  0  0  0  0
 14 15  1  0  0  0  0
 14 16  1  0  0  0  0
 14 17  1  0  0  0  0
 11 12  1  0  0  0  0
 11 13  1  0  0  0  0
 11 14  1  0  0  0  0
  9 10  1  0  0  0  0
  9 11  1  0  0  0  0
  9 29  1  0  0  0  0
  7  8  1  0  0  0  0
  7  9  1  0  0  0  0
 33 34  1  0  0  0  0
 33 35  1  0  0  0  0
 33 36  1  0  0  0  0
 31 32  1  0  0  0  0
 31 33  1  0  0  0  0
M  CHG  1  20   1
M  END
$$$$
default_name
  -OEChem-02102213163D

 36 35  0     1  0  0  0  0  0999 V2000
   -4.2256   -3.6731    1.8584 H   0  0  0  0  0  0  0  0  0  0  0  0
   -4.2396   -2.6781    1.4144 C   0  0  0  0  0  0  0  0  0  0  0  0
   -4.9506   -2.0521    1.9514 H   0  0  0  0  0  0  0  0  0  0  0  0
   -4.5266   -2.7521    0.3674 H   0  0  0  0  0  0  0  0  0  0  0  0
   -2.8576   -2.0761    1.5184 C   0  0  0  0  0  0  0  0  0  0  0  0
   -1.9456   -2.7051    2.0404 O   0  0  0  0  0  0  0  0  0  0  0  0
   -2.6926   -0.8481    1.0174 N   0  0  0  0  0  0  0  0  0  0  0  0
   -3.4926   -0.3971    0.5954 H   0  0  0  0  0  0  0  0  0  0  0  0
   -1.4216   -0.1071    1.0434 C   0  0  1  0  0  0  0  0  0  0  0  0
   -0.7579   -0.5878    1.7640 H   0  0  0  0  0  0  0  0  0  0  0  0
   -0.7791   -0.1912   -0.3557 C   0  0  0  0  0  0  0  0  0  0  0  0
   -0.9000    0.7733   -0.8530 H   0  0  0  0  0  0  0  0  0  0  0  0
    0.2902   -0.3846   -0.2463 H   0  0  0  0  0  0  0  0  0  0  0  0
   -1.3990   -1.2756   -1.2489 C   0  0  0  0  0  0  0  0  0  0  0  0
   -0.8664   -2.2174   -1.1094 H   0  0  0  0  0  0  0  0  0  0  0  0
   -2.4467   -1.4106   -0.9782 H   0  0  0  0  0  0  0  0  0  0  0  0
   -1.3025   -0.8571   -2.7223 C   0  0  0  0  0  0  0  0  0  0  0  0
   -1.8152    0.0994   -2.8474 H   0  0  0  0  0  0  0  0  0  0  0  0
   -0.2483   -0.7283   -2.9788 H   0  0  0  0  0  0  0  0  0  0  0  0
   -1.9094   -1.8625   -3.6188 N   0  3  0  0  0  0  0  0  0  0  0  0
   -2.2619   -2.6991   -3.1863 H   0  0  0  0  0  0  0  0  0  0  0  0
   -2.0326   -1.7656   -4.9320 C   0  0  0  0  0  0  0  0  0  0  0  0
   -1.6098   -0.7247   -5.5930 N   0  0  0  0  0  0  0  0  0  0  0  0
   -1.1781    0.0277   -5.0861 H   0  0  0  0  0  0  0  0  0  0  0  0
   -1.7107   -0.6672   -6.5897 H   0  0  0  0  0  0  0  0  0  0  0  0
   -2.5889   -2.7254   -5.6151 N   0  0  0  0  0  0  0  0  0  0  0  0
   -2.9308   -3.5484   -5.1494 H   0  0  0  0  0  0  0  0  0  0  0  0
   -2.6804   -2.6479   -6.6112 H   0  0  0  0  0  0  0  0  0  0  0  0
   -1.6547    1.3413    1.4779 C   0  0  0  0  0  0  0  0  0  0  0  0
   -2.5654    1.9858    0.9716 O   0  0  0  0  0  0  0  0  0  0  0  0
   -0.8107    1.8504    2.3808 N   0  0  0  0  0  0  0  0  0  0  0  0
   -0.1136    1.2381    2.7719 H   0  0  0  0  0  0  0  0  0  0  0  0
   -0.8954    3.2155    2.9026 C   0  0  0  0  0  0  0  0  0  0  0  0
   -1.8299    3.3430    3.4532 H   0  0  0  0  0  0  0  0  0  0  0  0
   -0.0581    3.4194    3.5712 H   0  0  0  0  0  0  0  0  0  0  0  0
   -0.8804    3.9320    2.0784 H   0  0  0  0  0  0  0  0  0  0  0  0
  5  6  2  0  0  0  0
  5  7  1  0  0  0  0
  2  3  1  0  0  0  0
  2  4  1  0  0  0  0
  2  5  1  0  0  0  0
  1  2  1  0  0  0  0
 29 30  2  0  0  0  0
 29 31  1  0  0  0  0
 26 27  1  0  0  0  0
 26 28  1  0  0  0  0
 23 24  1  0  0  0  0
 23 25  1  0  0  0  0
 22 23  1  0  0  0  0
 22 26  1  0  0  0  0
 20 21  1  0  0  0  0
 20 22  2  0  0  0  0
 17 18  1  0  0  0  0
 17 19  1  0  0  0  0
 17 20  1  0  0  0  0
 14 15  1  0  0  0  0
 14 16  1  0  0  0  0
 14 17  1  0  0  0  0
 11 12  1  0  0  0  0
 11 13  1  0  0  0  0
 11 14  1  0  0  0  0
  9 10  1  0  0  0  0
  9 11  1  0  0  0  0
  9 29  1  0  0  0  0
  7  8  1  0  0  0  0
  7  9  1  0  0  0  0
 33 34  1  0  0  0  0
 33 35  1  0  0  0  0
 33 36  1  0  0  0  0
 31 32  1  0  0  0  0
 31 33  1  0  0  0  0
M  CHG  1  20   1
M  END
$$$$
default_name
  -OEChem-02102213163D

 36 35  0     1  0  0  0  0  0999 V2000
   -4.2256   -3.6731    1.8584 H   0  0  0  0  0  0  0  0  0  0  0  0
   -4.2396   -2.6781    1.4144 C   0  0  0  0  0  0  0  0  0  0  0  0
   -4.9506   -2.0521    1.9514 H   0  0  0  0  0  0  0  0  0  0  0  0
   -4.5266   -2.7521    0.3674 H   0  0  0  0  0  0  0  0  0  0  0  0
   -2.8576   -2.0761    1.5184 C   0  0  0  0  0  0  0  0  0  0  0  0
   -1.9456   -2.7051    2.0404 O   0  0  0  0  0  0  0  0  0  0  0  0
   -2.6926   -0.8481    1.0174 N   0  0  0  0  0  0  0  0  0  0  0  0
   -3.4926   -0.3971    0.5954 H   0  0  0  0  0  0  0  0  0  0  0  0
   -1.4216   -0.1071    1.0434 C   0  0  1  0  0  0  0  0  0  0  0  0
   -0.7579   -0.5878    1.7640 H   0  0  0  0  0  0  0  0  0  0  0  0
   -0.7791   -0.1912   -0.3557 C   0  0  0  0  0  0  0  0  0  0  0  0
   -0.9000    0.7733   -0.8530 H   0  0  0  0  0  0  0  0  0  0  0  0
    0.2902   -0.3846   -0.2463 H   0  0  0  0  0  0  0  0  0  0  0  0
   -1.3990   -1.2756   -1.2489 C   0  0  0  0  0  0  0  0  0  0  0  0
   -1.0569   -2.2598   -0.9257 H   0  0  0  0  0  0  0  0  0  0  0  0
   -2.4857   -1.2287   -1.1719 H   0  0  0  0  0  0  0  0  0  0  0  0
   -0.9806   -1.0524   -2.7085 C   0  0  0  0  0  0  0  0  0  0  0  0
   -1.3036   -0.0549   -3.0152 H   0  0  0  0  0  0  0  0  0  0  0  0
    0.1089   -1.1046   -2.7698 H   0  0  0  0  0  0  0  0  0  0  0  0
   -1.5747   -2.0613   -3.6096 N   0  3  0  0  0  0  0  0  0  0  0  0
   -2.1268   -2.7829   -3.1784 H   0  0  0  0  0  0  0  0  0  0  0  0
   -1.4493   -2.1044   -4.9255 C   0  0  0  0  0  0  0  0  0  0  0  0
   -0.7563   -1.2190   -5.5851 N   0  0  0  0  0  0  0  0  0  0  0  0
   -0.3049   -0.4803   -5.0754 H   0  0  0  0  0  0  0  0  0  0  0  0
   -0.6709   -1.2665   -6.5838 H   0  0  0  0  0  0  0  0  0  0  0  0
   -2.0242   -3.0504   -5.6125 N   0  0  0  0  0  0  0  0  0  0  0  0
   -2.5696   -3.7559   -5.1480 H   0  0  0  0  0  0  0  0  0  0  0  0
   -1.9266   -3.0793   -6.6106 H   0  0  0  0  0  0  0  0  0  0  0  0
   -1.6547    1.3413    1.4779 C   0  0  0  0  0  0  0  0  0  0  0  0
   -2.5654    1.9858    0.9716 O   0  0  0  0  0  0  0  0  0  0  0  0
   -0.8107    1.8504    2.3808 N   0  0  0  0  0  0  0  0  0  0  0  0
   -0.1136    1.2381    2.7719 H   0  0  0  0  0  0  0  0  0  0  0  0
   -0.8954    3.2155    2.9026 C   0  0  0  0  0  0  0  0  0  0  0  0
   -1.8299    3.3430    3.4532 H   0  0  0  0  0  0  0  0  0  0  0  0
   -0.0581    3.4194    3.5712 H   0  0  0  0  0  0  0  0  0  0  0  0
   -0.8804    3.9320    2.0784 H   0  0  0  0  0  0  0  0  0  0  0  0
  5  6  2  0  0  0  0
  5  7  1  0  0  0  0
  2  3  1  0  0  0  0
  2  4  1  0  0  0  0
  2  5  1  0  0  0  0
  1  2  1  0  0  0  0
 29 30  2  0  0  0  0
 29 31  1  0  0  0  0
 26 27  1  0  0  0  0
 26 28  1  0  0  0  0
 23 24  1  0  0  0  0
 23 25  1  0  0  0  0
 22 23  1  0  0  0  0
 22 26  1  0  0  0  0
 20 21  1  0  0  0  0
 20 22  2  0  0  0  0
 17 18  1  0  0  0  0
 17 19  1  0  0  0  0
 17 20  1  0  0  0  0
 14 15  1  0  0  0  0
 14 16  1  0  0  0  0
 14 17  1  0  0  0  0
 11 12  1  0  0  0  0
 11 13  1  0  0  0  0
 11 14  1  0  0  0  0
  9 10  1  0  0  0  0
  9 11  1  0  0  0  0
  9 29  1  0  0  0  0
  7  8  1  0  0  0  0
  7  9  1  0  0  0  0
 33 34  1  0  0  0  0
 33 35  1  0  0  0  0
 33 36  1  0  0  0  0
 31 32  1  0  0  0  0
 31 33  1  0  0  0  0
M  CHG  1  20   1
M  END
$$$$
default_name
  -OEChem-02102213163D

 36 35  0     1  0  0  0  0  0999 V2000
   -4.2256   -3.6731    1.8584 H   0  0  0  0  0  0  0  0  0  0  0  0
   -4.2396   -2.6781    1.4144 C   0  0  0  0  0  0  0  0  0  0  0  0
   -4.9506   -2.0521    1.9514 H   0  0  0  0  0  0  0  0  0  0  0  0
   -4.5266   -2.7521    0.3674 H   0  0  0  0  0  0  0  0  0  0  0  0
   -2.8576   -2.0761    1.5184 C   0  0  0  0  0  0  0  0  0  0  0  0
   -1.9456   -2.7051    2.0404 O   0  0  0  0  0  0  0  0  0  0  0  0
   -2.6926   -0.8481    1.0174 N   0  0  0  0  0  0  0  0  0  0  0  0
   -3.4926   -0.3971    0.5954 H   0  0  0  0  0  0  0  0  0  0  0  0
   -1.4216   -0.1071    1.0434 C   0  0  1  0  0  0  0  0  0  0  0  0
   -0.7579   -0.5878    1.7640 H   0  0  0  0  0  0  0  0  0  0  0  0
   -0.7791   -0.1912   -0.3557 C   0  0  0  0  0  0  0  0  0  0  0  0
   -0.6574    0.8218   -0.7445 H   0  0  0  0  0  0  0  0  0  0  0  0
    0.2119   -0.6416   -0.2669 H   0  0  0  0  0  0  0  0  0  0  0  0
   -1.6113   -0.9979   -1.3630 C   0  0  0  0  0  0  0  0  0  0  0  0
   -1.7380   -2.0197   -1.0025 H   0  0  0  0  0  0  0  0  0  0  0  0
   -2.5906   -0.5320   -1.4770 H   0  0  0  0  0  0  0  0  0  0  0  0
   -0.8996   -1.0291   -2.7225 C   0  0  0  0  0  0  0  0  0  0  0  0
   -0.7532   -0.0015   -3.0631 H   0  0  0  0  0  0  0  0  0  0  0  0
    0.0776   -1.5001   -2.5926 H   0  0  0  0  0  0  0  0  0  0  0  0
   -1.6778   -1.7766   -3.7317 N   0  3  0  0  0  0  0  0  0  0  0  0
   -2.5308   -2.2064   -3.4170 H   0  0  0  0  0  0  0  0  0  0  0  0
   -1.3592   -1.9328   -5.0057 C   0  0  0  0  0  0  0  0  0  0  0  0
   -0.2764   -1.4183   -5.5176 N   0  0  0  0  0  0  0  0  0  0  0  0
    0.3335   -0.8850   -4.9234 H   0  0  0  0  0  0  0  0  0  0  0  0
   -0.0491   -1.5467   -6.4865 H   0  0  0  0  0  0  0  0  0  0  0  0
   -2.1316   -2.6186   -5.7997 N   0  0  0  0  0  0  0  0  0  0  0  0
   -2.9779   -3.0345   -5.4508 H   0  0  0  0  0  0  0  0  0  0  0  0
   -1.8862   -2.7346   -6.7656 H   0  0  0  0  0  0  0  0  0  0  0  0
   -1.6547    1.3413    1.4779 C   0  0  0  0  0  0  0  0  0  0  0  0
   -2.5654    1.9858    0.9716 O   0  0  0  0  0  0  0  0  0  0  0  0
   -0.8107    1.8504    2.3808 N   0  0  0  0  0  0  0  0  0  0  0  0
   -0.1136    1.2381    2.7719 H   0  0  0  0  0  0  0  0  0  0  0  0
   -0.8954    3.2155    2.9026 C   0  0  0  0  0  0  0  0  0  0  0  0
   -1.8299    3.3430    3.4532 H   0  0  0  0  0  0  0  0  0  0  0  0
   -0.0581    3.4194    3.5712 H   0  0  0  0  0  0  0  0  0  0  0  0
   -0.8804    3.9320    2.0784 H   0  0  0  0  0  0  0  0  0  0  0  0
  5  6  2  0  0  0  0
  5  7  1  0  0  0  0
  2  3  1  0  0  0  0
  2  4  1  0  0  0  0
  2  5  1  0  0  0  0
  1  2  1  0  0  0  0
 29 30  2  0  0  0  0
 29 31  1  0  0  0  0
 26 27  1  0  0  0  0
 26 28  1  0  0  0  0
 23 24  1  0  0  0  0
 23 25  1  0  0  0  0
 22 23  1  0  0  0  0
 22 26  1  0  0  0  0
 20 21  1  0  0  0  0
 20 22  2  0  0  0  0
 17 18  1  0  0  0  0
 17 19  1  0  0  0  0
 17 20  1  0  0  0  0
 14 15  1  0  0  0  0
 14 16  1  0  0  0  0
 14 17  1  0  0  0  0
 11 12  1  0  0  0  0
 11 13  1  0  0  0  0
 11 14  1  0  0  0  0
  9 10  1  0  0  0  0
  9 11  1  0  0  0  0
  9 29  1  0  0  0  0
  7  8  1  0  0  0  0
  7  9  1  0  0  0  0
 33 34  1  0  0  0  0
 33 35  1  0  0  0  0
 33 36  1  0  0  0  0
 31 32  1  0  0  0  0
 31 33  1  0  0  0  0
M  CHG  1  20   1
M  END
$$$$
default_name
  -OEChem-02102213163D

 36 35  0     1  0  0  0  0  0999 V2000
   -4.2256   -3.6731    1.8584 H   0  0  0  0  0  0  0  0  0  0  0  0
   -4.2396   -2.6781    1.4144 C   0  0  0  0  0  0  0  0  0  0  0  0
   -4.9506   -2.0521    1.9514 H   0  0  0  0  0  0  0  0  0  0  0  0
   -4.5266   -2.7521    0.3674 H   0  0  0  0  0  0  0  0  0  0  0  0
   -2.8576   -2.0761    1.5184 C   0  0  0  0  0  0  0  0  0  0  0  0
   -1.9456   -2.7051    2.0404 O   0  0  0  0  0  0  0  0  0  0  0  0
   -2.6926   -0.8481    1.0174 N   0  0  0  0  0  0  0  0  0  0  0  0
   -3.4926   -0.3971    0.5954 H   0  0  0  0  0  0  0  0  0  0  0  0
   -1.4216   -0.1071    1.0434 C   0  0  1  0  0  0  0  0  0  0  0  0
   -0.7579   -0.5878    1.7640 H   0  0  0  0  0  0  0  0  0  0  0  0
   -0.7791   -0.1912   -0.3557 C   0  0  0  0  0  0  0  0  0  0  0  0
   -0.6574    0.8218   -0.7445 H   0  0  0  0  0  0  0  0  0  0  0  0
    0.2119   -0.6416   -0.2669 H   0  0  0  0  0  0  0  0  0  0  0  0
   -1.6113   -0.9979   -1.3630 C   0  0  0  0  0  0  0  0  0  0  0  0
   -1.9630   -1.9194   -0.8970 H   0  0  0  0  0  0  0  0  0  0  0  0
   -2.4693   -0.4041   -1.6797 H   0  0  0  0  0  0  0  0  0  0  0  0
   -0.7540   -1.3489   -2.5867 C   0  0  0  0  0  0  0  0  0  0  0  0
   -0.3845   -0.4219   -3.0310 H   0  0  0  0  0  0  0  0  0  0  0  0
    0.0991   -1.9450   -2.2541 H   0  0  0  0  0  0  0  0  0  0  0  0
   -1.5225   -2.1068   -3.5955 N   0  3  0  0  0  0  0  0  0  0  0  0
   -2.4711   -2.3416   -3.3580 H   0  0  0  0  0  0  0  0  0  0  0  0
   -1.0819   -2.5038   -4.7775 C   0  0  0  0  0  0  0  0  0  0  0  0
    0.1306   -2.2531   -5.1853 N   0  0  0  0  0  0  0  0  0  0  0  0
    0.7480   -1.7403   -4.5808 H   0  0  0  0  0  0  0  0  0  0  0  0
    0.4493   -2.5620   -6.0852 H   0  0  0  0  0  0  0  0  0  0  0  0
   -1.8604   -3.1697   -5.5824 N   0  0  0  0  0  0  0  0  0  0  0  0
   -2.8042   -3.3868   -5.3121 H   0  0  0  0  0  0  0  0  0  0  0  0
   -1.5221   -3.4690   -6.4782 H   0  0  0  0  0  0  0  0  0  0  0  0
   -1.6547    1.3413    1.4779 C   0  0  0  0  0  0  0  0  0  0  0  0
   -2.5654    1.9858    0.9716 O   0  0  0  0  0  0  0  0  0  0  0  0
   -0.8107    1.8504    2.3808 N   0  0  0  0  0  0  0  0  0  0  0  0
   -0.1136    1.2381    2.7719 H   0  0  0  0  0  0  0  0  0  0  0  0
   -0.8954    3.2155    2.9026 C   0  0  0  0  0  0  0  0  0  0  0  0
   -1.8299    3.3430    3.4532 H   0  0  0  0  0  0  0  0  0  0  0  0
   -0.0581    3.4194    3.5712 H   0  0  0  0  0  0  0  0  0  0  0  0
   -0.8804    3.9320    2.0784 H   0  0  0  0  0  0  0  0  0  0  0  0
  5  6  2  0  0  0  0
  5  7  1  0  0  0  0
  2  3  1  0  0  0  0
  2  4  1  0  0  0  0
  2  5  1  0  0  0  0
  1  2  1  0  0  0  0
 29 30  2  0  0  0  0
 29 31  1  0  0  0  0
 26 27  1  0  0  0  0
 26 28  1  0  0  0  0
 23 24  1  0  0  0  0
 23 25  1  0  0  0  0
 22 23  1  0  0  0  0
 22 26  1  0  0  0  0
 20 21  1  0  0  0  0
 20 22  2  0  0  0  0
 17 18  1  0  0  0  0
 17 19  1  0  0  0  0
 17 20  1  0  0  0  0
 14 15  1  0  0  0  0
 14 16  1  0  0  0  0
 14 17  1  0  0  0  0
 11 12  1  0  0  0  0
 11 13  1  0  0  0  0
 11 14  1  0  0  0  0
  9 10  1  0  0  0  0
  9 11  1  0  0  0  0
  9 29  1  0  0  0  0
  7  8  1  0  0  0  0
  7  9  1  0  0  0  0
 33 34  1  0  0  0  0
 33 35  1  0  0  0  0
 33 36  1  0  0  0  0
 31 32  1  0  0  0  0
 31 33  1  0  0  0  0
M  CHG  1  20   1
M  END
$$$$
default_name
  -OEChem-02102213163D

 36 35  0     1  0  0  0  0  0999 V2000
   -4.2256   -3.6731    1.8584 H   0  0  0  0  0  0  0  0  0  0  0  0
   -4.2396   -2.6781    1.4144 C   0  0  0  0  0  0  0  0  0  0  0  0
   -4.9506   -2.0521    1.9514 H   0  0  0  0  0  0  0  0  0  0  0  0
   -4.5266   -2.7521    0.3674 H   0  0  0  0  0  0  0  0  0  0  0  0
   -2.8576   -2.0761    1.5184 C   0  0  0  0  0  0  0  0  0  0  0  0
   -1.9456   -2.7051    2.0404 O   0  0  0  0  0  0  0  0  0  0  0  0
   -2.6926   -0.8481    1.0174 N   0  0  0  0  0  0  0  0  0  0  0  0
   -3.4926   -0.3971    0.5954 H   0  0  0  0  0  0  0  0  0  0  0  0
   -1.4216   -0.1071    1.0434 C   0  0  1  0  0  0  0  0  0  0  0  0
   -0.7579   -0.5878    1.7640 H   0  0  0  0  0  0  0  0  0  0  0  0
   -0.7791   -0.1912   -0.3557 C   0  0  0  0  0  0  0  0  0  0  0  0
   -0.6574    0.8218   -0.7445 H   0  0  0  0  0  0  0  0  0  0  0  0
    0.2119   -0.6416   -0.2669 H   0  0  0  0  0  0  0  0  0  0  0  0
   -1.6113   -0.9979   -1.3630 C   0  0  0  0  0  0  0  0  0  0  0  0
   -2.1776   -1.7695   -0.8397 H   0  0  0  0  0  0  0  0  0  0  0  0
   -2.3029   -0.3295   -1.8769 H   0  0  0  0  0  0  0  0  0  0  0  0
   -0.6861   -1.6635   -2.3909 C   0  0  0  0  0  0  0  0  0  0  0  0
   -0.1040   -0.8860   -2.8910 H   0  0  0  0  0  0  0  0  0  0  0  0
   -0.0017   -2.3308   -1.8618 H   0  0  0  0  0  0  0  0  0  0  0  0
   -1.4472   -2.4330   -3.3965 N   0  3  0  0  0  0  0  0  0  0  0  0
   -2.4445   -2.4740   -3.2739 H   0  0  0  0  0  0  0  0  0  0  0  0
   -0.9420   -3.0704   -4.4393 C   0  0  0  0  0  0  0  0  0  0  0  0
    0.3368   -3.0820   -4.6918 N   0  0  0  0  0  0  0  0  0  0  0  0
    0.9565   -2.5888   -4.0736 H   0  0  0  0  0  0  0  0  0  0  0  0
    0.7039   -3.5710   -5.4874 H   0  0  0  0  0  0  0  0  0  0  0  0
   -1.7217   -3.7176   -5.2582 N   0  0  0  0  0  0  0  0  0  0  0  0
   -2.7152   -3.7372   -5.1051 H   0  0  0  0  0  0  0  0  0  0  0  0
   -1.3343   -4.1998   -6.0482 H   0  0  0  0  0  0  0  0  0  0  0  0
   -1.6547    1.3413    1.4779 C   0  0  0  0  0  0  0  0  0  0  0  0
   -2.5654    1.9858    0.9716 O   0  0  0  0  0  0  0  0  0  0  0  0
   -0.8107    1.8504    2.3808 N   0  0  0  0  0  0  0  0  0  0  0  0
   -0.1136    1.2381    2.7719 H   0  0  0  0  0  0  0  0  0  0  0  0
   -0.8954    3.2155    2.9026 C   0  0  0  0  0  0  0  0  0  0  0  0
   -1.8299    3.3430    3.4532 H   0  0  0  0  0  0  0  0  0  0  0  0
   -0.0581    3.4194    3.5712 H   0  0  0  0  0  0  0  0  0  0  0  0
   -0.8804    3.9320    2.0784 H   0  0  0  0  0  0  0  0  0  0  0  0
  5  6  2  0  0  0  0
  5  7  1  0  0  0  0
  2  3  1  0  0  0  0
  2  4  1  0  0  0  0
  2  5  1  0  0  0  0
  1  2  1  0  0  0  0
 29 30  2  0  0  0  0
 29 31  1  0  0  0  0
 26 27  1  0  0  0  0
 26 28  1  0  0  0  0
 23 24  1  0  0  0  0
 23 25  1  0  0  0  0
 22 23  1  0  0  0  0
 22 26  1  0  0  0  0
 20 21  1  0  0  0  0
 20 22  2  0  0  0  0
 17 18  1  0  0  0  0
 17 19  1  0  0  0  0
 17 20  1  0  0  0  0
 14 15  1  0  0  0  0
 14 16  1  0  0  0  0
 14 17  1  0  0  0  0
 11 12  1  0  0  0  0
 11 13  1  0  0  0  0
 11 14  1  0  0  0  0
  9 10  1  0  0  0  0
  9 11  1  0  0  0  0
  9 29  1  0  0  0  0
  7  8  1  0  0  0  0
  7  9  1  0  0  0  0
 33 34  1  0  0  0  0
 33 35  1  0  0  0  0
 33 36  1  0  0  0  0
 31 32  1  0  0  0  0
 31 33  1  0  0  0  0
M  CHG  1  20   1
M  END
$$$$
default_name
  -OEChem-02102213163D

 36 35  0     1  0  0  0  0  0999 V2000
   -4.2256   -3.6731    1.8584 H   0  0  0  0  0  0  0  0  0  0  0  0
   -4.2396   -2.6781    1.4144 C   0  0  0  0  0  0  0  0  0  0  0  0
   -4.9506   -2.0521    1.9514 H   0  0  0  0  0  0  0  0  0  0  0  0
   -4.5266   -2.7521    0.3674 H   0  0  0  0  0  0  0  0  0  0  0  0
   -2.8576   -2.0761    1.5184 C   0  0  0  0  0  0  0  0  0  0  0  0
   -1.9456   -2.7051    2.0404 O   0  0  0  0  0  0  0  0  0  0  0  0
   -2.6926   -0.8481    1.0174 N   0  0  0  0  0  0  0  0  0  0  0  0
   -3.4926   -0.3971    0.5954 H   0  0  0  0  0  0  0  0  0  0  0  0
   -1.4216   -0.1071    1.0434 C   0  0  1  0  0  0  0  0  0  0  0  0
   -0.7579   -0.5878    1.7640 H   0  0  0  0  0  0  0  0  0  0  0  0
   -0.7791   -0.1912   -0.3557 C   0  0  0  0  0  0  0  0  0  0  0  0
   -0.6574    0.8218   -0.7445 H   0  0  0  0  0  0  0  0  0  0  0  0
    0.2119   -0.6416   -0.2669 H   0  0  0  0  0  0  0  0  0  0  0  0
   -1.6113   -0.9979   -1.3630 C   0  0  0  0  0  0  0  0  0  0  0  0
   -2.3673   -1.5803   -0.8345 H   0  0  0  0  0  0  0  0  0  0  0  0
   -2.1026   -0.3134   -2.0553 H   0  0  0  0  0  0  0  0  0  0  0  0
   -0.7005   -1.9514   -2.1484 C   0  0  0  0  0  0  0  0  0  0  0  0
    0.0690   -1.3623   -2.6525 H   0  0  0  0  0  0  0  0  0  0  0  0
   -0.2179   -2.6314   -1.4424 H   0  0  0  0  0  0  0  0  0  0  0  0
   -1.4569   -2.7329   -3.1483 N   0  3  0  0  0  0  0  0  0  0  0  0
   -2.4527   -2.5947   -3.1705 H   0  0  0  0  0  0  0  0  0  0  0  0
   -0.9491   -3.5940   -4.0142 C   0  0  0  0  0  0  0  0  0  0  0  0
    0.3282   -3.8484   -4.0709 N   0  0  0  0  0  0  0  0  0  0  0  0
    0.9448   -3.3726   -3.4363 H   0  0  0  0  0  0  0  0  0  0  0  0
    0.6971   -4.5051   -4.7338 H   0  0  0  0  0  0  0  0  0  0  0  0
   -1.7247   -4.2249   -4.8494 N   0  0  0  0  0  0  0  0  0  0  0  0
   -2.7168   -4.0617   -4.8439 H   0  0  0  0  0  0  0  0  0  0  0  0
   -1.3354   -4.8773   -5.5047 H   0  0  0  0  0  0  0  0  0  0  0  0
   -1.6547    1.3413    1.4779 C   0  0  0  0  0  0  0  0  0  0  0  0
   -2.5654    1.9858    0.9716 O   0  0  0  0  0  0  0  0  0  0  0  0
   -0.8107    1.8504    2.3808 N   0  0  0  0  0  0  0  0  0  0  0  0
   -0.1136    1.2381    2.7719 H   0  0  0  0  0  0  0  0  0  0  0  0
   -0.8954    3.2155    2.9026 C   0  0  0  0  0  0  0  0  0  0  0  0
   -1.8299    3.3430    3.4532 H   0  0  0  0  0  0  0  0  0  0  0  0
   -0.0581    3.4194    3.5712 H   0  0  0  0  0  0  0  0  0  0  0  0
   -0.8804    3.9320    2.0784 H   0  0  0  0  0  0  0  0  0  0  0  0
  5  6  2  0  0  0  0
  5  7  1  0  0  0  0
  2  3  1  0  0  0  0
  2  4  1  0  0  0  0
  2  5  1  0  0  0  0
  1  2  1  0  0  0  0
 29 30  2  0  0  0  0
 29 31  1  0  0  0  0
 26 27  1  0  0  0  0
 26 28  1  0  0  0  0
 23 24  1  0  0  0  0
 23 25  1  0  0  0  0
 22 23  1  0  0  0  0
 22 26  1  0  0  0  0
 20 21  1  0  0  0  0
 20 22  2  0  0  0  0
 17 18  1  0  0  0  0
 17 19  1  0  0  0  0
 17 20  1  0  0  0  0
 14 15  1  0  0  0  0
 14 16  1  0  0  0  0
 14 17  1  0  0  0  0
 11 12  1  0  0  0  0
 11 13  1  0  0  0  0
 11 14  1  0  0  0  0
  9 10  1  0  0  0  0
  9 11  1  0  0  0  0
  9 29  1  0  0  0  0
  7  8  1  0  0  0  0
  7  9  1  0  0  0  0
 33 34  1  0  0  0  0
 33 35  1  0  0  0  0
 33 36  1  0  0  0  0
 31 32  1  0  0  0  0
 31 33  1  0  0  0  0
M  CHG  1  20   1
M  END
$$$$
default_name
  -OEChem-02102213163D

 36 35  0     1  0  0  0  0  0999 V2000
   -4.2256   -3.6731    1.8584 H   0  0  0  0  0  0  0  0  0  0  0  0
   -4.2396   -2.6781    1.4144 C   0  0  0  0  0  0  0  0  0  0  0  0
   -4.9506   -2.0521    1.9514 H   0  0  0  0  0  0  0  0  0  0  0  0
   -4.5266   -2.7521    0.3674 H   0  0  0  0  0  0  0  0  0  0  0  0
   -2.8576   -2.0761    1.5184 C   0  0  0  0  0  0  0  0  0  0  0  0
   -1.9456   -2.7051    2.0404 O   0  0  0  0  0  0  0  0  0  0  0  0
   -2.6926   -0.8481    1.0174 N   0  0  0  0  0  0  0  0  0  0  0  0
   -3.4926   -0.3971    0.5954 H   0  0  0  0  0  0  0  0  0  0  0  0
   -1.4216   -0.1071    1.0434 C   0  0  1  0  0  0  0  0  0  0  0  0
   -0.7579   -0.5878    1.7640 H   0  0  0  0  0  0  0  0  0  0  0  0
   -0.7791   -0.1912   -0.3557 C   0  0  0  0  0  0  0  0  0  0  0  0
   -0.6574    0.8218   -0.7445 H   0  0  0  0  0  0  0  0  0  0  0  0
    0.2119   -0.6416   -0.2669 H   0  0  0  0  0  0  0  0  0  0  0  0
   -1.6113   -0.9979   -1.3630 C   0  0  0  0  0  0  0  0  0  0  0  0
   -2.5191   -1.3646   -0.8819 H   0  0  0  0  0  0  0  0  0  0  0  0
   -1.8822   -0.3569   -2.2026 H   0  0  0  0  0  0  0  0  0  0  0  0
   -0.7963   -2.1931   -1.8757 C   0  0  0  0  0  0  0  0  0  0  0  0
    0.1229   -1.8183   -2.3318 H   0  0  0  0  0  0  0  0  0  0  0  0
   -0.5348   -2.8263   -1.0246 H   0  0  0  0  0  0  0  0  0  0  0  0
   -1.5509   -2.9862   -2.8678 N   0  3  0  0  0  0  0  0  0  0  0  0
   -2.4952   -2.6953   -3.0548 H   0  0  0  0  0  0  0  0  0  0  0  0
   -1.1026   -4.0390   -3.5310 C   0  0  0  0  0  0  0  0  0  0  0  0
    0.1052   -4.5002   -3.3648 N   0  0  0  0  0  0  0  0  0  0  0  0
    0.7139   -4.0384   -2.7123 H   0  0  0  0  0  0  0  0  0  0  0  0
    0.4296   -5.3005   -3.8758 H   0  0  0  0  0  0  0  0  0  0  0  0
   -1.8694   -4.6571   -4.3838 N   0  0  0  0  0  0  0  0  0  0  0  0
   -2.8090   -4.3382   -4.5463 H   0  0  0  0  0  0  0  0  0  0  0  0
   -1.5253   -5.4553   -4.8849 H   0  0  0  0  0  0  0  0  0  0  0  0
   -1.6547    1.3413    1.4779 C   0  0  0  0  0  0  0  0  0  0  0  0
   -2.5654    1.9858    0.9716 O   0  0  0  0  0  0  0  0  0  0  0  0
   -0.8107    1.8504    2.3808 N   0  0  0  0  0  0  0  0  0  0  0  0
   -0.1136    1.2381    2.7719 H   0  0  0  0  0  0  0  0  0  0  0  0
   -0.8954    3.2155    2.9026 C   0  0  0  0  0  0  0  0  0  0  0  0
   -1.8299    3.3430    3.4532 H   0  0  0  0  0  0  0  0  0  0  0  0
   -0.0581    3.4194    3.5712 H   0  0  0  0  0  0  0  0  0  0  0  0
   -0.8804    3.9320    2.0784 H   0  0  0  0  0  0  0  0  0  0  0  0
  5  6  2  0  0  0  0
  5  7  1  0  0  0  0
  2  3  1  0  0  0  0
  2  4  1  0  0  0  0
  2  5  1  0  0  0  0
  1  2  1  0  0  0  0
 29 30  2  0  0  0  0
 29 31  1  0  0  0  0
 26 27  1  0  0  0  0
 26 28  1  0  0  0  0
 23 24  1  0  0  0  0
 23 25  1  0  0  0  0
 22 23  1  0  0  0  0
 22 26  1  0  0  0  0
 20 21  1  0  0  0  0
 20 22  2  0  0  0  0
 17 18  1  0  0  0  0
 17 19  1  0  0  0  0
 17 20  1  0  0  0  0
 14 15  1  0  0  0  0
 14 16  1  0  0  0  0
 14 17  1  0  0  0  0
 11 12  1  0  0  0  0
 11 13  1  0  0  0  0
 11 14  1  0  0  0  0
  9 10  1  0  0  0  0
  9 11  1  0  0  0  0
  9 29  1  0  0  0  0
  7  8  1  0  0  0  0
  7  9  1  0  0  0  0
 33 34  1  0  0  0  0
 33 35  1  0  0  0  0
 33 36  1  0  0  0  0
 31 32  1  0  0  0  0
 31 33  1  0  0  0  0
M  CHG  1  20   1
M  END
$$$$
default_name
  -OEChem-02102213163D

 36 35  0     1  0  0  0  0  0999 V2000
   -4.2256   -3.6731    1.8584 H   0  0  0  0  0  0  0  0  0  0  0  0
   -4.2396   -2.6781    1.4144 C   0  0  0  0  0  0  0  0  0  0  0  0
   -4.9506   -2.0521    1.9514 H   0  0  0  0  0  0  0  0  0  0  0  0
   -4.5266   -2.7521    0.3674 H   0  0  0  0  0  0  0  0  0  0  0  0
   -2.8576   -2.0761    1.5184 C   0  0  0  0  0  0  0  0  0  0  0  0
   -1.9456   -2.7051    2.0404 O   0  0  0  0  0  0  0  0  0  0  0  0
   -2.6926   -0.8481    1.0174 N   0  0  0  0  0  0  0  0  0  0  0  0
   -3.4926   -0.3971    0.5954 H   0  0  0  0  0  0  0  0  0  0  0  0
   -1.4216   -0.1071    1.0434 C   0  0  1  0  0  0  0  0  0  0  0  0
   -0.7579   -0.5878    1.7640 H   0  0  0  0  0  0  0  0  0  0  0  0
   -0.7791   -0.1912   -0.3557 C   0  0  0  0  0  0  0  0  0  0  0  0
   -0.6574    0.8218   -0.7445 H   0  0  0  0  0  0  0  0  0  0  0  0
    0.2119   -0.6416   -0.2669 H   0  0  0  0  0  0  0  0  0  0  0  0
   -1.6113   -0.9979   -1.3630 C   0  0  0  0  0  0  0  0  0  0  0  0
   -2.6227   -1.1370   -0.9786 H   0  0  0  0  0  0  0  0  0  0  0  0
   -1.6566   -0.4569   -2.3088 H   0  0  0  0  0  0  0  0  0  0  0  0
   -0.9669   -2.3720   -1.5915 C   0  0  0  0  0  0  0  0  0  0  0  0
    0.0539   -2.2230   -1.9508 H   0  0  0  0  0  0  0  0  0  0  0  0
   -0.9308   -2.9021   -0.6368 H   0  0  0  0  0  0  0  0  0  0  0  0
   -1.7228   -3.1756   -2.5741 N   0  3  0  0  0  0  0  0  0  0  0  0
   -2.5691   -2.7691   -2.9347 H   0  0  0  0  0  0  0  0  0  0  0  0
   -1.3922   -4.3749   -3.0228 C   0  0  0  0  0  0  0  0  0  0  0  0
   -0.3168   -4.9928   -2.6216 N   0  0  0  0  0  0  0  0  0  0  0  0
    0.2793   -4.5407   -1.9511 H   0  0  0  0  0  0  0  0  0  0  0  0
   -0.0806   -5.9030   -2.9719 H   0  0  0  0  0  0  0  0  0  0  0  0
   -2.1458   -4.9847   -3.8932 N   0  0  0  0  0  0  0  0  0  0  0  0
   -2.9855   -4.5479   -4.2326 H   0  0  0  0  0  0  0  0  0  0  0  0
   -1.8912   -5.8944   -4.2310 H   0  0  0  0  0  0  0  0  0  0  0  0
   -1.6547    1.3413    1.4779 C   0  0  0  0  0  0  0  0  0  0  0  0
   -2.5654    1.9858    0.9716 O   0  0  0  0  0  0  0  0  0  0  0  0
   -0.8107    1.8504    2.3808 N   0  0  0  0  0  0  0  0  0  0  0  0
   -0.1136    1.2381    2.7719 H   0  0  0  0  0  0  0  0  0  0  0  0
   -0.8954    3.2155    2.9026 C   0  0  0  0  0  0  0  0  0  0  0  0
   -1.8299    3.3430    3.4532 H   0  0  0  0  0  0  0  0  0  0  0  0
   -0.0581    3.4194    3.5712 H   0  0  0  0  0  0  0  0  0  0  0  0
   -0.8804    3.9320    2.0784 H   0  0  0  0  0  0  0  0  0  0  0  0
  5  6  2  0  0  0  0
  5  7  1  0  0  0  0
  2  3  1  0  0  0  0
  2  4  1  0  0  0  0
  2  5  1  0  0  0  0
  1  2  1  0  0  0  0
 29 30  2  0  0  0  0
 29 31  1  0  0  0  0
 26 27  1  0  0  0  0
 26 28  1  0  0  0  0
 23 24  1  0  0  0  0
 23 25  1  0  0  0  0
 22 23  1  0  0  0  0
 22 26  1  0  0  0  0
 20 21  1  0  0  0  0
 20 22  2  0  0  0  0
 17 18  1  0  0  0  0
 17 19  1  0  0  0  0
 17 20  1  0  0  0  0
 14 15  1  0  0  0  0
 14 16  1  0  0  0  0
 14 17  1  0  0  0  0
 11 12  1  0  0  0  0
 11 13  1  0  0  0  0
 11 14  1  0  0  0  0
  9 10  1  0  0  0  0
  9 11  1  0  0  0  0
  9 29  1  0  0  0  0
  7  8  1  0  0  0  0
  7  9  1  0  0  0  0
 33 34  1  0  0  0  0
 33 35  1  0  0  0  0
 33 36  1  0  0  0  0
 31 32  1  0  0  0  0
 31 33  1  0  0  0  0
M  CHG  1  20   1
M  END
$$$$
default_name
  -OEChem-02102213163D

 36 35  0     1  0  0  0  0  0999 V2000
   -4.2256   -3.6731    1.8584 H   0  0  0  0  0  0  0  0  0  0  0  0
   -4.2396   -2.6781    1.4144 C   0  0  0  0  0  0  0  0  0  0  0  0
   -4.9506   -2.0521    1.9514 H   0  0  0  0  0  0  0  0  0  0  0  0
   -4.5266   -2.7521    0.3674 H   0  0  0  0  0  0  0  0  0  0  0  0
   -2.8576   -2.0761    1.5184 C   0  0  0  0  0  0  0  0  0  0  0  0
   -1.9456   -2.7051    2.0404 O   0  0  0  0  0  0  0  0  0  0  0  0
   -2.6926   -0.8481    1.0174 N   0  0  0  0  0  0  0  0  0  0  0  0
   -3.4926   -0.3971    0.5954 H   0  0  0  0  0  0  0  0  0  0  0  0
   -1.4216   -0.1071    1.0434 C   0  0  1  0  0  0  0  0  0  0  0  0
   -0.7579   -0.5878    1.7640 H   0  0  0  0  0  0  0  0  0  0  0  0
   -0.7791   -0.1912   -0.3557 C   0  0  0  0  0  0  0  0  0  0  0  0
   -0.6574    0.8218   -0.7445 H   0  0  0  0  0  0  0  0  0  0  0  0
    0.2119   -0.6416   -0.2669 H   0  0  0  0  0  0  0  0  0  0  0  0
   -1.6113   -0.9979   -1.3630 C   0  0  0  0  0  0  0  0  0  0  0  0
   -2.6709   -0.9133   -1.1179 H   0  0  0  0  0  0  0  0  0  0  0  0
   -1.4413   -0.6068   -2.3666 H   0  0  0  0  0  0  0  0  0  0  0  0
   -1.2008   -2.4760   -1.3150 C   0  0  0  0  0  0  0  0  0  0  0  0
   -0.1333   -2.5487   -1.5353 H   0  0  0  0  0  0  0  0  0  0  0  0
   -1.3789   -2.8536   -0.3054 H   0  0  0  0  0  0  0  0  0  0  0  0
   -1.9610   -3.2881   -2.2873 N   0  3  0  0  0  0  0  0  0  0  0  0
   -2.6693   -2.8110   -2.8184 H   0  0  0  0  0  0  0  0  0  0  0  0
   -1.7980   -4.5789   -2.5241 C   0  0  0  0  0  0  0  0  0  0  0  0
   -0.9091   -5.2928   -1.8921 N   0  0  0  0  0  0  0  0  0  0  0  0
   -0.3292   -4.8453   -1.2044 H   0  0  0  0  0  0  0  0  0  0  0  0
   -0.7986   -6.2716   -2.0836 H   0  0  0  0  0  0  0  0  0  0  0  0
   -2.5351   -5.1853   -3.4108 N   0  0  0  0  0  0  0  0  0  0  0  0
   -3.2342   -4.6766   -3.9241 H   0  0  0  0  0  0  0  0  0  0  0  0
   -2.4082   -6.1647   -3.5875 H   0  0  0  0  0  0  0  0  0  0  0  0
   -1.6547    1.3413    1.4779 C   0  0  0  0  0  0  0  0  0  0  0  0
   -2.5654    1.9858    0.9716 O   0  0  0  0  0  0  0  0  0  0  0  0
   -0.8107    1.8504    2.3808 N   0  0  0  0  0  0  0  0  0  0  0  0
   -0.1136    1.2381    2.7719 H   0  0  0  0  0  0  0  0  0  0  0  0
   -0.8954    3.2155    2.9026 C   0  0  0  0  0  0  0  0  0  0  0  0
   -1.8299    3.3430    3.4532 H   0  0  0  0  0  0  0  0  0  0  0  0
   -0.0581    3.4194    3.5712 H   0  0  0  0  0  0  0  0  0  0  0  0
   -0.8804    3.9320    2.0784 H   0  0  0  0  0  0  0  0  0  0  0  0
  5  6  2  0  0  0  0
  5  7  1  0  0  0  0
  2  3  1  0  0  0  0
  2  4  1  0  0  0  0
  2  5  1  0  0  0  0
  1  2  1  0  0  0  0
 29 30  2  0  0  0  0
 29 31  1  0  0  0  0
 26 27  1  0  0  0  0
 26 28  1  0  0  0  0
 23 24  1  0  0  0  0
 23 25  1  0  0  0  0
 22 23  1  0  0  0  0
 22 26  1  0  0  0  0
 20 21  1  0  0  0  0
 20 22  2  0  0  0  0
 17 18  1  0  0  0  0
 17 19  1  0  0  0  0
 17 20  1  0  0  0  0
 14 15  1  0  0  0  0
 14 16  1  0  0  0  0
 14 17  1  0  0  0  0
 11 12  1  0  0  0  0
 11 13  1  0  0  0  0
 11 14  1  0  0  0  0
  9 10  1  0  0  0  0
  9 11  1  0  0  0  0
  9 29  1  0  0  0  0
  7  8  1  0  0  0  0
  7  9  1  0  0  0  0
 33 34  1  0  0  0  0
 33 35  1  0  0  0  0
 33 36  1  0  0  0  0
 31 32  1  0  0  0  0
 31 33  1  0  0  0  0
M  CHG  1  20   1
M  END
$$$$
default_name
  -OEChem-02102213163D

 36 35  0     1  0  0  0  0  0999 V2000
   -4.2256   -3.6731    1.8584 H   0  0  0  0  0  0  0  0  0  0  0  0
   -4.2396   -2.6781    1.4144 C   0  0  0  0  0  0  0  0  0  0  0  0
   -4.9506   -2.0521    1.9514 H   0  0  0  0  0  0  0  0  0  0  0  0
   -4.5266   -2.7521    0.3674 H   0  0  0  0  0  0  0  0  0  0  0  0
   -2.8576   -2.0761    1.5184 C   0  0  0  0  0  0  0  0  0  0  0  0
   -1.9456   -2.7051    2.0404 O   0  0  0  0  0  0  0  0  0  0  0  0
   -2.6926   -0.8481    1.0174 N   0  0  0  0  0  0  0  0  0  0  0  0
   -3.4926   -0.3971    0.5954 H   0  0  0  0  0  0  0  0  0  0  0  0
   -1.4216   -0.1071    1.0434 C   0  0  1  0  0  0  0  0  0  0  0  0
   -0.7579   -0.5878    1.7640 H   0  0  0  0  0  0  0  0  0  0  0  0
   -0.7791   -0.1912   -0.3557 C   0  0  0  0  0  0  0  0  0  0  0  0
   -0.6574    0.8218   -0.7445 H   0  0  0  0  0  0  0  0  0  0  0  0
    0.2119   -0.6416   -0.2669 H   0  0  0  0  0  0  0  0  0  0  0  0
   -1.6113   -0.9979   -1.3630 C   0  0  0  0  0  0  0  0  0  0  0  0
   -2.6606   -0.7085   -1.2904 H   0  0  0  0  0  0  0  0  0  0  0  0
   -1.2509   -0.7962   -2.3723 H   0  0  0  0  0  0  0  0  0  0  0  0
   -1.4819   -2.4979   -1.0652 C   0  0  0  0  0  0  0  0  0  0  0  0
   -0.4259   -2.7732   -1.1138 H   0  0  0  0  0  0  0  0  0  0  0  0
   -1.8486   -2.6843   -0.0530 H   0  0  0  0  0  0  0  0  0  0  0  0
   -2.2492   -3.3161   -2.0268 N   0  3  0  0  0  0  0  0  0  0  0  0
   -2.7890   -2.8181   -2.7138 H   0  0  0  0  0  0  0  0  0  0  0  0
   -2.2925   -4.6372   -2.0690 C   0  0  0  0  0  0  0  0  0  0  0  0
   -1.6313   -5.3797   -1.2259 N   0  0  0  0  0  0  0  0  0  0  0  0
   -1.0703   -4.9315   -0.5232 H   0  0  0  0  0  0  0  0  0  0  0  0
   -1.6754   -6.3811   -1.2715 H   0  0  0  0  0  0  0  0  0  0  0  0
   -3.0109   -5.2454   -2.9697 N   0  0  0  0  0  0  0  0  0  0  0  0
   -3.5382   -4.7153   -3.6420 H   0  0  0  0  0  0  0  0  0  0  0  0
   -3.0409   -6.2478   -2.9983 H   0  0  0  0  0  0  0  0  0  0  0  0
   -1.6547    1.3413    1.4779 C   0  0  0  0  0  0  0  0  0  0  0  0
   -2.5654    1.9858    0.9716 O   0  0  0  0  0  0  0  0  0  0  0  0
   -0.8107    1.8504    2.3808 N   0  0  0  0  0  0  0  0  0  0  0  0
   -0.1136    1.2381    2.7719 H   0  0  0  0  0  0  0  0  0  0  0  0
   -0.8954    3.2155    2.9026 C   0  0  0  0  0  0  0  0  0  0  0  0
   -1.8299    3.3430    3.4532 H   0  0  0  0  0  0  0  0  0  0  0  0
   -0.0581    3.4194    3.5712 H   0  0  0  0  0  0  0  0  0  0  0  0
   -0.8804    3.9320    2.0784 H   0  0  0  0  0  0  0  0  0  0  0  0
  5  6  2  0  0  0  0
  5  7  1  0  0  0  0
  2  3  1  0  0  0  0
  2  4  1  0  0  0  0
  2  5  1  0  0  0  0
  1  2  1  0  0  0  0
 29 30  2  0  0  0  0
 29 31  1  0  0  0  0
 26 27  1  0  0  0  0
 26 28  1  0  0  0  0
 23 24  1  0  0  0  0
 23 25  1  0  0  0  0
 22 23  1  0  0  0  0
 22 26  1  0  0  0  0
 20 21  1  0  0  0  0
 20 22  2  0  0  0  0
 17 18  1  0  0  0  0
 17 19  1  0  0  0  0
 17 20  1  0  0  0  0
 14 15  1  0  0  0  0
 14 16  1  0  0  0  0
 14 17  1  0  0  0  0
 11 12  1  0  0  0  0
 11 13  1  0  0  0  0
 11 14  1  0  0  0  0
  9 10  1  0  0  0  0
  9 11  1  0  0  0  0
  9 29  1  0  0  0  0
  7  8  1  0  0  0  0
  7  9  1  0  0  0  0
 33 34  1  0  0  0  0
 33 35  1  0  0  0  0
 33 36  1  0  0  0  0
 31 32  1  0  0  0  0
 31 33  1  0  0  0  0
M  CHG  1  20   1
M  END
$$$$
default_name
  -OEChem-02102213163D

 36 35  0     1  0  0  0  0  0999 V2000
   -4.2256   -3.6731    1.8584 H   0  0  0  0  0  0  0  0  0  0  0  0
   -4.2396   -2.6781    1.4144 C   0  0  0  0  0  0  0  0  0  0  0  0
   -4.9506   -2.0521    1.9514 H   0  0  0  0  0  0  0  0  0  0  0  0
   -4.5266   -2.7521    0.3674 H   0  0  0  0  0  0  0  0  0  0  0  0
   -2.8576   -2.0761    1.5184 C   0  0  0  0  0  0  0  0  0  0  0  0
   -1.9456   -2.7051    2.0404 O   0  0  0  0  0  0  0  0  0  0  0  0
   -2.6926   -0.8481    1.0174 N   0  0  0  0  0  0  0  0  0  0  0  0
   -3.4926   -0.3971    0.5954 H   0  0  0  0  0  0  0  0  0  0  0  0
   -1.4216   -0.1071    1.0434 C   0  0  1  0  0  0  0  0  0  0  0  0
   -0.7579   -0.5878    1.7640 H   0  0  0  0  0  0  0  0  0  0  0  0
   -0.7791   -0.1912   -0.3557 C   0  0  0  0  0  0  0  0  0  0  0  0
   -0.6574    0.8218   -0.7445 H   0  0  0  0  0  0  0  0  0  0  0  0
    0.2119   -0.6416   -0.2669 H   0  0  0  0  0  0  0  0  0  0  0  0
   -1.6113   -0.9979   -1.3630 C   0  0  0  0  0  0  0  0  0  0  0  0
   -2.5924   -0.5366   -1.4844 H   0  0  0  0  0  0  0  0  0  0  0  0
   -1.0984   -1.0122   -2.3252 H   0  0  0  0  0  0  0  0  0  0  0  0
   -1.7911   -2.4363   -0.8591 C   0  0  0  0  0  0  0  0  0  0  0  0
   -0.8039   -2.8813   -0.7150 H   0  0  0  0  0  0  0  0  0  0  0  0
   -2.3078   -2.4056    0.1031 H   0  0  0  0  0  0  0  0  0  0  0  0
   -2.5677   -3.2577   -1.8105 N   0  3  0  0  0  0  0  0  0  0  0  0
   -2.9200   -2.7900   -2.6281 H   0  0  0  0  0  0  0  0  0  0  0  0
   -2.8419   -4.5457   -1.6885 C   0  0  0  0  0  0  0  0  0  0  0  0
   -2.4343   -5.2475   -0.6684 N   0  0  0  0  0  0  0  0  0  0  0  0
   -1.8934   -4.7934    0.0462 H   0  0  0  0  0  0  0  0  0  0  0  0
   -2.6514   -6.2241   -0.5909 H   0  0  0  0  0  0  0  0  0  0  0  0
   -3.5406   -5.1608   -2.5999 N   0  0  0  0  0  0  0  0  0  0  0  0
   -3.8768   -4.6615   -3.4053 H   0  0  0  0  0  0  0  0  0  0  0  0
   -3.7462   -6.1380   -2.5035 H   0  0  0  0  0  0  0  0  0  0  0  0
   -1.6547    1.3413    1.4779 C   0  0  0  0  0  0  0  0  0  0  0  0
   -2.5654    1.9858    0.9716 O   0  0  0  0  0  0  0  0  0  0  0  0
   -0.8107    1.8504    2.3808 N   0  0  0  0  0  0  0  0  0  0  0  0
   -0.1136    1.2381    2.7719 H   0  0  0  0  0  0  0  0  0  0  0  0
   -0.8954    3.2155    2.9026 C   0  0  0  0  0  0  0  0  0  0  0  0
   -1.8299    3.3430    3.4532 H   0  0  0  0  0  0  0  0  0  0  0  0
   -0.0581    3.4194    3.5712 H   0  0  0  0  0  0  0  0  0  0  0  0
   -0.8804    3.9320    2.0784 H   0  0  0  0  0  0  0  0  0  0  0  0
  5  6  2  0  0  0  0
  5  7  1  0  0  0  0
  2  3  1  0  0  0  0
  2  4  1  0  0  0  0
  2  5  1  0  0  0  0
  1  2  1  0  0  0  0
 29 30  2  0  0  0  0
 29 31  1  0  0  0  0
 26 27  1  0  0  0  0
 26 28  1  0  0  0  0
 23 24  1  0  0  0  0
 23 25  1  0  0  0  0
 22 23  1  0  0  0  0
 22 26  1  0  0  0  0
 20 21  1  0  0  0  0
 20 22  2  0  0  0  0
 17 18  1  0  0  0  0
 17 19  1  0  0  0  0
 17 20  1  0  0  0  0
 14 15  1  0  0  0  0
 14 16  1  0  0  0  0
 14 17  1  0  0  0  0
 11 12  1  0  0  0  0
 11 13  1  0  0  0  0
 11 14  1  0  0  0  0
  9 10  1  0  0  0  0
  9 11  1  0  0  0  0
  9 29  1  0  0  0  0
  7  8  1  0  0  0  0
  7  9  1  0  0  0  0
 33 34  1  0  0  0  0
 33 35  1  0  0  0  0
 33 36  1  0  0  0  0
 31 32  1  0  0  0  0
 31 33  1  0  0  0  0
M  CHG  1  20   1
M  END
$$$$
default_name
  -OEChem-02102213163D

 36 35  0     1  0  0  0  0  0999 V2000
   -4.2256   -3.6731    1.8584 H   0  0  0  0  0  0  0  0  0  0  0  0
   -4.2396   -2.6781    1.4144 C   0  0  0  0  0  0  0  0  0  0  0  0
   -4.9506   -2.0521    1.9514 H   0  0  0  0  0  0  0  0  0  0  0  0
   -4.5266   -2.7521    0.3674 H   0  0  0  0  0  0  0  0  0  0  0  0
   -2.8576   -2.0761    1.5184 C   0  0  0  0  0  0  0  0  0  0  0  0
   -1.9456   -2.7051    2.0404 O   0  0  0  0  0  0  0  0  0  0  0  0
   -2.6926   -0.8481    1.0174 N   0  0  0  0  0  0  0  0  0  0  0  0
   -3.4926   -0.3971    0.5954 H   0  0  0  0  0  0  0  0  0  0  0  0
   -1.4216   -0.1071    1.0434 C   0  0  1  0  0  0  0  0  0  0  0  0
   -0.7579   -0.5878    1.7640 H   0  0  0  0  0  0  0  0  0  0  0  0
   -0.7791   -0.1912   -0.3557 C   0  0  0  0  0  0  0  0  0  0  0  0
   -0.6574    0.8218   -0.7445 H   0  0  0  0  0  0  0  0  0  0  0  0
    0.2119   -0.6416   -0.2669 H   0  0  0  0  0  0  0  0  0  0  0  0
   -1.6113   -0.9979   -1.3630 C   0  0  0  0  0  0  0  0  0  0  0  0
   -2.4709   -0.4094   -1.6866 H   0  0  0  0  0  0  0  0  0  0  0  0
   -0.9941   -1.2403   -2.2287 H   0  0  0  0  0  0  0  0  0  0  0  0
   -2.1074   -2.2955   -0.7106 C   0  0  0  0  0  0  0  0  0  0  0  0
   -1.2417   -2.8656   -0.3659 H   0  0  0  0  0  0  0  0  0  0  0  0
   -2.7253   -2.0365    0.1524 H   0  0  0  0  0  0  0  0  0  0  0  0
   -2.8949   -3.1168   -1.6530 N   0  3  0  0  0  0  0  0  0  0  0  0
   -3.0535   -2.7286   -2.5670 H   0  0  0  0  0  0  0  0  0  0  0  0
   -3.4087   -4.3106   -1.4084 C   0  0  0  0  0  0  0  0  0  0  0  0
   -3.2633   -4.9054   -0.2576 N   0  0  0  0  0  0  0  0  0  0  0  0
   -2.7424   -4.4404    0.4648 H   0  0  0  0  0  0  0  0  0  0  0  0
   -3.6601   -5.8113   -0.0883 H   0  0  0  0  0  0  0  0  0  0  0  0
   -4.0881   -4.9373   -2.3266 N   0  0  0  0  0  0  0  0  0  0  0  0
   -4.2269   -4.5189   -3.2303 H   0  0  0  0  0  0  0  0  0  0  0  0
   -4.4762   -5.8428   -2.1369 H   0  0  0  0  0  0  0  0  0  0  0  0
   -1.6547    1.3413    1.4779 C   0  0  0  0  0  0  0  0  0  0  0  0
   -2.5654    1.9858    0.9716 O   0  0  0  0  0  0  0  0  0  0  0  0
   -0.8107    1.8504    2.3808 N   0  0  0  0  0  0  0  0  0  0  0  0
   -0.1136    1.2381    2.7719 H   0  0  0  0  0  0  0  0  0  0  0  0
   -0.8954    3.2155    2.9026 C   0  0  0  0  0  0  0  0  0  0  0  0
   -1.8299    3.3430    3.4532 H   0  0  0  0  0  0  0  0  0  0  0  0
   -0.0581    3.4194    3.5712 H   0  0  0  0  0  0  0  0  0  0  0  0
   -0.8804    3.9320    2.0784 H   0  0  0  0  0  0  0  0  0  0  0  0
  5  6  2  0  0  0  0
  5  7  1  0  0  0  0
  2  3  1  0  0  0  0
  2  4  1  0  0  0  0
  2  5  1  0  0  0  0
  1  2  1  0  0  0  0
 29 30  2  0  0  0  0
 29 31  1  0  0  0  0
 26 27  1  0  0  0  0
 26 28  1  0  0  0  0
 23 24  1  0  0  0  0
 23 25  1  0  0  0  0
 22 23  1  0  0  0  0
 22 26  1  0  0  0  0
 20 21  1  0  0  0  0
 20 22  2  0  0  0  0
 17 18  1  0  0  0  0
 17 19  1  0  0  0  0
 17 20  1  0  0  0  0
 14 15  1  0  0  0  0
 14 16  1  0  0  0  0
 14 17  1  0  0  0  0
 11 12  1  0  0  0  0
 11 13  1  0  0  0  0
 11 14  1  0  0  0  0
  9 10  1  0  0  0  0
  9 11  1  0  0  0  0
  9 29  1  0  0  0  0
  7  8  1  0  0  0  0
  7  9  1  0  0  0  0
 33 34  1  0  0  0  0
 33 35  1  0  0  0  0
 33 36  1  0  0  0  0
 31 32  1  0  0  0  0
 31 33  1  0  0  0  0
M  CHG  1  20   1
M  END
$$$$
default_name
  -OEChem-02102213163D

 36 35  0     1  0  0  0  0  0999 V2000
   -4.2256   -3.6731    1.8584 H   0  0  0  0  0  0  0  0  0  0  0  0
   -4.2396   -2.6781    1.4144 C   0  0  0  0  0  0  0  0  0  0  0  0
   -4.9506   -2.0521    1.9514 H   0  0  0  0  0  0  0  0  0  0  0  0
   -4.5266   -2.7521    0.3674 H   0  0  0  0  0  0  0  0  0  0  0  0
   -2.8576   -2.0761    1.5184 C   0  0  0  0  0  0  0  0  0  0  0  0
   -1.9456   -2.7051    2.0404 O   0  0  0  0  0  0  0  0  0  0  0  0
   -2.6926   -0.8481    1.0174 N   0  0  0  0  0  0  0  0  0  0  0  0
   -3.4926   -0.3971    0.5954 H   0  0  0  0  0  0  0  0  0  0  0  0
   -1.4216   -0.1071    1.0434 C   0  0  1  0  0  0  0  0  0  0  0  0
   -0.7579   -0.5878    1.7640 H   0  0  0  0  0  0  0  0  0  0  0  0
   -0.7791   -0.1912   -0.3557 C   0  0  0  0  0  0  0  0  0  0  0  0
   -0.6574    0.8218   -0.7445 H   0  0  0  0  0  0  0  0  0  0  0  0
    0.2119   -0.6416   -0.2669 H   0  0  0  0  0  0  0  0  0  0  0  0
   -1.6113   -0.9979   -1.3630 C   0  0  0  0  0  0  0  0  0  0  0  0
   -2.3045   -0.3355   -1.8833 H   0  0  0  0  0  0  0  0  0  0  0  0
   -0.9453   -1.4647   -2.0894 H   0  0  0  0  0  0  0  0  0  0  0  0
   -2.4092   -2.0849   -0.6300 C   0  0  0  0  0  0  0  0  0  0  0  0
   -1.7093   -2.7271   -0.0905 H   0  0  0  0  0  0  0  0  0  0  0  0
   -3.0726   -1.6022    0.0915 H   0  0  0  0  0  0  0  0  0  0  0  0
   -3.2084   -2.9031   -1.5651 N   0  3  0  0  0  0  0  0  0  0  0  0
   -3.1803   -2.6380   -2.5348 H   0  0  0  0  0  0  0  0  0  0  0  0
   -3.9544   -3.9481   -1.2480 C   0  0  0  0  0  0  0  0  0  0  0  0
   -4.0618   -4.3765   -0.0215 N   0  0  0  0  0  0  0  0  0  0  0  0
   -3.5595   -3.8966    0.7043 H   0  0  0  0  0  0  0  0  0  0  0  0
   -4.6326   -5.1708    0.2022 H   0  0  0  0  0  0  0  0  0  0  0  0
   -4.6162   -4.5900   -2.1684 N   0  0  0  0  0  0  0  0  0  0  0  0
   -4.5646   -4.2972   -3.1289 H   0  0  0  0  0  0  0  0  0  0  0  0
   -5.1809   -5.3823   -1.9235 H   0  0  0  0  0  0  0  0  0  0  0  0
   -1.6547    1.3413    1.4779 C   0  0  0  0  0  0  0  0  0  0  0  0
   -2.5654    1.9858    0.9716 O   0  0  0  0  0  0  0  0  0  0  0  0
   -0.8107    1.8504    2.3808 N   0  0  0  0  0  0  0  0  0  0  0  0
   -0.1136    1.2381    2.7719 H   0  0  0  0  0  0  0  0  0  0  0  0
   -0.8954    3.2155    2.9026 C   0  0  0  0  0  0  0  0  0  0  0  0
   -1.8299    3.3430    3.4532 H   0  0  0  0  0  0  0  0  0  0  0  0
   -0.0581    3.4194    3.5712 H   0  0  0  0  0  0  0  0  0  0  0  0
   -0.8804    3.9320    2.0784 H   0  0  0  0  0  0  0  0  0  0  0  0
  5  6  2  0  0  0  0
  5  7  1  0  0  0  0
  2  3  1  0  0  0  0
  2  4  1  0  0  0  0
  2  5  1  0  0  0  0
  1  2  1  0  0  0  0
 29 30  2  0  0  0  0
 29 31  1  0  0  0  0
 26 27  1  0  0  0  0
 26 28  1  0  0  0  0
 23 24  1  0  0  0  0
 23 25  1  0  0  0  0
 22 23  1  0  0  0  0
 22 26  1  0  0  0  0
 20 21  1  0  0  0  0
 20 22  2  0  0  0  0
 17 18  1  0  0  0  0
 17 19  1  0  0  0  0
 17 20  1  0  0  0  0
 14 15  1  0  0  0  0
 14 16  1  0  0  0  0
 14 17  1  0  0  0  0
 11 12  1  0  0  0  0
 11 13  1  0  0  0  0
 11 14  1  0  0  0  0
  9 10  1  0  0  0  0
  9 11  1  0  0  0  0
  9 29  1  0  0  0  0
  7  8  1  0  0  0  0
  7  9  1  0  0  0  0
 33 34  1  0  0  0  0
 33 35  1  0  0  0  0
 33 36  1  0  0  0  0
 31 32  1  0  0  0  0
 31 33  1  0  0  0  0
M  CHG  1  20   1
M  END
$$$$
default_name
  -OEChem-02102213163D

 36 35  0     1  0  0  0  0  0999 V2000
   -4.2256   -3.6731    1.8584 H   0  0  0  0  0  0  0  0  0  0  0  0
   -4.2396   -2.6781    1.4144 C   0  0  0  0  0  0  0  0  0  0  0  0
   -4.9506   -2.0521    1.9514 H   0  0  0  0  0  0  0  0  0  0  0  0
   -4.5266   -2.7521    0.3674 H   0  0  0  0  0  0  0  0  0  0  0  0
   -2.8576   -2.0761    1.5184 C   0  0  0  0  0  0  0  0  0  0  0  0
   -1.9456   -2.7051    2.0404 O   0  0  0  0  0  0  0  0  0  0  0  0
   -2.6926   -0.8481    1.0174 N   0  0  0  0  0  0  0  0  0  0  0  0
   -3.4926   -0.3971    0.5954 H   0  0  0  0  0  0  0  0  0  0  0  0
   -1.4216   -0.1071    1.0434 C   0  0  1  0  0  0  0  0  0  0  0  0
   -0.7579   -0.5878    1.7640 H   0  0  0  0  0  0  0  0  0  0  0  0
   -0.7791   -0.1912   -0.3557 C   0  0  0  0  0  0  0  0  0  0  0  0
   -0.6574    0.8218   -0.7445 H   0  0  0  0  0  0  0  0  0  0  0  0
    0.2119   -0.6416   -0.2669 H   0  0  0  0  0  0  0  0  0  0  0  0
   -1.6113   -0.9979   -1.3630 C   0  0  0  0  0  0  0  0  0  0  0  0
   -2.1045   -0.3199   -2.0610 H   0  0  0  0  0  0  0  0  0  0  0  0
   -0.9551   -1.6702   -1.9167 H   0  0  0  0  0  0  0  0  0  0  0  0
   -2.6759   -1.8189   -0.6227 C   0  0  0  0  0  0  0  0  0  0  0  0
   -2.1749   -2.4754    0.0925 H   0  0  0  0  0  0  0  0  0  0  0  0
   -3.3261   -1.1322   -0.0754 H   0  0  0  0  0  0  0  0  0  0  0  0
   -3.4869   -2.6312   -1.5528 N   0  3  0  0  0  0  0  0  0  0  0  0
   -3.2918   -2.5245   -2.5336 H   0  0  0  0  0  0  0  0  0  0  0  0
   -4.4418   -3.4827   -1.2180 C   0  0  0  0  0  0  0  0  0  0  0  0
   -4.7754   -3.6969    0.0238 N   0  0  0  0  0  0  0  0  0  0  0  0
   -4.2889   -3.1990    0.7482 H   0  0  0  0  0  0  0  0  0  0  0  0
   -5.5027   -4.3463    0.2607 H   0  0  0  0  0  0  0  0  0  0  0  0
   -5.0889   -4.1428   -2.1361 N   0  0  0  0  0  0  0  0  0  0  0  0
   -4.8670   -4.0114   -3.1080 H   0  0  0  0  0  0  0  0  0  0  0  0
   -5.8126   -4.7879   -1.8778 H   0  0  0  0  0  0  0  0  0  0  0  0
   -1.6547    1.3413    1.4779 C   0  0  0  0  0  0  0  0  0  0  0  0
   -2.5654    1.9858    0.9716 O   0  0  0  0  0  0  0  0  0  0  0  0
   -0.8107    1.8504    2.3808 N   0  0  0  0  0  0  0  0  0  0  0  0
   -0.1136    1.2381    2.7719 H   0  0  0  0  0  0  0  0  0  0  0  0
   -0.8954    3.2155    2.9026 C   0  0  0  0  0  0  0  0  0  0  0  0
   -1.8299    3.3430    3.4532 H   0  0  0  0  0  0  0  0  0  0  0  0
   -0.0581    3.4194    3.5712 H   0  0  0  0  0  0  0  0  0  0  0  0
   -0.8804    3.9320    2.0784 H   0  0  0  0  0  0  0  0  0  0  0  0
  5  6  2  0  0  0  0
  5  7  1  0  0  0  0
  2  3  1  0  0  0  0
  2  4  1  0  0  0  0
  2  5  1  0  0  0  0
  1  2  1  0  0  0  0
 29 30  2  0  0  0  0
 29 31  1  0  0  0  0
 26 27  1  0  0  0  0
 26 28  1  0  0  0  0
 23 24  1  0  0  0  0
 23 25  1  0  0  0  0
 22 23  1  0  0  0  0
 22 26  1  0  0  0  0
 20 21  1  0  0  0  0
 20 22  2  0  0  0  0
 17 18  1  0  0  0  0
 17 19  1  0  0  0  0
 17 20  1  0  0  0  0
 14 15  1  0  0  0  0
 14 16  1  0  0  0  0
 14 17  1  0  0  0  0
 11 12  1  0  0  0  0
 11 13  1  0  0  0  0
 11 14  1  0  0  0  0
  9 10  1  0  0  0  0
  9 11  1  0  0  0  0
  9 29  1  0  0  0  0
  7  8  1  0  0  0  0
  7  9  1  0  0  0  0
 33 34  1  0  0  0  0
 33 35  1  0  0  0  0
 33 36  1  0  0  0  0
 31 32  1  0  0  0  0
 31 33  1  0  0  0  0
M  CHG  1  20   1
M  END
$$$$
default_name
  -OEChem-02102213163D

 36 35  0     1  0  0  0  0  0999 V2000
   -4.2256   -3.6731    1.8584 H   0  0  0  0  0  0  0  0  0  0  0  0
   -4.2396   -2.6781    1.4144 C   0  0  0  0  0  0  0  0  0  0  0  0
   -4.9506   -2.0521    1.9514 H   0  0  0  0  0  0  0  0  0  0  0  0
   -4.5266   -2.7521    0.3674 H   0  0  0  0  0  0  0  0  0  0  0  0
   -2.8576   -2.0761    1.5184 C   0  0  0  0  0  0  0  0  0  0  0  0
   -1.9456   -2.7051    2.0404 O   0  0  0  0  0  0  0  0  0  0  0  0
   -2.6926   -0.8481    1.0174 N   0  0  0  0  0  0  0  0  0  0  0  0
   -3.4926   -0.3971    0.5954 H   0  0  0  0  0  0  0  0  0  0  0  0
   -1.4216   -0.1071    1.0434 C   0  0  1  0  0  0  0  0  0  0  0  0
   -0.7579   -0.5878    1.7640 H   0  0  0  0  0  0  0  0  0  0  0  0
   -0.7791   -0.1912   -0.3557 C   0  0  0  0  0  0  0  0  0  0  0  0
   -0.6574    0.8218   -0.7445 H   0  0  0  0  0  0  0  0  0  0  0  0
    0.2119   -0.6416   -0.2669 H   0  0  0  0  0  0  0  0  0  0  0  0
   -1.6113   -0.9979   -1.3630 C   0  0  0  0  0  0  0  0  0  0  0  0
   -1.8845   -0.3638   -2.2076 H   0  0  0  0  0  0  0  0  0  0  0  0
   -1.0230   -1.8428   -1.7224 H   0  0  0  0  0  0  0  0  0  0  0  0
   -2.8893   -1.5157   -0.6892 C   0  0  0  0  0  0  0  0  0  0  0  0
   -2.6068   -2.1275    0.1707 H   0  0  0  0  0  0  0  0  0  0  0  0
   -3.4684   -0.6587   -0.3371 H   0  0  0  0  0  0  0  0  0  0  0  0
   -3.7114   -2.3195   -1.6170 N   0  3  0  0  0  0  0  0  0  0  0  0
   -3.3804   -2.3957   -2.5635 H   0  0  0  0  0  0  0  0  0  0  0  0
   -4.8376   -2.9462   -1.3207 C   0  0  0  0  0  0  0  0  0  0  0  0
   -5.3554   -2.9130   -0.1248 N   0  0  0  0  0  0  0  0  0  0  0  0
   -4.8810   -2.3951    0.5936 H   0  0  0  0  0  0  0  0  0  0  0  0
   -6.2112   -3.3939    0.0832 H   0  0  0  0  0  0  0  0  0  0  0  0
   -5.4739   -3.6260   -2.2319 N   0  0  0  0  0  0  0  0  0  0  0  0
   -5.1134   -3.6811   -3.1689 H   0  0  0  0  0  0  0  0  0  0  0  0
   -6.3279   -4.1000   -2.0028 H   0  0  0  0  0  0  0  0  0  0  0  0
   -1.6547    1.3413    1.4779 C   0  0  0  0  0  0  0  0  0  0  0  0
   -2.5654    1.9858    0.9716 O   0  0  0  0  0  0  0  0  0  0  0  0
   -0.8107    1.8504    2.3808 N   0  0  0  0  0  0  0  0  0  0  0  0
   -0.1136    1.2381    2.7719 H   0  0  0  0  0  0  0  0  0  0  0  0
   -0.8954    3.2155    2.9026 C   0  0  0  0  0  0  0  0  0  0  0  0
   -1.8299    3.3430    3.4532 H   0  0  0  0  0  0  0  0  0  0  0  0
   -0.0581    3.4194    3.5712 H   0  0  0  0  0  0  0  0  0  0  0  0
   -0.8804    3.9320    2.0784 H   0  0  0  0  0  0  0  0  0  0  0  0
  5  6  2  0  0  0  0
  5  7  1  0  0  0  0
  2  3  1  0  0  0  0
  2  4  1  0  0  0  0
  2  5  1  0  0  0  0
  1  2  1  0  0  0  0
 29 30  2  0  0  0  0
 29 31  1  0  0  0  0
 26 27  1  0  0  0  0
 26 28  1  0  0  0  0
 23 24  1  0  0  0  0
 23 25  1  0  0  0  0
 22 23  1  0  0  0  0
 22 26  1  0  0  0  0
 20 21  1  0  0  0  0
 20 22  2  0  0  0  0
 17 18  1  0  0  0  0
 17 19  1  0  0  0  0
 17 20  1  0  0  0  0
 14 15  1  0  0  0  0
 14 16  1  0  0  0  0
 14 17  1  0  0  0  0
 11 12  1  0  0  0  0
 11 13  1  0  0  0  0
 11 14  1  0  0  0  0
  9 10  1  0  0  0  0
  9 11  1  0  0  0  0
  9 29  1  0  0  0  0
  7  8  1  0  0  0  0
  7  9  1  0  0  0  0
 33 34  1  0  0  0  0
 33 35  1  0  0  0  0
 33 36  1  0  0  0  0
 31 32  1  0  0  0  0
 31 33  1  0  0  0  0
M  CHG  1  20   1
M  END
$$$$
default_name
  -OEChem-02102213163D

 36 35  0     1  0  0  0  0  0999 V2000
   -4.2256   -3.6731    1.8584 H   0  0  0  0  0  0  0  0  0  0  0  0
   -4.2396   -2.6781    1.4144 C   0  0  0  0  0  0  0  0  0  0  0  0
   -4.9506   -2.0521    1.9514 H   0  0  0  0  0  0  0  0  0  0  0  0
   -4.5266   -2.7521    0.3674 H   0  0  0  0  0  0  0  0  0  0  0  0
   -2.8576   -2.0761    1.5184 C   0  0  0  0  0  0  0  0  0  0  0  0
   -1.9456   -2.7051    2.0404 O   0  0  0  0  0  0  0  0  0  0  0  0
   -2.6926   -0.8481    1.0174 N   0  0  0  0  0  0  0  0  0  0  0  0
   -3.4926   -0.3971    0.5954 H   0  0  0  0  0  0  0  0  0  0  0  0
   -1.4216   -0.1071    1.0434 C   0  0  1  0  0  0  0  0  0  0  0  0
   -0.7579   -0.5878    1.7640 H   0  0  0  0  0  0  0  0  0  0  0  0
   -0.7791   -0.1912   -0.3557 C   0  0  0  0  0  0  0  0  0  0  0  0
   -0.6574    0.8218   -0.7445 H   0  0  0  0  0  0  0  0  0  0  0  0
    0.2119   -0.6416   -0.2669 H   0  0  0  0  0  0  0  0  0  0  0  0
   -1.6113   -0.9979   -1.3630 C   0  0  0  0  0  0  0  0  0  0  0  0
   -1.6595   -0.4640   -2.3132 H   0  0  0  0  0  0  0  0  0  0  0  0
   -1.1443   -1.9708   -1.5197 H   0  0  0  0  0  0  0  0  0  0  0  0
   -3.0350   -1.1959   -0.8250 C   0  0  0  0  0  0  0  0  0  0  0  0
   -2.9755   -1.7071    0.1386 H   0  0  0  0  0  0  0  0  0  0  0  0
   -3.4899   -0.2138   -0.6756 H   0  0  0  0  0  0  0  0  0  0  0  0
   -3.8666   -1.9893   -1.7532 N   0  3  0  0  0  0  0  0  0  0  0  0
   -3.4400   -2.2605   -2.6226 H   0  0  0  0  0  0  0  0  0  0  0  0
   -5.1149   -2.3752   -1.5489 C   0  0  0  0  0  0  0  0  0  0  0  0
   -5.7624   -2.0782   -0.4572 N   0  0  0  0  0  0  0  0  0  0  0  0
   -5.2954   -1.5398    0.2510 H   0  0  0  0  0  0  0  0  0  0  0  0
   -6.7097   -2.3786   -0.3181 H   0  0  0  0  0  0  0  0  0  0  0  0
   -5.7450   -3.0749   -2.4493 N   0  0  0  0  0  0  0  0  0  0  0  0
   -5.2871   -3.3288   -3.3076 H   0  0  0  0  0  0  0  0  0  0  0  0
   -6.6920   -3.3657   -2.2902 H   0  0  0  0  0  0  0  0  0  0  0  0
   -1.6547    1.3413    1.4779 C   0  0  0  0  0  0  0  0  0  0  0  0
   -2.5654    1.9858    0.9716 O   0  0  0  0  0  0  0  0  0  0  0  0
   -0.8107    1.8504    2.3808 N   0  0  0  0  0  0  0  0  0  0  0  0
   -0.1136    1.2381    2.7719 H   0  0  0  0  0  0  0  0  0  0  0  0
   -0.8954    3.2155    2.9026 C   0  0  0  0  0  0  0  0  0  0  0  0
   -1.8299    3.3430    3.4532 H   0  0  0  0  0  0  0  0  0  0  0  0
   -0.0581    3.4194    3.5712 H   0  0  0  0  0  0  0  0  0  0  0  0
   -0.8804    3.9320    2.0784 H   0  0  0  0  0  0  0  0  0  0  0  0
  5  6  2  0  0  0  0
  5  7  1  0  0  0  0
  2  3  1  0  0  0  0
  2  4  1  0  0  0  0
  2  5  1  0  0  0  0
  1  2  1  0  0  0  0
 29 30  2  0  0  0  0
 29 31  1  0  0  0  0
 26 27  1  0  0  0  0
 26 28  1  0  0  0  0
 23 24  1  0  0  0  0
 23 25  1  0  0  0  0
 22 23  1  0  0  0  0
 22 26  1  0  0  0  0
 20 21  1  0  0  0  0
 20 22  2  0  0  0  0
 17 18  1  0  0  0  0
 17 19  1  0  0  0  0
 17 20  1  0  0  0  0
 14 15  1  0  0  0  0
 14 16  1  0  0  0  0
 14 17  1  0  0  0  0
 11 12  1  0  0  0  0
 11 13  1  0  0  0  0
 11 14  1  0  0  0  0
  9 10  1  0  0  0  0
  9 11  1  0  0  0  0
  9 29  1  0  0  0  0
  7  8  1  0  0  0  0
  7  9  1  0  0  0  0
 33 34  1  0  0  0  0
 33 35  1  0  0  0  0
 33 36  1  0  0  0  0
 31 32  1  0  0  0  0
 31 33  1  0  0  0  0
M  CHG  1  20   1
M  END
$$$$
default_name
  -OEChem-02102213163D

 36 35  0     1  0  0  0  0  0999 V2000
   -4.2256   -3.6731    1.8584 H   0  0  0  0  0  0  0  0  0  0  0  0
   -4.2396   -2.6781    1.4144 C   0  0  0  0  0  0  0  0  0  0  0  0
   -4.9506   -2.0521    1.9514 H   0  0  0  0  0  0  0  0  0  0  0  0
   -4.5266   -2.7521    0.3674 H   0  0  0  0  0  0  0  0  0  0  0  0
   -2.8576   -2.0761    1.5184 C   0  0  0  0  0  0  0  0  0  0  0  0
   -1.9456   -2.7051    2.0404 O   0  0  0  0  0  0  0  0  0  0  0  0
   -2.6926   -0.8481    1.0174 N   0  0  0  0  0  0  0  0  0  0  0  0
   -3.4926   -0.3971    0.5954 H   0  0  0  0  0  0  0  0  0  0  0  0
   -1.4216   -0.1071    1.0434 C   0  0  1  0  0  0  0  0  0  0  0  0
   -0.7579   -0.5878    1.7640 H   0  0  0  0  0  0  0  0  0  0  0  0
   -0.7791   -0.1912   -0.3557 C   0  0  0  0  0  0  0  0  0  0  0  0
   -0.6574    0.8218   -0.7445 H   0  0  0  0  0  0  0  0  0  0  0  0
    0.2119   -0.6416   -0.2669 H   0  0  0  0  0  0  0  0  0  0  0  0
   -1.6113   -0.9979   -1.3630 C   0  0  0  0  0  0  0  0  0  0  0  0
   -1.4449   -0.6139   -2.3705 H   0  0  0  0  0  0  0  0  0  0  0  0
   -1.3108   -2.0453   -1.3225 H   0  0  0  0  0  0  0  0  0  0  0  0
   -3.1029   -0.8813   -1.0208 C   0  0  0  0  0  0  0  0  0  0  0  0
   -3.2560   -1.2430   -0.0014 H   0  0  0  0  0  0  0  0  0  0  0  0
   -3.3891    0.1720   -1.0679 H   0  0  0  0  0  0  0  0  0  0  0  0
   -3.9419   -1.6631   -1.9522 N   0  3  0  0  0  0  0  0  0  0  0  0
   -3.4666   -2.1281   -2.7066 H   0  0  0  0  0  0  0  0  0  0  0  0
   -5.2548   -1.8086   -1.8871 C   0  0  0  0  0  0  0  0  0  0  0  0
   -5.9686   -1.2493   -0.9506 N   0  0  0  0  0  0  0  0  0  0  0  0
   -5.5039   -0.6913   -0.2563 H   0  0  0  0  0  0  0  0  0  0  0  0
   -6.9642   -1.3696   -0.9159 H   0  0  0  0  0  0  0  0  0  0  0  0
   -5.8838   -2.5270   -2.7734 N   0  0  0  0  0  0  0  0  0  0  0  0
   -5.3761   -2.9784   -3.5146 H   0  0  0  0  0  0  0  0  0  0  0  0
   -6.8799   -2.6349   -2.7203 H   0  0  0  0  0  0  0  0  0  0  0  0
   -1.6547    1.3413    1.4779 C   0  0  0  0  0  0  0  0  0  0  0  0
   -2.5654    1.9858    0.9716 O   0  0  0  0  0  0  0  0  0  0  0  0
   -0.8107    1.8504    2.3808 N   0  0  0  0  0  0  0  0  0  0  0  0
   -0.1136    1.2381    2.7719 H   0  0  0  0  0  0  0  0  0  0  0  0
   -0.8954    3.2155    2.9026 C   0  0  0  0  0  0  0  0  0  0  0  0
   -1.8299    3.3430    3.4532 H   0  0  0  0  0  0  0  0  0  0  0  0
   -0.0581    3.4194    3.5712 H   0  0  0  0  0  0  0  0  0  0  0  0
   -0.8804    3.9320    2.0784 H   0  0  0  0  0  0  0  0  0  0  0  0
  5  6  2  0  0  0  0
  5  7  1  0  0  0  0
  2  3  1  0  0  0  0
  2  4  1  0  0  0  0
  2  5  1  0  0  0  0
  1  2  1  0  0  0  0
 29 30  2  0  0  0  0
 29 31  1  0  0  0  0
 26 27  1  0  0  0  0
 26 28  1  0  0  0  0
 23 24  1  0  0  0  0
 23 25  1  0  0  0  0
 22 23  1  0  0  0  0
 22 26  1  0  0  0  0
 20 21  1  0  0  0  0
 20 22  2  0  0  0  0
 17 18  1  0  0  0  0
 17 19  1  0  0  0  0
 17 20  1  0  0  0  0
 14 15  1  0  0  0  0
 14 16  1  0  0  0  0
 14 17  1  0  0  0  0
 11 12  1  0  0  0  0
 11 13  1  0  0  0  0
 11 14  1  0  0  0  0
  9 10  1  0  0  0  0
  9 11  1  0  0  0  0
  9 29  1  0  0  0  0
  7  8  1  0  0  0  0
  7  9  1  0  0  0  0
 33 34  1  0  0  0  0
 33 35  1  0  0  0  0
 33 36  1  0  0  0  0
 31 32  1  0  0  0  0
 31 33  1  0  0  0  0
M  CHG  1  20   1
M  END
$$$$
default_name
  -OEChem-02102213163D

 36 35  0     1  0  0  0  0  0999 V2000
   -4.2256   -3.6731    1.8584 H   0  0  0  0  0  0  0  0  0  0  0  0
   -4.2396   -2.6781    1.4144 C   0  0  0  0  0  0  0  0  0  0  0  0
   -4.9506   -2.0521    1.9514 H   0  0  0  0  0  0  0  0  0  0  0  0
   -4.5266   -2.7521    0.3674 H   0  0  0  0  0  0  0  0  0  0  0  0
   -2.8576   -2.0761    1.5184 C   0  0  0  0  0  0  0  0  0  0  0  0
   -1.9456   -2.7051    2.0404 O   0  0  0  0  0  0  0  0  0  0  0  0
   -2.6926   -0.8481    1.0174 N   0  0  0  0  0  0  0  0  0  0  0  0
   -3.4926   -0.3971    0.5954 H   0  0  0  0  0  0  0  0  0  0  0  0
   -1.4216   -0.1071    1.0434 C   0  0  1  0  0  0  0  0  0  0  0  0
   -0.7579   -0.5878    1.7640 H   0  0  0  0  0  0  0  0  0  0  0  0
   -0.7791   -0.1912   -0.3557 C   0  0  0  0  0  0  0  0  0  0  0  0
   -0.6574    0.8218   -0.7445 H   0  0  0  0  0  0  0  0  0  0  0  0
    0.2119   -0.6416   -0.2669 H   0  0  0  0  0  0  0  0  0  0  0  0
   -1.6113   -0.9979   -1.3630 C   0  0  0  0  0  0  0  0  0  0  0  0
   -1.2552   -0.8032   -2.3756 H   0  0  0  0  0  0  0  0  0  0  0  0
   -1.5110   -2.0614   -1.1441 H   0  0  0  0  0  0  0  0  0  0  0  0
   -3.0884   -0.5934   -1.2633 C   0  0  0  0  0  0  0  0  0  0  0  0
   -3.4290   -0.7666   -0.2399 H   0  0  0  0  0  0  0  0  0  0  0  0
   -3.1729    0.4726   -1.4872 H   0  0  0  0  0  0  0  0  0  0  0  0
   -3.9323   -1.3631   -2.2004 N   0  3  0  0  0  0  0  0  0  0  0  0
   -3.4584   -2.0074   -2.8101 H   0  0  0  0  0  0  0  0  0  0  0  0
   -5.2477   -1.2850   -2.3122 C   0  0  0  0  0  0  0  0  0  0  0  0
   -5.9600   -0.4829   -1.5716 N   0  0  0  0  0  0  0  0  0  0  0  0
   -5.4923    0.0925   -0.8936 H   0  0  0  0  0  0  0  0  0  0  0  0
   -6.9575   -0.4355   -1.6695 H   0  0  0  0  0  0  0  0  0  0  0  0
   -5.8808   -2.0197   -3.1822 N   0  0  0  0  0  0  0  0  0  0  0  0
   -5.3745   -2.6539   -3.7759 H   0  0  0  0  0  0  0  0  0  0  0  0
   -6.8788   -1.9574   -3.2637 H   0  0  0  0  0  0  0  0  0  0  0  0
   -1.6547    1.3413    1.4779 C   0  0  0  0  0  0  0  0  0  0  0  0
   -2.5654    1.9858    0.9716 O   0  0  0  0  0  0  0  0  0  0  0  0
   -0.8107    1.8504    2.3808 N   0  0  0  0  0  0  0  0  0  0  0  0
   -0.1136    1.2381    2.7719 H   0  0  0  0  0  0  0  0  0  0  0  0
   -0.8954    3.2155    2.9026 C   0  0  0  0  0  0  0  0  0  0  0  0
   -1.8299    3.3430    3.4532 H   0  0  0  0  0  0  0  0  0  0  0  0
   -0.0581    3.4194    3.5712 H   0  0  0  0  0  0  0  0  0  0  0  0
   -0.8804    3.9320    2.0784 H   0  0  0  0  0  0  0  0  0  0  0  0
  5  6  2  0  0  0  0
  5  7  1  0  0  0  0
  2  3  1  0  0  0  0
  2  4  1  0  0  0  0
  2  5  1  0  0  0  0
  1  2  1  0  0  0  0
 29 30  2  0  0  0  0
 29 31  1  0  0  0  0
 26 27  1  0  0  0  0
 26 28  1  0  0  0  0
 23 24  1  0  0  0  0
 23 25  1  0  0  0  0
 22 23  1  0  0  0  0
 22 26  1  0  0  0  0
 20 21  1  0  0  0  0
 20 22  2  0  0  0  0
 17 18  1  0  0  0  0
 17 19  1  0  0  0  0
 17 20  1  0  0  0  0
 14 15  1  0  0  0  0
 14 16  1  0  0  0  0
 14 17  1  0  0  0  0
 11 12  1  0  0  0  0
 11 13  1  0  0  0  0
 11 14  1  0  0  0  0
  9 10  1  0  0  0  0
  9 11  1  0  0  0  0
  9 29  1  0  0  0  0
  7  8  1  0  0  0  0
  7  9  1  0  0  0  0
 33 34  1  0  0  0  0
 33 35  1  0  0  0  0
 33 36  1  0  0  0  0
 31 32  1  0  0  0  0
 31 33  1  0  0  0  0
M  CHG  1  20   1
M  END
$$$$
default_name
  -OEChem-02102213163D

 36 35  0     1  0  0  0  0  0999 V2000
   -4.2256   -3.6731    1.8584 H   0  0  0  0  0  0  0  0  0  0  0  0
   -4.2396   -2.6781    1.4144 C   0  0  0  0  0  0  0  0  0  0  0  0
   -4.9506   -2.0521    1.9514 H   0  0  0  0  0  0  0  0  0  0  0  0
   -4.5266   -2.7521    0.3674 H   0  0  0  0  0  0  0  0  0  0  0  0
   -2.8576   -2.0761    1.5184 C   0  0  0  0  0  0  0  0  0  0  0  0
   -1.9456   -2.7051    2.0404 O   0  0  0  0  0  0  0  0  0  0  0  0
   -2.6926   -0.8481    1.0174 N   0  0  0  0  0  0  0  0  0  0  0  0
   -3.4926   -0.3971    0.5954 H   0  0  0  0  0  0  0  0  0  0  0  0
   -1.4216   -0.1071    1.0434 C   0  0  1  0  0  0  0  0  0  0  0  0
   -0.7579   -0.5878    1.7640 H   0  0  0  0  0  0  0  0  0  0  0  0
   -0.7791   -0.1912   -0.3557 C   0  0  0  0  0  0  0  0  0  0  0  0
   -0.6574    0.8218   -0.7445 H   0  0  0  0  0  0  0  0  0  0  0  0
    0.2119   -0.6416   -0.2669 H   0  0  0  0  0  0  0  0  0  0  0  0
   -1.6113   -0.9979   -1.3630 C   0  0  0  0  0  0  0  0  0  0  0  0
   -1.1034   -1.0189   -2.3282 H   0  0  0  0  0  0  0  0  0  0  0  0
   -1.7314   -2.0180   -0.9968 H   0  0  0  0  0  0  0  0  0  0  0  0
   -2.9926   -0.3517   -1.5359 C   0  0  0  0  0  0  0  0  0  0  0  0
   -3.4829   -0.3106   -0.5606 H   0  0  0  0  0  0  0  0  0  0  0  0
   -2.8560    0.6675   -1.9050 H   0  0  0  0  0  0  0  0  0  0  0  0
   -3.8383   -1.1098   -2.4809 N   0  3  0  0  0  0  0  0  0  0  0  0
   -3.4159   -1.9068   -2.9257 H   0  0  0  0  0  0  0  0  0  0  0  0
   -5.0942   -0.8401   -2.7954 C   0  0  0  0  0  0  0  0  0  0  0  0
   -5.7370    0.1689   -2.2777 N   0  0  0  0  0  0  0  0  0  0  0  0
   -5.2614    0.7582   -1.6175 H   0  0  0  0  0  0  0  0  0  0  0  0
   -6.6899    0.3599   -2.5275 H   0  0  0  0  0  0  0  0  0  0  0  0
   -5.7361   -1.5875   -3.6478 N   0  0  0  0  0  0  0  0  0  0  0  0
   -5.2823   -2.3774   -4.0735 H   0  0  0  0  0  0  0  0  0  0  0  0
   -6.6888   -1.3794   -3.8835 H   0  0  0  0  0  0  0  0  0  0  0  0
   -1.6547    1.3413    1.4779 C   0  0  0  0  0  0  0  0  0  0  0  0
   -2.5654    1.9858    0.9716 O   0  0  0  0  0  0  0  0  0  0  0  0
   -0.8107    1.8504    2.3808 N   0  0  0  0  0  0  0  0  0  0  0  0
   -0.1136    1.2381    2.7719 H   0  0  0  0  0  0  0  0  0  0  0  0
   -0.8954    3.2155    2.9026 C   0  0  0  0  0  0  0  0  0  0  0  0
   -1.8299    3.3430    3.4532 H   0  0  0  0  0  0  0  0  0  0  0  0
   -0.0581    3.4194    3.5712 H   0  0  0  0  0  0  0  0  0  0  0  0
   -0.8804    3.9320    2.0784 H   0  0  0  0  0  0  0  0  0  0  0  0
  5  6  2  0  0  0  0
  5  7  1  0  0  0  0
  2  3  1  0  0  0  0
  2  4  1  0  0  0  0
  2  5  1  0  0  0  0
  1  2  1  0  0  0  0
 29 30  2  0  0  0  0
 29 31  1  0  0  0  0
 26 27  1  0  0  0  0
 26 28  1  0  0  0  0
 23 24  1  0  0  0  0
 23 25  1  0  0  0  0
 22 23  1  0  0  0  0
 22 26  1  0  0  0  0
 20 21  1  0  0  0  0
 20 22  2  0  0  0  0
 17 18  1  0  0  0  0
 17 19  1  0  0  0  0
 17 20  1  0  0  0  0
 14 15  1  0  0  0  0
 14 16  1  0  0  0  0
 14 17  1  0  0  0  0
 11 12  1  0  0  0  0
 11 13  1  0  0  0  0
 11 14  1  0  0  0  0
  9 10  1  0  0  0  0
  9 11  1  0  0  0  0
  9 29  1  0  0  0  0
  7  8  1  0  0  0  0
  7  9  1  0  0  0  0
 33 34  1  0  0  0  0
 33 35  1  0  0  0  0
 33 36  1  0  0  0  0
 31 32  1  0  0  0  0
 31 33  1  0  0  0  0
M  CHG  1  20   1
M  END
$$$$
default_name
  -OEChem-02102213163D

 36 35  0     1  0  0  0  0  0999 V2000
   -4.2256   -3.6731    1.8584 H   0  0  0  0  0  0  0  0  0  0  0  0
   -4.2396   -2.6781    1.4144 C   0  0  0  0  0  0  0  0  0  0  0  0
   -4.9506   -2.0521    1.9514 H   0  0  0  0  0  0  0  0  0  0  0  0
   -4.5266   -2.7521    0.3674 H   0  0  0  0  0  0  0  0  0  0  0  0
   -2.8576   -2.0761    1.5184 C   0  0  0  0  0  0  0  0  0  0  0  0
   -1.9456   -2.7051    2.0404 O   0  0  0  0  0  0  0  0  0  0  0  0
   -2.6926   -0.8481    1.0174 N   0  0  0  0  0  0  0  0  0  0  0  0
   -3.4926   -0.3971    0.5954 H   0  0  0  0  0  0  0  0  0  0  0  0
   -1.4216   -0.1071    1.0434 C   0  0  1  0  0  0  0  0  0  0  0  0
   -0.7579   -0.5878    1.7640 H   0  0  0  0  0  0  0  0  0  0  0  0
   -0.7791   -0.1912   -0.3557 C   0  0  0  0  0  0  0  0  0  0  0  0
   -0.6574    0.8218   -0.7445 H   0  0  0  0  0  0  0  0  0  0  0  0
    0.2119   -0.6416   -0.2669 H   0  0  0  0  0  0  0  0  0  0  0  0
   -1.6113   -0.9979   -1.3630 C   0  0  0  0  0  0  0  0  0  0  0  0
   -0.9998   -1.2464   -2.2316 H   0  0  0  0  0  0  0  0  0  0  0  0
   -1.9570   -1.9179   -0.8906 H   0  0  0  0  0  0  0  0  0  0  0  0
   -2.8220   -0.1728   -1.8202 C   0  0  0  0  0  0  0  0  0  0  0  0
   -3.4139    0.0940   -0.9416 H   0  0  0  0  0  0  0  0  0  0  0  0
   -2.4600    0.7432   -2.2929 H   0  0  0  0  0  0  0  0  0  0  0  0
   -3.6663   -0.9205   -2.7746 N   0  3  0  0  0  0  0  0  0  0  0  0
   -3.3420   -1.8330   -3.0458 H   0  0  0  0  0  0  0  0  0  0  0  0
   -4.8046   -0.5041   -3.3036 C   0  0  0  0  0  0  0  0  0  0  0  0
   -5.3150    0.6615   -3.0208 N   0  0  0  0  0  0  0  0  0  0  0  0
   -4.8268    1.2605   -2.3788 H   0  0  0  0  0  0  0  0  0  0  0  0
   -6.1797    0.9624   -3.4314 H   0  0  0  0  0  0  0  0  0  0  0  0
   -5.4597   -1.2599   -4.1385 N   0  0  0  0  0  0  0  0  0  0  0  0
   -5.1058   -2.1677   -4.3872 H   0  0  0  0  0  0  0  0  0  0  0  0
   -6.3229   -0.9402   -4.5375 H   0  0  0  0  0  0  0  0  0  0  0  0
   -1.6547    1.3413    1.4779 C   0  0  0  0  0  0  0  0  0  0  0  0
   -2.5654    1.9858    0.9716 O   0  0  0  0  0  0  0  0  0  0  0  0
   -0.8107    1.8504    2.3808 N   0  0  0  0  0  0  0  0  0  0  0  0
   -0.1136    1.2381    2.7719 H   0  0  0  0  0  0  0  0  0  0  0  0
   -0.8954    3.2155    2.9026 C   0  0  0  0  0  0  0  0  0  0  0  0
   -1.8299    3.3430    3.4532 H   0  0  0  0  0  0  0  0  0  0  0  0
   -0.0581    3.4194    3.5712 H   0  0  0  0  0  0  0  0  0  0  0  0
   -0.8804    3.9320    2.0784 H   0  0  0  0  0  0  0  0  0  0  0  0
  5  6  2  0  0  0  0
  5  7  1  0  0  0  0
  2  3  1  0  0  0  0
  2  4  1  0  0  0  0
  2  5  1  0  0  0  0
  1  2  1  0  0  0  0
 29 30  2  0  0  0  0
 29 31  1  0  0  0  0
 26 27  1  0  0  0  0
 26 28  1  0  0  0  0
 23 24  1  0  0  0  0
 23 25  1  0  0  0  0
 22 23  1  0  0  0  0
 22 26  1  0  0  0  0
 20 21  1  0  0  0  0
 20 22  2  0  0  0  0
 17 18  1  0  0  0  0
 17 19  1  0  0  0  0
 17 20  1  0  0  0  0
 14 15  1  0  0  0  0
 14 16  1  0  0  0  0
 14 17  1  0  0  0  0
 11 12  1  0  0  0  0
 11 13  1  0  0  0  0
 11 14  1  0  0  0  0
  9 10  1  0  0  0  0
  9 11  1  0  0  0  0
  9 29  1  0  0  0  0
  7  8  1  0  0  0  0
  7  9  1  0  0  0  0
 33 34  1  0  0  0  0
 33 35  1  0  0  0  0
 33 36  1  0  0  0  0
 31 32  1  0  0  0  0
 31 33  1  0  0  0  0
M  CHG  1  20   1
M  END
$$$$
default_name
  -OEChem-02102213163D

 36 35  0     1  0  0  0  0  0999 V2000
   -4.2256   -3.6731    1.8584 H   0  0  0  0  0  0  0  0  0  0  0  0
   -4.2396   -2.6781    1.4144 C   0  0  0  0  0  0  0  0  0  0  0  0
   -4.9506   -2.0521    1.9514 H   0  0  0  0  0  0  0  0  0  0  0  0
   -4.5266   -2.7521    0.3674 H   0  0  0  0  0  0  0  0  0  0  0  0
   -2.8576   -2.0761    1.5184 C   0  0  0  0  0  0  0  0  0  0  0  0
   -1.9456   -2.7051    2.0404 O   0  0  0  0  0  0  0  0  0  0  0  0
   -2.6926   -0.8481    1.0174 N   0  0  0  0  0  0  0  0  0  0  0  0
   -3.4926   -0.3971    0.5954 H   0  0  0  0  0  0  0  0  0  0  0  0
   -1.4216   -0.1071    1.0434 C   0  0  1  0  0  0  0  0  0  0  0  0
   -0.7579   -0.5878    1.7640 H   0  0  0  0  0  0  0  0  0  0  0  0
   -0.7791   -0.1912   -0.3557 C   0  0  0  0  0  0  0  0  0  0  0  0
   -0.6574    0.8218   -0.7445 H   0  0  0  0  0  0  0  0  0  0  0  0
    0.2119   -0.6416   -0.2669 H   0  0  0  0  0  0  0  0  0  0  0  0
   -1.6113   -0.9979   -1.3630 C   0  0  0  0  0  0  0  0  0  0  0  0
   -0.9516   -1.4702   -2.0922 H   0  0  0  0  0  0  0  0  0  0  0  0
   -2.1723   -1.7681   -0.8328 H   0  0  0  0  0  0  0  0  0  0  0  0
   -2.5882   -0.0688   -2.0966 C   0  0  0  0  0  0  0  0  0  0  0  0
   -3.2267    0.4197   -1.3570 H   0  0  0  0  0  0  0  0  0  0  0  0
   -2.0119    0.6948   -2.6242 H   0  0  0  0  0  0  0  0  0  0  0  0
   -3.4281   -0.8080   -3.0614 N   0  3  0  0  0  0  0  0  0  0  0  0
   -3.2419   -1.7911   -3.1621 H   0  0  0  0  0  0  0  0  0  0  0  0
   -4.3988   -0.3001   -3.8023 C   0  0  0  0  0  0  0  0  0  0  0  0
   -4.7227    0.9615   -3.7503 N   0  0  0  0  0  0  0  0  0  0  0  0
   -4.2182    1.5652   -3.1255 H   0  0  0  0  0  0  0  0  0  0  0  0
   -5.4618    1.3310   -4.3197 H   0  0  0  0  0  0  0  0  0  0  0  0
   -5.0703   -1.0593   -4.6208 N   0  0  0  0  0  0  0  0  0  0  0  0
   -4.8571   -2.0390   -4.6956 H   0  0  0  0  0  0  0  0  0  0  0  0
   -5.8060   -0.6699   -5.1810 H   0  0  0  0  0  0  0  0  0  0  0  0
   -1.6547    1.3413    1.4779 C   0  0  0  0  0  0  0  0  0  0  0  0
   -2.5654    1.9858    0.9716 O   0  0  0  0  0  0  0  0  0  0  0  0
   -0.8107    1.8504    2.3808 N   0  0  0  0  0  0  0  0  0  0  0  0
   -0.1136    1.2381    2.7719 H   0  0  0  0  0  0  0  0  0  0  0  0
   -0.8954    3.2155    2.9026 C   0  0  0  0  0  0  0  0  0  0  0  0
   -1.8299    3.3430    3.4532 H   0  0  0  0  0  0  0  0  0  0  0  0
   -0.0581    3.4194    3.5712 H   0  0  0  0  0  0  0  0  0  0  0  0
   -0.8804    3.9320    2.0784 H   0  0  0  0  0  0  0  0  0  0  0  0
  5  6  2  0  0  0  0
  5  7  1  0  0  0  0
  2  3  1  0  0  0  0
  2  4  1  0  0  0  0
  2  5  1  0  0  0  0
  1  2  1  0  0  0  0
 29 30  2  0  0  0  0
 29 31  1  0  0  0  0
 26 27  1  0  0  0  0
 26 28  1  0  0  0  0
 23 24  1  0  0  0  0
 23 25  1  0  0  0  0
 22 23  1  0  0  0  0
 22 26  1  0  0  0  0
 20 21  1  0  0  0  0
 20 22  2  0  0  0  0
 17 18  1  0  0  0  0
 17 19  1  0  0  0  0
 17 20  1  0  0  0  0
 14 15  1  0  0  0  0
 14 16  1  0  0  0  0
 14 17  1  0  0  0  0
 11 12  1  0  0  0  0
 11 13  1  0  0  0  0
 11 14  1  0  0  0  0
  9 10  1  0  0  0  0
  9 11  1  0  0  0  0
  9 29  1  0  0  0  0
  7  8  1  0  0  0  0
  7  9  1  0  0  0  0
 33 34  1  0  0  0  0
 33 35  1  0  0  0  0
 33 36  1  0  0  0  0
 31 32  1  0  0  0  0
 31 33  1  0  0  0  0
M  CHG  1  20   1
M  END
$$$$
default_name
  -OEChem-02102213163D

 36 35  0     1  0  0  0  0  0999 V2000
   -4.2256   -3.6731    1.8584 H   0  0  0  0  0  0  0  0  0  0  0  0
   -4.2396   -2.6781    1.4144 C   0  0  0  0  0  0  0  0  0  0  0  0
   -4.9506   -2.0521    1.9514 H   0  0  0  0  0  0  0  0  0  0  0  0
   -4.5266   -2.7521    0.3674 H   0  0  0  0  0  0  0  0  0  0  0  0
   -2.8576   -2.0761    1.5184 C   0  0  0  0  0  0  0  0  0  0  0  0
   -1.9456   -2.7051    2.0404 O   0  0  0  0  0  0  0  0  0  0  0  0
   -2.6926   -0.8481    1.0174 N   0  0  0  0  0  0  0  0  0  0  0  0
   -3.4926   -0.3971    0.5954 H   0  0  0  0  0  0  0  0  0  0  0  0
   -1.4216   -0.1071    1.0434 C   0  0  1  0  0  0  0  0  0  0  0  0
   -0.7579   -0.5878    1.7640 H   0  0  0  0  0  0  0  0  0  0  0  0
   -0.7791   -0.1912   -0.3557 C   0  0  0  0  0  0  0  0  0  0  0  0
   -0.6574    0.8218   -0.7445 H   0  0  0  0  0  0  0  0  0  0  0  0
    0.2119   -0.6416   -0.2669 H   0  0  0  0  0  0  0  0  0  0  0  0
   -1.6113   -0.9979   -1.3630 C   0  0  0  0  0  0  0  0  0  0  0  0
   -0.9619   -1.6750   -1.9197 H   0  0  0  0  0  0  0  0  0  0  0  0
   -2.3627   -1.5787   -0.8271 H   0  0  0  0  0  0  0  0  0  0  0  0
   -2.3070   -0.0469   -2.3464 C   0  0  0  0  0  0  0  0  0  0  0  0
   -2.9342    0.6442   -1.7786 H   0  0  0  0  0  0  0  0  0  0  0  0
   -1.5422    0.5255   -2.8766 H   0  0  0  0  0  0  0  0  0  0  0  0
   -3.1400   -0.7800   -3.3219 N   0  3  0  0  0  0  0  0  0  0  0  0
   -3.1221   -1.7840   -3.2667 H   0  0  0  0  0  0  0  0  0  0  0  0
   -3.9043   -0.2418   -4.2574 C   0  0  0  0  0  0  0  0  0  0  0  0
   -4.0005    1.0484   -4.4166 N   0  0  0  0  0  0  0  0  0  0  0  0
   -3.4772    1.6514   -3.8067 H   0  0  0  0  0  0  0  0  0  0  0  0
   -4.5849    1.4405   -5.1318 H   0  0  0  0  0  0  0  0  0  0  0  0
   -4.5946   -0.9992   -5.0619 N   0  0  0  0  0  0  0  0  0  0  0  0
   -4.5531   -2.0003   -4.9778 H   0  0  0  0  0  0  0  0  0  0  0  0
   -5.1733   -0.5868   -5.7702 H   0  0  0  0  0  0  0  0  0  0  0  0
   -1.6547    1.3413    1.4779 C   0  0  0  0  0  0  0  0  0  0  0  0
   -2.5654    1.9858    0.9716 O   0  0  0  0  0  0  0  0  0  0  0  0
   -0.8107    1.8504    2.3808 N   0  0  0  0  0  0  0  0  0  0  0  0
   -0.1136    1.2381    2.7719 H   0  0  0  0  0  0  0  0  0  0  0  0
   -0.8954    3.2155    2.9026 C   0  0  0  0  0  0  0  0  0  0  0  0
   -1.8299    3.3430    3.4532 H   0  0  0  0  0  0  0  0  0  0  0  0
   -0.0581    3.4194    3.5712 H   0  0  0  0  0  0  0  0  0  0  0  0
   -0.8804    3.9320    2.0784 H   0  0  0  0  0  0  0  0  0  0  0  0
  5  6  2  0  0  0  0
  5  7  1  0  0  0  0
  2  3  1  0  0  0  0
  2  4  1  0  0  0  0
  2  5  1  0  0  0  0
  1  2  1  0  0  0  0
 29 30  2  0  0  0  0
 29 31  1  0  0  0  0
 26 27  1  0  0  0  0
 26 28  1  0  0  0  0
 23 24  1  0  0  0  0
 23 25  1  0  0  0  0
 22 23  1  0  0  0  0
 22 26  1  0  0  0  0
 20 21  1  0  0  0  0
 20 22  2  0  0  0  0
 17 18  1  0  0  0  0
 17 19  1  0  0  0  0
 17 20  1  0  0  0  0
 14 15  1  0  0  0  0
 14 16  1  0  0  0  0
 14 17  1  0  0  0  0
 11 12  1  0  0  0  0
 11 13  1  0  0  0  0
 11 14  1  0  0  0  0
  9 10  1  0  0  0  0
  9 11  1  0  0  0  0
  9 29  1  0  0  0  0
  7  8  1  0  0  0  0
  7  9  1  0  0  0  0
 33 34  1  0  0  0  0
 33 35  1  0  0  0  0
 33 36  1  0  0  0  0
 31 32  1  0  0  0  0
 31 33  1  0  0  0  0
M  CHG  1  20   1
M  END
$$$$
default_name
  -OEChem-02102213163D

 36 35  0     1  0  0  0  0  0999 V2000
   -4.2256   -3.6731    1.8584 H   0  0  0  0  0  0  0  0  0  0  0  0
   -4.2396   -2.6781    1.4144 C   0  0  0  0  0  0  0  0  0  0  0  0
   -4.9506   -2.0521    1.9514 H   0  0  0  0  0  0  0  0  0  0  0  0
   -4.5266   -2.7521    0.3674 H   0  0  0  0  0  0  0  0  0  0  0  0
   -2.8576   -2.0761    1.5184 C   0  0  0  0  0  0  0  0  0  0  0  0
   -1.9456   -2.7051    2.0404 O   0  0  0  0  0  0  0  0  0  0  0  0
   -2.6926   -0.8481    1.0174 N   0  0  0  0  0  0  0  0  0  0  0  0
   -3.4926   -0.3971    0.5954 H   0  0  0  0  0  0  0  0  0  0  0  0
   -1.4216   -0.1071    1.0434 C   0  0  1  0  0  0  0  0  0  0  0  0
   -0.7579   -0.5878    1.7640 H   0  0  0  0  0  0  0  0  0  0  0  0
   -0.7791   -0.1912   -0.3557 C   0  0  0  0  0  0  0  0  0  0  0  0
   -0.6574    0.8218   -0.7445 H   0  0  0  0  0  0  0  0  0  0  0  0
    0.2119   -0.6416   -0.2669 H   0  0  0  0  0  0  0  0  0  0  0  0
   -1.6113   -0.9979   -1.3630 C   0  0  0  0  0  0  0  0  0  0  0  0
   -1.0301   -1.8469   -1.7257 H   0  0  0  0  0  0  0  0  0  0  0  0
   -2.5153   -1.3626   -0.8742 H   0  0  0  0  0  0  0  0  0  0  0  0
   -1.9978   -0.1085   -2.5526 C   0  0  0  0  0  0  0  0  0  0  0  0
   -2.5561    0.7523   -2.1774 H   0  0  0  0  0  0  0  0  0  0  0  0
   -1.0830    0.2468   -3.0328 H   0  0  0  0  0  0  0  0  0  0  0  0
   -2.8214   -0.8384   -3.5383 N   0  3  0  0  0  0  0  0  0  0  0  0
   -2.9911   -1.8121   -3.3525 H   0  0  0  0  0  0  0  0  0  0  0  0
   -3.3549   -0.3334   -4.6379 C   0  0  0  0  0  0  0  0  0  0  0  0
   -3.1975    0.9162   -4.9741 N   0  0  0  0  0  0  0  0  0  0  0  0
   -2.6541    1.5133   -4.3760 H   0  0  0  0  0  0  0  0  0  0  0  0
   -3.6089    1.2835   -5.8123 H   0  0  0  0  0  0  0  0  0  0  0  0
   -4.0649   -1.0838   -5.4317 N   0  0  0  0  0  0  0  0  0  0  0  0
   -4.2145   -2.0541   -5.2144 H   0  0  0  0  0  0  0  0  0  0  0  0
   -4.4679   -0.6966   -6.2649 H   0  0  0  0  0  0  0  0  0  0  0  0
   -1.6547    1.3413    1.4779 C   0  0  0  0  0  0  0  0  0  0  0  0
   -2.5654    1.9858    0.9716 O   0  0  0  0  0  0  0  0  0  0  0  0
   -0.8107    1.8504    2.3808 N   0  0  0  0  0  0  0  0  0  0  0  0
   -0.1136    1.2381    2.7719 H   0  0  0  0  0  0  0  0  0  0  0  0
   -0.8954    3.2155    2.9026 C   0  0  0  0  0  0  0  0  0  0  0  0
   -1.8299    3.3430    3.4532 H   0  0  0  0  0  0  0  0  0  0  0  0
   -0.0581    3.4194    3.5712 H   0  0  0  0  0  0  0  0  0  0  0  0
   -0.8804    3.9320    2.0784 H   0  0  0  0  0  0  0  0  0  0  0  0
  5  6  2  0  0  0  0
  5  7  1  0  0  0  0
  2  3  1  0  0  0  0
  2  4  1  0  0  0  0
  2  5  1  0  0  0  0
  1  2  1  0  0  0  0
 29 30  2  0  0  0  0
 29 31  1  0  0  0  0
 26 27  1  0  0  0  0
 26 28  1  0  0  0  0
 23 24  1  0  0  0  0
 23 25  1  0  0  0  0
 22 23  1  0  0  0  0
 22 26  1  0  0  0  0
 20 21  1  0  0  0  0
 20 22  2  0  0  0  0
 17 18  1  0  0  0  0
 17 19  1  0  0  0  0
 17 20  1  0  0  0  0
 14 15  1  0  0  0  0
 14 16  1  0  0  0  0
 14 17  1  0  0  0  0
 11 12  1  0  0  0  0
 11 13  1  0  0  0  0
 11 14  1  0  0  0  0
  9 10  1  0  0  0  0
  9 11  1  0  0  0  0
  9 29  1  0  0  0  0
  7  8  1  0  0  0  0
  7  9  1  0  0  0  0
 33 34  1  0  0  0  0
 33 35  1  0  0  0  0
 33 36  1  0  0  0  0
 31 32  1  0  0  0  0
 31 33  1  0  0  0  0
M  CHG  1  20   1
M  END
$$$$
default_name
  -OEChem-02102213163D

 36 35  0     1  0  0  0  0  0999 V2000
   -4.2256   -3.6731    1.8584 H   0  0  0  0  0  0  0  0  0  0  0  0
   -4.2396   -2.6781    1.4144 C   0  0  0  0  0  0  0  0  0  0  0  0
   -4.9506   -2.0521    1.9514 H   0  0  0  0  0  0  0  0  0  0  0  0
   -4.5266   -2.7521    0.3674 H   0  0  0  0  0  0  0  0  0  0  0  0
   -2.8576   -2.0761    1.5184 C   0  0  0  0  0  0  0  0  0  0  0  0
   -1.9456   -2.7051    2.0404 O   0  0  0  0  0  0  0  0  0  0  0  0
   -2.6926   -0.8481    1.0174 N   0  0  0  0  0  0  0  0  0  0  0  0
   -3.4926   -0.3971    0.5954 H   0  0  0  0  0  0  0  0  0  0  0  0
   -1.4216   -0.1071    1.0434 C   0  0  1  0  0  0  0  0  0  0  0  0
   -0.7579   -0.5878    1.7640 H   0  0  0  0  0  0  0  0  0  0  0  0
   -0.7791   -0.1912   -0.3557 C   0  0  0  0  0  0  0  0  0  0  0  0
   -0.6574    0.8218   -0.7445 H   0  0  0  0  0  0  0  0  0  0  0  0
    0.2119   -0.6416   -0.2669 H   0  0  0  0  0  0  0  0  0  0  0  0
   -1.6113   -0.9979   -1.3630 C   0  0  0  0  0  0  0  0  0  0  0  0
   -1.1516   -1.9741   -1.5235 H   0  0  0  0  0  0  0  0  0  0  0  0
   -2.6195   -1.1346   -0.9707 H   0  0  0  0  0  0  0  0  0  0  0  0
   -1.6815   -0.2493   -2.7010 C   0  0  0  0  0  0  0  0  0  0  0  0
   -2.1184    0.7366   -2.5264 H   0  0  0  0  0  0  0  0  0  0  0  0
   -0.6655   -0.1223   -3.0821 H   0  0  0  0  0  0  0  0  0  0  0  0
   -2.4943   -0.9793   -3.6957 N   0  3  0  0  0  0  0  0  0  0  0  0
   -2.8576   -1.8735   -3.4136 H   0  0  0  0  0  0  0  0  0  0  0  0
   -2.7881   -0.5684   -4.9180 C   0  0  0  0  0  0  0  0  0  0  0  0
   -2.3685    0.5741   -5.3849 N   0  0  0  0  0  0  0  0  0  0  0  0
   -1.8051    1.1603   -4.7947 H   0  0  0  0  0  0  0  0  0  0  0  0
   -2.6002    0.8707   -6.3150 H   0  0  0  0  0  0  0  0  0  0  0  0
   -3.5174   -1.3074   -5.7050 N   0  0  0  0  0  0  0  0  0  0  0  0
   -3.8644   -2.1967   -5.3894 H   0  0  0  0  0  0  0  0  0  0  0  0
   -3.7380   -0.9919   -6.6315 H   0  0  0  0  0  0  0  0  0  0  0  0
   -1.6547    1.3413    1.4779 C   0  0  0  0  0  0  0  0  0  0  0  0
   -2.5654    1.9858    0.9716 O   0  0  0  0  0  0  0  0  0  0  0  0
   -0.8107    1.8504    2.3808 N   0  0  0  0  0  0  0  0  0  0  0  0
   -0.1136    1.2381    2.7719 H   0  0  0  0  0  0  0  0  0  0  0  0
   -0.8954    3.2155    2.9026 C   0  0  0  0  0  0  0  0  0  0  0  0
   -1.8299    3.3430    3.4532 H   0  0  0  0  0  0  0  0  0  0  0  0
   -0.0581    3.4194    3.5712 H   0  0  0  0  0  0  0  0  0  0  0  0
   -0.8804    3.9320    2.0784 H   0  0  0  0  0  0  0  0  0  0  0  0
  5  6  2  0  0  0  0
  5  7  1  0  0  0  0
  2  3  1  0  0  0  0
  2  4  1  0  0  0  0
  2  5  1  0  0  0  0
  1  2  1  0  0  0  0
 29 30  2  0  0  0  0
 29 31  1  0  0  0  0
 26 27  1  0  0  0  0
 26 28  1  0  0  0  0
 23 24  1  0  0  0  0
 23 25  1  0  0  0  0
 22 23  1  0  0  0  0
 22 26  1  0  0  0  0
 20 21  1  0  0  0  0
 20 22  2  0  0  0  0
 17 18  1  0  0  0  0
 17 19  1  0  0  0  0
 17 20  1  0  0  0  0
 14 15  1  0  0  0  0
 14 16  1  0  0  0  0
 14 17  1  0  0  0  0
 11 12  1  0  0  0  0
 11 13  1  0  0  0  0
 11 14  1  0  0  0  0
  9 10  1  0  0  0  0
  9 11  1  0  0  0  0
  9 29  1  0  0  0  0
  7  8  1  0  0  0  0
  7  9  1  0  0  0  0
 33 34  1  0  0  0  0
 33 35  1  0  0  0  0
 33 36  1  0  0  0  0
 31 32  1  0  0  0  0
 31 33  1  0  0  0  0
M  CHG  1  20   1
M  END
$$$$
default_name
  -OEChem-02102213163D

 36 35  0     1  0  0  0  0  0999 V2000
   -4.2256   -3.6731    1.8584 H   0  0  0  0  0  0  0  0  0  0  0  0
   -4.2396   -2.6781    1.4144 C   0  0  0  0  0  0  0  0  0  0  0  0
   -4.9506   -2.0521    1.9514 H   0  0  0  0  0  0  0  0  0  0  0  0
   -4.5266   -2.7521    0.3674 H   0  0  0  0  0  0  0  0  0  0  0  0
   -2.8576   -2.0761    1.5184 C   0  0  0  0  0  0  0  0  0  0  0  0
   -1.9456   -2.7051    2.0404 O   0  0  0  0  0  0  0  0  0  0  0  0
   -2.6926   -0.8481    1.0174 N   0  0  0  0  0  0  0  0  0  0  0  0
   -3.4926   -0.3971    0.5954 H   0  0  0  0  0  0  0  0  0  0  0  0
   -1.4216   -0.1071    1.0434 C   0  0  1  0  0  0  0  0  0  0  0  0
   -0.7579   -0.5878    1.7640 H   0  0  0  0  0  0  0  0  0  0  0  0
   -0.7791   -0.1912   -0.3557 C   0  0  0  0  0  0  0  0  0  0  0  0
   -0.6574    0.8218   -0.7445 H   0  0  0  0  0  0  0  0  0  0  0  0
    0.2119   -0.6416   -0.2669 H   0  0  0  0  0  0  0  0  0  0  0  0
   -1.6113   -0.9979   -1.3630 C   0  0  0  0  0  0  0  0  0  0  0  0
   -1.3180   -2.0480   -1.3269 H   0  0  0  0  0  0  0  0  0  0  0  0
   -2.6684   -0.9102   -1.1100 H   0  0  0  0  0  0  0  0  0  0  0  0
   -1.3798   -0.4599   -2.7817 C   0  0  0  0  0  0  0  0  0  0  0  0
   -1.6507    0.5982   -2.8019 H   0  0  0  0  0  0  0  0  0  0  0  0
   -0.3182   -0.5566   -3.0212 H   0  0  0  0  0  0  0  0  0  0  0  0
   -2.1808   -1.1929   -3.7836 N   0  3  0  0  0  0  0  0  0  0  0  0
   -2.7308   -1.9641   -3.4458 H   0  0  0  0  0  0  0  0  0  0  0  0
   -2.2424   -0.9310   -5.0784 C   0  0  0  0  0  0  0  0  0  0  0  0
   -1.5700    0.0452   -5.6209 N   0  0  0  0  0  0  0  0  0  0  0  0
   -0.9880    0.6165   -5.0341 H   0  0  0  0  0  0  0  0  0  0  0  0
   -1.6277    0.2302   -6.6055 H   0  0  0  0  0  0  0  0  0  0  0  0
   -2.9893   -1.6546   -5.8632 N   0  0  0  0  0  0  0  0  0  0  0  0
   -3.5267   -2.4184   -5.4909 H   0  0  0  0  0  0  0  0  0  0  0  0
   -3.0332   -1.4524   -6.8449 H   0  0  0  0  0  0  0  0  0  0  0  0
   -1.6547    1.3413    1.4779 C   0  0  0  0  0  0  0  0  0  0  0  0
   -2.5654    1.9858    0.9716 O   0  0  0  0  0  0  0  0  0  0  0  0
   -0.8107    1.8504    2.3808 N   0  0  0  0  0  0  0  0  0  0  0  0
   -0.1136    1.2381    2.7719 H   0  0  0  0  0  0  0  0  0  0  0  0
   -0.8954    3.2155    2.9026 C   0  0  0  0  0  0  0  0  0  0  0  0
   -1.8299    3.3430    3.4532 H   0  0  0  0  0  0  0  0  0  0  0  0
   -0.0581    3.4194    3.5712 H   0  0  0  0  0  0  0  0  0  0  0  0
   -0.8804    3.9320    2.0784 H   0  0  0  0  0  0  0  0  0  0  0  0
  5  6  2  0  0  0  0
  5  7  1  0  0  0  0
  2  3  1  0  0  0  0
  2  4  1  0  0  0  0
  2  5  1  0  0  0  0
  1  2  1  0  0  0  0
 29 30  2  0  0  0  0
 29 31  1  0  0  0  0
 26 27  1  0  0  0  0
 26 28  1  0  0  0  0
 23 24  1  0  0  0  0
 23 25  1  0  0  0  0
 22 23  1  0  0  0  0
 22 26  1  0  0  0  0
 20 21  1  0  0  0  0
 20 22  2  0  0  0  0
 17 18  1  0  0  0  0
 17 19  1  0  0  0  0
 17 20  1  0  0  0  0
 14 15  1  0  0  0  0
 14 16  1  0  0  0  0
 14 17  1  0  0  0  0
 11 12  1  0  0  0  0
 11 13  1  0  0  0  0
 11 14  1  0  0  0  0
  9 10  1  0  0  0  0
  9 11  1  0  0  0  0
  9 29  1  0  0  0  0
  7  8  1  0  0  0  0
  7  9  1  0  0  0  0
 33 34  1  0  0  0  0
 33 35  1  0  0  0  0
 33 36  1  0  0  0  0
 31 32  1  0  0  0  0
 31 33  1  0  0  0  0
M  CHG  1  20   1
M  END
$$$$
default_name
  -OEChem-02102213163D

 36 35  0     1  0  0  0  0  0999 V2000
   -4.2256   -3.6731    1.8584 H   0  0  0  0  0  0  0  0  0  0  0  0
   -4.2396   -2.6781    1.4144 C   0  0  0  0  0  0  0  0  0  0  0  0
   -4.9506   -2.0521    1.9514 H   0  0  0  0  0  0  0  0  0  0  0  0
   -4.5266   -2.7521    0.3674 H   0  0  0  0  0  0  0  0  0  0  0  0
   -2.8576   -2.0761    1.5184 C   0  0  0  0  0  0  0  0  0  0  0  0
   -1.9456   -2.7051    2.0404 O   0  0  0  0  0  0  0  0  0  0  0  0
   -2.6926   -0.8481    1.0174 N   0  0  0  0  0  0  0  0  0  0  0  0
   -3.4926   -0.3971    0.5954 H   0  0  0  0  0  0  0  0  0  0  0  0
   -1.4216   -0.1071    1.0434 C   0  0  1  0  0  0  0  0  0  0  0  0
   -0.7579   -0.5878    1.7640 H   0  0  0  0  0  0  0  0  0  0  0  0
   -0.7791   -0.1912   -0.3557 C   0  0  0  0  0  0  0  0  0  0  0  0
   -0.6574    0.8218   -0.7445 H   0  0  0  0  0  0  0  0  0  0  0  0
    0.2119   -0.6416   -0.2669 H   0  0  0  0  0  0  0  0  0  0  0  0
   -1.6113   -0.9979   -1.3630 C   0  0  0  0  0  0  0  0  0  0  0  0
   -1.5180   -2.0635   -1.1492 H   0  0  0  0  0  0  0  0  0  0  0  0
   -2.6585   -0.7047   -1.2827 H   0  0  0  0  0  0  0  0  0  0  0  0
   -1.1131   -0.7259   -2.7890 C   0  0  0  0  0  0  0  0  0  0  0  0
   -1.1851    0.3464   -2.9849 H   0  0  0  0  0  0  0  0  0  0  0  0
   -0.0647   -1.0266   -2.8542 H   0  0  0  0  0  0  0  0  0  0  0  0
   -1.9023   -1.4649   -3.7959 N   0  3  0  0  0  0  0  0  0  0  0  0
   -2.6193   -2.0776   -3.4470 H   0  0  0  0  0  0  0  0  0  0  0  0
   -1.7550   -1.3963   -5.1084 C   0  0  0  0  0  0  0  0  0  0  0  0
   -0.8564   -0.6344   -5.6662 N   0  0  0  0  0  0  0  0  0  0  0  0
   -0.2586   -0.0811   -5.0780 H   0  0  0  0  0  0  0  0  0  0  0  0
   -0.7576   -0.5943   -6.6640 H   0  0  0  0  0  0  0  0  0  0  0  0
   -2.5166   -2.1018   -5.8955 N   0  0  0  0  0  0  0  0  0  0  0  0
   -3.2243   -2.7042   -5.5118 H   0  0  0  0  0  0  0  0  0  0  0  0
   -2.4016   -2.0468   -6.8907 H   0  0  0  0  0  0  0  0  0  0  0  0
   -1.6547    1.3413    1.4779 C   0  0  0  0  0  0  0  0  0  0  0  0
   -2.5654    1.9858    0.9716 O   0  0  0  0  0  0  0  0  0  0  0  0
   -0.8107    1.8504    2.3808 N   0  0  0  0  0  0  0  0  0  0  0  0
   -0.1136    1.2381    2.7719 H   0  0  0  0  0  0  0  0  0  0  0  0
   -0.8954    3.2155    2.9026 C   0  0  0  0  0  0  0  0  0  0  0  0
   -1.8299    3.3430    3.4532 H   0  0  0  0  0  0  0  0  0  0  0  0
   -0.0581    3.4194    3.5712 H   0  0  0  0  0  0  0  0  0  0  0  0
   -0.8804    3.9320    2.0784 H   0  0  0  0  0  0  0  0  0  0  0  0
  5  6  2  0  0  0  0
  5  7  1  0  0  0  0
  2  3  1  0  0  0  0
  2  4  1  0  0  0  0
  2  5  1  0  0  0  0
  1  2  1  0  0  0  0
 29 30  2  0  0  0  0
 29 31  1  0  0  0  0
 26 27  1  0  0  0  0
 26 28  1  0  0  0  0
 23 24  1  0  0  0  0
 23 25  1  0  0  0  0
 22 23  1  0  0  0  0
 22 26  1  0  0  0  0
 20 21  1  0  0  0  0
 20 22  2  0  0  0  0
 17 18  1  0  0  0  0
 17 19  1  0  0  0  0
 17 20  1  0  0  0  0
 14 15  1  0  0  0  0
 14 16  1  0  0  0  0
 14 17  1  0  0  0  0
 11 12  1  0  0  0  0
 11 13  1  0  0  0  0
 11 14  1  0  0  0  0
  9 10  1  0  0  0  0
  9 11  1  0  0  0  0
  9 29  1  0  0  0  0
  7  8  1  0  0  0  0
  7  9  1  0  0  0  0
 33 34  1  0  0  0  0
 33 35  1  0  0  0  0
 33 36  1  0  0  0  0
 31 32  1  0  0  0  0
 31 33  1  0  0  0  0
M  CHG  1  20   1
M  END
$$$$
default_name
  -OEChem-02102213163D

 36 35  0     1  0  0  0  0  0999 V2000
   -4.2256   -3.6731    1.8584 H   0  0  0  0  0  0  0  0  0  0  0  0
   -4.2396   -2.6781    1.4144 C   0  0  0  0  0  0  0  0  0  0  0  0
   -4.9506   -2.0521    1.9514 H   0  0  0  0  0  0  0  0  0  0  0  0
   -4.5266   -2.7521    0.3674 H   0  0  0  0  0  0  0  0  0  0  0  0
   -2.8576   -2.0761    1.5184 C   0  0  0  0  0  0  0  0  0  0  0  0
   -1.9456   -2.7051    2.0404 O   0  0  0  0  0  0  0  0  0  0  0  0
   -2.6926   -0.8481    1.0174 N   0  0  0  0  0  0  0  0  0  0  0  0
   -3.4926   -0.3971    0.5954 H   0  0  0  0  0  0  0  0  0  0  0  0
   -1.4216   -0.1071    1.0434 C   0  0  1  0  0  0  0  0  0  0  0  0
   -0.7579   -0.5878    1.7640 H   0  0  0  0  0  0  0  0  0  0  0  0
   -0.7791   -0.1912   -0.3557 C   0  0  0  0  0  0  0  0  0  0  0  0
   -0.4132    0.8000   -0.6311 H   0  0  0  0  0  0  0  0  0  0  0  0
    0.0761   -0.8693   -0.3155 H   0  0  0  0  0  0  0  0  0  0  0  0
   -1.7495   -0.6675   -1.4464 C   0  0  0  0  0  0  0  0  0  0  0  0
   -2.1216   -1.6630   -1.2001 H   0  0  0  0  0  0  0  0  0  0  0  0
   -2.5892    0.0254   -1.5098 H   0  0  0  0  0  0  0  0  0  0  0  0
   -1.0285   -0.7210   -2.8002 C   0  0  0  0  0  0  0  0  0  0  0  0
   -0.6365    0.2733   -3.0260 H   0  0  0  0  0  0  0  0  0  0  0  0
   -0.1926   -1.4200   -2.7214 H   0  0  0  0  0  0  0  0  0  0  0  0
   -1.9325   -1.1526   -3.8861 N   0  3  0  0  0  0  0  0  0  0  0  0
   -2.8705   -1.4002   -3.6215 H   0  0  0  0  0  0  0  0  0  0  0  0
   -1.6251   -1.2433   -5.1692 C   0  0  0  0  0  0  0  0  0  0  0  0
   -0.4385   -0.9471   -5.6204 N   0  0  0  0  0  0  0  0  0  0  0  0
    0.2630   -0.6387   -4.9706 H   0  0  0  0  0  0  0  0  0  0  0  0
   -0.2216   -1.0218   -6.5972 H   0  0  0  0  0  0  0  0  0  0  0  0
   -2.5148   -1.6395   -6.0345 N   0  0  0  0  0  0  0  0  0  0  0  0
   -3.4441   -1.8789   -5.7343 H   0  0  0  0  0  0  0  0  0  0  0  0
   -2.2774   -1.7069   -7.0069 H   0  0  0  0  0  0  0  0  0  0  0  0
   -1.6547    1.3413    1.4779 C   0  0  0  0  0  0  0  0  0  0  0  0
   -2.5654    1.9858    0.9716 O   0  0  0  0  0  0  0  0  0  0  0  0
   -0.8107    1.8504    2.3808 N   0  0  0  0  0  0  0  0  0  0  0  0
   -0.1136    1.2381    2.7719 H   0  0  0  0  0  0  0  0  0  0  0  0
   -0.8954    3.2155    2.9026 C   0  0  0  0  0  0  0  0  0  0  0  0
   -1.8299    3.3430    3.4532 H   0  0  0  0  0  0  0  0  0  0  0  0
   -0.0581    3.4194    3.5712 H   0  0  0  0  0  0  0  0  0  0  0  0
   -0.8804    3.9320    2.0784 H   0  0  0  0  0  0  0  0  0  0  0  0
  5  6  2  0  0  0  0
  5  7  1  0  0  0  0
  2  3  1  0  0  0  0
  2  4  1  0  0  0  0
  2  5  1  0  0  0  0
  1  2  1  0  0  0  0
 29 30  2  0  0  0  0
 29 31  1  0  0  0  0
 26 27  1  0  0  0  0
 26 28  1  0  0  0  0
 23 24  1  0  0  0  0
 23 25  1  0  0  0  0
 22 23  1  0  0  0  0
 22 26  1  0  0  0  0
 20 21  1  0  0  0  0
 20 22  2  0  0  0  0
 17 18  1  0  0  0  0
 17 19  1  0  0  0  0
 17 20  1  0  0  0  0
 14 15  1  0  0  0  0
 14 16  1  0  0  0  0
 14 17  1  0  0  0  0
 11 12  1  0  0  0  0
 11 13  1  0  0  0  0
 11 14  1  0  0  0  0
  9 10  1  0  0  0  0
  9 11  1  0  0  0  0
  9 29  1  0  0  0  0
  7  8  1  0  0  0  0
  7  9  1  0  0  0  0
 33 34  1  0  0  0  0
 33 35  1  0  0  0  0
 33 36  1  0  0  0  0
 31 32  1  0  0  0  0
 31 33  1  0  0  0  0
M  CHG  1  20   1
M  END
$$$$
default_name
  -OEChem-02102213163D

 36 35  0     1  0  0  0  0  0999 V2000
   -4.2256   -3.6731    1.8584 H   0  0  0  0  0  0  0  0  0  0  0  0
   -4.2396   -2.6781    1.4144 C   0  0  0  0  0  0  0  0  0  0  0  0
   -4.9506   -2.0521    1.9514 H   0  0  0  0  0  0  0  0  0  0  0  0
   -4.5266   -2.7521    0.3674 H   0  0  0  0  0  0  0  0  0  0  0  0
   -2.8576   -2.0761    1.5184 C   0  0  0  0  0  0  0  0  0  0  0  0
   -1.9456   -2.7051    2.0404 O   0  0  0  0  0  0  0  0  0  0  0  0
   -2.6926   -0.8481    1.0174 N   0  0  0  0  0  0  0  0  0  0  0  0
   -3.4926   -0.3971    0.5954 H   0  0  0  0  0  0  0  0  0  0  0  0
   -1.4216   -0.1071    1.0434 C   0  0  1  0  0  0  0  0  0  0  0  0
   -0.7579   -0.5878    1.7640 H   0  0  0  0  0  0  0  0  0  0  0  0
   -0.7791   -0.1912   -0.3557 C   0  0  0  0  0  0  0  0  0  0  0  0
   -0.4132    0.8000   -0.6311 H   0  0  0  0  0  0  0  0  0  0  0  0
    0.0761   -0.8693   -0.3155 H   0  0  0  0  0  0  0  0  0  0  0  0
   -1.7495   -0.6675   -1.4464 C   0  0  0  0  0  0  0  0  0  0  0  0
   -2.3196   -1.5243   -1.0845 H   0  0  0  0  0  0  0  0  0  0  0  0
   -2.4359    0.1420   -1.6971 H   0  0  0  0  0  0  0  0  0  0  0  0
   -0.9655   -1.0787   -2.7000 C   0  0  0  0  0  0  0  0  0  0  0  0
   -0.3774   -0.2230   -3.0397 H   0  0  0  0  0  0  0  0  0  0  0  0
   -0.2850   -1.8908   -2.4336 H   0  0  0  0  0  0  0  0  0  0  0  0
   -1.8626   -1.5226   -3.7867 N   0  3  0  0  0  0  0  0  0  0  0  0
   -2.8458   -1.5511   -3.5775 H   0  0  0  0  0  0  0  0  0  0  0  0
   -1.4954   -1.8845   -5.0046 C   0  0  0  0  0  0  0  0  0  0  0  0
   -0.2473   -1.8847   -5.3809 N   0  0  0  0  0  0  0  0  0  0  0  0
    0.4563   -1.5990   -4.7232 H   0  0  0  0  0  0  0  0  0  0  0  0
    0.0144   -2.1627   -6.3089 H   0  0  0  0  0  0  0  0  0  0  0  0
   -2.3862   -2.2589   -5.8785 N   0  0  0  0  0  0  0  0  0  0  0  0
   -3.3615   -2.2749   -5.6348 H   0  0  0  0  0  0  0  0  0  0  0  0
   -2.1033   -2.5326   -6.8013 H   0  0  0  0  0  0  0  0  0  0  0  0
   -1.6547    1.3413    1.4779 C   0  0  0  0  0  0  0  0  0  0  0  0
   -2.5654    1.9858    0.9716 O   0  0  0  0  0  0  0  0  0  0  0  0
   -0.8107    1.8504    2.3808 N   0  0  0  0  0  0  0  0  0  0  0  0
   -0.1136    1.2381    2.7719 H   0  0  0  0  0  0  0  0  0  0  0  0
   -0.8954    3.2155    2.9026 C   0  0  0  0  0  0  0  0  0  0  0  0
   -1.8299    3.3430    3.4532 H   0  0  0  0  0  0  0  0  0  0  0  0
   -0.0581    3.4194    3.5712 H   0  0  0  0  0  0  0  0  0  0  0  0
   -0.8804    3.9320    2.0784 H   0  0  0  0  0  0  0  0  0  0  0  0
  5  6  2  0  0  0  0
  5  7  1  0  0  0  0
  2  3  1  0  0  0  0
  2  4  1  0  0  0  0
  2  5  1  0  0  0  0
  1  2  1  0  0  0  0
 29 30  2  0  0  0  0
 29 31  1  0  0  0  0
 26 27  1  0  0  0  0
 26 28  1  0  0  0  0
 23 24  1  0  0  0  0
 23 25  1  0  0  0  0
 22 23  1  0  0  0  0
 22 26  1  0  0  0  0
 20 21  1  0  0  0  0
 20 22  2  0  0  0  0
 17 18  1  0  0  0  0
 17 19  1  0  0  0  0
 17 20  1  0  0  0  0
 14 15  1  0  0  0  0
 14 16  1  0  0  0  0
 14 17  1  0  0  0  0
 11 12  1  0  0  0  0
 11 13  1  0  0  0  0
 11 14  1  0  0  0  0
  9 10  1  0  0  0  0
  9 11  1  0  0  0  0
  9 29  1  0  0  0  0
  7  8  1  0  0  0  0
  7  9  1  0  0  0  0
 33 34  1  0  0  0  0
 33 35  1  0  0  0  0
 33 36  1  0  0  0  0
 31 32  1  0  0  0  0
 31 33  1  0  0  0  0
M  CHG  1  20   1
M  END
$$$$
default_name
  -OEChem-02102213163D

 36 35  0     1  0  0  0  0  0999 V2000
   -4.2256   -3.6731    1.8584 H   0  0  0  0  0  0  0  0  0  0  0  0
   -4.2396   -2.6781    1.4144 C   0  0  0  0  0  0  0  0  0  0  0  0
   -4.9506   -2.0521    1.9514 H   0  0  0  0  0  0  0  0  0  0  0  0
   -4.5266   -2.7521    0.3674 H   0  0  0  0  0  0  0  0  0  0  0  0
   -2.8576   -2.0761    1.5184 C   0  0  0  0  0  0  0  0  0  0  0  0
   -1.9456   -2.7051    2.0404 O   0  0  0  0  0  0  0  0  0  0  0  0
   -2.6926   -0.8481    1.0174 N   0  0  0  0  0  0  0  0  0  0  0  0
   -3.4926   -0.3971    0.5954 H   0  0  0  0  0  0  0  0  0  0  0  0
   -1.4216   -0.1071    1.0434 C   0  0  1  0  0  0  0  0  0  0  0  0
   -0.7579   -0.5878    1.7640 H   0  0  0  0  0  0  0  0  0  0  0  0
   -0.7791   -0.1912   -0.3557 C   0  0  0  0  0  0  0  0  0  0  0  0
   -0.4132    0.8000   -0.6311 H   0  0  0  0  0  0  0  0  0  0  0  0
    0.0761   -0.8693   -0.3155 H   0  0  0  0  0  0  0  0  0  0  0  0
   -1.7495   -0.6675   -1.4464 C   0  0  0  0  0  0  0  0  0  0  0  0
   -2.4947   -1.3350   -1.0113 H   0  0  0  0  0  0  0  0  0  0  0  0
   -2.2513    0.1957   -1.8848 H   0  0  0  0  0  0  0  0  0  0  0  0
   -0.9784   -1.4193   -2.5398 C   0  0  0  0  0  0  0  0  0  0  0  0
   -0.2173   -0.7523   -2.9510 H   0  0  0  0  0  0  0  0  0  0  0  0
   -0.4838   -2.2815   -2.0861 H   0  0  0  0  0  0  0  0  0  0  0  0
   -1.8711   -1.8766   -3.6246 N   0  3  0  0  0  0  0  0  0  0  0  0
   -2.8532   -1.6942   -3.5084 H   0  0  0  0  0  0  0  0  0  0  0  0
   -1.5012   -2.5007   -4.7303 C   0  0  0  0  0  0  0  0  0  0  0  0
   -0.2543   -2.7864   -4.9810 N   0  0  0  0  0  0  0  0  0  0  0  0
    0.4467   -2.5216   -4.3117 H   0  0  0  0  0  0  0  0  0  0  0  0
    0.0094   -3.2609   -5.8249 H   0  0  0  0  0  0  0  0  0  0  0  0
   -2.3883   -2.8553   -5.6161 N   0  0  0  0  0  0  0  0  0  0  0  0
   -3.3626   -2.6563   -5.4673 H   0  0  0  0  0  0  0  0  0  0  0  0
   -2.1034   -3.3285   -6.4536 H   0  0  0  0  0  0  0  0  0  0  0  0
   -1.6547    1.3413    1.4779 C   0  0  0  0  0  0  0  0  0  0  0  0
   -2.5654    1.9858    0.9716 O   0  0  0  0  0  0  0  0  0  0  0  0
   -0.8107    1.8504    2.3808 N   0  0  0  0  0  0  0  0  0  0  0  0
   -0.1136    1.2381    2.7719 H   0  0  0  0  0  0  0  0  0  0  0  0
   -0.8954    3.2155    2.9026 C   0  0  0  0  0  0  0  0  0  0  0  0
   -1.8299    3.3430    3.4532 H   0  0  0  0  0  0  0  0  0  0  0  0
   -0.0581    3.4194    3.5712 H   0  0  0  0  0  0  0  0  0  0  0  0
   -0.8804    3.9320    2.0784 H   0  0  0  0  0  0  0  0  0  0  0  0
  5  6  2  0  0  0  0
  5  7  1  0  0  0  0
  2  3  1  0  0  0  0
  2  4  1  0  0  0  0
  2  5  1  0  0  0  0
  1  2  1  0  0  0  0
 29 30  2  0  0  0  0
 29 31  1  0  0  0  0
 26 27  1  0  0  0  0
 26 28  1  0  0  0  0
 23 24  1  0  0  0  0
 23 25  1  0  0  0  0
 22 23  1  0  0  0  0
 22 26  1  0  0  0  0
 20 21  1  0  0  0  0
 20 22  2  0  0  0  0
 17 18  1  0  0  0  0
 17 19  1  0  0  0  0
 17 20  1  0  0  0  0
 14 15  1  0  0  0  0
 14 16  1  0  0  0  0
 14 17  1  0  0  0  0
 11 12  1  0  0  0  0
 11 13  1  0  0  0  0
 11 14  1  0  0  0  0
  9 10  1  0  0  0  0
  9 11  1  0  0  0  0
  9 29  1  0  0  0  0
  7  8  1  0  0  0  0
  7  9  1  0  0  0  0
 33 34  1  0  0  0  0
 33 35  1  0  0  0  0
 33 36  1  0  0  0  0
 31 32  1  0  0  0  0
 31 33  1  0  0  0  0
M  CHG  1  20   1
M  END
$$$$
default_name
  -OEChem-02102213163D

 36 35  0     1  0  0  0  0  0999 V2000
   -4.2256   -3.6731    1.8584 H   0  0  0  0  0  0  0  0  0  0  0  0
   -4.2396   -2.6781    1.4144 C   0  0  0  0  0  0  0  0  0  0  0  0
   -4.9506   -2.0521    1.9514 H   0  0  0  0  0  0  0  0  0  0  0  0
   -4.5266   -2.7521    0.3674 H   0  0  0  0  0  0  0  0  0  0  0  0
   -2.8576   -2.0761    1.5184 C   0  0  0  0  0  0  0  0  0  0  0  0
   -1.9456   -2.7051    2.0404 O   0  0  0  0  0  0  0  0  0  0  0  0
   -2.6926   -0.8481    1.0174 N   0  0  0  0  0  0  0  0  0  0  0  0
   -3.4926   -0.3971    0.5954 H   0  0  0  0  0  0  0  0  0  0  0  0
   -1.4216   -0.1071    1.0434 C   0  0  1  0  0  0  0  0  0  0  0  0
   -0.7579   -0.5878    1.7640 H   0  0  0  0  0  0  0  0  0  0  0  0
   -0.7791   -0.1912   -0.3557 C   0  0  0  0  0  0  0  0  0  0  0  0
   -0.4132    0.8000   -0.6311 H   0  0  0  0  0  0  0  0  0  0  0  0
    0.0761   -0.8693   -0.3155 H   0  0  0  0  0  0  0  0  0  0  0  0
   -1.7495   -0.6675   -1.4464 C   0  0  0  0  0  0  0  0  0  0  0  0
   -2.6349   -1.1080   -0.9857 H   0  0  0  0  0  0  0  0  0  0  0  0
   -2.0481    0.1830   -2.0601 H   0  0  0  0  0  0  0  0  0  0  0  0
   -1.0664   -1.7198   -2.3303 C   0  0  0  0  0  0  0  0  0  0  0  0
   -0.1670   -1.2786   -2.7659 H   0  0  0  0  0  0  0  0  0  0  0  0
   -0.7756   -2.5654   -1.7025 H   0  0  0  0  0  0  0  0  0  0  0  0
   -1.9574   -2.1904   -3.4107 N   0  3  0  0  0  0  0  0  0  0  0  0
   -2.8923   -1.8198   -3.4189 H   0  0  0  0  0  0  0  0  0  0  0  0
   -1.6421   -3.0500   -4.3651 C   0  0  0  0  0  0  0  0  0  0  0  0
   -0.4589   -3.5907   -4.4477 N   0  0  0  0  0  0  0  0  0  0  0  0
    0.2347   -3.3437   -3.7641 H   0  0  0  0  0  0  0  0  0  0  0  0
   -0.2361   -4.2416   -5.1782 H   0  0  0  0  0  0  0  0  0  0  0  0
   -2.5211   -3.3880   -5.2654 N   0  0  0  0  0  0  0  0  0  0  0  0
   -3.4472   -2.9972   -5.2432 H   0  0  0  0  0  0  0  0  0  0  0  0
   -2.2777   -4.0404   -5.9877 H   0  0  0  0  0  0  0  0  0  0  0  0
   -1.6547    1.3413    1.4779 C   0  0  0  0  0  0  0  0  0  0  0  0
   -2.5654    1.9858    0.9716 O   0  0  0  0  0  0  0  0  0  0  0  0
   -0.8107    1.8504    2.3808 N   0  0  0  0  0  0  0  0  0  0  0  0
   -0.1136    1.2381    2.7719 H   0  0  0  0  0  0  0  0  0  0  0  0
   -0.8954    3.2155    2.9026 C   0  0  0  0  0  0  0  0  0  0  0  0
   -1.8299    3.3430    3.4532 H   0  0  0  0  0  0  0  0  0  0  0  0
   -0.0581    3.4194    3.5712 H   0  0  0  0  0  0  0  0  0  0  0  0
   -0.8804    3.9320    2.0784 H   0  0  0  0  0  0  0  0  0  0  0  0
  5  6  2  0  0  0  0
  5  7  1  0  0  0  0
  2  3  1  0  0  0  0
  2  4  1  0  0  0  0
  2  5  1  0  0  0  0
  1  2  1  0  0  0  0
 29 30  2  0  0  0  0
 29 31  1  0  0  0  0
 26 27  1  0  0  0  0
 26 28  1  0  0  0  0
 23 24  1  0  0  0  0
 23 25  1  0  0  0  0
 22 23  1  0  0  0  0
 22 26  1  0  0  0  0
 20 21  1  0  0  0  0
 20 22  2  0  0  0  0
 17 18  1  0  0  0  0
 17 19  1  0  0  0  0
 17 20  1  0  0  0  0
 14 15  1  0  0  0  0
 14 16  1  0  0  0  0
 14 17  1  0  0  0  0
 11 12  1  0  0  0  0
 11 13  1  0  0  0  0
 11 14  1  0  0  0  0
  9 10  1  0  0  0  0
  9 11  1  0  0  0  0
  9 29  1  0  0  0  0
  7  8  1  0  0  0  0
  7  9  1  0  0  0  0
 33 34  1  0  0  0  0
 33 35  1  0  0  0  0
 33 36  1  0  0  0  0
 31 32  1  0  0  0  0
 31 33  1  0  0  0  0
M  CHG  1  20   1
M  END
$$$$
default_name
  -OEChem-02102213163D

 36 35  0     1  0  0  0  0  0999 V2000
   -4.2256   -3.6731    1.8584 H   0  0  0  0  0  0  0  0  0  0  0  0
   -4.2396   -2.6781    1.4144 C   0  0  0  0  0  0  0  0  0  0  0  0
   -4.9506   -2.0521    1.9514 H   0  0  0  0  0  0  0  0  0  0  0  0
   -4.5266   -2.7521    0.3674 H   0  0  0  0  0  0  0  0  0  0  0  0
   -2.8576   -2.0761    1.5184 C   0  0  0  0  0  0  0  0  0  0  0  0
   -1.9456   -2.7051    2.0404 O   0  0  0  0  0  0  0  0  0  0  0  0
   -2.6926   -0.8481    1.0174 N   0  0  0  0  0  0  0  0  0  0  0  0
   -3.4926   -0.3971    0.5954 H   0  0  0  0  0  0  0  0  0  0  0  0
   -1.4216   -0.1071    1.0434 C   0  0  1  0  0  0  0  0  0  0  0  0
   -0.7579   -0.5878    1.7640 H   0  0  0  0  0  0  0  0  0  0  0  0
   -0.7791   -0.1912   -0.3557 C   0  0  0  0  0  0  0  0  0  0  0  0
   -0.4132    0.8000   -0.6311 H   0  0  0  0  0  0  0  0  0  0  0  0
    0.0761   -0.8693   -0.3155 H   0  0  0  0  0  0  0  0  0  0  0  0
   -1.7495   -0.6675   -1.4464 C   0  0  0  0  0  0  0  0  0  0  0  0
   -2.7306   -0.8588   -1.0094 H   0  0  0  0  0  0  0  0  0  0  0  0
   -1.8401    0.1048   -2.2109 H   0  0  0  0  0  0  0  0  0  0  0  0
   -1.2234   -1.9596   -2.0858 C   0  0  0  0  0  0  0  0  0  0  0  0
   -0.2301   -1.7658   -2.4971 H   0  0  0  0  0  0  0  0  0  0  0  0
   -1.1405   -2.7233   -1.3089 H   0  0  0  0  0  0  0  0  0  0  0  0
   -2.1157   -2.4427   -3.1598 N   0  3  0  0  0  0  0  0  0  0  0  0
   -2.9602   -1.9193   -3.3149 H   0  0  0  0  0  0  0  0  0  0  0  0
   -1.9086   -3.4949   -3.9337 C   0  0  0  0  0  0  0  0  0  0  0  0
   -0.8472   -4.2427   -3.8175 N   0  0  0  0  0  0  0  0  0  0  0  0
   -0.1651   -4.0093   -3.1177 H   0  0  0  0  0  0  0  0  0  0  0  0
   -0.7055   -5.0380   -4.4128 H   0  0  0  0  0  0  0  0  0  0  0  0
   -2.7754   -3.8208   -4.8501 N   0  0  0  0  0  0  0  0  0  0  0  0
   -3.6095   -3.2742   -4.9778 H   0  0  0  0  0  0  0  0  0  0  0  0
   -2.6143   -4.6198   -5.4351 H   0  0  0  0  0  0  0  0  0  0  0  0
   -1.6547    1.3413    1.4779 C   0  0  0  0  0  0  0  0  0  0  0  0
   -2.5654    1.9858    0.9716 O   0  0  0  0  0  0  0  0  0  0  0  0
   -0.8107    1.8504    2.3808 N   0  0  0  0  0  0  0  0  0  0  0  0
   -0.1136    1.2381    2.7719 H   0  0  0  0  0  0  0  0  0  0  0  0
   -0.8954    3.2155    2.9026 C   0  0  0  0  0  0  0  0  0  0  0  0
   -1.8299    3.3430    3.4532 H   0  0  0  0  0  0  0  0  0  0  0  0
   -0.0581    3.4194    3.5712 H   0  0  0  0  0  0  0  0  0  0  0  0
   -0.8804    3.9320    2.0784 H   0  0  0  0  0  0  0  0  0  0  0  0
  5  6  2  0  0  0  0
  5  7  1  0  0  0  0
  2  3  1  0  0  0  0
  2  4  1  0  0  0  0
  2  5  1  0  0  0  0
  1  2  1  0  0  0  0
 29 30  2  0  0  0  0
 29 31  1  0  0  0  0
 26 27  1  0  0  0  0
 26 28  1  0  0  0  0
 23 24  1  0  0  0  0
 23 25  1  0  0  0  0
 22 23  1  0  0  0  0
 22 26  1  0  0  0  0
 20 21  1  0  0  0  0
 20 22  2  0  0  0  0
 17 18  1  0  0  0  0
 17 19  1  0  0  0  0
 17 20  1  0  0  0  0
 14 15  1  0  0  0  0
 14 16  1  0  0  0  0
 14 17  1  0  0  0  0
 11 12  1  0  0  0  0
 11 13  1  0  0  0  0
 11 14  1  0  0  0  0
  9 10  1  0  0  0  0
  9 11  1  0  0  0  0
  9 29  1  0  0  0  0
  7  8  1  0  0  0  0
  7  9  1  0  0  0  0
 33 34  1  0  0  0  0
 33 35  1  0  0  0  0
 33 36  1  0  0  0  0
 31 32  1  0  0  0  0
 31 33  1  0  0  0  0
M  CHG  1  20   1
M  END
$$$$
default_name
  -OEChem-02102213163D

 36 35  0     1  0  0  0  0  0999 V2000
   -4.2256   -3.6731    1.8584 H   0  0  0  0  0  0  0  0  0  0  0  0
   -4.2396   -2.6781    1.4144 C   0  0  0  0  0  0  0  0  0  0  0  0
   -4.9506   -2.0521    1.9514 H   0  0  0  0  0  0  0  0  0  0  0  0
   -4.5266   -2.7521    0.3674 H   0  0  0  0  0  0  0  0  0  0  0  0
   -2.8576   -2.0761    1.5184 C   0  0  0  0  0  0  0  0  0  0  0  0
   -1.9456   -2.7051    2.0404 O   0  0  0  0  0  0  0  0  0  0  0  0
   -2.6926   -0.8481    1.0174 N   0  0  0  0  0  0  0  0  0  0  0  0
   -3.4926   -0.3971    0.5954 H   0  0  0  0  0  0  0  0  0  0  0  0
   -1.4216   -0.1071    1.0434 C   0  0  1  0  0  0  0  0  0  0  0  0
   -0.7579   -0.5878    1.7640 H   0  0  0  0  0  0  0  0  0  0  0  0
   -0.7791   -0.1912   -0.3557 C   0  0  0  0  0  0  0  0  0  0  0  0
   -0.4132    0.8000   -0.6311 H   0  0  0  0  0  0  0  0  0  0  0  0
    0.0761   -0.8693   -0.3155 H   0  0  0  0  0  0  0  0  0  0  0  0
   -1.7495   -0.6675   -1.4464 C   0  0  0  0  0  0  0  0  0  0  0  0
   -2.7754   -0.6044   -1.0807 H   0  0  0  0  0  0  0  0  0  0  0  0
   -1.6414   -0.0338   -2.3272 H   0  0  0  0  0  0  0  0  0  0  0  0
   -1.4388   -2.1224   -1.8231 C   0  0  0  0  0  0  0  0  0  0  0  0
   -0.4022   -2.1809   -2.1627 H   0  0  0  0  0  0  0  0  0  0  0  0
   -1.5536   -2.7444   -0.9322 H   0  0  0  0  0  0  0  0  0  0  0  0
   -2.3350   -2.6163   -2.8888 N   0  3  0  0  0  0  0  0  0  0  0  0
   -3.0525   -1.9859   -3.2037 H   0  0  0  0  0  0  0  0  0  0  0  0
   -2.2823   -3.8052   -3.4657 C   0  0  0  0  0  0  0  0  0  0  0  0
   -1.3926   -4.6981   -3.1334 N   0  0  0  0  0  0  0  0  0  0  0  0
   -0.7256   -4.4729   -2.4166 H   0  0  0  0  0  0  0  0  0  0  0  0
   -1.3667   -5.5958   -3.5809 H   0  0  0  0  0  0  0  0  0  0  0  0
   -3.1339   -4.1243   -4.3986 N   0  0  0  0  0  0  0  0  0  0  0  0
   -3.8386   -3.4685   -4.6891 H   0  0  0  0  0  0  0  0  0  0  0  0
   -3.0904   -5.0272   -4.8337 H   0  0  0  0  0  0  0  0  0  0  0  0
   -1.6547    1.3413    1.4779 C   0  0  0  0  0  0  0  0  0  0  0  0
   -2.5654    1.9858    0.9716 O   0  0  0  0  0  0  0  0  0  0  0  0
   -0.8107    1.8504    2.3808 N   0  0  0  0  0  0  0  0  0  0  0  0
   -0.1136    1.2381    2.7719 H   0  0  0  0  0  0  0  0  0  0  0  0
   -0.8954    3.2155    2.9026 C   0  0  0  0  0  0  0  0  0  0  0  0
   -1.8299    3.3430    3.4532 H   0  0  0  0  0  0  0  0  0  0  0  0
   -0.0581    3.4194    3.5712 H   0  0  0  0  0  0  0  0  0  0  0  0
   -0.8804    3.9320    2.0784 H   0  0  0  0  0  0  0  0  0  0  0  0
  5  6  2  0  0  0  0
  5  7  1  0  0  0  0
  2  3  1  0  0  0  0
  2  4  1  0  0  0  0
  2  5  1  0  0  0  0
  1  2  1  0  0  0  0
 29 30  2  0  0  0  0
 29 31  1  0  0  0  0
 26 27  1  0  0  0  0
 26 28  1  0  0  0  0
 23 24  1  0  0  0  0
 23 25  1  0  0  0  0
 22 23  1  0  0  0  0
 22 26  1  0  0  0  0
 20 21  1  0  0  0  0
 20 22  2  0  0  0  0
 17 18  1  0  0  0  0
 17 19  1  0  0  0  0
 17 20  1  0  0  0  0
 14 15  1  0  0  0  0
 14 16  1  0  0  0  0
 14 17  1  0  0  0  0
 11 12  1  0  0  0  0
 11 13  1  0  0  0  0
 11 14  1  0  0  0  0
  9 10  1  0  0  0  0
  9 11  1  0  0  0  0
  9 29  1  0  0  0  0
  7  8  1  0  0  0  0
  7  9  1  0  0  0  0
 33 34  1  0  0  0  0
 33 35  1  0  0  0  0
 33 36  1  0  0  0  0
 31 32  1  0  0  0  0
 31 33  1  0  0  0  0
M  CHG  1  20   1
M  END
$$$$
default_name
  -OEChem-02102213163D

 36 35  0     1  0  0  0  0  0999 V2000
   -4.2256   -3.6731    1.8584 H   0  0  0  0  0  0  0  0  0  0  0  0
   -4.2396   -2.6781    1.4144 C   0  0  0  0  0  0  0  0  0  0  0  0
   -4.9506   -2.0521    1.9514 H   0  0  0  0  0  0  0  0  0  0  0  0
   -4.5266   -2.7521    0.3674 H   0  0  0  0  0  0  0  0  0  0  0  0
   -2.8576   -2.0761    1.5184 C   0  0  0  0  0  0  0  0  0  0  0  0
   -1.9456   -2.7051    2.0404 O   0  0  0  0  0  0  0  0  0  0  0  0
   -2.6926   -0.8481    1.0174 N   0  0  0  0  0  0  0  0  0  0  0  0
   -3.4926   -0.3971    0.5954 H   0  0  0  0  0  0  0  0  0  0  0  0
   -1.4216   -0.1071    1.0434 C   0  0  1  0  0  0  0  0  0  0  0  0
   -0.7579   -0.5878    1.7640 H   0  0  0  0  0  0  0  0  0  0  0  0
   -0.7791   -0.1912   -0.3557 C   0  0  0  0  0  0  0  0  0  0  0  0
   -0.4132    0.8000   -0.6311 H   0  0  0  0  0  0  0  0  0  0  0  0
    0.0761   -0.8693   -0.3155 H   0  0  0  0  0  0  0  0  0  0  0  0
   -1.7495   -0.6675   -1.4464 C   0  0  0  0  0  0  0  0  0  0  0  0
   -2.7661   -0.3620   -1.1947 H   0  0  0  0  0  0  0  0  0  0  0  0
   -1.4657   -0.2231   -2.4009 H   0  0  0  0  0  0  0  0  0  0  0  0
   -1.6979   -2.1971   -1.5600 C   0  0  0  0  0  0  0  0  0  0  0  0
   -0.6715   -2.4955   -1.7857 H   0  0  0  0  0  0  0  0  0  0  0  0
   -1.9866   -2.6272   -0.5981 H   0  0  0  0  0  0  0  0  0  0  0  0
   -2.6006   -2.6993   -2.6163 N   0  3  0  0  0  0  0  0  0  0  0  0
   -3.1628   -2.0151   -3.0928 H   0  0  0  0  0  0  0  0  0  0  0  0
   -2.7379   -3.9596   -2.9929 C   0  0  0  0  0  0  0  0  0  0  0  0
   -2.0582   -4.9258   -2.4418 N   0  0  0  0  0  0  0  0  0  0  0  0
   -1.4085   -4.7031   -1.7085 H   0  0  0  0  0  0  0  0  0  0  0  0
   -2.1747   -5.8770   -2.7392 H   0  0  0  0  0  0  0  0  0  0  0  0
   -3.5723   -4.2776   -3.9416 N   0  0  0  0  0  0  0  0  0  0  0  0
   -4.1187   -3.5669   -4.3969 H   0  0  0  0  0  0  0  0  0  0  0  0
   -3.6734   -5.2349   -4.2243 H   0  0  0  0  0  0  0  0  0  0  0  0
   -1.6547    1.3413    1.4779 C   0  0  0  0  0  0  0  0  0  0  0  0
   -2.5654    1.9858    0.9716 O   0  0  0  0  0  0  0  0  0  0  0  0
   -0.8107    1.8504    2.3808 N   0  0  0  0  0  0  0  0  0  0  0  0
   -0.1136    1.2381    2.7719 H   0  0  0  0  0  0  0  0  0  0  0  0
   -0.8954    3.2155    2.9026 C   0  0  0  0  0  0  0  0  0  0  0  0
   -1.8299    3.3430    3.4532 H   0  0  0  0  0  0  0  0  0  0  0  0
   -0.0581    3.4194    3.5712 H   0  0  0  0  0  0  0  0  0  0  0  0
   -0.8804    3.9320    2.0784 H   0  0  0  0  0  0  0  0  0  0  0  0
  5  6  2  0  0  0  0
  5  7  1  0  0  0  0
  2  3  1  0  0  0  0
  2  4  1  0  0  0  0
  2  5  1  0  0  0  0
  1  2  1  0  0  0  0
 29 30  2  0  0  0  0
 29 31  1  0  0  0  0
 26 27  1  0  0  0  0
 26 28  1  0  0  0  0
 23 24  1  0  0  0  0
 23 25  1  0  0  0  0
 22 23  1  0  0  0  0
 22 26  1  0  0  0  0
 20 21  1  0  0  0  0
 20 22  2  0  0  0  0
 17 18  1  0  0  0  0
 17 19  1  0  0  0  0
 17 20  1  0  0  0  0
 14 15  1  0  0  0  0
 14 16  1  0  0  0  0
 14 17  1  0  0  0  0
 11 12  1  0  0  0  0
 11 13  1  0  0  0  0
 11 14  1  0  0  0  0
  9 10  1  0  0  0  0
  9 11  1  0  0  0  0
  9 29  1  0  0  0  0
  7  8  1  0  0  0  0
  7  9  1  0  0  0  0
 33 34  1  0  0  0  0
 33 35  1  0  0  0  0
 33 36  1  0  0  0  0
 31 32  1  0  0  0  0
 31 33  1  0  0  0  0
M  CHG  1  20   1
M  END
$$$$
default_name
  -OEChem-02102213163D

 36 35  0     1  0  0  0  0  0999 V2000
   -4.2256   -3.6731    1.8584 H   0  0  0  0  0  0  0  0  0  0  0  0
   -4.2396   -2.6781    1.4144 C   0  0  0  0  0  0  0  0  0  0  0  0
   -4.9506   -2.0521    1.9514 H   0  0  0  0  0  0  0  0  0  0  0  0
   -4.5266   -2.7521    0.3674 H   0  0  0  0  0  0  0  0  0  0  0  0
   -2.8576   -2.0761    1.5184 C   0  0  0  0  0  0  0  0  0  0  0  0
   -1.9456   -2.7051    2.0404 O   0  0  0  0  0  0  0  0  0  0  0  0
   -2.6926   -0.8481    1.0174 N   0  0  0  0  0  0  0  0  0  0  0  0
   -3.4926   -0.3971    0.5954 H   0  0  0  0  0  0  0  0  0  0  0  0
   -1.4216   -0.1071    1.0434 C   0  0  1  0  0  0  0  0  0  0  0  0
   -0.7579   -0.5878    1.7640 H   0  0  0  0  0  0  0  0  0  0  0  0
   -0.7791   -0.1912   -0.3557 C   0  0  0  0  0  0  0  0  0  0  0  0
   -0.4132    0.8000   -0.6311 H   0  0  0  0  0  0  0  0  0  0  0  0
    0.0761   -0.8693   -0.3155 H   0  0  0  0  0  0  0  0  0  0  0  0
   -1.7495   -0.6675   -1.4464 C   0  0  0  0  0  0  0  0  0  0  0  0
   -2.7035   -0.1483   -1.3438 H   0  0  0  0  0  0  0  0  0  0  0  0
   -1.3248   -0.4504   -2.4270 H   0  0  0  0  0  0  0  0  0  0  0  0
   -1.9830   -2.1786   -1.3145 C   0  0  0  0  0  0  0  0  0  0  0  0
   -1.0198   -2.6882   -1.3916 H   0  0  0  0  0  0  0  0  0  0  0  0
   -2.4103   -2.3797   -0.3292 H   0  0  0  0  0  0  0  0  0  0  0  0
   -2.8942   -2.6861   -2.3608 N   0  3  0  0  0  0  0  0  0  0  0  0
   -3.2837   -2.0049   -2.9898 H   0  0  0  0  0  0  0  0  0  0  0  0
   -3.2444   -3.9477   -2.5475 C   0  0  0  0  0  0  0  0  0  0  0  0
   -2.7984   -4.9102   -1.7900 N   0  0  0  0  0  0  0  0  0  0  0  0
   -2.1672   -4.6841   -1.0417 H   0  0  0  0  0  0  0  0  0  0  0  0
   -3.0745   -5.8624   -1.9450 H   0  0  0  0  0  0  0  0  0  0  0  0
   -4.0606   -4.2703   -3.5103 N   0  0  0  0  0  0  0  0  0  0  0  0
   -4.4308   -3.5626   -4.1211 H   0  0  0  0  0  0  0  0  0  0  0  0
   -4.3236   -5.2286   -3.6485 H   0  0  0  0  0  0  0  0  0  0  0  0
   -1.6547    1.3413    1.4779 C   0  0  0  0  0  0  0  0  0  0  0  0
   -2.5654    1.9858    0.9716 O   0  0  0  0  0  0  0  0  0  0  0  0
   -0.8107    1.8504    2.3808 N   0  0  0  0  0  0  0  0  0  0  0  0
   -0.1136    1.2381    2.7719 H   0  0  0  0  0  0  0  0  0  0  0  0
   -0.8954    3.2155    2.9026 C   0  0  0  0  0  0  0  0  0  0  0  0
   -1.8299    3.3430    3.4532 H   0  0  0  0  0  0  0  0  0  0  0  0
   -0.0581    3.4194    3.5712 H   0  0  0  0  0  0  0  0  0  0  0  0
   -0.8804    3.9320    2.0784 H   0  0  0  0  0  0  0  0  0  0  0  0
  5  6  2  0  0  0  0
  5  7  1  0  0  0  0
  2  3  1  0  0  0  0
  2  4  1  0  0  0  0
  2  5  1  0  0  0  0
  1  2  1  0  0  0  0
 29 30  2  0  0  0  0
 29 31  1  0  0  0  0
 26 27  1  0  0  0  0
 26 28  1  0  0  0  0
 23 24  1  0  0  0  0
 23 25  1  0  0  0  0
 22 23  1  0  0  0  0
 22 26  1  0  0  0  0
 20 21  1  0  0  0  0
 20 22  2  0  0  0  0
 17 18  1  0  0  0  0
 17 19  1  0  0  0  0
 17 20  1  0  0  0  0
 14 15  1  0  0  0  0
 14 16  1  0  0  0  0
 14 17  1  0  0  0  0
 11 12  1  0  0  0  0
 11 13  1  0  0  0  0
 11 14  1  0  0  0  0
  9 10  1  0  0  0  0
  9 11  1  0  0  0  0
  9 29  1  0  0  0  0
  7  8  1  0  0  0  0
  7  9  1  0  0  0  0
 33 34  1  0  0  0  0
 33 35  1  0  0  0  0
 33 36  1  0  0  0  0
 31 32  1  0  0  0  0
 31 33  1  0  0  0  0
M  CHG  1  20   1
M  END
$$$$
default_name
  -OEChem-02102213163D

 36 35  0     1  0  0  0  0  0999 V2000
   -4.2256   -3.6731    1.8584 H   0  0  0  0  0  0  0  0  0  0  0  0
   -4.2396   -2.6781    1.4144 C   0  0  0  0  0  0  0  0  0  0  0  0
   -4.9506   -2.0521    1.9514 H   0  0  0  0  0  0  0  0  0  0  0  0
   -4.5266   -2.7521    0.3674 H   0  0  0  0  0  0  0  0  0  0  0  0
   -2.8576   -2.0761    1.5184 C   0  0  0  0  0  0  0  0  0  0  0  0
   -1.9456   -2.7051    2.0404 O   0  0  0  0  0  0  0  0  0  0  0  0
   -2.6926   -0.8481    1.0174 N   0  0  0  0  0  0  0  0  0  0  0  0
   -3.4926   -0.3971    0.5954 H   0  0  0  0  0  0  0  0  0  0  0  0
   -1.4216   -0.1071    1.0434 C   0  0  1  0  0  0  0  0  0  0  0  0
   -0.7579   -0.5878    1.7640 H   0  0  0  0  0  0  0  0  0  0  0  0
   -0.7791   -0.1912   -0.3557 C   0  0  0  0  0  0  0  0  0  0  0  0
   -0.4132    0.8000   -0.6311 H   0  0  0  0  0  0  0  0  0  0  0  0
    0.0761   -0.8693   -0.3155 H   0  0  0  0  0  0  0  0  0  0  0  0
   -1.7495   -0.6675   -1.4464 C   0  0  0  0  0  0  0  0  0  0  0  0
   -2.5917    0.0222   -1.5177 H   0  0  0  0  0  0  0  0  0  0  0  0
   -1.2284   -0.7000   -2.4037 H   0  0  0  0  0  0  0  0  0  0  0  0
   -2.2746   -2.0682   -1.1032 C   0  0  0  0  0  0  0  0  0  0  0  0
   -1.4232   -2.7459   -1.0075 H   0  0  0  0  0  0  0  0  0  0  0  0
   -2.7955   -2.0188   -0.1440 H   0  0  0  0  0  0  0  0  0  0  0  0
   -3.1959   -2.5776   -2.1397 N   0  3  0  0  0  0  0  0  0  0  0  0
   -3.4068   -1.9560   -2.9017 H   0  0  0  0  0  0  0  0  0  0  0  0
   -3.7671   -3.7702   -2.1599 C   0  0  0  0  0  0  0  0  0  0  0  0
   -3.5629   -4.6525   -1.2223 N   0  0  0  0  0  0  0  0  0  0  0  0
   -2.9502   -4.4172   -0.4617 H   0  0  0  0  0  0  0  0  0  0  0  0
   -4.0046   -5.5530   -1.2526 H   0  0  0  0  0  0  0  0  0  0  0  0
   -4.5655   -4.1030   -3.1341 N   0  0  0  0  0  0  0  0  0  0  0  0
   -4.7537   -3.4560   -3.8804 H   0  0  0  0  0  0  0  0  0  0  0  0
   -4.9968   -5.0088   -3.1456 H   0  0  0  0  0  0  0  0  0  0  0  0
   -1.6547    1.3413    1.4779 C   0  0  0  0  0  0  0  0  0  0  0  0
   -2.5654    1.9858    0.9716 O   0  0  0  0  0  0  0  0  0  0  0  0
   -0.8107    1.8504    2.3808 N   0  0  0  0  0  0  0  0  0  0  0  0
   -0.1136    1.2381    2.7719 H   0  0  0  0  0  0  0  0  0  0  0  0
   -0.8954    3.2155    2.9026 C   0  0  0  0  0  0  0  0  0  0  0  0
   -1.8299    3.3430    3.4532 H   0  0  0  0  0  0  0  0  0  0  0  0
   -0.0581    3.4194    3.5712 H   0  0  0  0  0  0  0  0  0  0  0  0
   -0.8804    3.9320    2.0784 H   0  0  0  0  0  0  0  0  0  0  0  0
  5  6  2  0  0  0  0
  5  7  1  0  0  0  0
  2  3  1  0  0  0  0
  2  4  1  0  0  0  0
  2  5  1  0  0  0  0
  1  2  1  0  0  0  0
 29 30  2  0  0  0  0
 29 31  1  0  0  0  0
 26 27  1  0  0  0  0
 26 28  1  0  0  0  0
 23 24  1  0  0  0  0
 23 25  1  0  0  0  0
 22 23  1  0  0  0  0
 22 26  1  0  0  0  0
 20 21  1  0  0  0  0
 20 22  2  0  0  0  0
 17 18  1  0  0  0  0
 17 19  1  0  0  0  0
 17 20  1  0  0  0  0
 14 15  1  0  0  0  0
 14 16  1  0  0  0  0
 14 17  1  0  0  0  0
 11 12  1  0  0  0  0
 11 13  1  0  0  0  0
 11 14  1  0  0  0  0
  9 10  1  0  0  0  0
  9 11  1  0  0  0  0
  9 29  1  0  0  0  0
  7  8  1  0  0  0  0
  7  9  1  0  0  0  0
 33 34  1  0  0  0  0
 33 35  1  0  0  0  0
 33 36  1  0  0  0  0
 31 32  1  0  0  0  0
 31 33  1  0  0  0  0
M  CHG  1  20   1
M  END
$$$$
default_name
  -OEChem-02102213163D

 36 35  0     1  0  0  0  0  0999 V2000
   -4.2256   -3.6731    1.8584 H   0  0  0  0  0  0  0  0  0  0  0  0
   -4.2396   -2.6781    1.4144 C   0  0  0  0  0  0  0  0  0  0  0  0
   -4.9506   -2.0521    1.9514 H   0  0  0  0  0  0  0  0  0  0  0  0
   -4.5266   -2.7521    0.3674 H   0  0  0  0  0  0  0  0  0  0  0  0
   -2.8576   -2.0761    1.5184 C   0  0  0  0  0  0  0  0  0  0  0  0
   -1.9456   -2.7051    2.0404 O   0  0  0  0  0  0  0  0  0  0  0  0
   -2.6926   -0.8481    1.0174 N   0  0  0  0  0  0  0  0  0  0  0  0
   -3.4926   -0.3971    0.5954 H   0  0  0  0  0  0  0  0  0  0  0  0
   -1.4216   -0.1071    1.0434 C   0  0  1  0  0  0  0  0  0  0  0  0
   -0.7579   -0.5878    1.7640 H   0  0  0  0  0  0  0  0  0  0  0  0
   -0.7791   -0.1912   -0.3557 C   0  0  0  0  0  0  0  0  0  0  0  0
   -0.4132    0.8000   -0.6311 H   0  0  0  0  0  0  0  0  0  0  0  0
    0.0761   -0.8693   -0.3155 H   0  0  0  0  0  0  0  0  0  0  0  0
   -1.7495   -0.6675   -1.4464 C   0  0  0  0  0  0  0  0  0  0  0  0
   -2.4385    0.1380   -1.7046 H   0  0  0  0  0  0  0  0  0  0  0  0
   -1.1831   -0.9551   -2.3326 H   0  0  0  0  0  0  0  0  0  0  0  0
   -2.5530   -1.8733   -0.9406 C   0  0  0  0  0  0  0  0  0  0  0  0
   -1.8544   -2.6647   -0.6594 H   0  0  0  0  0  0  0  0  0  0  0  0
   -3.1162   -1.5691   -0.0551 H   0  0  0  0  0  0  0  0  0  0  0  0
   -3.4851   -2.3812   -1.9682 N   0  3  0  0  0  0  0  0  0  0  0  0
   -3.5237   -1.8717   -2.8344 H   0  0  0  0  0  0  0  0  0  0  0  0
   -4.2706   -3.4393   -1.8565 C   0  0  0  0  0  0  0  0  0  0  0  0
   -4.2995   -4.1703   -0.7775 N   0  0  0  0  0  0  0  0  0  0  0  0
   -3.7039   -3.9206   -0.0079 H   0  0  0  0  0  0  0  0  0  0  0  0
   -4.9018   -4.9699   -0.7090 H   0  0  0  0  0  0  0  0  0  0  0  0
   -5.0527   -3.7871   -2.8386 N   0  0  0  0  0  0  0  0  0  0  0  0
   -5.0653   -3.2543   -3.6912 H   0  0  0  0  0  0  0  0  0  0  0  0
   -5.6469   -4.5906   -2.7497 H   0  0  0  0  0  0  0  0  0  0  0  0
   -1.6547    1.3413    1.4779 C   0  0  0  0  0  0  0  0  0  0  0  0
   -2.5654    1.9858    0.9716 O   0  0  0  0  0  0  0  0  0  0  0  0
   -0.8107    1.8504    2.3808 N   0  0  0  0  0  0  0  0  0  0  0  0
   -0.1136    1.2381    2.7719 H   0  0  0  0  0  0  0  0  0  0  0  0
   -0.8954    3.2155    2.9026 C   0  0  0  0  0  0  0  0  0  0  0  0
   -1.8299    3.3430    3.4532 H   0  0  0  0  0  0  0  0  0  0  0  0
   -0.0581    3.4194    3.5712 H   0  0  0  0  0  0  0  0  0  0  0  0
   -0.8804    3.9320    2.0784 H   0  0  0  0  0  0  0  0  0  0  0  0
  5  6  2  0  0  0  0
  5  7  1  0  0  0  0
  2  3  1  0  0  0  0
  2  4  1  0  0  0  0
  2  5  1  0  0  0  0
  1  2  1  0  0  0  0
 29 30  2  0  0  0  0
 29 31  1  0  0  0  0
 26 27  1  0  0  0  0
 26 28  1  0  0  0  0
 23 24  1  0  0  0  0
 23 25  1  0  0  0  0
 22 23  1  0  0  0  0
 22 26  1  0  0  0  0
 20 21  1  0  0  0  0
 20 22  2  0  0  0  0
 17 18  1  0  0  0  0
 17 19  1  0  0  0  0
 17 20  1  0  0  0  0
 14 15  1  0  0  0  0
 14 16  1  0  0  0  0
 14 17  1  0  0  0  0
 11 12  1  0  0  0  0
 11 13  1  0  0  0  0
 11 14  1  0  0  0  0
  9 10  1  0  0  0  0
  9 11  1  0  0  0  0
  9 29  1  0  0  0  0
  7  8  1  0  0  0  0
  7  9  1  0  0  0  0
 33 34  1  0  0  0  0
 33 35  1  0  0  0  0
 33 36  1  0  0  0  0
 31 32  1  0  0  0  0
 31 33  1  0  0  0  0
M  CHG  1  20   1
M  END
$$$$
default_name
  -OEChem-02102213163D

 36 35  0     1  0  0  0  0  0999 V2000
   -4.2256   -3.6731    1.8584 H   0  0  0  0  0  0  0  0  0  0  0  0
   -4.2396   -2.6781    1.4144 C   0  0  0  0  0  0  0  0  0  0  0  0
   -4.9506   -2.0521    1.9514 H   0  0  0  0  0  0  0  0  0  0  0  0
   -4.5266   -2.7521    0.3674 H   0  0  0  0  0  0  0  0  0  0  0  0
   -2.8576   -2.0761    1.5184 C   0  0  0  0  0  0  0  0  0  0  0  0
   -1.9456   -2.7051    2.0404 O   0  0  0  0  0  0  0  0  0  0  0  0
   -2.6926   -0.8481    1.0174 N   0  0  0  0  0  0  0  0  0  0  0  0
   -3.4926   -0.3971    0.5954 H   0  0  0  0  0  0  0  0  0  0  0  0
   -1.4216   -0.1071    1.0434 C   0  0  1  0  0  0  0  0  0  0  0  0
   -0.7579   -0.5878    1.7640 H   0  0  0  0  0  0  0  0  0  0  0  0
   -0.7791   -0.1912   -0.3557 C   0  0  0  0  0  0  0  0  0  0  0  0
   -0.4132    0.8000   -0.6311 H   0  0  0  0  0  0  0  0  0  0  0  0
    0.0761   -0.8693   -0.3155 H   0  0  0  0  0  0  0  0  0  0  0  0
   -1.7495   -0.6675   -1.4464 C   0  0  0  0  0  0  0  0  0  0  0  0
   -2.2541    0.1911   -1.8918 H   0  0  0  0  0  0  0  0  0  0  0  0
   -1.1919   -1.1982   -2.2187 H   0  0  0  0  0  0  0  0  0  0  0  0
   -2.7992   -1.6073   -0.8377 C   0  0  0  0  0  0  0  0  0  0  0  0
   -2.2839   -2.4499   -0.3710 H   0  0  0  0  0  0  0  0  0  0  0  0
   -3.3504   -1.0613   -0.0685 H   0  0  0  0  0  0  0  0  0  0  0  0
   -3.7422   -2.1102   -1.8578 N   0  3  0  0  0  0  0  0  0  0  0  0
   -3.6266   -1.7577   -2.7926 H   0  0  0  0  0  0  0  0  0  0  0  0
   -4.7204   -2.9775   -1.6580 C   0  0  0  0  0  0  0  0  0  0  0  0
   -4.9581   -3.4963   -0.4859 N   0  0  0  0  0  0  0  0  0  0  0  0
   -4.3772   -3.2281    0.2887 H   0  0  0  0  0  0  0  0  0  0  0  0
   -5.7048   -4.1529   -0.3513 H   0  0  0  0  0  0  0  0  0  0  0  0
   -5.4890   -3.3440   -2.6440 N   0  0  0  0  0  0  0  0  0  0  0  0
   -5.3443   -2.9713   -3.5665 H   0  0  0  0  0  0  0  0  0  0  0  0
   -6.2299   -4.0023   -2.4880 H   0  0  0  0  0  0  0  0  0  0  0  0
   -1.6547    1.3413    1.4779 C   0  0  0  0  0  0  0  0  0  0  0  0
   -2.5654    1.9858    0.9716 O   0  0  0  0  0  0  0  0  0  0  0  0
   -0.8107    1.8504    2.3808 N   0  0  0  0  0  0  0  0  0  0  0  0
   -0.1136    1.2381    2.7719 H   0  0  0  0  0  0  0  0  0  0  0  0
   -0.8954    3.2155    2.9026 C   0  0  0  0  0  0  0  0  0  0  0  0
   -1.8299    3.3430    3.4532 H   0  0  0  0  0  0  0  0  0  0  0  0
   -0.0581    3.4194    3.5712 H   0  0  0  0  0  0  0  0  0  0  0  0
   -0.8804    3.9320    2.0784 H   0  0  0  0  0  0  0  0  0  0  0  0
  5  6  2  0  0  0  0
  5  7  1  0  0  0  0
  2  3  1  0  0  0  0
  2  4  1  0  0  0  0
  2  5  1  0  0  0  0
  1  2  1  0  0  0  0
 29 30  2  0  0  0  0
 29 31  1  0  0  0  0
 26 27  1  0  0  0  0
 26 28  1  0  0  0  0
 23 24  1  0  0  0  0
 23 25  1  0  0  0  0
 22 23  1  0  0  0  0
 22 26  1  0  0  0  0
 20 21  1  0  0  0  0
 20 22  2  0  0  0  0
 17 18  1  0  0  0  0
 17 19  1  0  0  0  0
 17 20  1  0  0  0  0
 14 15  1  0  0  0  0
 14 16  1  0  0  0  0
 14 17  1  0  0  0  0
 11 12  1  0  0  0  0
 11 13  1  0  0  0  0
 11 14  1  0  0  0  0
  9 10  1  0  0  0  0
  9 11  1  0  0  0  0
  9 29  1  0  0  0  0
  7  8  1  0  0  0  0
  7  9  1  0  0  0  0
 33 34  1  0  0  0  0
 33 35  1  0  0  0  0
 33 36  1  0  0  0  0
 31 32  1  0  0  0  0
 31 33  1  0  0  0  0
M  CHG  1  20   1
M  END
$$$$
default_name
  -OEChem-02102213163D

 36 35  0     1  0  0  0  0  0999 V2000
   -4.2256   -3.6731    1.8584 H   0  0  0  0  0  0  0  0  0  0  0  0
   -4.2396   -2.6781    1.4144 C   0  0  0  0  0  0  0  0  0  0  0  0
   -4.9506   -2.0521    1.9514 H   0  0  0  0  0  0  0  0  0  0  0  0
   -4.5266   -2.7521    0.3674 H   0  0  0  0  0  0  0  0  0  0  0  0
   -2.8576   -2.0761    1.5184 C   0  0  0  0  0  0  0  0  0  0  0  0
   -1.9456   -2.7051    2.0404 O   0  0  0  0  0  0  0  0  0  0  0  0
   -2.6926   -0.8481    1.0174 N   0  0  0  0  0  0  0  0  0  0  0  0
   -3.4926   -0.3971    0.5954 H   0  0  0  0  0  0  0  0  0  0  0  0
   -1.4216   -0.1071    1.0434 C   0  0  1  0  0  0  0  0  0  0  0  0
   -0.7579   -0.5878    1.7640 H   0  0  0  0  0  0  0  0  0  0  0  0
   -0.7791   -0.1912   -0.3557 C   0  0  0  0  0  0  0  0  0  0  0  0
   -0.4132    0.8000   -0.6311 H   0  0  0  0  0  0  0  0  0  0  0  0
    0.0761   -0.8693   -0.3155 H   0  0  0  0  0  0  0  0  0  0  0  0
   -1.7495   -0.6675   -1.4464 C   0  0  0  0  0  0  0  0  0  0  0  0
   -2.0513    0.1778   -2.0664 H   0  0  0  0  0  0  0  0  0  0  0  0
   -1.2542   -1.4128   -2.0695 H   0  0  0  0  0  0  0  0  0  0  0  0
   -2.9963   -1.2883   -0.8017 C   0  0  0  0  0  0  0  0  0  0  0  0
   -2.6824   -2.1164   -0.1621 H   0  0  0  0  0  0  0  0  0  0  0  0
   -3.4822   -0.5299   -0.1833 H   0  0  0  0  0  0  0  0  0  0  0  0
   -3.9495   -1.7831   -1.8162 N   0  3  0  0  0  0  0  0  0  0  0  0
   -3.7084   -1.6219   -2.7791 H   0  0  0  0  0  0  0  0  0  0  0  0
   -5.0859   -2.4163   -1.5778 C   0  0  0  0  0  0  0  0  0  0  0  0
   -5.4937   -2.6765   -0.3674 N   0  0  0  0  0  0  0  0  0  0  0  0
   -4.9239   -2.3870    0.4078 H   0  0  0  0  0  0  0  0  0  0  0  0
   -6.3590   -3.1575   -0.2039 H   0  0  0  0  0  0  0  0  0  0  0  0
   -5.8445   -2.8040   -2.5635 N   0  0  0  0  0  0  0  0  0  0  0  0
   -5.5719   -2.6262   -3.5148 H   0  0  0  0  0  0  0  0  0  0  0  0
   -6.7058   -3.2841   -2.3782 H   0  0  0  0  0  0  0  0  0  0  0  0
   -1.6547    1.3413    1.4779 C   0  0  0  0  0  0  0  0  0  0  0  0
   -2.5654    1.9858    0.9716 O   0  0  0  0  0  0  0  0  0  0  0  0
   -0.8107    1.8504    2.3808 N   0  0  0  0  0  0  0  0  0  0  0  0
   -0.1136    1.2381    2.7719 H   0  0  0  0  0  0  0  0  0  0  0  0
   -0.8954    3.2155    2.9026 C   0  0  0  0  0  0  0  0  0  0  0  0
   -1.8299    3.3430    3.4532 H   0  0  0  0  0  0  0  0  0  0  0  0
   -0.0581    3.4194    3.5712 H   0  0  0  0  0  0  0  0  0  0  0  0
   -0.8804    3.9320    2.0784 H   0  0  0  0  0  0  0  0  0  0  0  0
  5  6  2  0  0  0  0
  5  7  1  0  0  0  0
  2  3  1  0  0  0  0
  2  4  1  0  0  0  0
  2  5  1  0  0  0  0
  1  2  1  0  0  0  0
 29 30  2  0  0  0  0
 29 31  1  0  0  0  0
 26 27  1  0  0  0  0
 26 28  1  0  0  0  0
 23 24  1  0  0  0  0
 23 25  1  0  0  0  0
 22 23  1  0  0  0  0
 22 26  1  0  0  0  0
 20 21  1  0  0  0  0
 20 22  2  0  0  0  0
 17 18  1  0  0  0  0
 17 19  1  0  0  0  0
 17 20  1  0  0  0  0
 14 15  1  0  0  0  0
 14 16  1  0  0  0  0
 14 17  1  0  0  0  0
 11 12  1  0  0  0  0
 11 13  1  0  0  0  0
 11 14  1  0  0  0  0
  9 10  1  0  0  0  0
  9 11  1  0  0  0  0
  9 29  1  0  0  0  0
  7  8  1  0  0  0  0
  7  9  1  0  0  0  0
 33 34  1  0  0  0  0
 33 35  1  0  0  0  0
 33 36  1  0  0  0  0
 31 32  1  0  0  0  0
 31 33  1  0  0  0  0
M  CHG  1  20   1
M  END
$$$$
default_name
  -OEChem-02102213163D

 36 35  0     1  0  0  0  0  0999 V2000
   -4.2256   -3.6731    1.8584 H   0  0  0  0  0  0  0  0  0  0  0  0
   -4.2396   -2.6781    1.4144 C   0  0  0  0  0  0  0  0  0  0  0  0
   -4.9506   -2.0521    1.9514 H   0  0  0  0  0  0  0  0  0  0  0  0
   -4.5266   -2.7521    0.3674 H   0  0  0  0  0  0  0  0  0  0  0  0
   -2.8576   -2.0761    1.5184 C   0  0  0  0  0  0  0  0  0  0  0  0
   -1.9456   -2.7051    2.0404 O   0  0  0  0  0  0  0  0  0  0  0  0
   -2.6926   -0.8481    1.0174 N   0  0  0  0  0  0  0  0  0  0  0  0
   -3.4926   -0.3971    0.5954 H   0  0  0  0  0  0  0  0  0  0  0  0
   -1.4216   -0.1071    1.0434 C   0  0  1  0  0  0  0  0  0  0  0  0
   -0.7579   -0.5878    1.7640 H   0  0  0  0  0  0  0  0  0  0  0  0
   -0.7791   -0.1912   -0.3557 C   0  0  0  0  0  0  0  0  0  0  0  0
   -0.4132    0.8000   -0.6311 H   0  0  0  0  0  0  0  0  0  0  0  0
    0.0761   -0.8693   -0.3155 H   0  0  0  0  0  0  0  0  0  0  0  0
   -1.7495   -0.6675   -1.4464 C   0  0  0  0  0  0  0  0  0  0  0  0
   -1.8438    0.0992   -2.2167 H   0  0  0  0  0  0  0  0  0  0  0  0
   -1.3659   -1.5841   -1.8953 H   0  0  0  0  0  0  0  0  0  0  0  0
   -3.1310   -0.9381   -0.8348 C   0  0  0  0  0  0  0  0  0  0  0  0
   -3.0228   -1.6869   -0.0468 H   0  0  0  0  0  0  0  0  0  0  0  0
   -3.5026   -0.0111   -0.3917 H   0  0  0  0  0  0  0  0  0  0  0  0
   -4.0930   -1.4223   -1.8461 N   0  3  0  0  0  0  0  0  0  0  0  0
   -3.7636   -1.4735   -2.7949 H   0  0  0  0  0  0  0  0  0  0  0  0
   -5.3422   -1.7939   -1.6216 C   0  0  0  0  0  0  0  0  0  0  0  0
   -5.8700   -1.7667   -0.4299 N   0  0  0  0  0  0  0  0  0  0  0  0
   -5.3070   -1.4545    0.3415 H   0  0  0  0  0  0  0  0  0  0  0  0
   -6.8198   -2.0518   -0.2768 H   0  0  0  0  0  0  0  0  0  0  0  0
   -6.0951   -2.2039   -2.6026 N   0  0  0  0  0  0  0  0  0  0  0  0
   -5.7324   -2.2426   -3.5395 H   0  0  0  0  0  0  0  0  0  0  0  0
   -7.0423   -2.4849   -2.4278 H   0  0  0  0  0  0  0  0  0  0  0  0
   -1.6547    1.3413    1.4779 C   0  0  0  0  0  0  0  0  0  0  0  0
   -2.5654    1.9858    0.9716 O   0  0  0  0  0  0  0  0  0  0  0  0
   -0.8107    1.8504    2.3808 N   0  0  0  0  0  0  0  0  0  0  0  0
   -0.1136    1.2381    2.7719 H   0  0  0  0  0  0  0  0  0  0  0  0
   -0.8954    3.2155    2.9026 C   0  0  0  0  0  0  0  0  0  0  0  0
   -1.8299    3.3430    3.4532 H   0  0  0  0  0  0  0  0  0  0  0  0
   -0.0581    3.4194    3.5712 H   0  0  0  0  0  0  0  0  0  0  0  0
   -0.8804    3.9320    2.0784 H   0  0  0  0  0  0  0  0  0  0  0  0
  5  6  2  0  0  0  0
  5  7  1  0  0  0  0
  2  3  1  0  0  0  0
  2  4  1  0  0  0  0
  2  5  1  0  0  0  0
  1  2  1  0  0  0  0
 29 30  2  0  0  0  0
 29 31  1  0  0  0  0
 26 27  1  0  0  0  0
 26 28  1  0  0  0  0
 23 24  1  0  0  0  0
 23 25  1  0  0  0  0
 22 23  1  0  0  0  0
 22 26  1  0  0  0  0
 20 21  1  0  0  0  0
 20 22  2  0  0  0  0
 17 18  1  0  0  0  0
 17 19  1  0  0  0  0
 17 20  1  0  0  0  0
 14 15  1  0  0  0  0
 14 16  1  0  0  0  0
 14 17  1  0  0  0  0
 11 12  1  0  0  0  0
 11 13  1  0  0  0  0
 11 14  1  0  0  0  0
  9 10  1  0  0  0  0
  9 11  1  0  0  0  0
  9 29  1  0  0  0  0
  7  8  1  0  0  0  0
  7  9  1  0  0  0  0
 33 34  1  0  0  0  0
 33 35  1  0  0  0  0
 33 36  1  0  0  0  0
 31 32  1  0  0  0  0
 31 33  1  0  0  0  0
M  CHG  1  20   1
M  END
$$$$
default_name
  -OEChem-02102213163D

 36 35  0     1  0  0  0  0  0999 V2000
   -4.2256   -3.6731    1.8584 H   0  0  0  0  0  0  0  0  0  0  0  0
   -4.2396   -2.6781    1.4144 C   0  0  0  0  0  0  0  0  0  0  0  0
   -4.9506   -2.0521    1.9514 H   0  0  0  0  0  0  0  0  0  0  0  0
   -4.5266   -2.7521    0.3674 H   0  0  0  0  0  0  0  0  0  0  0  0
   -2.8576   -2.0761    1.5184 C   0  0  0  0  0  0  0  0  0  0  0  0
   -1.9456   -2.7051    2.0404 O   0  0  0  0  0  0  0  0  0  0  0  0
   -2.6926   -0.8481    1.0174 N   0  0  0  0  0  0  0  0  0  0  0  0
   -3.4926   -0.3971    0.5954 H   0  0  0  0  0  0  0  0  0  0  0  0
   -1.4216   -0.1071    1.0434 C   0  0  1  0  0  0  0  0  0  0  0  0
   -0.7579   -0.5878    1.7640 H   0  0  0  0  0  0  0  0  0  0  0  0
   -0.7791   -0.1912   -0.3557 C   0  0  0  0  0  0  0  0  0  0  0  0
   -0.4132    0.8000   -0.6311 H   0  0  0  0  0  0  0  0  0  0  0  0
    0.0761   -0.8693   -0.3155 H   0  0  0  0  0  0  0  0  0  0  0  0
   -1.7495   -0.6675   -1.4464 C   0  0  0  0  0  0  0  0  0  0  0  0
   -1.6458   -0.0395   -2.3323 H   0  0  0  0  0  0  0  0  0  0  0  0
   -1.5192   -1.7007   -1.7080 H   0  0  0  0  0  0  0  0  0  0  0  0
   -3.1940   -0.5804   -0.9349 C   0  0  0  0  0  0  0  0  0  0  0  0
   -3.2819   -1.1905   -0.0330 H   0  0  0  0  0  0  0  0  0  0  0  0
   -3.4102    0.4596   -0.6795 H   0  0  0  0  0  0  0  0  0  0  0  0
   -4.1629   -1.0523   -1.9455 N   0  3  0  0  0  0  0  0  0  0  0  0
   -3.7883   -1.3226   -2.8388 H   0  0  0  0  0  0  0  0  0  0  0  0
   -5.4719   -1.1527   -1.7862 C   0  0  0  0  0  0  0  0  0  0  0  0
   -6.0611   -0.8291   -0.6693 N   0  0  0  0  0  0  0  0  0  0  0  0
   -5.5003   -0.4942    0.0941 H   0  0  0  0  0  0  0  0  0  0  0  0
   -7.0557   -0.9109   -0.5651 H   0  0  0  0  0  0  0  0  0  0  0  0
   -6.2238   -1.5845   -2.7586 N   0  0  0  0  0  0  0  0  0  0  0  0
   -5.8149   -1.8466   -3.6390 H   0  0  0  0  0  0  0  0  0  0  0  0
   -7.2164   -1.6592   -2.6335 H   0  0  0  0  0  0  0  0  0  0  0  0
   -1.6547    1.3413    1.4779 C   0  0  0  0  0  0  0  0  0  0  0  0
   -2.5654    1.9858    0.9716 O   0  0  0  0  0  0  0  0  0  0  0  0
   -0.8107    1.8504    2.3808 N   0  0  0  0  0  0  0  0  0  0  0  0
   -0.1136    1.2381    2.7719 H   0  0  0  0  0  0  0  0  0  0  0  0
   -0.8954    3.2155    2.9026 C   0  0  0  0  0  0  0  0  0  0  0  0
   -1.8299    3.3430    3.4532 H   0  0  0  0  0  0  0  0  0  0  0  0
   -0.0581    3.4194    3.5712 H   0  0  0  0  0  0  0  0  0  0  0  0
   -0.8804    3.9320    2.0784 H   0  0  0  0  0  0  0  0  0  0  0  0
  5  6  2  0  0  0  0
  5  7  1  0  0  0  0
  2  3  1  0  0  0  0
  2  4  1  0  0  0  0
  2  5  1  0  0  0  0
  1  2  1  0  0  0  0
 29 30  2  0  0  0  0
 29 31  1  0  0  0  0
 26 27  1  0  0  0  0
 26 28  1  0  0  0  0
 23 24  1  0  0  0  0
 23 25  1  0  0  0  0
 22 23  1  0  0  0  0
 22 26  1  0  0  0  0
 20 21  1  0  0  0  0
 20 22  2  0  0  0  0
 17 18  1  0  0  0  0
 17 19  1  0  0  0  0
 17 20  1  0  0  0  0
 14 15  1  0  0  0  0
 14 16  1  0  0  0  0
 14 17  1  0  0  0  0
 11 12  1  0  0  0  0
 11 13  1  0  0  0  0
 11 14  1  0  0  0  0
  9 10  1  0  0  0  0
  9 11  1  0  0  0  0
  9 29  1  0  0  0  0
  7  8  1  0  0  0  0
  7  9  1  0  0  0  0
 33 34  1  0  0  0  0
 33 35  1  0  0  0  0
 33 36  1  0  0  0  0
 31 32  1  0  0  0  0
 31 33  1  0  0  0  0
M  CHG  1  20   1
M  END
$$$$
default_name
  -OEChem-02102213163D

 36 35  0     1  0  0  0  0  0999 V2000
   -4.2256   -3.6731    1.8584 H   0  0  0  0  0  0  0  0  0  0  0  0
   -4.2396   -2.6781    1.4144 C   0  0  0  0  0  0  0  0  0  0  0  0
   -4.9506   -2.0521    1.9514 H   0  0  0  0  0  0  0  0  0  0  0  0
   -4.5266   -2.7521    0.3674 H   0  0  0  0  0  0  0  0  0  0  0  0
   -2.8576   -2.0761    1.5184 C   0  0  0  0  0  0  0  0  0  0  0  0
   -1.9456   -2.7051    2.0404 O   0  0  0  0  0  0  0  0  0  0  0  0
   -2.6926   -0.8481    1.0174 N   0  0  0  0  0  0  0  0  0  0  0  0
   -3.4926   -0.3971    0.5954 H   0  0  0  0  0  0  0  0  0  0  0  0
   -1.4216   -0.1071    1.0434 C   0  0  1  0  0  0  0  0  0  0  0  0
   -0.7579   -0.5878    1.7640 H   0  0  0  0  0  0  0  0  0  0  0  0
   -0.7791   -0.1912   -0.3557 C   0  0  0  0  0  0  0  0  0  0  0  0
   -0.4132    0.8000   -0.6311 H   0  0  0  0  0  0  0  0  0  0  0  0
    0.0761   -0.8693   -0.3155 H   0  0  0  0  0  0  0  0  0  0  0  0
   -1.7495   -0.6675   -1.4464 C   0  0  0  0  0  0  0  0  0  0  0  0
   -1.4707   -0.2288   -2.4055 H   0  0  0  0  0  0  0  0  0  0  0  0
   -1.7037   -1.7544   -1.5204 H   0  0  0  0  0  0  0  0  0  0  0  0
   -3.1811   -0.2397   -1.0952 C   0  0  0  0  0  0  0  0  0  0  0  0
   -3.4420   -0.6612   -0.1217 H   0  0  0  0  0  0  0  0  0  0  0  0
   -3.2114    0.8503   -1.0270 H   0  0  0  0  0  0  0  0  0  0  0  0
   -4.1544   -0.6983   -2.1077 N   0  3  0  0  0  0  0  0  0  0  0  0
   -3.7809   -1.1794   -2.9079 H   0  0  0  0  0  0  0  0  0  0  0  0
   -5.4661   -0.5365   -2.0605 C   0  0  0  0  0  0  0  0  0  0  0  0
   -6.0541    0.0726   -1.0693 N   0  0  0  0  0  0  0  0  0  0  0  0
   -5.4907    0.4284   -0.3174 H   0  0  0  0  0  0  0  0  0  0  0  0
   -7.0508    0.1874   -1.0491 H   0  0  0  0  0  0  0  0  0  0  0  0
   -6.2216   -0.9882   -3.0209 N   0  0  0  0  0  0  0  0  0  0  0  0
   -5.8139   -1.4652   -3.8065 H   0  0  0  0  0  0  0  0  0  0  0  0
   -7.2163   -0.8633   -2.9811 H   0  0  0  0  0  0  0  0  0  0  0  0
   -1.6547    1.3413    1.4779 C   0  0  0  0  0  0  0  0  0  0  0  0
   -2.5654    1.9858    0.9716 O   0  0  0  0  0  0  0  0  0  0  0  0
   -0.8107    1.8504    2.3808 N   0  0  0  0  0  0  0  0  0  0  0  0
   -0.1136    1.2381    2.7719 H   0  0  0  0  0  0  0  0  0  0  0  0
   -0.8954    3.2155    2.9026 C   0  0  0  0  0  0  0  0  0  0  0  0
   -1.8299    3.3430    3.4532 H   0  0  0  0  0  0  0  0  0  0  0  0
   -0.0581    3.4194    3.5712 H   0  0  0  0  0  0  0  0  0  0  0  0
   -0.8804    3.9320    2.0784 H   0  0  0  0  0  0  0  0  0  0  0  0
  5  6  2  0  0  0  0
  5  7  1  0  0  0  0
  2  3  1  0  0  0  0
  2  4  1  0  0  0  0
  2  5  1  0  0  0  0
  1  2  1  0  0  0  0
 29 30  2  0  0  0  0
 29 31  1  0  0  0  0
 26 27  1  0  0  0  0
 26 28  1  0  0  0  0
 23 24  1  0  0  0  0
 23 25  1  0  0  0  0
 22 23  1  0  0  0  0
 22 26  1  0  0  0  0
 20 21  1  0  0  0  0
 20 22  2  0  0  0  0
 17 18  1  0  0  0  0
 17 19  1  0  0  0  0
 17 20  1  0  0  0  0
 14 15  1  0  0  0  0
 14 16  1  0  0  0  0
 14 17  1  0  0  0  0
 11 12  1  0  0  0  0
 11 13  1  0  0  0  0
 11 14  1  0  0  0  0
  9 10  1  0  0  0  0
  9 11  1  0  0  0  0
  9 29  1  0  0  0  0
  7  8  1  0  0  0  0
  7  9  1  0  0  0  0
 33 34  1  0  0  0  0
 33 35  1  0  0  0  0
 33 36  1  0  0  0  0
 31 32  1  0  0  0  0
 31 33  1  0  0  0  0
M  CHG  1  20   1
M  END
$$$$
default_name
  -OEChem-02102213163D

 36 35  0     1  0  0  0  0  0999 V2000
   -4.2256   -3.6731    1.8584 H   0  0  0  0  0  0  0  0  0  0  0  0
   -4.2396   -2.6781    1.4144 C   0  0  0  0  0  0  0  0  0  0  0  0
   -4.9506   -2.0521    1.9514 H   0  0  0  0  0  0  0  0  0  0  0  0
   -4.5266   -2.7521    0.3674 H   0  0  0  0  0  0  0  0  0  0  0  0
   -2.8576   -2.0761    1.5184 C   0  0  0  0  0  0  0  0  0  0  0  0
   -1.9456   -2.7051    2.0404 O   0  0  0  0  0  0  0  0  0  0  0  0
   -2.6926   -0.8481    1.0174 N   0  0  0  0  0  0  0  0  0  0  0  0
   -3.4926   -0.3971    0.5954 H   0  0  0  0  0  0  0  0  0  0  0  0
   -1.4216   -0.1071    1.0434 C   0  0  1  0  0  0  0  0  0  0  0  0
   -0.7579   -0.5878    1.7640 H   0  0  0  0  0  0  0  0  0  0  0  0
   -0.7791   -0.1912   -0.3557 C   0  0  0  0  0  0  0  0  0  0  0  0
   -0.4132    0.8000   -0.6311 H   0  0  0  0  0  0  0  0  0  0  0  0
    0.0761   -0.8693   -0.3155 H   0  0  0  0  0  0  0  0  0  0  0  0
   -1.7495   -0.6675   -1.4464 C   0  0  0  0  0  0  0  0  0  0  0  0
   -1.3305   -0.4558   -2.4311 H   0  0  0  0  0  0  0  0  0  0  0  0
   -1.9069   -1.7417   -1.3451 H   0  0  0  0  0  0  0  0  0  0  0  0
   -3.0931    0.0608   -1.3047 C   0  0  0  0  0  0  0  0  0  0  0  0
   -3.4923   -0.1350   -0.3068 H   0  0  0  0  0  0  0  0  0  0  0  0
   -2.9195    1.1342   -1.4106 H   0  0  0  0  0  0  0  0  0  0  0  0
   -4.0680   -0.3845   -2.3215 N   0  3  0  0  0  0  0  0  0  0  0  0
   -3.7419   -1.0538   -2.9975 H   0  0  0  0  0  0  0  0  0  0  0  0
   -5.3251    0.0128   -2.4257 C   0  0  0  0  0  0  0  0  0  0  0  0
   -5.8495    0.8769   -1.6025 N   0  0  0  0  0  0  0  0  0  0  0  0
   -5.2787    1.2505   -0.8650 H   0  0  0  0  0  0  0  0  0  0  0  0
   -6.8052    1.1681   -1.6959 H   0  0  0  0  0  0  0  0  0  0  0  0
   -6.0889   -0.4554   -3.3717 N   0  0  0  0  0  0  0  0  0  0  0  0
   -5.7293   -1.1243   -4.0306 H   0  0  0  0  0  0  0  0  0  0  0  0
   -7.0420   -0.1514   -3.4471 H   0  0  0  0  0  0  0  0  0  0  0  0
   -1.6547    1.3413    1.4779 C   0  0  0  0  0  0  0  0  0  0  0  0
   -2.5654    1.9858    0.9716 O   0  0  0  0  0  0  0  0  0  0  0  0
   -0.8107    1.8504    2.3808 N   0  0  0  0  0  0  0  0  0  0  0  0
   -0.1136    1.2381    2.7719 H   0  0  0  0  0  0  0  0  0  0  0  0
   -0.8954    3.2155    2.9026 C   0  0  0  0  0  0  0  0  0  0  0  0
   -1.8299    3.3430    3.4532 H   0  0  0  0  0  0  0  0  0  0  0  0
   -0.0581    3.4194    3.5712 H   0  0  0  0  0  0  0  0  0  0  0  0
   -0.8804    3.9320    2.0784 H   0  0  0  0  0  0  0  0  0  0  0  0
  5  6  2  0  0  0  0
  5  7  1  0  0  0  0
  2  3  1  0  0  0  0
  2  4  1  0  0  0  0
  2  5  1  0  0  0  0
  1  2  1  0  0  0  0
 29 30  2  0  0  0  0
 29 31  1  0  0  0  0
 26 27  1  0  0  0  0
 26 28  1  0  0  0  0
 23 24  1  0  0  0  0
 23 25  1  0  0  0  0
 22 23  1  0  0  0  0
 22 26  1  0  0  0  0
 20 21  1  0  0  0  0
 20 22  2  0  0  0  0
 17 18  1  0  0  0  0
 17 19  1  0  0  0  0
 17 20  1  0  0  0  0
 14 15  1  0  0  0  0
 14 16  1  0  0  0  0
 14 17  1  0  0  0  0
 11 12  1  0  0  0  0
 11 13  1  0  0  0  0
 11 14  1  0  0  0  0
  9 10  1  0  0  0  0
  9 11  1  0  0  0  0
  9 29  1  0  0  0  0
  7  8  1  0  0  0  0
  7  9  1  0  0  0  0
 33 34  1  0  0  0  0
 33 35  1  0  0  0  0
 33 36  1  0  0  0  0
 31 32  1  0  0  0  0
 31 33  1  0  0  0  0
M  CHG  1  20   1
M  END
$$$$
default_name
  -OEChem-02102213163D

 36 35  0     1  0  0  0  0  0999 V2000
   -4.2256   -3.6731    1.8584 H   0  0  0  0  0  0  0  0  0  0  0  0
   -4.2396   -2.6781    1.4144 C   0  0  0  0  0  0  0  0  0  0  0  0
   -4.9506   -2.0521    1.9514 H   0  0  0  0  0  0  0  0  0  0  0  0
   -4.5266   -2.7521    0.3674 H   0  0  0  0  0  0  0  0  0  0  0  0
   -2.8576   -2.0761    1.5184 C   0  0  0  0  0  0  0  0  0  0  0  0
   -1.9456   -2.7051    2.0404 O   0  0  0  0  0  0  0  0  0  0  0  0
   -2.6926   -0.8481    1.0174 N   0  0  0  0  0  0  0  0  0  0  0  0
   -3.4926   -0.3971    0.5954 H   0  0  0  0  0  0  0  0  0  0  0  0
   -1.4216   -0.1071    1.0434 C   0  0  1  0  0  0  0  0  0  0  0  0
   -0.7579   -0.5878    1.7640 H   0  0  0  0  0  0  0  0  0  0  0  0
   -0.7791   -0.1912   -0.3557 C   0  0  0  0  0  0  0  0  0  0  0  0
   -0.4132    0.8000   -0.6311 H   0  0  0  0  0  0  0  0  0  0  0  0
    0.0761   -0.8693   -0.3155 H   0  0  0  0  0  0  0  0  0  0  0  0
   -1.7495   -0.6675   -1.4464 C   0  0  0  0  0  0  0  0  0  0  0  0
   -1.2348   -0.7050   -2.4074 H   0  0  0  0  0  0  0  0  0  0  0  0
   -2.1149   -1.6635   -1.1942 H   0  0  0  0  0  0  0  0  0  0  0  0
   -2.9361    0.3006   -1.5491 C   0  0  0  0  0  0  0  0  0  0  0  0
   -3.4292    0.3523   -0.5757 H   0  0  0  0  0  0  0  0  0  0  0  0
   -2.5547    1.2921   -1.8042 H   0  0  0  0  0  0  0  0  0  0  0  0
   -3.9098   -0.1322   -2.5725 N   0  3  0  0  0  0  0  0  0  0  0  0
   -3.6739   -0.9543   -3.1014 H   0  0  0  0  0  0  0  0  0  0  0  0
   -5.0587    0.4577   -2.8571 C   0  0  0  0  0  0  0  0  0  0  0  0
   -5.4613    1.5289   -2.2327 N   0  0  0  0  0  0  0  0  0  0  0  0
   -4.8789    1.9161   -1.5114 H   0  0  0  0  0  0  0  0  0  0  0  0
   -6.3359    1.9645   -2.4613 H   0  0  0  0  0  0  0  0  0  0  0  0
   -5.8345   -0.0226   -3.7870 N   0  0  0  0  0  0  0  0  0  0  0  0
   -5.5669   -0.8473   -4.2960 H   0  0  0  0  0  0  0  0  0  0  0  0
   -6.7053    0.4280   -3.9997 H   0  0  0  0  0  0  0  0  0  0  0  0
   -1.6547    1.3413    1.4779 C   0  0  0  0  0  0  0  0  0  0  0  0
   -2.5654    1.9858    0.9716 O   0  0  0  0  0  0  0  0  0  0  0  0
   -0.8107    1.8504    2.3808 N   0  0  0  0  0  0  0  0  0  0  0  0
   -0.1136    1.2381    2.7719 H   0  0  0  0  0  0  0  0  0  0  0  0
   -0.8954    3.2155    2.9026 C   0  0  0  0  0  0  0  0  0  0  0  0
   -1.8299    3.3430    3.4532 H   0  0  0  0  0  0  0  0  0  0  0  0
   -0.0581    3.4194    3.5712 H   0  0  0  0  0  0  0  0  0  0  0  0
   -0.8804    3.9320    2.0784 H   0  0  0  0  0  0  0  0  0  0  0  0
  5  6  2  0  0  0  0
  5  7  1  0  0  0  0
  2  3  1  0  0  0  0
  2  4  1  0  0  0  0
  2  5  1  0  0  0  0
  1  2  1  0  0  0  0
 29 30  2  0  0  0  0
 29 31  1  0  0  0  0
 26 27  1  0  0  0  0
 26 28  1  0  0  0  0
 23 24  1  0  0  0  0
 23 25  1  0  0  0  0
 22 23  1  0  0  0  0
 22 26  1  0  0  0  0
 20 21  1  0  0  0  0
 20 22  2  0  0  0  0
 17 18  1  0  0  0  0
 17 19  1  0  0  0  0
 17 20  1  0  0  0  0
 14 15  1  0  0  0  0
 14 16  1  0  0  0  0
 14 17  1  0  0  0  0
 11 12  1  0  0  0  0
 11 13  1  0  0  0  0
 11 14  1  0  0  0  0
  9 10  1  0  0  0  0
  9 11  1  0  0  0  0
  9 29  1  0  0  0  0
  7  8  1  0  0  0  0
  7  9  1  0  0  0  0
 33 34  1  0  0  0  0
 33 35  1  0  0  0  0
 33 36  1  0  0  0  0
 31 32  1  0  0  0  0
 31 33  1  0  0  0  0
M  CHG  1  20   1
M  END
$$$$
default_name
  -OEChem-02102213163D

 36 35  0     1  0  0  0  0  0999 V2000
   -4.2256   -3.6731    1.8584 H   0  0  0  0  0  0  0  0  0  0  0  0
   -4.2396   -2.6781    1.4144 C   0  0  0  0  0  0  0  0  0  0  0  0
   -4.9506   -2.0521    1.9514 H   0  0  0  0  0  0  0  0  0  0  0  0
   -4.5266   -2.7521    0.3674 H   0  0  0  0  0  0  0  0  0  0  0  0
   -2.8576   -2.0761    1.5184 C   0  0  0  0  0  0  0  0  0  0  0  0
   -1.9456   -2.7051    2.0404 O   0  0  0  0  0  0  0  0  0  0  0  0
   -2.6926   -0.8481    1.0174 N   0  0  0  0  0  0  0  0  0  0  0  0
   -3.4926   -0.3971    0.5954 H   0  0  0  0  0  0  0  0  0  0  0  0
   -1.4216   -0.1071    1.0434 C   0  0  1  0  0  0  0  0  0  0  0  0
   -0.7579   -0.5878    1.7640 H   0  0  0  0  0  0  0  0  0  0  0  0
   -0.7791   -0.1912   -0.3557 C   0  0  0  0  0  0  0  0  0  0  0  0
   -0.4132    0.8000   -0.6311 H   0  0  0  0  0  0  0  0  0  0  0  0
    0.0761   -0.8693   -0.3155 H   0  0  0  0  0  0  0  0  0  0  0  0
   -1.7495   -0.6675   -1.4464 C   0  0  0  0  0  0  0  0  0  0  0  0
   -1.1900   -0.9594   -2.3362 H   0  0  0  0  0  0  0  0  0  0  0  0
   -2.3136   -1.5249   -1.0780 H   0  0  0  0  0  0  0  0  0  0  0  0
   -2.7207    0.4634   -1.8118 C   0  0  0  0  0  0  0  0  0  0  0  0
   -3.2571    0.7674   -0.9101 H   0  0  0  0  0  0  0  0  0  0  0  0
   -2.1416    1.3132   -2.1809 H   0  0  0  0  0  0  0  0  0  0  0  0
   -3.6905    0.0414   -2.8434 N   0  3  0  0  0  0  0  0  0  0  0  0
   -3.5816   -0.8877   -3.2126 H   0  0  0  0  0  0  0  0  0  0  0  0
   -4.6850    0.7680   -3.3251 C   0  0  0  0  0  0  0  0  0  0  0  0
   -4.9158    1.9843   -2.9169 N   0  0  0  0  0  0  0  0  0  0  0  0
   -4.3184    2.3798   -2.2125 H   0  0  0  0  0  0  0  0  0  0  0  0
   -5.6746    2.5223   -3.2932 H   0  0  0  0  0  0  0  0  0  0  0  0
   -5.4760    0.2808   -4.2385 N   0  0  0  0  0  0  0  0  0  0  0  0
   -5.3379   -0.6530   -4.5847 H   0  0  0  0  0  0  0  0  0  0  0  0
   -6.2293    0.8354   -4.6011 H   0  0  0  0  0  0  0  0  0  0  0  0
   -1.6547    1.3413    1.4779 C   0  0  0  0  0  0  0  0  0  0  0  0
   -2.5654    1.9858    0.9716 O   0  0  0  0  0  0  0  0  0  0  0  0
   -0.8107    1.8504    2.3808 N   0  0  0  0  0  0  0  0  0  0  0  0
   -0.1136    1.2381    2.7719 H   0  0  0  0  0  0  0  0  0  0  0  0
   -0.8954    3.2155    2.9026 C   0  0  0  0  0  0  0  0  0  0  0  0
   -1.8299    3.3430    3.4532 H   0  0  0  0  0  0  0  0  0  0  0  0
   -0.0581    3.4194    3.5712 H   0  0  0  0  0  0  0  0  0  0  0  0
   -0.8804    3.9320    2.0784 H   0  0  0  0  0  0  0  0  0  0  0  0
  5  6  2  0  0  0  0
  5  7  1  0  0  0  0
  2  3  1  0  0  0  0
  2  4  1  0  0  0  0
  2  5  1  0  0  0  0
  1  2  1  0  0  0  0
 29 30  2  0  0  0  0
 29 31  1  0  0  0  0
 26 27  1  0  0  0  0
 26 28  1  0  0  0  0
 23 24  1  0  0  0  0
 23 25  1  0  0  0  0
 22 23  1  0  0  0  0
 22 26  1  0  0  0  0
 20 21  1  0  0  0  0
 20 22  2  0  0  0  0
 17 18  1  0  0  0  0
 17 19  1  0  0  0  0
 17 20  1  0  0  0  0
 14 15  1  0  0  0  0
 14 16  1  0  0  0  0
 14 17  1  0  0  0  0
 11 12  1  0  0  0  0
 11 13  1  0  0  0  0
 11 14  1  0  0  0  0
  9 10  1  0  0  0  0
  9 11  1  0  0  0  0
  9 29  1  0  0  0  0
  7  8  1  0  0  0  0
  7  9  1  0  0  0  0
 33 34  1  0  0  0  0
 33 35  1  0  0  0  0
 33 36  1  0  0  0  0
 31 32  1  0  0  0  0
 31 33  1  0  0  0  0
M  CHG  1  20   1
M  END
$$$$
default_name
  -OEChem-02102213163D

 36 35  0     1  0  0  0  0  0999 V2000
   -4.2256   -3.6731    1.8584 H   0  0  0  0  0  0  0  0  0  0  0  0
   -4.2396   -2.6781    1.4144 C   0  0  0  0  0  0  0  0  0  0  0  0
   -4.9506   -2.0521    1.9514 H   0  0  0  0  0  0  0  0  0  0  0  0
   -4.5266   -2.7521    0.3674 H   0  0  0  0  0  0  0  0  0  0  0  0
   -2.8576   -2.0761    1.5184 C   0  0  0  0  0  0  0  0  0  0  0  0
   -1.9456   -2.7051    2.0404 O   0  0  0  0  0  0  0  0  0  0  0  0
   -2.6926   -0.8481    1.0174 N   0  0  0  0  0  0  0  0  0  0  0  0
   -3.4926   -0.3971    0.5954 H   0  0  0  0  0  0  0  0  0  0  0  0
   -1.4216   -0.1071    1.0434 C   0  0  1  0  0  0  0  0  0  0  0  0
   -0.7579   -0.5878    1.7640 H   0  0  0  0  0  0  0  0  0  0  0  0
   -0.7791   -0.1912   -0.3557 C   0  0  0  0  0  0  0  0  0  0  0  0
   -0.4132    0.8000   -0.6311 H   0  0  0  0  0  0  0  0  0  0  0  0
    0.0761   -0.8693   -0.3155 H   0  0  0  0  0  0  0  0  0  0  0  0
   -1.7495   -0.6675   -1.4464 C   0  0  0  0  0  0  0  0  0  0  0  0
   -1.1993   -1.2017   -2.2221 H   0  0  0  0  0  0  0  0  0  0  0  0
   -2.4893   -1.3356   -1.0043 H   0  0  0  0  0  0  0  0  0  0  0  0
   -2.4616    0.5381   -2.0749 C   0  0  0  0  0  0  0  0  0  0  0  0
   -2.9878    1.0820   -1.2871 H   0  0  0  0  0  0  0  0  0  0  0  0
   -1.7085    1.1960   -2.5151 H   0  0  0  0  0  0  0  0  0  0  0  0
   -3.4249    0.1244   -3.1160 N   0  3  0  0  0  0  0  0  0  0  0  0
   -3.4713   -0.8585   -3.3235 H   0  0  0  0  0  0  0  0  0  0  0  0
   -4.2293    0.9224   -3.7979 C   0  0  0  0  0  0  0  0  0  0  0  0
   -4.2502    2.2120   -3.6085 N   0  0  0  0  0  0  0  0  0  0  0  0
   -3.6355    2.6099   -2.9206 H   0  0  0  0  0  0  0  0  0  0  0  0
   -4.8666    2.8035   -4.1349 H   0  0  0  0  0  0  0  0  0  0  0  0
   -5.0376    0.4341   -4.6955 N   0  0  0  0  0  0  0  0  0  0  0  0
   -5.0578   -0.5546   -4.8769 H   0  0  0  0  0  0  0  0  0  0  0  0
   -5.6463    1.0431   -5.2105 H   0  0  0  0  0  0  0  0  0  0  0  0
   -1.6547    1.3413    1.4779 C   0  0  0  0  0  0  0  0  0  0  0  0
   -2.5654    1.9858    0.9716 O   0  0  0  0  0  0  0  0  0  0  0  0
   -0.8107    1.8504    2.3808 N   0  0  0  0  0  0  0  0  0  0  0  0
   -0.1136    1.2381    2.7719 H   0  0  0  0  0  0  0  0  0  0  0  0
   -0.8954    3.2155    2.9026 C   0  0  0  0  0  0  0  0  0  0  0  0
   -1.8299    3.3430    3.4532 H   0  0  0  0  0  0  0  0  0  0  0  0
   -0.0581    3.4194    3.5712 H   0  0  0  0  0  0  0  0  0  0  0  0
   -0.8804    3.9320    2.0784 H   0  0  0  0  0  0  0  0  0  0  0  0
  5  6  2  0  0  0  0
  5  7  1  0  0  0  0
  2  3  1  0  0  0  0
  2  4  1  0  0  0  0
  2  5  1  0  0  0  0
  1  2  1  0  0  0  0
 29 30  2  0  0  0  0
 29 31  1  0  0  0  0
 26 27  1  0  0  0  0
 26 28  1  0  0  0  0
 23 24  1  0  0  0  0
 23 25  1  0  0  0  0
 22 23  1  0  0  0  0
 22 26  1  0  0  0  0
 20 21  1  0  0  0  0
 20 22  2  0  0  0  0
 17 18  1  0  0  0  0
 17 19  1  0  0  0  0
 17 20  1  0  0  0  0
 14 15  1  0  0  0  0
 14 16  1  0  0  0  0
 14 17  1  0  0  0  0
 11 12  1  0  0  0  0
 11 13  1  0  0  0  0
 11 14  1  0  0  0  0
  9 10  1  0  0  0  0
  9 11  1  0  0  0  0
  9 29  1  0  0  0  0
  7  8  1  0  0  0  0
  7  9  1  0  0  0  0
 33 34  1  0  0  0  0
 33 35  1  0  0  0  0
 33 36  1  0  0  0  0
 31 32  1  0  0  0  0
 31 33  1  0  0  0  0
M  CHG  1  20   1
M  END
$$$$
default_name
  -OEChem-02102213163D

 36 35  0     1  0  0  0  0  0999 V2000
   -4.2256   -3.6731    1.8584 H   0  0  0  0  0  0  0  0  0  0  0  0
   -4.2396   -2.6781    1.4144 C   0  0  0  0  0  0  0  0  0  0  0  0
   -4.9506   -2.0521    1.9514 H   0  0  0  0  0  0  0  0  0  0  0  0
   -4.5266   -2.7521    0.3674 H   0  0  0  0  0  0  0  0  0  0  0  0
   -2.8576   -2.0761    1.5184 C   0  0  0  0  0  0  0  0  0  0  0  0
   -1.9456   -2.7051    2.0404 O   0  0  0  0  0  0  0  0  0  0  0  0
   -2.6926   -0.8481    1.0174 N   0  0  0  0  0  0  0  0  0  0  0  0
   -3.4926   -0.3971    0.5954 H   0  0  0  0  0  0  0  0  0  0  0  0
   -1.4216   -0.1071    1.0434 C   0  0  1  0  0  0  0  0  0  0  0  0
   -0.7579   -0.5878    1.7640 H   0  0  0  0  0  0  0  0  0  0  0  0
   -0.7791   -0.1912   -0.3557 C   0  0  0  0  0  0  0  0  0  0  0  0
   -0.4132    0.8000   -0.6311 H   0  0  0  0  0  0  0  0  0  0  0  0
    0.0761   -0.8693   -0.3155 H   0  0  0  0  0  0  0  0  0  0  0  0
   -1.7495   -0.6675   -1.4464 C   0  0  0  0  0  0  0  0  0  0  0  0
   -1.2619   -1.4155   -2.0730 H   0  0  0  0  0  0  0  0  0  0  0  0
   -2.6302   -1.1083   -0.9782 H   0  0  0  0  0  0  0  0  0  0  0  0
   -2.1765    0.5196   -2.3205 C   0  0  0  0  0  0  0  0  0  0  0  0
   -2.6395    1.2747   -1.6811 H   0  0  0  0  0  0  0  0  0  0  0  0
   -1.2849    0.9485   -2.7839 H   0  0  0  0  0  0  0  0  0  0  0  0
   -3.1313    0.1112   -3.3714 N   0  3  0  0  0  0  0  0  0  0  0  0
   -3.3505   -0.8687   -3.4265 H   0  0  0  0  0  0  0  0  0  0  0  0
   -3.7229    0.9105   -4.2433 C   0  0  0  0  0  0  0  0  0  0  0  0
   -3.5100    2.1964   -4.2603 N   0  0  0  0  0  0  0  0  0  0  0  0
   -2.8767    2.5909   -3.5874 H   0  0  0  0  0  0  0  0  0  0  0  0
   -3.9669    2.7889   -4.9290 H   0  0  0  0  0  0  0  0  0  0  0  0
   -4.5493    0.4269   -5.1267 N   0  0  0  0  0  0  0  0  0  0  0  0
   -4.7456   -0.5589   -5.1527 H   0  0  0  0  0  0  0  0  0  0  0  0
   -4.9961    1.0368   -5.7863 H   0  0  0  0  0  0  0  0  0  0  0  0
   -1.6547    1.3413    1.4779 C   0  0  0  0  0  0  0  0  0  0  0  0
   -2.5654    1.9858    0.9716 O   0  0  0  0  0  0  0  0  0  0  0  0
   -0.8107    1.8504    2.3808 N   0  0  0  0  0  0  0  0  0  0  0  0
   -0.1136    1.2381    2.7719 H   0  0  0  0  0  0  0  0  0  0  0  0
   -0.8954    3.2155    2.9026 C   0  0  0  0  0  0  0  0  0  0  0  0
   -1.8299    3.3430    3.4532 H   0  0  0  0  0  0  0  0  0  0  0  0
   -0.0581    3.4194    3.5712 H   0  0  0  0  0  0  0  0  0  0  0  0
   -0.8804    3.9320    2.0784 H   0  0  0  0  0  0  0  0  0  0  0  0
  5  6  2  0  0  0  0
  5  7  1  0  0  0  0
  2  3  1  0  0  0  0
  2  4  1  0  0  0  0
  2  5  1  0  0  0  0
  1  2  1  0  0  0  0
 29 30  2  0  0  0  0
 29 31  1  0  0  0  0
 26 27  1  0  0  0  0
 26 28  1  0  0  0  0
 23 24  1  0  0  0  0
 23 25  1  0  0  0  0
 22 23  1  0  0  0  0
 22 26  1  0  0  0  0
 20 21  1  0  0  0  0
 20 22  2  0  0  0  0
 17 18  1  0  0  0  0
 17 19  1  0  0  0  0
 17 20  1  0  0  0  0
 14 15  1  0  0  0  0
 14 16  1  0  0  0  0
 14 17  1  0  0  0  0
 11 12  1  0  0  0  0
 11 13  1  0  0  0  0
 11 14  1  0  0  0  0
  9 10  1  0  0  0  0
  9 11  1  0  0  0  0
  9 29  1  0  0  0  0
  7  8  1  0  0  0  0
  7  9  1  0  0  0  0
 33 34  1  0  0  0  0
 33 35  1  0  0  0  0
 33 36  1  0  0  0  0
 31 32  1  0  0  0  0
 31 33  1  0  0  0  0
M  CHG  1  20   1
M  END
$$$$
default_name
  -OEChem-02102213163D

 36 35  0     1  0  0  0  0  0999 V2000
   -4.2256   -3.6731    1.8584 H   0  0  0  0  0  0  0  0  0  0  0  0
   -4.2396   -2.6781    1.4144 C   0  0  0  0  0  0  0  0  0  0  0  0
   -4.9506   -2.0521    1.9514 H   0  0  0  0  0  0  0  0  0  0  0  0
   -4.5266   -2.7521    0.3674 H   0  0  0  0  0  0  0  0  0  0  0  0
   -2.8576   -2.0761    1.5184 C   0  0  0  0  0  0  0  0  0  0  0  0
   -1.9456   -2.7051    2.0404 O   0  0  0  0  0  0  0  0  0  0  0  0
   -2.6926   -0.8481    1.0174 N   0  0  0  0  0  0  0  0  0  0  0  0
   -3.4926   -0.3971    0.5954 H   0  0  0  0  0  0  0  0  0  0  0  0
   -1.4216   -0.1071    1.0434 C   0  0  1  0  0  0  0  0  0  0  0  0
   -0.7579   -0.5878    1.7640 H   0  0  0  0  0  0  0  0  0  0  0  0
   -0.7791   -0.1912   -0.3557 C   0  0  0  0  0  0  0  0  0  0  0  0
   -0.4132    0.8000   -0.6311 H   0  0  0  0  0  0  0  0  0  0  0  0
    0.0761   -0.8693   -0.3155 H   0  0  0  0  0  0  0  0  0  0  0  0
   -1.7495   -0.6675   -1.4464 C   0  0  0  0  0  0  0  0  0  0  0  0
   -1.3736   -1.5860   -1.8991 H   0  0  0  0  0  0  0  0  0  0  0  0
   -2.7266   -0.8587   -1.0015 H   0  0  0  0  0  0  0  0  0  0  0  0
   -1.8848    0.4091   -2.5318 C   0  0  0  0  0  0  0  0  0  0  0  0
   -2.2361    1.3324   -2.0653 H   0  0  0  0  0  0  0  0  0  0  0  0
   -0.8997    0.5877   -2.9691 H   0  0  0  0  0  0  0  0  0  0  0  0
   -2.8296    0.0027   -3.5925 N   0  3  0  0  0  0  0  0  0  0  0  0
   -3.2274   -0.9177   -3.5147 H   0  0  0  0  0  0  0  0  0  0  0  0
   -3.2001    0.7330   -4.6309 C   0  0  0  0  0  0  0  0  0  0  0  0
   -2.7455    1.9387   -4.8279 N   0  0  0  0  0  0  0  0  0  0  0  0
   -2.0938    2.3240   -4.1674 H   0  0  0  0  0  0  0  0  0  0  0  0
   -3.0367    2.4795   -5.6215 H   0  0  0  0  0  0  0  0  0  0  0  0
   -4.0444    0.2596   -5.5029 N   0  0  0  0  0  0  0  0  0  0  0  0
   -4.4228   -0.6655   -5.3934 H   0  0  0  0  0  0  0  0  0  0  0  0
   -4.3229    0.8170   -6.2892 H   0  0  0  0  0  0  0  0  0  0  0  0
   -1.6547    1.3413    1.4779 C   0  0  0  0  0  0  0  0  0  0  0  0
   -2.5654    1.9858    0.9716 O   0  0  0  0  0  0  0  0  0  0  0  0
   -0.8107    1.8504    2.3808 N   0  0  0  0  0  0  0  0  0  0  0  0
   -0.1136    1.2381    2.7719 H   0  0  0  0  0  0  0  0  0  0  0  0
   -0.8954    3.2155    2.9026 C   0  0  0  0  0  0  0  0  0  0  0  0
   -1.8299    3.3430    3.4532 H   0  0  0  0  0  0  0  0  0  0  0  0
   -0.0581    3.4194    3.5712 H   0  0  0  0  0  0  0  0  0  0  0  0
   -0.8804    3.9320    2.0784 H   0  0  0  0  0  0  0  0  0  0  0  0
  5  6  2  0  0  0  0
  5  7  1  0  0  0  0
  2  3  1  0  0  0  0
  2  4  1  0  0  0  0
  2  5  1  0  0  0  0
  1  2  1  0  0  0  0
 29 30  2  0  0  0  0
 29 31  1  0  0  0  0
 26 27  1  0  0  0  0
 26 28  1  0  0  0  0
 23 24  1  0  0  0  0
 23 25  1  0  0  0  0
 22 23  1  0  0  0  0
 22 26  1  0  0  0  0
 20 21  1  0  0  0  0
 20 22  2  0  0  0  0
 17 18  1  0  0  0  0
 17 19  1  0  0  0  0
 17 20  1  0  0  0  0
 14 15  1  0  0  0  0
 14 16  1  0  0  0  0
 14 17  1  0  0  0  0
 11 12  1  0  0  0  0
 11 13  1  0  0  0  0
 11 14  1  0  0  0  0
  9 10  1  0  0  0  0
  9 11  1  0  0  0  0
  9 29  1  0  0  0  0
  7  8  1  0  0  0  0
  7  9  1  0  0  0  0
 33 34  1  0  0  0  0
 33 35  1  0  0  0  0
 33 36  1  0  0  0  0
 31 32  1  0  0  0  0
 31 33  1  0  0  0  0
M  CHG  1  20   1
M  END
$$$$
default_name
  -OEChem-02102213163D

 36 35  0     1  0  0  0  0  0999 V2000
   -4.2256   -3.6731    1.8584 H   0  0  0  0  0  0  0  0  0  0  0  0
   -4.2396   -2.6781    1.4144 C   0  0  0  0  0  0  0  0  0  0  0  0
   -4.9506   -2.0521    1.9514 H   0  0  0  0  0  0  0  0  0  0  0  0
   -4.5266   -2.7521    0.3674 H   0  0  0  0  0  0  0  0  0  0  0  0
   -2.8576   -2.0761    1.5184 C   0  0  0  0  0  0  0  0  0  0  0  0
   -1.9456   -2.7051    2.0404 O   0  0  0  0  0  0  0  0  0  0  0  0
   -2.6926   -0.8481    1.0174 N   0  0  0  0  0  0  0  0  0  0  0  0
   -3.4926   -0.3971    0.5954 H   0  0  0  0  0  0  0  0  0  0  0  0
   -1.4216   -0.1071    1.0434 C   0  0  1  0  0  0  0  0  0  0  0  0
   -0.7579   -0.5878    1.7640 H   0  0  0  0  0  0  0  0  0  0  0  0
   -0.7791   -0.1912   -0.3557 C   0  0  0  0  0  0  0  0  0  0  0  0
   -0.4132    0.8000   -0.6311 H   0  0  0  0  0  0  0  0  0  0  0  0
    0.0761   -0.8693   -0.3155 H   0  0  0  0  0  0  0  0  0  0  0  0
   -1.7495   -0.6675   -1.4464 C   0  0  0  0  0  0  0  0  0  0  0  0
   -1.5269   -1.7018   -1.7122 H   0  0  0  0  0  0  0  0  0  0  0  0
   -2.7719   -0.6036   -1.0725 H   0  0  0  0  0  0  0  0  0  0  0  0
   -1.6065    0.2143   -2.6944 C   0  0  0  0  0  0  0  0  0  0  0  0
   -1.8049    1.2511   -2.4134 H   0  0  0  0  0  0  0  0  0  0  0  0
   -0.5790    0.1380   -3.0580 H   0  0  0  0  0  0  0  0  0  0  0  0
   -2.5403   -0.1938   -3.7640 N   0  3  0  0  0  0  0  0  0  0  0  0
   -3.1104   -1.0020   -3.5820 H   0  0  0  0  0  0  0  0  0  0  0  0
   -2.6967    0.4021   -4.9343 C   0  0  0  0  0  0  0  0  0  0  0  0
   -2.0089    1.4565   -5.2727 N   0  0  0  0  0  0  0  0  0  0  0  0
   -1.3400    1.8274   -4.6212 H   0  0  0  0  0  0  0  0  0  0  0  0
   -2.1396    1.8964   -6.1650 H   0  0  0  0  0  0  0  0  0  0  0  0
   -3.5572   -0.0563   -5.7984 N   0  0  0  0  0  0  0  0  0  0  0  0
   -4.1112   -0.8672   -5.5826 H   0  0  0  0  0  0  0  0  0  0  0  0
   -3.6727    0.3988   -6.6850 H   0  0  0  0  0  0  0  0  0  0  0  0
   -1.6547    1.3413    1.4779 C   0  0  0  0  0  0  0  0  0  0  0  0
   -2.5654    1.9858    0.9716 O   0  0  0  0  0  0  0  0  0  0  0  0
   -0.8107    1.8504    2.3808 N   0  0  0  0  0  0  0  0  0  0  0  0
   -0.1136    1.2381    2.7719 H   0  0  0  0  0  0  0  0  0  0  0  0
   -0.8954    3.2155    2.9026 C   0  0  0  0  0  0  0  0  0  0  0  0
   -1.8299    3.3430    3.4532 H   0  0  0  0  0  0  0  0  0  0  0  0
   -0.0581    3.4194    3.5712 H   0  0  0  0  0  0  0  0  0  0  0  0
   -0.8804    3.9320    2.0784 H   0  0  0  0  0  0  0  0  0  0  0  0
  5  6  2  0  0  0  0
  5  7  1  0  0  0  0
  2  3  1  0  0  0  0
  2  4  1  0  0  0  0
  2  5  1  0  0  0  0
  1  2  1  0  0  0  0
 29 30  2  0  0  0  0
 29 31  1  0  0  0  0
 26 27  1  0  0  0  0
 26 28  1  0  0  0  0
 23 24  1  0  0  0  0
 23 25  1  0  0  0  0
 22 23  1  0  0  0  0
 22 26  1  0  0  0  0
 20 21  1  0  0  0  0
 20 22  2  0  0  0  0
 17 18  1  0  0  0  0
 17 19  1  0  0  0  0
 17 20  1  0  0  0  0
 14 15  1  0  0  0  0
 14 16  1  0  0  0  0
 14 17  1  0  0  0  0
 11 12  1  0  0  0  0
 11 13  1  0  0  0  0
 11 14  1  0  0  0  0
  9 10  1  0  0  0  0
  9 11  1  0  0  0  0
  9 29  1  0  0  0  0
  7  8  1  0  0  0  0
  7  9  1  0  0  0  0
 33 34  1  0  0  0  0
 33 35  1  0  0  0  0
 33 36  1  0  0  0  0
 31 32  1  0  0  0  0
 31 33  1  0  0  0  0
M  CHG  1  20   1
M  END
$$$$
default_name
  -OEChem-02102213163D

 36 35  0     1  0  0  0  0  0999 V2000
   -4.2256   -3.6731    1.8584 H   0  0  0  0  0  0  0  0  0  0  0  0
   -4.2396   -2.6781    1.4144 C   0  0  0  0  0  0  0  0  0  0  0  0
   -4.9506   -2.0521    1.9514 H   0  0  0  0  0  0  0  0  0  0  0  0
   -4.5266   -2.7521    0.3674 H   0  0  0  0  0  0  0  0  0  0  0  0
   -2.8576   -2.0761    1.5184 C   0  0  0  0  0  0  0  0  0  0  0  0
   -1.9456   -2.7051    2.0404 O   0  0  0  0  0  0  0  0  0  0  0  0
   -2.6926   -0.8481    1.0174 N   0  0  0  0  0  0  0  0  0  0  0  0
   -3.4926   -0.3971    0.5954 H   0  0  0  0  0  0  0  0  0  0  0  0
   -1.4216   -0.1071    1.0434 C   0  0  1  0  0  0  0  0  0  0  0  0
   -0.7579   -0.5878    1.7640 H   0  0  0  0  0  0  0  0  0  0  0  0
   -0.7791   -0.1912   -0.3557 C   0  0  0  0  0  0  0  0  0  0  0  0
   -0.4132    0.8000   -0.6311 H   0  0  0  0  0  0  0  0  0  0  0  0
    0.0761   -0.8693   -0.3155 H   0  0  0  0  0  0  0  0  0  0  0  0
   -1.7495   -0.6675   -1.4464 C   0  0  0  0  0  0  0  0  0  0  0  0
   -1.7112   -1.7548   -1.5250 H   0  0  0  0  0  0  0  0  0  0  0  0
   -2.7631   -0.3605   -1.1865 H   0  0  0  0  0  0  0  0  0  0  0  0
   -1.3603   -0.0517   -2.7972 C   0  0  0  0  0  0  0  0  0  0  0  0
   -1.3754    1.0364   -2.7018 H   0  0  0  0  0  0  0  0  0  0  0  0
   -0.3448   -0.3699   -3.0446 H   0  0  0  0  0  0  0  0  0  0  0  0
   -2.2833   -0.4647   -3.8744 N   0  3  0  0  0  0  0  0  0  0  0  0
   -3.0075   -1.1159   -3.6237 H   0  0  0  0  0  0  0  0  0  0  0  0
   -2.2469   -0.0597   -5.1328 C   0  0  0  0  0  0  0  0  0  0  0  0
   -1.3503    0.7825   -5.5643 N   0  0  0  0  0  0  0  0  0  0  0  0
   -0.6668    1.1349   -4.9178 H   0  0  0  0  0  0  0  0  0  0  0  0
   -1.3365    1.0793   -6.5227 H   0  0  0  0  0  0  0  0  0  0  0  0
   -3.1210   -0.4994   -5.9931 N   0  0  0  0  0  0  0  0  0  0  0  0
   -3.8321   -1.1502   -5.7073 H   0  0  0  0  0  0  0  0  0  0  0  0
   -3.0898   -0.1895   -6.9468 H   0  0  0  0  0  0  0  0  0  0  0  0
   -1.6547    1.3413    1.4779 C   0  0  0  0  0  0  0  0  0  0  0  0
   -2.5654    1.9858    0.9716 O   0  0  0  0  0  0  0  0  0  0  0  0
   -0.8107    1.8504    2.3808 N   0  0  0  0  0  0  0  0  0  0  0  0
   -0.1136    1.2381    2.7719 H   0  0  0  0  0  0  0  0  0  0  0  0
   -0.8954    3.2155    2.9026 C   0  0  0  0  0  0  0  0  0  0  0  0
   -1.8299    3.3430    3.4532 H   0  0  0  0  0  0  0  0  0  0  0  0
   -0.0581    3.4194    3.5712 H   0  0  0  0  0  0  0  0  0  0  0  0
   -0.8804    3.9320    2.0784 H   0  0  0  0  0  0  0  0  0  0  0  0
  5  6  2  0  0  0  0
  5  7  1  0  0  0  0
  2  3  1  0  0  0  0
  2  4  1  0  0  0  0
  2  5  1  0  0  0  0
  1  2  1  0  0  0  0
 29 30  2  0  0  0  0
 29 31  1  0  0  0  0
 26 27  1  0  0  0  0
 26 28  1  0  0  0  0
 23 24  1  0  0  0  0
 23 25  1  0  0  0  0
 22 23  1  0  0  0  0
 22 26  1  0  0  0  0
 20 21  1  0  0  0  0
 20 22  2  0  0  0  0
 17 18  1  0  0  0  0
 17 19  1  0  0  0  0
 17 20  1  0  0  0  0
 14 15  1  0  0  0  0
 14 16  1  0  0  0  0
 14 17  1  0  0  0  0
 11 12  1  0  0  0  0
 11 13  1  0  0  0  0
 11 14  1  0  0  0  0
  9 10  1  0  0  0  0
  9 11  1  0  0  0  0
  9 29  1  0  0  0  0
  7  8  1  0  0  0  0
  7  9  1  0  0  0  0
 33 34  1  0  0  0  0
 33 35  1  0  0  0  0
 33 36  1  0  0  0  0
 31 32  1  0  0  0  0
 31 33  1  0  0  0  0
M  CHG  1  20   1
M  END
$$$$
default_name
  -OEChem-02102213163D

 36 35  0     1  0  0  0  0  0999 V2000
   -4.2256   -3.6731    1.8584 H   0  0  0  0  0  0  0  0  0  0  0  0
   -4.2396   -2.6781    1.4144 C   0  0  0  0  0  0  0  0  0  0  0  0
   -4.9506   -2.0521    1.9514 H   0  0  0  0  0  0  0  0  0  0  0  0
   -4.5266   -2.7521    0.3674 H   0  0  0  0  0  0  0  0  0  0  0  0
   -2.8576   -2.0761    1.5184 C   0  0  0  0  0  0  0  0  0  0  0  0
   -1.9456   -2.7051    2.0404 O   0  0  0  0  0  0  0  0  0  0  0  0
   -2.6926   -0.8481    1.0174 N   0  0  0  0  0  0  0  0  0  0  0  0
   -3.4926   -0.3971    0.5954 H   0  0  0  0  0  0  0  0  0  0  0  0
   -1.4216   -0.1071    1.0434 C   0  0  1  0  0  0  0  0  0  0  0  0
   -0.7579   -0.5878    1.7640 H   0  0  0  0  0  0  0  0  0  0  0  0
   -0.7791   -0.1912   -0.3557 C   0  0  0  0  0  0  0  0  0  0  0  0
   -0.4132    0.8000   -0.6311 H   0  0  0  0  0  0  0  0  0  0  0  0
    0.0761   -0.8693   -0.3155 H   0  0  0  0  0  0  0  0  0  0  0  0
   -1.7495   -0.6675   -1.4464 C   0  0  0  0  0  0  0  0  0  0  0  0
   -1.9141   -1.7416   -1.3504 H   0  0  0  0  0  0  0  0  0  0  0  0
   -2.7008   -0.1459   -1.3357 H   0  0  0  0  0  0  0  0  0  0  0  0
   -1.1632   -0.3707   -2.8333 C   0  0  0  0  0  0  0  0  0  0  0  0
   -0.9769    0.7029   -2.9107 H   0  0  0  0  0  0  0  0  0  0  0  0
   -0.2130   -0.9013   -2.9298 H   0  0  0  0  0  0  0  0  0  0  0  0
   -2.0760   -0.7918   -3.9161 N   0  3  0  0  0  0  0  0  0  0  0  0
   -2.9257   -1.2517   -3.6372 H   0  0  0  0  0  0  0  0  0  0  0  0
   -1.8814   -0.6209   -5.2130 C   0  0  0  0  0  0  0  0  0  0  0  0
   -0.8147   -0.0373   -5.6829 N   0  0  0  0  0  0  0  0  0  0  0  0
   -0.1201    0.2938   -5.0369 H   0  0  0  0  0  0  0  0  0  0  0  0
   -0.6823    0.0840   -6.6701 H   0  0  0  0  0  0  0  0  0  0  0  0
   -2.7654   -1.0394   -6.0736 N   0  0  0  0  0  0  0  0  0  0  0  0
   -3.6046   -1.4953   -5.7590 H   0  0  0  0  0  0  0  0  0  0  0  0
   -2.6139   -0.9077   -7.0566 H   0  0  0  0  0  0  0  0  0  0  0  0
   -1.6547    1.3413    1.4779 C   0  0  0  0  0  0  0  0  0  0  0  0
   -2.5654    1.9858    0.9716 O   0  0  0  0  0  0  0  0  0  0  0  0
   -0.8107    1.8504    2.3808 N   0  0  0  0  0  0  0  0  0  0  0  0
   -0.1136    1.2381    2.7719 H   0  0  0  0  0  0  0  0  0  0  0  0
   -0.8954    3.2155    2.9026 C   0  0  0  0  0  0  0  0  0  0  0  0
   -1.8299    3.3430    3.4532 H   0  0  0  0  0  0  0  0  0  0  0  0
   -0.0581    3.4194    3.5712 H   0  0  0  0  0  0  0  0  0  0  0  0
   -0.8804    3.9320    2.0784 H   0  0  0  0  0  0  0  0  0  0  0  0
  5  6  2  0  0  0  0
  5  7  1  0  0  0  0
  2  3  1  0  0  0  0
  2  4  1  0  0  0  0
  2  5  1  0  0  0  0
  1  2  1  0  0  0  0
 29 30  2  0  0  0  0
 29 31  1  0  0  0  0
 26 27  1  0  0  0  0
 26 28  1  0  0  0  0
 23 24  1  0  0  0  0
 23 25  1  0  0  0  0
 22 23  1  0  0  0  0
 22 26  1  0  0  0  0
 20 21  1  0  0  0  0
 20 22  2  0  0  0  0
 17 18  1  0  0  0  0
 17 19  1  0  0  0  0
 17 20  1  0  0  0  0
 14 15  1  0  0  0  0
 14 16  1  0  0  0  0
 14 17  1  0  0  0  0
 11 12  1  0  0  0  0
 11 13  1  0  0  0  0
 11 14  1  0  0  0  0
  9 10  1  0  0  0  0
  9 11  1  0  0  0  0
  9 29  1  0  0  0  0
  7  8  1  0  0  0  0
  7  9  1  0  0  0  0
 33 34  1  0  0  0  0
 33 35  1  0  0  0  0
 33 36  1  0  0  0  0
 31 32  1  0  0  0  0
 31 33  1  0  0  0  0
M  CHG  1  20   1
M  END
$$$$
default_name
  -OEChem-02102213163D

 36 35  0     1  0  0  0  0  0999 V2000
   -4.2256   -3.6731    1.8584 H   0  0  0  0  0  0  0  0  0  0  0  0
   -4.2396   -2.6781    1.4144 C   0  0  0  0  0  0  0  0  0  0  0  0
   -4.9506   -2.0521    1.9514 H   0  0  0  0  0  0  0  0  0  0  0  0
   -4.5266   -2.7521    0.3674 H   0  0  0  0  0  0  0  0  0  0  0  0
   -2.8576   -2.0761    1.5184 C   0  0  0  0  0  0  0  0  0  0  0  0
   -1.9456   -2.7051    2.0404 O   0  0  0  0  0  0  0  0  0  0  0  0
   -2.6926   -0.8481    1.0174 N   0  0  0  0  0  0  0  0  0  0  0  0
   -3.4926   -0.3971    0.5954 H   0  0  0  0  0  0  0  0  0  0  0  0
   -1.4216   -0.1071    1.0434 C   0  0  1  0  0  0  0  0  0  0  0  0
   -0.7579   -0.5878    1.7640 H   0  0  0  0  0  0  0  0  0  0  0  0
   -0.7791   -0.1912   -0.3557 C   0  0  0  0  0  0  0  0  0  0  0  0
   -0.1840    0.7093   -0.5204 H   0  0  0  0  0  0  0  0  0  0  0  0
   -0.1078   -1.0520   -0.3890 H   0  0  0  0  0  0  0  0  0  0  0  0
   -1.8043   -0.3068   -1.4931 C   0  0  0  0  0  0  0  0  0  0  0  0
   -2.4055   -1.2070   -1.3578 H   0  0  0  0  0  0  0  0  0  0  0  0
   -2.4564    0.5671   -1.4814 H   0  0  0  0  0  0  0  0  0  0  0  0
   -1.0796   -0.3847   -2.8438 C   0  0  0  0  0  0  0  0  0  0  0  0
   -0.4597    0.5074   -2.9588 H   0  0  0  0  0  0  0  0  0  0  0  0
   -0.4329   -1.2654   -2.8411 H   0  0  0  0  0  0  0  0  0  0  0  0
   -2.0298   -0.4734   -3.9716 N   0  3  0  0  0  0  0  0  0  0  0  0
   -3.0065   -0.5196   -3.7368 H   0  0  0  0  0  0  0  0  0  0  0  0
   -1.7176   -0.4972   -5.2565 C   0  0  0  0  0  0  0  0  0  0  0  0
   -0.4829   -0.4428   -5.6711 N   0  0  0  0  0  0  0  0  0  0  0  0
    0.2535   -0.3792   -4.9906 H   0  0  0  0  0  0  0  0  0  0  0  0
   -0.2633   -0.4624   -6.6499 H   0  0  0  0  0  0  0  0  0  0  0  0
   -2.6517   -0.5785   -6.1611 N   0  0  0  0  0  0  0  0  0  0  0  0
   -3.6190   -0.6226   -5.8900 H   0  0  0  0  0  0  0  0  0  0  0  0
   -2.4105   -0.5963   -7.1348 H   0  0  0  0  0  0  0  0  0  0  0  0
   -1.6547    1.3413    1.4779 C   0  0  0  0  0  0  0  0  0  0  0  0
   -2.5654    1.9858    0.9716 O   0  0  0  0  0  0  0  0  0  0  0  0
   -0.8107    1.8504    2.3808 N   0  0  0  0  0  0  0  0  0  0  0  0
   -0.1136    1.2381    2.7719 H   0  0  0  0  0  0  0  0  0  0  0  0
   -0.8954    3.2155    2.9026 C   0  0  0  0  0  0  0  0  0  0  0  0
   -1.8299    3.3430    3.4532 H   0  0  0  0  0  0  0  0  0  0  0  0
   -0.0581    3.4194    3.5712 H   0  0  0  0  0  0  0  0  0  0  0  0
   -0.8804    3.9320    2.0784 H   0  0  0  0  0  0  0  0  0  0  0  0
  5  6  2  0  0  0  0
  5  7  1  0  0  0  0
  2  3  1  0  0  0  0
  2  4  1  0  0  0  0
  2  5  1  0  0  0  0
  1  2  1  0  0  0  0
 29 30  2  0  0  0  0
 29 31  1  0  0  0  0
 26 27  1  0  0  0  0
 26 28  1  0  0  0  0
 23 24  1  0  0  0  0
 23 25  1  0  0  0  0
 22 23  1  0  0  0  0
 22 26  1  0  0  0  0
 20 21  1  0  0  0  0
 20 22  2  0  0  0  0
 17 18  1  0  0  0  0
 17 19  1  0  0  0  0
 17 20  1  0  0  0  0
 14 15  1  0  0  0  0
 14 16  1  0  0  0  0
 14 17  1  0  0  0  0
 11 12  1  0  0  0  0
 11 13  1  0  0  0  0
 11 14  1  0  0  0  0
  9 10  1  0  0  0  0
  9 11  1  0  0  0  0
  9 29  1  0  0  0  0
  7  8  1  0  0  0  0
  7  9  1  0  0  0  0
 33 34  1  0  0  0  0
 33 35  1  0  0  0  0
 33 36  1  0  0  0  0
 31 32  1  0  0  0  0
 31 33  1  0  0  0  0
M  CHG  1  20   1
M  END
$$$$
default_name
  -OEChem-02102213163D

 36 35  0     1  0  0  0  0  0999 V2000
   -4.2256   -3.6731    1.8584 H   0  0  0  0  0  0  0  0  0  0  0  0
   -4.2396   -2.6781    1.4144 C   0  0  0  0  0  0  0  0  0  0  0  0
   -4.9506   -2.0521    1.9514 H   0  0  0  0  0  0  0  0  0  0  0  0
   -4.5266   -2.7521    0.3674 H   0  0  0  0  0  0  0  0  0  0  0  0
   -2.8576   -2.0761    1.5184 C   0  0  0  0  0  0  0  0  0  0  0  0
   -1.9456   -2.7051    2.0404 O   0  0  0  0  0  0  0  0  0  0  0  0
   -2.6926   -0.8481    1.0174 N   0  0  0  0  0  0  0  0  0  0  0  0
   -3.4926   -0.3971    0.5954 H   0  0  0  0  0  0  0  0  0  0  0  0
   -1.4216   -0.1071    1.0434 C   0  0  1  0  0  0  0  0  0  0  0  0
   -0.7579   -0.5878    1.7640 H   0  0  0  0  0  0  0  0  0  0  0  0
   -0.7791   -0.1912   -0.3557 C   0  0  0  0  0  0  0  0  0  0  0  0
   -0.1840    0.7093   -0.5204 H   0  0  0  0  0  0  0  0  0  0  0  0
   -0.1078   -1.0520   -0.3890 H   0  0  0  0  0  0  0  0  0  0  0  0
   -1.8043   -0.3068   -1.4931 C   0  0  0  0  0  0  0  0  0  0  0  0
   -2.5686   -1.0386   -1.2280 H   0  0  0  0  0  0  0  0  0  0  0  0
   -2.2750    0.6635   -1.6546 H   0  0  0  0  0  0  0  0  0  0  0  0
   -1.1048   -0.7557   -2.7834 C   0  0  0  0  0  0  0  0  0  0  0  0
   -0.3237   -0.0317   -3.0266 H   0  0  0  0  0  0  0  0  0  0  0  0
   -0.6407   -1.7289   -2.6067 H   0  0  0  0  0  0  0  0  0  0  0  0
   -2.0512   -0.8578   -3.9132 N   0  3  0  0  0  0  0  0  0  0  0  0
   -3.0190   -0.6759   -3.7096 H   0  0  0  0  0  0  0  0  0  0  0  0
   -1.7461   -1.1647   -5.1630 C   0  0  0  0  0  0  0  0  0  0  0  0
   -0.5231   -1.4190   -5.5355 N   0  0  0  0  0  0  0  0  0  0  0  0
    0.2099   -1.3786   -4.8496 H   0  0  0  0  0  0  0  0  0  0  0  0
   -0.3088   -1.6507   -6.4880 H   0  0  0  0  0  0  0  0  0  0  0  0
   -2.6759   -1.2237   -6.0737 N   0  0  0  0  0  0  0  0  0  0  0  0
   -3.6341   -1.0352   -5.8344 H   0  0  0  0  0  0  0  0  0  0  0  0
   -2.4402   -1.4568   -7.0206 H   0  0  0  0  0  0  0  0  0  0  0  0
   -1.6547    1.3413    1.4779 C   0  0  0  0  0  0  0  0  0  0  0  0
   -2.5654    1.9858    0.9716 O   0  0  0  0  0  0  0  0  0  0  0  0
   -0.8107    1.8504    2.3808 N   0  0  0  0  0  0  0  0  0  0  0  0
   -0.1136    1.2381    2.7719 H   0  0  0  0  0  0  0  0  0  0  0  0
   -0.8954    3.2155    2.9026 C   0  0  0  0  0  0  0  0  0  0  0  0
   -1.8299    3.3430    3.4532 H   0  0  0  0  0  0  0  0  0  0  0  0
   -0.0581    3.4194    3.5712 H   0  0  0  0  0  0  0  0  0  0  0  0
   -0.8804    3.9320    2.0784 H   0  0  0  0  0  0  0  0  0  0  0  0
  5  6  2  0  0  0  0
  5  7  1  0  0  0  0
  2  3  1  0  0  0  0
  2  4  1  0  0  0  0
  2  5  1  0  0  0  0
  1  2  1  0  0  0  0
 29 30  2  0  0  0  0
 29 31  1  0  0  0  0
 26 27  1  0  0  0  0
 26 28  1  0  0  0  0
 23 24  1  0  0  0  0
 23 25  1  0  0  0  0
 22 23  1  0  0  0  0
 22 26  1  0  0  0  0
 20 21  1  0  0  0  0
 20 22  2  0  0  0  0
 17 18  1  0  0  0  0
 17 19  1  0  0  0  0
 17 20  1  0  0  0  0
 14 15  1  0  0  0  0
 14 16  1  0  0  0  0
 14 17  1  0  0  0  0
 11 12  1  0  0  0  0
 11 13  1  0  0  0  0
 11 14  1  0  0  0  0
  9 10  1  0  0  0  0
  9 11  1  0  0  0  0
  9 29  1  0  0  0  0
  7  8  1  0  0  0  0
  7  9  1  0  0  0  0
 33 34  1  0  0  0  0
 33 35  1  0  0  0  0
 33 36  1  0  0  0  0
 31 32  1  0  0  0  0
 31 33  1  0  0  0  0
M  CHG  1  20   1
M  END
$$$$
default_name
  -OEChem-02102213163D

 36 35  0     1  0  0  0  0  0999 V2000
   -4.2256   -3.6731    1.8584 H   0  0  0  0  0  0  0  0  0  0  0  0
   -4.2396   -2.6781    1.4144 C   0  0  0  0  0  0  0  0  0  0  0  0
   -4.9506   -2.0521    1.9514 H   0  0  0  0  0  0  0  0  0  0  0  0
   -4.5266   -2.7521    0.3674 H   0  0  0  0  0  0  0  0  0  0  0  0
   -2.8576   -2.0761    1.5184 C   0  0  0  0  0  0  0  0  0  0  0  0
   -1.9456   -2.7051    2.0404 O   0  0  0  0  0  0  0  0  0  0  0  0
   -2.6926   -0.8481    1.0174 N   0  0  0  0  0  0  0  0  0  0  0  0
   -3.4926   -0.3971    0.5954 H   0  0  0  0  0  0  0  0  0  0  0  0
   -1.4216   -0.1071    1.0434 C   0  0  1  0  0  0  0  0  0  0  0  0
   -0.7579   -0.5878    1.7640 H   0  0  0  0  0  0  0  0  0  0  0  0
   -0.7791   -0.1912   -0.3557 C   0  0  0  0  0  0  0  0  0  0  0  0
   -0.1840    0.7093   -0.5204 H   0  0  0  0  0  0  0  0  0  0  0  0
   -0.1078   -1.0520   -0.3890 H   0  0  0  0  0  0  0  0  0  0  0  0
   -1.8043   -0.3068   -1.4931 C   0  0  0  0  0  0  0  0  0  0  0  0
   -2.6964   -0.8223   -1.1348 H   0  0  0  0  0  0  0  0  0  0  0  0
   -2.0780    0.6918   -1.8350 H   0  0  0  0  0  0  0  0  0  0  0  0
   -1.2014   -1.0988   -2.6614 C   0  0  0  0  0  0  0  0  0  0  0  0
   -0.2944   -0.5902   -2.9962 H   0  0  0  0  0  0  0  0  0  0  0  0
   -0.9348   -2.0963   -2.3043 H   0  0  0  0  0  0  0  0  0  0  0  0
   -2.1467   -1.2150   -3.7908 N   0  3  0  0  0  0  0  0  0  0  0  0
   -3.0616   -0.8198   -3.6566 H   0  0  0  0  0  0  0  0  0  0  0  0
   -1.9035   -1.7877   -4.9578 C   0  0  0  0  0  0  0  0  0  0  0  0
   -0.7518   -2.3309   -5.2368 N   0  0  0  0  0  0  0  0  0  0  0  0
   -0.0266   -2.3113   -4.5417 H   0  0  0  0  0  0  0  0  0  0  0  0
   -0.5838   -2.7618   -6.1272 H   0  0  0  0  0  0  0  0  0  0  0  0
   -2.8247   -1.8271   -5.8782 N   0  0  0  0  0  0  0  0  0  0  0  0
   -3.7290   -1.4212   -5.7097 H   0  0  0  0  0  0  0  0  0  0  0  0
   -2.6359   -2.2625   -6.7622 H   0  0  0  0  0  0  0  0  0  0  0  0
   -1.6547    1.3413    1.4779 C   0  0  0  0  0  0  0  0  0  0  0  0
   -2.5654    1.9858    0.9716 O   0  0  0  0  0  0  0  0  0  0  0  0
   -0.8107    1.8504    2.3808 N   0  0  0  0  0  0  0  0  0  0  0  0
   -0.1136    1.2381    2.7719 H   0  0  0  0  0  0  0  0  0  0  0  0
   -0.8954    3.2155    2.9026 C   0  0  0  0  0  0  0  0  0  0  0  0
   -1.8299    3.3430    3.4532 H   0  0  0  0  0  0  0  0  0  0  0  0
   -0.0581    3.4194    3.5712 H   0  0  0  0  0  0  0  0  0  0  0  0
   -0.8804    3.9320    2.0784 H   0  0  0  0  0  0  0  0  0  0  0  0
  5  6  2  0  0  0  0
  5  7  1  0  0  0  0
  2  3  1  0  0  0  0
  2  4  1  0  0  0  0
  2  5  1  0  0  0  0
  1  2  1  0  0  0  0
 29 30  2  0  0  0  0
 29 31  1  0  0  0  0
 26 27  1  0  0  0  0
 26 28  1  0  0  0  0
 23 24  1  0  0  0  0
 23 25  1  0  0  0  0
 22 23  1  0  0  0  0
 22 26  1  0  0  0  0
 20 21  1  0  0  0  0
 20 22  2  0  0  0  0
 17 18  1  0  0  0  0
 17 19  1  0  0  0  0
 17 20  1  0  0  0  0
 14 15  1  0  0  0  0
 14 16  1  0  0  0  0
 14 17  1  0  0  0  0
 11 12  1  0  0  0  0
 11 13  1  0  0  0  0
 11 14  1  0  0  0  0
  9 10  1  0  0  0  0
  9 11  1  0  0  0  0
  9 29  1  0  0  0  0
  7  8  1  0  0  0  0
  7  9  1  0  0  0  0
 33 34  1  0  0  0  0
 33 35  1  0  0  0  0
 33 36  1  0  0  0  0
 31 32  1  0  0  0  0
 31 33  1  0  0  0  0
M  CHG  1  20   1
M  END
$$$$
default_name
  -OEChem-02102213163D

 36 35  0     1  0  0  0  0  0999 V2000
   -4.2256   -3.6731    1.8584 H   0  0  0  0  0  0  0  0  0  0  0  0
   -4.2396   -2.6781    1.4144 C   0  0  0  0  0  0  0  0  0  0  0  0
   -4.9506   -2.0521    1.9514 H   0  0  0  0  0  0  0  0  0  0  0  0
   -4.5266   -2.7521    0.3674 H   0  0  0  0  0  0  0  0  0  0  0  0
   -2.8576   -2.0761    1.5184 C   0  0  0  0  0  0  0  0  0  0  0  0
   -1.9456   -2.7051    2.0404 O   0  0  0  0  0  0  0  0  0  0  0  0
   -2.6926   -0.8481    1.0174 N   0  0  0  0  0  0  0  0  0  0  0  0
   -3.4926   -0.3971    0.5954 H   0  0  0  0  0  0  0  0  0  0  0  0
   -1.4216   -0.1071    1.0434 C   0  0  1  0  0  0  0  0  0  0  0  0
   -0.7579   -0.5878    1.7640 H   0  0  0  0  0  0  0  0  0  0  0  0
   -0.7791   -0.1912   -0.3557 C   0  0  0  0  0  0  0  0  0  0  0  0
   -0.1840    0.7093   -0.5204 H   0  0  0  0  0  0  0  0  0  0  0  0
   -0.1078   -1.0520   -0.3890 H   0  0  0  0  0  0  0  0  0  0  0  0
   -1.8043   -0.3068   -1.4931 C   0  0  0  0  0  0  0  0  0  0  0  0
   -2.7802   -0.5727   -1.0846 H   0  0  0  0  0  0  0  0  0  0  0  0
   -1.8788    0.6503   -2.0104 H   0  0  0  0  0  0  0  0  0  0  0  0
   -1.3629   -1.3906   -2.4862 C   0  0  0  0  0  0  0  0  0  0  0  0
   -0.3738   -1.1300   -2.8698 H   0  0  0  0  0  0  0  0  0  0  0  0
   -1.2952   -2.3426   -1.9544 H   0  0  0  0  0  0  0  0  0  0  0  0
   -2.3098   -1.5205   -3.6128 N   0  3  0  0  0  0  0  0  0  0  0  0
   -3.1314   -0.9414   -3.5814 H   0  0  0  0  0  0  0  0  0  0  0  0
   -2.1788   -2.3239   -4.6551 C   0  0  0  0  0  0  0  0  0  0  0  0
   -1.1532   -3.1162   -4.7951 N   0  0  0  0  0  0  0  0  0  0  0  0
   -0.4398   -3.1137   -4.0876 H   0  0  0  0  0  0  0  0  0  0  0  0
   -1.0694   -3.7200   -5.5921 H   0  0  0  0  0  0  0  0  0  0  0  0
   -3.0879   -2.3478   -5.5881 N   0  0  0  0  0  0  0  0  0  0  0  0
   -3.8970   -1.7543   -5.5244 H   0  0  0  0  0  0  0  0  0  0  0  0
   -2.9846   -2.9587   -6.3772 H   0  0  0  0  0  0  0  0  0  0  0  0
   -1.6547    1.3413    1.4779 C   0  0  0  0  0  0  0  0  0  0  0  0
   -2.5654    1.9858    0.9716 O   0  0  0  0  0  0  0  0  0  0  0  0
   -0.8107    1.8504    2.3808 N   0  0  0  0  0  0  0  0  0  0  0  0
   -0.1136    1.2381    2.7719 H   0  0  0  0  0  0  0  0  0  0  0  0
   -0.8954    3.2155    2.9026 C   0  0  0  0  0  0  0  0  0  0  0  0
   -1.8299    3.3430    3.4532 H   0  0  0  0  0  0  0  0  0  0  0  0
   -0.0581    3.4194    3.5712 H   0  0  0  0  0  0  0  0  0  0  0  0
   -0.8804    3.9320    2.0784 H   0  0  0  0  0  0  0  0  0  0  0  0
  5  6  2  0  0  0  0
  5  7  1  0  0  0  0
  2  3  1  0  0  0  0
  2  4  1  0  0  0  0
  2  5  1  0  0  0  0
  1  2  1  0  0  0  0
 29 30  2  0  0  0  0
 29 31  1  0  0  0  0
 26 27  1  0  0  0  0
 26 28  1  0  0  0  0
 23 24  1  0  0  0  0
 23 25  1  0  0  0  0
 22 23  1  0  0  0  0
 22 26  1  0  0  0  0
 20 21  1  0  0  0  0
 20 22  2  0  0  0  0
 17 18  1  0  0  0  0
 17 19  1  0  0  0  0
 17 20  1  0  0  0  0
 14 15  1  0  0  0  0
 14 16  1  0  0  0  0
 14 17  1  0  0  0  0
 11 12  1  0  0  0  0
 11 13  1  0  0  0  0
 11 14  1  0  0  0  0
  9 10  1  0  0  0  0
  9 11  1  0  0  0  0
  9 29  1  0  0  0  0
  7  8  1  0  0  0  0
  7  9  1  0  0  0  0
 33 34  1  0  0  0  0
 33 35  1  0  0  0  0
 33 36  1  0  0  0  0
 31 32  1  0  0  0  0
 31 33  1  0  0  0  0
M  CHG  1  20   1
M  END
$$$$
default_name
  -OEChem-02102213163D

 36 35  0     1  0  0  0  0  0999 V2000
   -4.2256   -3.6731    1.8584 H   0  0  0  0  0  0  0  0  0  0  0  0
   -4.2396   -2.6781    1.4144 C   0  0  0  0  0  0  0  0  0  0  0  0
   -4.9506   -2.0521    1.9514 H   0  0  0  0  0  0  0  0  0  0  0  0
   -4.5266   -2.7521    0.3674 H   0  0  0  0  0  0  0  0  0  0  0  0
   -2.8576   -2.0761    1.5184 C   0  0  0  0  0  0  0  0  0  0  0  0
   -1.9456   -2.7051    2.0404 O   0  0  0  0  0  0  0  0  0  0  0  0
   -2.6926   -0.8481    1.0174 N   0  0  0  0  0  0  0  0  0  0  0  0
   -3.4926   -0.3971    0.5954 H   0  0  0  0  0  0  0  0  0  0  0  0
   -1.4216   -0.1071    1.0434 C   0  0  1  0  0  0  0  0  0  0  0  0
   -0.7579   -0.5878    1.7640 H   0  0  0  0  0  0  0  0  0  0  0  0
   -0.7791   -0.1912   -0.3557 C   0  0  0  0  0  0  0  0  0  0  0  0
   -0.1840    0.7093   -0.5204 H   0  0  0  0  0  0  0  0  0  0  0  0
   -0.1078   -1.0520   -0.3890 H   0  0  0  0  0  0  0  0  0  0  0  0
   -1.8043   -0.3068   -1.4931 C   0  0  0  0  0  0  0  0  0  0  0  0
   -2.8143   -0.3069   -1.0809 H   0  0  0  0  0  0  0  0  0  0  0  0
   -1.6909    0.5417   -2.1687 H   0  0  0  0  0  0  0  0  0  0  0  0
   -1.5782   -1.6112   -2.2697 C   0  0  0  0  0  0  0  0  0  0  0  0
   -0.5564   -1.6144   -2.6560 H   0  0  0  0  0  0  0  0  0  0  0  0
   -1.6973   -2.4509   -1.5809 H   0  0  0  0  0  0  0  0  0  0  0  0
   -2.5294   -1.7536   -3.3911 N   0  3  0  0  0  0  0  0  0  0  0  0
   -3.2235   -1.0325   -3.4891 H   0  0  0  0  0  0  0  0  0  0  0  0
   -2.5536   -2.7367   -4.2754 C   0  0  0  0  0  0  0  0  0  0  0  0
   -1.7002   -3.7215   -4.2406 N   0  0  0  0  0  0  0  0  0  0  0  0
   -1.0017   -3.7310   -3.5185 H   0  0  0  0  0  0  0  0  0  0  0  0
   -1.7327   -4.4600   -4.9191 H   0  0  0  0  0  0  0  0  0  0  0  0
   -3.4475   -2.7500   -5.2230 N   0  0  0  0  0  0  0  0  0  0  0  0
   -4.1268   -2.0118   -5.2911 H   0  0  0  0  0  0  0  0  0  0  0  0
   -3.4623   -3.4977   -5.8918 H   0  0  0  0  0  0  0  0  0  0  0  0
   -1.6547    1.3413    1.4779 C   0  0  0  0  0  0  0  0  0  0  0  0
   -2.5654    1.9858    0.9716 O   0  0  0  0  0  0  0  0  0  0  0  0
   -0.8107    1.8504    2.3808 N   0  0  0  0  0  0  0  0  0  0  0  0
   -0.1136    1.2381    2.7719 H   0  0  0  0  0  0  0  0  0  0  0  0
   -0.8954    3.2155    2.9026 C   0  0  0  0  0  0  0  0  0  0  0  0
   -1.8299    3.3430    3.4532 H   0  0  0  0  0  0  0  0  0  0  0  0
   -0.0581    3.4194    3.5712 H   0  0  0  0  0  0  0  0  0  0  0  0
   -0.8804    3.9320    2.0784 H   0  0  0  0  0  0  0  0  0  0  0  0
  5  6  2  0  0  0  0
  5  7  1  0  0  0  0
  2  3  1  0  0  0  0
  2  4  1  0  0  0  0
  2  5  1  0  0  0  0
  1  2  1  0  0  0  0
 29 30  2  0  0  0  0
 29 31  1  0  0  0  0
 26 27  1  0  0  0  0
 26 28  1  0  0  0  0
 23 24  1  0  0  0  0
 23 25  1  0  0  0  0
 22 23  1  0  0  0  0
 22 26  1  0  0  0  0
 20 21  1  0  0  0  0
 20 22  2  0  0  0  0
 17 18  1  0  0  0  0
 17 19  1  0  0  0  0
 17 20  1  0  0  0  0
 14 15  1  0  0  0  0
 14 16  1  0  0  0  0
 14 17  1  0  0  0  0
 11 12  1  0  0  0  0
 11 13  1  0  0  0  0
 11 14  1  0  0  0  0
  9 10  1  0  0  0  0
  9 11  1  0  0  0  0
  9 29  1  0  0  0  0
  7  8  1  0  0  0  0
  7  9  1  0  0  0  0
 33 34  1  0  0  0  0
 33 35  1  0  0  0  0
 33 36  1  0  0  0  0
 31 32  1  0  0  0  0
 31 33  1  0  0  0  0
M  CHG  1  20   1
M  END
$$$$
default_name
  -OEChem-02102213163D

 36 35  0     1  0  0  0  0  0999 V2000
   -4.2256   -3.6731    1.8584 H   0  0  0  0  0  0  0  0  0  0  0  0
   -4.2396   -2.6781    1.4144 C   0  0  0  0  0  0  0  0  0  0  0  0
   -4.9506   -2.0521    1.9514 H   0  0  0  0  0  0  0  0  0  0  0  0
   -4.5266   -2.7521    0.3674 H   0  0  0  0  0  0  0  0  0  0  0  0
   -2.8576   -2.0761    1.5184 C   0  0  0  0  0  0  0  0  0  0  0  0
   -1.9456   -2.7051    2.0404 O   0  0  0  0  0  0  0  0  0  0  0  0
   -2.6926   -0.8481    1.0174 N   0  0  0  0  0  0  0  0  0  0  0  0
   -3.4926   -0.3971    0.5954 H   0  0  0  0  0  0  0  0  0  0  0  0
   -1.4216   -0.1071    1.0434 C   0  0  1  0  0  0  0  0  0  0  0  0
   -0.7579   -0.5878    1.7640 H   0  0  0  0  0  0  0  0  0  0  0  0
   -0.7791   -0.1912   -0.3557 C   0  0  0  0  0  0  0  0  0  0  0  0
   -0.1840    0.7093   -0.5204 H   0  0  0  0  0  0  0  0  0  0  0  0
   -0.1078   -1.0520   -0.3890 H   0  0  0  0  0  0  0  0  0  0  0  0
   -1.8043   -0.3068   -1.4931 C   0  0  0  0  0  0  0  0  0  0  0  0
   -2.7963   -0.0430   -1.1240 H   0  0  0  0  0  0  0  0  0  0  0  0
   -1.5271    0.3734   -2.2991 H   0  0  0  0  0  0  0  0  0  0  0  0
   -1.8327   -1.7456   -2.0266 C   0  0  0  0  0  0  0  0  0  0  0  0
   -0.8298   -2.0103   -2.3693 H   0  0  0  0  0  0  0  0  0  0  0  0
   -2.1139   -2.4139   -1.2093 H   0  0  0  0  0  0  0  0  0  0  0  0
   -2.7905   -1.8984   -3.1411 N   0  3  0  0  0  0  0  0  0  0  0  0
   -3.3318   -1.0869   -3.3860 H   0  0  0  0  0  0  0  0  0  0  0  0
   -3.0021   -2.9980   -3.8446 C   0  0  0  0  0  0  0  0  0  0  0  0
   -2.3554   -4.1055   -3.6110 N   0  0  0  0  0  0  0  0  0  0  0  0
   -1.6738   -4.1213   -2.8731 H   0  0  0  0  0  0  0  0  0  0  0  0
   -2.5283   -4.9314   -4.1541 H   0  0  0  0  0  0  0  0  0  0  0  0
   -3.8792   -3.0066   -4.8079 N   0  0  0  0  0  0  0  0  0  0  0  0
   -4.4027   -2.1762   -5.0257 H   0  0  0  0  0  0  0  0  0  0  0  0
   -4.0365   -3.8429   -5.3392 H   0  0  0  0  0  0  0  0  0  0  0  0
   -1.6547    1.3413    1.4779 C   0  0  0  0  0  0  0  0  0  0  0  0
   -2.5654    1.9858    0.9716 O   0  0  0  0  0  0  0  0  0  0  0  0
   -0.8107    1.8504    2.3808 N   0  0  0  0  0  0  0  0  0  0  0  0
   -0.1136    1.2381    2.7719 H   0  0  0  0  0  0  0  0  0  0  0  0
   -0.8954    3.2155    2.9026 C   0  0  0  0  0  0  0  0  0  0  0  0
   -1.8299    3.3430    3.4532 H   0  0  0  0  0  0  0  0  0  0  0  0
   -0.0581    3.4194    3.5712 H   0  0  0  0  0  0  0  0  0  0  0  0
   -0.8804    3.9320    2.0784 H   0  0  0  0  0  0  0  0  0  0  0  0
  5  6  2  0  0  0  0
  5  7  1  0  0  0  0
  2  3  1  0  0  0  0
  2  4  1  0  0  0  0
  2  5  1  0  0  0  0
  1  2  1  0  0  0  0
 29 30  2  0  0  0  0
 29 31  1  0  0  0  0
 26 27  1  0  0  0  0
 26 28  1  0  0  0  0
 23 24  1  0  0  0  0
 23 25  1  0  0  0  0
 22 23  1  0  0  0  0
 22 26  1  0  0  0  0
 20 21  1  0  0  0  0
 20 22  2  0  0  0  0
 17 18  1  0  0  0  0
 17 19  1  0  0  0  0
 17 20  1  0  0  0  0
 14 15  1  0  0  0  0
 14 16  1  0  0  0  0
 14 17  1  0  0  0  0
 11 12  1  0  0  0  0
 11 13  1  0  0  0  0
 11 14  1  0  0  0  0
  9 10  1  0  0  0  0
  9 11  1  0  0  0  0
  9 29  1  0  0  0  0
  7  8  1  0  0  0  0
  7  9  1  0  0  0  0
 33 34  1  0  0  0  0
 33 35  1  0  0  0  0
 33 36  1  0  0  0  0
 31 32  1  0  0  0  0
 31 33  1  0  0  0  0
M  CHG  1  20   1
M  END
$$$$
default_name
  -OEChem-02102213163D

 36 35  0     1  0  0  0  0  0999 V2000
   -4.2256   -3.6731    1.8584 H   0  0  0  0  0  0  0  0  0  0  0  0
   -4.2396   -2.6781    1.4144 C   0  0  0  0  0  0  0  0  0  0  0  0
   -4.9506   -2.0521    1.9514 H   0  0  0  0  0  0  0  0  0  0  0  0
   -4.5266   -2.7521    0.3674 H   0  0  0  0  0  0  0  0  0  0  0  0
   -2.8576   -2.0761    1.5184 C   0  0  0  0  0  0  0  0  0  0  0  0
   -1.9456   -2.7051    2.0404 O   0  0  0  0  0  0  0  0  0  0  0  0
   -2.6926   -0.8481    1.0174 N   0  0  0  0  0  0  0  0  0  0  0  0
   -3.4926   -0.3971    0.5954 H   0  0  0  0  0  0  0  0  0  0  0  0
   -1.4216   -0.1071    1.0434 C   0  0  1  0  0  0  0  0  0  0  0  0
   -0.7579   -0.5878    1.7640 H   0  0  0  0  0  0  0  0  0  0  0  0
   -0.7791   -0.1912   -0.3557 C   0  0  0  0  0  0  0  0  0  0  0  0
   -0.1840    0.7093   -0.5204 H   0  0  0  0  0  0  0  0  0  0  0  0
   -0.1078   -1.0520   -0.3890 H   0  0  0  0  0  0  0  0  0  0  0  0
   -1.8043   -0.3068   -1.4931 C   0  0  0  0  0  0  0  0  0  0  0  0
   -2.7275    0.2010   -1.2108 H   0  0  0  0  0  0  0  0  0  0  0  0
   -1.3987    0.1569   -2.3929 H   0  0  0  0  0  0  0  0  0  0  0  0
   -2.1091   -1.7846   -1.7736 C   0  0  0  0  0  0  0  0  0  0  0  0
   -1.1754   -2.2908   -2.0293 H   0  0  0  0  0  0  0  0  0  0  0  0
   -2.5163   -2.2341   -0.8649 H   0  0  0  0  0  0  0  0  0  0  0  0
   -3.0754   -1.9449   -2.8796 N   0  3  0  0  0  0  0  0  0  0  0  0
   -3.4488   -1.1009   -3.2791 H   0  0  0  0  0  0  0  0  0  0  0  0
   -3.4938   -3.0900   -3.3921 C   0  0  0  0  0  0  0  0  0  0  0  0
   -3.0742   -4.2421   -2.9494 N   0  0  0  0  0  0  0  0  0  0  0  0
   -2.4104   -4.2579   -2.1953 H   0  0  0  0  0  0  0  0  0  0  0  0
   -3.4021   -5.1020   -3.3493 H   0  0  0  0  0  0  0  0  0  0  0  0
   -4.3535   -3.0999   -4.3710 N   0  0  0  0  0  0  0  0  0  0  0  0
   -4.7058   -2.2363   -4.7464 H   0  0  0  0  0  0  0  0  0  0  0  0
   -4.6682   -3.9709   -4.7569 H   0  0  0  0  0  0  0  0  0  0  0  0
   -1.6547    1.3413    1.4779 C   0  0  0  0  0  0  0  0  0  0  0  0
   -2.5654    1.9858    0.9716 O   0  0  0  0  0  0  0  0  0  0  0  0
   -0.8107    1.8504    2.3808 N   0  0  0  0  0  0  0  0  0  0  0  0
   -0.1136    1.2381    2.7719 H   0  0  0  0  0  0  0  0  0  0  0  0
   -0.8954    3.2155    2.9026 C   0  0  0  0  0  0  0  0  0  0  0  0
   -1.8299    3.3430    3.4532 H   0  0  0  0  0  0  0  0  0  0  0  0
   -0.0581    3.4194    3.5712 H   0  0  0  0  0  0  0  0  0  0  0  0
   -0.8804    3.9320    2.0784 H   0  0  0  0  0  0  0  0  0  0  0  0
  5  6  2  0  0  0  0
  5  7  1  0  0  0  0
  2  3  1  0  0  0  0
  2  4  1  0  0  0  0
  2  5  1  0  0  0  0
  1  2  1  0  0  0  0
 29 30  2  0  0  0  0
 29 31  1  0  0  0  0
 26 27  1  0  0  0  0
 26 28  1  0  0  0  0
 23 24  1  0  0  0  0
 23 25  1  0  0  0  0
 22 23  1  0  0  0  0
 22 26  1  0  0  0  0
 20 21  1  0  0  0  0
 20 22  2  0  0  0  0
 17 18  1  0  0  0  0
 17 19  1  0  0  0  0
 17 20  1  0  0  0  0
 14 15  1  0  0  0  0
 14 16  1  0  0  0  0
 14 17  1  0  0  0  0
 11 12  1  0  0  0  0
 11 13  1  0  0  0  0
 11 14  1  0  0  0  0
  9 10  1  0  0  0  0
  9 11  1  0  0  0  0
  9 29  1  0  0  0  0
  7  8  1  0  0  0  0
  7  9  1  0  0  0  0
 33 34  1  0  0  0  0
 33 35  1  0  0  0  0
 33 36  1  0  0  0  0
 31 32  1  0  0  0  0
 31 33  1  0  0  0  0
M  CHG  1  20   1
M  END
$$$$
default_name
  -OEChem-02102213163D

 36 35  0     1  0  0  0  0  0999 V2000
   -4.2256   -3.6731    1.8584 H   0  0  0  0  0  0  0  0  0  0  0  0
   -4.2396   -2.6781    1.4144 C   0  0  0  0  0  0  0  0  0  0  0  0
   -4.9506   -2.0521    1.9514 H   0  0  0  0  0  0  0  0  0  0  0  0
   -4.5266   -2.7521    0.3674 H   0  0  0  0  0  0  0  0  0  0  0  0
   -2.8576   -2.0761    1.5184 C   0  0  0  0  0  0  0  0  0  0  0  0
   -1.9456   -2.7051    2.0404 O   0  0  0  0  0  0  0  0  0  0  0  0
   -2.6926   -0.8481    1.0174 N   0  0  0  0  0  0  0  0  0  0  0  0
   -3.4926   -0.3971    0.5954 H   0  0  0  0  0  0  0  0  0  0  0  0
   -1.4216   -0.1071    1.0434 C   0  0  1  0  0  0  0  0  0  0  0  0
   -0.7579   -0.5878    1.7640 H   0  0  0  0  0  0  0  0  0  0  0  0
   -0.7791   -0.1912   -0.3557 C   0  0  0  0  0  0  0  0  0  0  0  0
   -0.1840    0.7093   -0.5204 H   0  0  0  0  0  0  0  0  0  0  0  0
   -0.1078   -1.0520   -0.3890 H   0  0  0  0  0  0  0  0  0  0  0  0
   -1.8043   -0.3068   -1.4931 C   0  0  0  0  0  0  0  0  0  0  0  0
   -2.6126    0.4086   -1.3355 H   0  0  0  0  0  0  0  0  0  0  0  0
   -1.3142   -0.0931   -2.4436 H   0  0  0  0  0  0  0  0  0  0  0  0
   -2.3884   -1.7257   -1.5278 C   0  0  0  0  0  0  0  0  0  0  0  0
   -1.5696   -2.4367   -1.6592 H   0  0  0  0  0  0  0  0  0  0  0  0
   -2.8773   -1.9238   -0.5711 H   0  0  0  0  0  0  0  0  0  0  0  0
   -3.3646   -1.8901   -2.6246 N   0  3  0  0  0  0  0  0  0  0  0  0
   -3.5666   -1.0735   -3.1757 H   0  0  0  0  0  0  0  0  0  0  0  0
   -3.9952   -3.0065   -2.9488 C   0  0  0  0  0  0  0  0  0  0  0  0
   -3.8075   -4.1218   -2.3007 N   0  0  0  0  0  0  0  0  0  0  0  0
   -3.1614   -4.1315   -1.5314 H   0  0  0  0  0  0  0  0  0  0  0  0
   -4.2945   -4.9601   -2.5594 H   0  0  0  0  0  0  0  0  0  0  0  0
   -4.8379   -3.0236   -3.9421 N   0  0  0  0  0  0  0  0  0  0  0  0
   -5.0156   -2.1879   -4.4721 H   0  0  0  0  0  0  0  0  0  0  0  0
   -5.3142   -3.8727   -4.1847 H   0  0  0  0  0  0  0  0  0  0  0  0
   -1.6547    1.3413    1.4779 C   0  0  0  0  0  0  0  0  0  0  0  0
   -2.5654    1.9858    0.9716 O   0  0  0  0  0  0  0  0  0  0  0  0
   -0.8107    1.8504    2.3808 N   0  0  0  0  0  0  0  0  0  0  0  0
   -0.1136    1.2381    2.7719 H   0  0  0  0  0  0  0  0  0  0  0  0
   -0.8954    3.2155    2.9026 C   0  0  0  0  0  0  0  0  0  0  0  0
   -1.8299    3.3430    3.4532 H   0  0  0  0  0  0  0  0  0  0  0  0
   -0.0581    3.4194    3.5712 H   0  0  0  0  0  0  0  0  0  0  0  0
   -0.8804    3.9320    2.0784 H   0  0  0  0  0  0  0  0  0  0  0  0
  5  6  2  0  0  0  0
  5  7  1  0  0  0  0
  2  3  1  0  0  0  0
  2  4  1  0  0  0  0
  2  5  1  0  0  0  0
  1  2  1  0  0  0  0
 29 30  2  0  0  0  0
 29 31  1  0  0  0  0
 26 27  1  0  0  0  0
 26 28  1  0  0  0  0
 23 24  1  0  0  0  0
 23 25  1  0  0  0  0
 22 23  1  0  0  0  0
 22 26  1  0  0  0  0
 20 21  1  0  0  0  0
 20 22  2  0  0  0  0
 17 18  1  0  0  0  0
 17 19  1  0  0  0  0
 17 20  1  0  0  0  0
 14 15  1  0  0  0  0
 14 16  1  0  0  0  0
 14 17  1  0  0  0  0
 11 12  1  0  0  0  0
 11 13  1  0  0  0  0
 11 14  1  0  0  0  0
  9 10  1  0  0  0  0
  9 11  1  0  0  0  0
  9 29  1  0  0  0  0
  7  8  1  0  0  0  0
  7  9  1  0  0  0  0
 33 34  1  0  0  0  0
 33 35  1  0  0  0  0
 33 36  1  0  0  0  0
 31 32  1  0  0  0  0
 31 33  1  0  0  0  0
M  CHG  1  20   1
M  END
$$$$
default_name
  -OEChem-02102213163D

 36 35  0     1  0  0  0  0  0999 V2000
   -4.2256   -3.6731    1.8584 H   0  0  0  0  0  0  0  0  0  0  0  0
   -4.2396   -2.6781    1.4144 C   0  0  0  0  0  0  0  0  0  0  0  0
   -4.9506   -2.0521    1.9514 H   0  0  0  0  0  0  0  0  0  0  0  0
   -4.5266   -2.7521    0.3674 H   0  0  0  0  0  0  0  0  0  0  0  0
   -2.8576   -2.0761    1.5184 C   0  0  0  0  0  0  0  0  0  0  0  0
   -1.9456   -2.7051    2.0404 O   0  0  0  0  0  0  0  0  0  0  0  0
   -2.6926   -0.8481    1.0174 N   0  0  0  0  0  0  0  0  0  0  0  0
   -3.4926   -0.3971    0.5954 H   0  0  0  0  0  0  0  0  0  0  0  0
   -1.4216   -0.1071    1.0434 C   0  0  1  0  0  0  0  0  0  0  0  0
   -0.7579   -0.5878    1.7640 H   0  0  0  0  0  0  0  0  0  0  0  0
   -0.7791   -0.1912   -0.3557 C   0  0  0  0  0  0  0  0  0  0  0  0
   -0.1840    0.7093   -0.5204 H   0  0  0  0  0  0  0  0  0  0  0  0
   -0.1078   -1.0520   -0.3890 H   0  0  0  0  0  0  0  0  0  0  0  0
   -1.8043   -0.3068   -1.4931 C   0  0  0  0  0  0  0  0  0  0  0  0
   -2.4594    0.5655   -1.4895 H   0  0  0  0  0  0  0  0  0  0  0  0
   -1.2796   -0.3595   -2.4477 H   0  0  0  0  0  0  0  0  0  0  0  0
   -2.6517   -1.5727   -1.3061 C   0  0  0  0  0  0  0  0  0  0  0  0
   -1.9855   -2.4382   -1.2842 H   0  0  0  0  0  0  0  0  0  0  0  0
   -3.1723   -1.5041   -0.3480 H   0  0  0  0  0  0  0  0  0  0  0  0
   -3.6383   -1.7376   -2.3933 N   0  3  0  0  0  0  0  0  0  0  0  0
   -3.6772   -1.0066   -3.0828 H   0  0  0  0  0  0  0  0  0  0  0  0
   -4.4721   -2.7530   -2.5447 C   0  0  0  0  0  0  0  0  0  0  0  0
   -4.5055   -3.7530   -1.7092 N   0  0  0  0  0  0  0  0  0  0  0  0
   -3.8754   -3.7508   -0.9265 H   0  0  0  0  0  0  0  0  0  0  0  0
   -5.1447   -4.5156   -1.8384 H   0  0  0  0  0  0  0  0  0  0  0  0
   -5.2997   -2.7830   -3.5505 N   0  0  0  0  0  0  0  0  0  0  0  0
   -5.3109   -2.0344   -4.2216 H   0  0  0  0  0  0  0  0  0  0  0  0
   -5.9305   -3.5552   -3.6616 H   0  0  0  0  0  0  0  0  0  0  0  0
   -1.6547    1.3413    1.4779 C   0  0  0  0  0  0  0  0  0  0  0  0
   -2.5654    1.9858    0.9716 O   0  0  0  0  0  0  0  0  0  0  0  0
   -0.8107    1.8504    2.3808 N   0  0  0  0  0  0  0  0  0  0  0  0
   -0.1136    1.2381    2.7719 H   0  0  0  0  0  0  0  0  0  0  0  0
   -0.8954    3.2155    2.9026 C   0  0  0  0  0  0  0  0  0  0  0  0
   -1.8299    3.3430    3.4532 H   0  0  0  0  0  0  0  0  0  0  0  0
   -0.0581    3.4194    3.5712 H   0  0  0  0  0  0  0  0  0  0  0  0
   -0.8804    3.9320    2.0784 H   0  0  0  0  0  0  0  0  0  0  0  0
  5  6  2  0  0  0  0
  5  7  1  0  0  0  0
  2  3  1  0  0  0  0
  2  4  1  0  0  0  0
  2  5  1  0  0  0  0
  1  2  1  0  0  0  0
 29 30  2  0  0  0  0
 29 31  1  0  0  0  0
 26 27  1  0  0  0  0
 26 28  1  0  0  0  0
 23 24  1  0  0  0  0
 23 25  1  0  0  0  0
 22 23  1  0  0  0  0
 22 26  1  0  0  0  0
 20 21  1  0  0  0  0
 20 22  2  0  0  0  0
 17 18  1  0  0  0  0
 17 19  1  0  0  0  0
 17 20  1  0  0  0  0
 14 15  1  0  0  0  0
 14 16  1  0  0  0  0
 14 17  1  0  0  0  0
 11 12  1  0  0  0  0
 11 13  1  0  0  0  0
 11 14  1  0  0  0  0
  9 10  1  0  0  0  0
  9 11  1  0  0  0  0
  9 29  1  0  0  0  0
  7  8  1  0  0  0  0
  7  9  1  0  0  0  0
 33 34  1  0  0  0  0
 33 35  1  0  0  0  0
 33 36  1  0  0  0  0
 31 32  1  0  0  0  0
 31 33  1  0  0  0  0
M  CHG  1  20   1
M  END
$$$$
default_name
  -OEChem-02102213163D

 36 35  0     1  0  0  0  0  0999 V2000
   -4.2256   -3.6731    1.8584 H   0  0  0  0  0  0  0  0  0  0  0  0
   -4.2396   -2.6781    1.4144 C   0  0  0  0  0  0  0  0  0  0  0  0
   -4.9506   -2.0521    1.9514 H   0  0  0  0  0  0  0  0  0  0  0  0
   -4.5266   -2.7521    0.3674 H   0  0  0  0  0  0  0  0  0  0  0  0
   -2.8576   -2.0761    1.5184 C   0  0  0  0  0  0  0  0  0  0  0  0
   -1.9456   -2.7051    2.0404 O   0  0  0  0  0  0  0  0  0  0  0  0
   -2.6926   -0.8481    1.0174 N   0  0  0  0  0  0  0  0  0  0  0  0
   -3.4926   -0.3971    0.5954 H   0  0  0  0  0  0  0  0  0  0  0  0
   -1.4216   -0.1071    1.0434 C   0  0  1  0  0  0  0  0  0  0  0  0
   -0.7579   -0.5878    1.7640 H   0  0  0  0  0  0  0  0  0  0  0  0
   -0.7791   -0.1912   -0.3557 C   0  0  0  0  0  0  0  0  0  0  0  0
   -0.1840    0.7093   -0.5204 H   0  0  0  0  0  0  0  0  0  0  0  0
   -0.1078   -1.0520   -0.3890 H   0  0  0  0  0  0  0  0  0  0  0  0
   -1.8043   -0.3068   -1.4931 C   0  0  0  0  0  0  0  0  0  0  0  0
   -2.2783    0.6610   -1.6625 H   0  0  0  0  0  0  0  0  0  0  0  0
   -1.2972   -0.6241   -2.4049 H   0  0  0  0  0  0  0  0  0  0  0  0
   -2.8811   -1.3361   -1.1235 C   0  0  0  0  0  0  0  0  0  0  0  0
   -2.3949   -2.2950   -0.9298 H   0  0  0  0  0  0  0  0  0  0  0  0
   -3.3811   -1.0035   -0.2107 H   0  0  0  0  0  0  0  0  0  0  0  0
   -3.8781   -1.4979   -2.2017 N   0  3  0  0  0  0  0  0  0  0  0  0
   -3.7730   -0.9047   -3.0069 H   0  0  0  0  0  0  0  0  0  0  0  0
   -4.8921   -2.3469   -2.2075 C   0  0  0  0  0  0  0  0  0  0  0  0
   -5.1205   -3.1608   -1.2151 N   0  0  0  0  0  0  0  0  0  0  0  0
   -4.5040   -3.1416   -0.4220 H   0  0  0  0  0  0  0  0  0  0  0  0
   -5.8948   -3.7986   -1.2353 H   0  0  0  0  0  0  0  0  0  0  0  0
   -5.7071   -2.3943   -3.2227 N   0  0  0  0  0  0  0  0  0  0  0  0
   -5.5716   -1.7862   -4.0119 H   0  0  0  0  0  0  0  0  0  0  0  0
   -6.4751   -3.0399   -3.2231 H   0  0  0  0  0  0  0  0  0  0  0  0
   -1.6547    1.3413    1.4779 C   0  0  0  0  0  0  0  0  0  0  0  0
   -2.5654    1.9858    0.9716 O   0  0  0  0  0  0  0  0  0  0  0  0
   -0.8107    1.8504    2.3808 N   0  0  0  0  0  0  0  0  0  0  0  0
   -0.1136    1.2381    2.7719 H   0  0  0  0  0  0  0  0  0  0  0  0
   -0.8954    3.2155    2.9026 C   0  0  0  0  0  0  0  0  0  0  0  0
   -1.8299    3.3430    3.4532 H   0  0  0  0  0  0  0  0  0  0  0  0
   -0.0581    3.4194    3.5712 H   0  0  0  0  0  0  0  0  0  0  0  0
   -0.8804    3.9320    2.0784 H   0  0  0  0  0  0  0  0  0  0  0  0
  5  6  2  0  0  0  0
  5  7  1  0  0  0  0
  2  3  1  0  0  0  0
  2  4  1  0  0  0  0
  2  5  1  0  0  0  0
  1  2  1  0  0  0  0
 29 30  2  0  0  0  0
 29 31  1  0  0  0  0
 26 27  1  0  0  0  0
 26 28  1  0  0  0  0
 23 24  1  0  0  0  0
 23 25  1  0  0  0  0
 22 23  1  0  0  0  0
 22 26  1  0  0  0  0
 20 21  1  0  0  0  0
 20 22  2  0  0  0  0
 17 18  1  0  0  0  0
 17 19  1  0  0  0  0
 17 20  1  0  0  0  0
 14 15  1  0  0  0  0
 14 16  1  0  0  0  0
 14 17  1  0  0  0  0
 11 12  1  0  0  0  0
 11 13  1  0  0  0  0
 11 14  1  0  0  0  0
  9 10  1  0  0  0  0
  9 11  1  0  0  0  0
  9 29  1  0  0  0  0
  7  8  1  0  0  0  0
  7  9  1  0  0  0  0
 33 34  1  0  0  0  0
 33 35  1  0  0  0  0
 33 36  1  0  0  0  0
 31 32  1  0  0  0  0
 31 33  1  0  0  0  0
M  CHG  1  20   1
M  END
$$$$
default_name
  -OEChem-02102213163D

 36 35  0     1  0  0  0  0  0999 V2000
   -4.2256   -3.6731    1.8584 H   0  0  0  0  0  0  0  0  0  0  0  0
   -4.2396   -2.6781    1.4144 C   0  0  0  0  0  0  0  0  0  0  0  0
   -4.9506   -2.0521    1.9514 H   0  0  0  0  0  0  0  0  0  0  0  0
   -4.5266   -2.7521    0.3674 H   0  0  0  0  0  0  0  0  0  0  0  0
   -2.8576   -2.0761    1.5184 C   0  0  0  0  0  0  0  0  0  0  0  0
   -1.9456   -2.7051    2.0404 O   0  0  0  0  0  0  0  0  0  0  0  0
   -2.6926   -0.8481    1.0174 N   0  0  0  0  0  0  0  0  0  0  0  0
   -3.4926   -0.3971    0.5954 H   0  0  0  0  0  0  0  0  0  0  0  0
   -1.4216   -0.1071    1.0434 C   0  0  1  0  0  0  0  0  0  0  0  0
   -0.7579   -0.5878    1.7640 H   0  0  0  0  0  0  0  0  0  0  0  0
   -0.7791   -0.1912   -0.3557 C   0  0  0  0  0  0  0  0  0  0  0  0
   -0.1840    0.7093   -0.5204 H   0  0  0  0  0  0  0  0  0  0  0  0
   -0.1078   -1.0520   -0.3890 H   0  0  0  0  0  0  0  0  0  0  0  0
   -1.8043   -0.3068   -1.4931 C   0  0  0  0  0  0  0  0  0  0  0  0
   -2.0817    0.6887   -1.8425 H   0  0  0  0  0  0  0  0  0  0  0  0
   -1.3657   -0.8690   -2.3182 H   0  0  0  0  0  0  0  0  0  0  0  0
   -3.0608   -1.0320   -0.9924 C   0  0  0  0  0  0  0  0  0  0  0  0
   -2.7698   -2.0170   -0.6202 H   0  0  0  0  0  0  0  0  0  0  0  0
   -3.4894   -0.4563   -0.1687 H   0  0  0  0  0  0  0  0  0  0  0  0
   -4.0674   -1.1873   -2.0626 N   0  3  0  0  0  0  0  0  0  0  0  0
   -3.8474   -0.7749   -2.9530 H   0  0  0  0  0  0  0  0  0  0  0  0
   -5.2265   -1.8159   -1.9601 C   0  0  0  0  0  0  0  0  0  0  0  0
   -5.6106   -2.3854   -0.8522 N   0  0  0  0  0  0  0  0  0  0  0  0
   -5.0041   -2.3455   -0.0522 H   0  0  0  0  0  0  0  0  0  0  0  0
   -6.4936   -2.8581   -0.7913 H   0  0  0  0  0  0  0  0  0  0  0  0
   -6.0326   -1.8842   -2.9813 N   0  0  0  0  0  0  0  0  0  0  0  0
   -5.7799   -1.4603   -3.8573 H   0  0  0  0  0  0  0  0  0  0  0  0
   -6.9110   -2.3621   -2.8992 H   0  0  0  0  0  0  0  0  0  0  0  0
   -1.6547    1.3413    1.4779 C   0  0  0  0  0  0  0  0  0  0  0  0
   -2.5654    1.9858    0.9716 O   0  0  0  0  0  0  0  0  0  0  0  0
   -0.8107    1.8504    2.3808 N   0  0  0  0  0  0  0  0  0  0  0  0
   -0.1136    1.2381    2.7719 H   0  0  0  0  0  0  0  0  0  0  0  0
   -0.8954    3.2155    2.9026 C   0  0  0  0  0  0  0  0  0  0  0  0
   -1.8299    3.3430    3.4532 H   0  0  0  0  0  0  0  0  0  0  0  0
   -0.0581    3.4194    3.5712 H   0  0  0  0  0  0  0  0  0  0  0  0
   -0.8804    3.9320    2.0784 H   0  0  0  0  0  0  0  0  0  0  0  0
  5  6  2  0  0  0  0
  5  7  1  0  0  0  0
  2  3  1  0  0  0  0
  2  4  1  0  0  0  0
  2  5  1  0  0  0  0
  1  2  1  0  0  0  0
 29 30  2  0  0  0  0
 29 31  1  0  0  0  0
 26 27  1  0  0  0  0
 26 28  1  0  0  0  0
 23 24  1  0  0  0  0
 23 25  1  0  0  0  0
 22 23  1  0  0  0  0
 22 26  1  0  0  0  0
 20 21  1  0  0  0  0
 20 22  2  0  0  0  0
 17 18  1  0  0  0  0
 17 19  1  0  0  0  0
 17 20  1  0  0  0  0
 14 15  1  0  0  0  0
 14 16  1  0  0  0  0
 14 17  1  0  0  0  0
 11 12  1  0  0  0  0
 11 13  1  0  0  0  0
 11 14  1  0  0  0  0
  9 10  1  0  0  0  0
  9 11  1  0  0  0  0
  9 29  1  0  0  0  0
  7  8  1  0  0  0  0
  7  9  1  0  0  0  0
 33 34  1  0  0  0  0
 33 35  1  0  0  0  0
 33 36  1  0  0  0  0
 31 32  1  0  0  0  0
 31 33  1  0  0  0  0
M  CHG  1  20   1
M  END
$$$$
default_name
  -OEChem-02102213163D

 36 35  0     1  0  0  0  0  0999 V2000
   -4.2256   -3.6731    1.8584 H   0  0  0  0  0  0  0  0  0  0  0  0
   -4.2396   -2.6781    1.4144 C   0  0  0  0  0  0  0  0  0  0  0  0
   -4.9506   -2.0521    1.9514 H   0  0  0  0  0  0  0  0  0  0  0  0
   -4.5266   -2.7521    0.3674 H   0  0  0  0  0  0  0  0  0  0  0  0
   -2.8576   -2.0761    1.5184 C   0  0  0  0  0  0  0  0  0  0  0  0
   -1.9456   -2.7051    2.0404 O   0  0  0  0  0  0  0  0  0  0  0  0
   -2.6926   -0.8481    1.0174 N   0  0  0  0  0  0  0  0  0  0  0  0
   -3.4926   -0.3971    0.5954 H   0  0  0  0  0  0  0  0  0  0  0  0
   -1.4216   -0.1071    1.0434 C   0  0  1  0  0  0  0  0  0  0  0  0
   -0.7579   -0.5878    1.7640 H   0  0  0  0  0  0  0  0  0  0  0  0
   -0.7791   -0.1912   -0.3557 C   0  0  0  0  0  0  0  0  0  0  0  0
   -0.1840    0.7093   -0.5204 H   0  0  0  0  0  0  0  0  0  0  0  0
   -0.1078   -1.0520   -0.3890 H   0  0  0  0  0  0  0  0  0  0  0  0
   -1.8043   -0.3068   -1.4931 C   0  0  0  0  0  0  0  0  0  0  0  0
   -1.8830    0.6467   -2.0173 H   0  0  0  0  0  0  0  0  0  0  0  0
   -1.4806   -1.0774   -2.1936 H   0  0  0  0  0  0  0  0  0  0  0  0
   -3.1787   -0.6813   -0.9218 C   0  0  0  0  0  0  0  0  0  0  0  0
   -3.0847   -1.6231   -0.3764 H   0  0  0  0  0  0  0  0  0  0  0  0
   -3.4900    0.1003   -0.2247 H   0  0  0  0  0  0  0  0  0  0  0  0
   -4.1935   -0.8270   -1.9856 N   0  3  0  0  0  0  0  0  0  0  0  0
   -3.8955   -0.6258   -2.9248 H   0  0  0  0  0  0  0  0  0  0  0  0
   -5.4525   -1.1961   -1.8194 C   0  0  0  0  0  0  0  0  0  0  0  0
   -5.9424   -1.4799   -0.6453 N   0  0  0  0  0  0  0  0  0  0  0  0
   -5.3418   -1.4168    0.1577 H   0  0  0  0  0  0  0  0  0  0  0  0
   -6.9004   -1.7581   -0.5365 H   0  0  0  0  0  0  0  0  0  0  0  0
   -6.2539   -1.2873   -2.8425 N   0  0  0  0  0  0  0  0  0  0  0  0
   -5.9217   -1.0788   -3.7683 H   0  0  0  0  0  0  0  0  0  0  0  0
   -7.2083   -1.5678   -2.7120 H   0  0  0  0  0  0  0  0  0  0  0  0
   -1.6547    1.3413    1.4779 C   0  0  0  0  0  0  0  0  0  0  0  0
   -2.5654    1.9858    0.9716 O   0  0  0  0  0  0  0  0  0  0  0  0
   -0.8107    1.8504    2.3808 N   0  0  0  0  0  0  0  0  0  0  0  0
   -0.1136    1.2381    2.7719 H   0  0  0  0  0  0  0  0  0  0  0  0
   -0.8954    3.2155    2.9026 C   0  0  0  0  0  0  0  0  0  0  0  0
   -1.8299    3.3430    3.4532 H   0  0  0  0  0  0  0  0  0  0  0  0
   -0.0581    3.4194    3.5712 H   0  0  0  0  0  0  0  0  0  0  0  0
   -0.8804    3.9320    2.0784 H   0  0  0  0  0  0  0  0  0  0  0  0
  5  6  2  0  0  0  0
  5  7  1  0  0  0  0
  2  3  1  0  0  0  0
  2  4  1  0  0  0  0
  2  5  1  0  0  0  0
  1  2  1  0  0  0  0
 29 30  2  0  0  0  0
 29 31  1  0  0  0  0
 26 27  1  0  0  0  0
 26 28  1  0  0  0  0
 23 24  1  0  0  0  0
 23 25  1  0  0  0  0
 22 23  1  0  0  0  0
 22 26  1  0  0  0  0
 20 21  1  0  0  0  0
 20 22  2  0  0  0  0
 17 18  1  0  0  0  0
 17 19  1  0  0  0  0
 17 20  1  0  0  0  0
 14 15  1  0  0  0  0
 14 16  1  0  0  0  0
 14 17  1  0  0  0  0
 11 12  1  0  0  0  0
 11 13  1  0  0  0  0
 11 14  1  0  0  0  0
  9 10  1  0  0  0  0
  9 11  1  0  0  0  0
  9 29  1  0  0  0  0
  7  8  1  0  0  0  0
  7  9  1  0  0  0  0
 33 34  1  0  0  0  0
 33 35  1  0  0  0  0
 33 36  1  0  0  0  0
 31 32  1  0  0  0  0
 31 33  1  0  0  0  0
M  CHG  1  20   1
M  END
$$$$
default_name
  -OEChem-02102213163D

 36 35  0     1  0  0  0  0  0999 V2000
   -4.2256   -3.6731    1.8584 H   0  0  0  0  0  0  0  0  0  0  0  0
   -4.2396   -2.6781    1.4144 C   0  0  0  0  0  0  0  0  0  0  0  0
   -4.9506   -2.0521    1.9514 H   0  0  0  0  0  0  0  0  0  0  0  0
   -4.5266   -2.7521    0.3674 H   0  0  0  0  0  0  0  0  0  0  0  0
   -2.8576   -2.0761    1.5184 C   0  0  0  0  0  0  0  0  0  0  0  0
   -1.9456   -2.7051    2.0404 O   0  0  0  0  0  0  0  0  0  0  0  0
   -2.6926   -0.8481    1.0174 N   0  0  0  0  0  0  0  0  0  0  0  0
   -3.4926   -0.3971    0.5954 H   0  0  0  0  0  0  0  0  0  0  0  0
   -1.4216   -0.1071    1.0434 C   0  0  1  0  0  0  0  0  0  0  0  0
   -0.7579   -0.5878    1.7640 H   0  0  0  0  0  0  0  0  0  0  0  0
   -0.7791   -0.1912   -0.3557 C   0  0  0  0  0  0  0  0  0  0  0  0
   -0.1840    0.7093   -0.5204 H   0  0  0  0  0  0  0  0  0  0  0  0
   -0.1078   -1.0520   -0.3890 H   0  0  0  0  0  0  0  0  0  0  0  0
   -1.8043   -0.3068   -1.4931 C   0  0  0  0  0  0  0  0  0  0  0  0
   -1.6957    0.5377   -2.1750 H   0  0  0  0  0  0  0  0  0  0  0  0
   -1.6339   -1.2351   -2.0394 H   0  0  0  0  0  0  0  0  0  0  0  0
   -3.2266   -0.3076   -0.9166 C   0  0  0  0  0  0  0  0  0  0  0  0
   -3.3181   -1.1402   -0.2152 H   0  0  0  0  0  0  0  0  0  0  0  0
   -3.3828    0.6283   -0.3751 H   0  0  0  0  0  0  0  0  0  0  0  0
   -4.2477   -0.4414   -1.9760 N   0  3  0  0  0  0  0  0  0  0  0  0
   -3.9139   -0.4678   -2.9243 H   0  0  0  0  0  0  0  0  0  0  0  0
   -5.5547   -0.5298   -1.7951 C   0  0  0  0  0  0  0  0  0  0  0  0
   -6.0934   -0.5058   -0.6082 N   0  0  0  0  0  0  0  0  0  0  0  0
   -5.4941   -0.4186    0.1934 H   0  0  0  0  0  0  0  0  0  0  0  0
   -7.0874   -0.5735   -0.4885 H   0  0  0  0  0  0  0  0  0  0  0  0
   -6.3560   -0.6444   -2.8160 N   0  0  0  0  0  0  0  0  0  0  0  0
   -5.9872   -0.6678   -3.7511 H   0  0  0  0  0  0  0  0  0  0  0  0
   -7.3469   -0.7112   -2.6742 H   0  0  0  0  0  0  0  0  0  0  0  0
   -1.6547    1.3413    1.4779 C   0  0  0  0  0  0  0  0  0  0  0  0
   -2.5654    1.9858    0.9716 O   0  0  0  0  0  0  0  0  0  0  0  0
   -0.8107    1.8504    2.3808 N   0  0  0  0  0  0  0  0  0  0  0  0
   -0.1136    1.2381    2.7719 H   0  0  0  0  0  0  0  0  0  0  0  0
   -0.8954    3.2155    2.9026 C   0  0  0  0  0  0  0  0  0  0  0  0
   -1.8299    3.3430    3.4532 H   0  0  0  0  0  0  0  0  0  0  0  0
   -0.0581    3.4194    3.5712 H   0  0  0  0  0  0  0  0  0  0  0  0
   -0.8804    3.9320    2.0784 H   0  0  0  0  0  0  0  0  0  0  0  0
  5  6  2  0  0  0  0
  5  7  1  0  0  0  0
  2  3  1  0  0  0  0
  2  4  1  0  0  0  0
  2  5  1  0  0  0  0
  1  2  1  0  0  0  0
 29 30  2  0  0  0  0
 29 31  1  0  0  0  0
 26 27  1  0  0  0  0
 26 28  1  0  0  0  0
 23 24  1  0  0  0  0
 23 25  1  0  0  0  0
 22 23  1  0  0  0  0
 22 26  1  0  0  0  0
 20 21  1  0  0  0  0
 20 22  2  0  0  0  0
 17 18  1  0  0  0  0
 17 19  1  0  0  0  0
 17 20  1  0  0  0  0
 14 15  1  0  0  0  0
 14 16  1  0  0  0  0
 14 17  1  0  0  0  0
 11 12  1  0  0  0  0
 11 13  1  0  0  0  0
 11 14  1  0  0  0  0
  9 10  1  0  0  0  0
  9 11  1  0  0  0  0
  9 29  1  0  0  0  0
  7  8  1  0  0  0  0
  7  9  1  0  0  0  0
 33 34  1  0  0  0  0
 33 35  1  0  0  0  0
 33 36  1  0  0  0  0
 31 32  1  0  0  0  0
 31 33  1  0  0  0  0
M  CHG  1  20   1
M  END
$$$$
default_name
  -OEChem-02102213163D

 36 35  0     1  0  0  0  0  0999 V2000
   -4.2256   -3.6731    1.8584 H   0  0  0  0  0  0  0  0  0  0  0  0
   -4.2396   -2.6781    1.4144 C   0  0  0  0  0  0  0  0  0  0  0  0
   -4.9506   -2.0521    1.9514 H   0  0  0  0  0  0  0  0  0  0  0  0
   -4.5266   -2.7521    0.3674 H   0  0  0  0  0  0  0  0  0  0  0  0
   -2.8576   -2.0761    1.5184 C   0  0  0  0  0  0  0  0  0  0  0  0
   -1.9456   -2.7051    2.0404 O   0  0  0  0  0  0  0  0  0  0  0  0
   -2.6926   -0.8481    1.0174 N   0  0  0  0  0  0  0  0  0  0  0  0
   -3.4926   -0.3971    0.5954 H   0  0  0  0  0  0  0  0  0  0  0  0
   -1.4216   -0.1071    1.0434 C   0  0  1  0  0  0  0  0  0  0  0  0
   -0.7579   -0.5878    1.7640 H   0  0  0  0  0  0  0  0  0  0  0  0
   -0.7791   -0.1912   -0.3557 C   0  0  0  0  0  0  0  0  0  0  0  0
   -0.1840    0.7093   -0.5204 H   0  0  0  0  0  0  0  0  0  0  0  0
   -0.1078   -1.0520   -0.3890 H   0  0  0  0  0  0  0  0  0  0  0  0
   -1.8043   -0.3068   -1.4931 C   0  0  0  0  0  0  0  0  0  0  0  0
   -1.5325    0.3694   -2.3049 H   0  0  0  0  0  0  0  0  0  0  0  0
   -1.8152   -1.3315   -1.8661 H   0  0  0  0  0  0  0  0  0  0  0  0
   -3.2015    0.0633   -0.9770 C   0  0  0  0  0  0  0  0  0  0  0  0
   -3.4541   -0.6011   -0.1475 H   0  0  0  0  0  0  0  0  0  0  0  0
   -3.1751    1.0919   -0.6095 H   0  0  0  0  0  0  0  0  0  0  0  0
   -4.2263   -0.0570   -2.0344 N   0  3  0  0  0  0  0  0  0  0  0  0
   -3.9014   -0.3115   -2.9515 H   0  0  0  0  0  0  0  0  0  0  0  0
   -5.5262    0.1376   -1.8886 C   0  0  0  0  0  0  0  0  0  0  0  0
   -6.0532    0.4705   -0.7438 N   0  0  0  0  0  0  0  0  0  0  0  0
   -5.4505    0.5808    0.0524 H   0  0  0  0  0  0  0  0  0  0  0  0
   -7.0418    0.6148   -0.6504 H   0  0  0  0  0  0  0  0  0  0  0  0
   -6.3318    0.0008   -2.9034 N   0  0  0  0  0  0  0  0  0  0  0  0
   -5.9720   -0.2552   -3.8067 H   0  0  0  0  0  0  0  0  0  0  0  0
   -7.3173    0.1493   -2.7884 H   0  0  0  0  0  0  0  0  0  0  0  0
   -1.6547    1.3413    1.4779 C   0  0  0  0  0  0  0  0  0  0  0  0
   -2.5654    1.9858    0.9716 O   0  0  0  0  0  0  0  0  0  0  0  0
   -0.8107    1.8504    2.3808 N   0  0  0  0  0  0  0  0  0  0  0  0
   -0.1136    1.2381    2.7719 H   0  0  0  0  0  0  0  0  0  0  0  0
   -0.8954    3.2155    2.9026 C   0  0  0  0  0  0  0  0  0  0  0  0
   -1.8299    3.3430    3.4532 H   0  0  0  0  0  0  0  0  0  0  0  0
   -0.0581    3.4194    3.5712 H   0  0  0  0  0  0  0  0  0  0  0  0
   -0.8804    3.9320    2.0784 H   0  0  0  0  0  0  0  0  0  0  0  0
  5  6  2  0  0  0  0
  5  7  1  0  0  0  0
  2  3  1  0  0  0  0
  2  4  1  0  0  0  0
  2  5  1  0  0  0  0
  1  2  1  0  0  0  0
 29 30  2  0  0  0  0
 29 31  1  0  0  0  0
 26 27  1  0  0  0  0
 26 28  1  0  0  0  0
 23 24  1  0  0  0  0
 23 25  1  0  0  0  0
 22 23  1  0  0  0  0
 22 26  1  0  0  0  0
 20 21  1  0  0  0  0
 20 22  2  0  0  0  0
 17 18  1  0  0  0  0
 17 19  1  0  0  0  0
 17 20  1  0  0  0  0
 14 15  1  0  0  0  0
 14 16  1  0  0  0  0
 14 17  1  0  0  0  0
 11 12  1  0  0  0  0
 11 13  1  0  0  0  0
 11 14  1  0  0  0  0
  9 10  1  0  0  0  0
  9 11  1  0  0  0  0
  9 29  1  0  0  0  0
  7  8  1  0  0  0  0
  7  9  1  0  0  0  0
 33 34  1  0  0  0  0
 33 35  1  0  0  0  0
 33 36  1  0  0  0  0
 31 32  1  0  0  0  0
 31 33  1  0  0  0  0
M  CHG  1  20   1
M  END
$$$$
default_name
  -OEChem-02102213163D

 36 35  0     1  0  0  0  0  0999 V2000
   -4.2256   -3.6731    1.8584 H   0  0  0  0  0  0  0  0  0  0  0  0
   -4.2396   -2.6781    1.4144 C   0  0  0  0  0  0  0  0  0  0  0  0
   -4.9506   -2.0521    1.9514 H   0  0  0  0  0  0  0  0  0  0  0  0
   -4.5266   -2.7521    0.3674 H   0  0  0  0  0  0  0  0  0  0  0  0
   -2.8576   -2.0761    1.5184 C   0  0  0  0  0  0  0  0  0  0  0  0
   -1.9456   -2.7051    2.0404 O   0  0  0  0  0  0  0  0  0  0  0  0
   -2.6926   -0.8481    1.0174 N   0  0  0  0  0  0  0  0  0  0  0  0
   -3.4926   -0.3971    0.5954 H   0  0  0  0  0  0  0  0  0  0  0  0
   -1.4216   -0.1071    1.0434 C   0  0  1  0  0  0  0  0  0  0  0  0
   -0.7579   -0.5878    1.7640 H   0  0  0  0  0  0  0  0  0  0  0  0
   -0.7791   -0.1912   -0.3557 C   0  0  0  0  0  0  0  0  0  0  0  0
   -0.1840    0.7093   -0.5204 H   0  0  0  0  0  0  0  0  0  0  0  0
   -0.1078   -1.0520   -0.3890 H   0  0  0  0  0  0  0  0  0  0  0  0
   -1.8043   -0.3068   -1.4931 C   0  0  0  0  0  0  0  0  0  0  0  0
   -1.4047    0.1530   -2.3981 H   0  0  0  0  0  0  0  0  0  0  0  0
   -2.0122   -1.3598   -1.6857 H   0  0  0  0  0  0  0  0  0  0  0  0
   -3.1048    0.4064   -1.0990 C   0  0  0  0  0  0  0  0  0  0  0  0
   -3.4834   -0.0426   -0.1779 H   0  0  0  0  0  0  0  0  0  0  0  0
   -2.8810    1.4593   -0.9119 H   0  0  0  0  0  0  0  0  0  0  0  0
   -4.1308    0.3002   -2.1568 N   0  3  0  0  0  0  0  0  0  0  0  0
   -3.8588   -0.1676   -3.0045 H   0  0  0  0  0  0  0  0  0  0  0  0
   -5.3689    0.7606   -2.0938 C   0  0  0  0  0  0  0  0  0  0  0  0
   -5.8246    1.3824   -1.0425 N   0  0  0  0  0  0  0  0  0  0  0  0
   -5.2140    1.5135   -0.2555 H   0  0  0  0  0  0  0  0  0  0  0  0
   -6.7669    1.7259   -1.0112 H   0  0  0  0  0  0  0  0  0  0  0  0
   -6.1830    0.6043   -3.0988 N   0  0  0  0  0  0  0  0  0  0  0  0
   -5.8772    0.1308   -3.9314 H   0  0  0  0  0  0  0  0  0  0  0  0
   -7.1215    0.9550   -3.0468 H   0  0  0  0  0  0  0  0  0  0  0  0
   -1.6547    1.3413    1.4779 C   0  0  0  0  0  0  0  0  0  0  0  0
   -2.5654    1.9858    0.9716 O   0  0  0  0  0  0  0  0  0  0  0  0
   -0.8107    1.8504    2.3808 N   0  0  0  0  0  0  0  0  0  0  0  0
   -0.1136    1.2381    2.7719 H   0  0  0  0  0  0  0  0  0  0  0  0
   -0.8954    3.2155    2.9026 C   0  0  0  0  0  0  0  0  0  0  0  0
   -1.8299    3.3430    3.4532 H   0  0  0  0  0  0  0  0  0  0  0  0
   -0.0581    3.4194    3.5712 H   0  0  0  0  0  0  0  0  0  0  0  0
   -0.8804    3.9320    2.0784 H   0  0  0  0  0  0  0  0  0  0  0  0
  5  6  2  0  0  0  0
  5  7  1  0  0  0  0
  2  3  1  0  0  0  0
  2  4  1  0  0  0  0
  2  5  1  0  0  0  0
  1  2  1  0  0  0  0
 29 30  2  0  0  0  0
 29 31  1  0  0  0  0
 26 27  1  0  0  0  0
 26 28  1  0  0  0  0
 23 24  1  0  0  0  0
 23 25  1  0  0  0  0
 22 23  1  0  0  0  0
 22 26  1  0  0  0  0
 20 21  1  0  0  0  0
 20 22  2  0  0  0  0
 17 18  1  0  0  0  0
 17 19  1  0  0  0  0
 17 20  1  0  0  0  0
 14 15  1  0  0  0  0
 14 16  1  0  0  0  0
 14 17  1  0  0  0  0
 11 12  1  0  0  0  0
 11 13  1  0  0  0  0
 11 14  1  0  0  0  0
  9 10  1  0  0  0  0
  9 11  1  0  0  0  0
  9 29  1  0  0  0  0
  7  8  1  0  0  0  0
  7  9  1  0  0  0  0
 33 34  1  0  0  0  0
 33 35  1  0  0  0  0
 33 36  1  0  0  0  0
 31 32  1  0  0  0  0
 31 33  1  0  0  0  0
M  CHG  1  20   1
M  END
$$$$
default_name
  -OEChem-02102213163D

 36 35  0     1  0  0  0  0  0999 V2000
   -4.2256   -3.6731    1.8584 H   0  0  0  0  0  0  0  0  0  0  0  0
   -4.2396   -2.6781    1.4144 C   0  0  0  0  0  0  0  0  0  0  0  0
   -4.9506   -2.0521    1.9514 H   0  0  0  0  0  0  0  0  0  0  0  0
   -4.5266   -2.7521    0.3674 H   0  0  0  0  0  0  0  0  0  0  0  0
   -2.8576   -2.0761    1.5184 C   0  0  0  0  0  0  0  0  0  0  0  0
   -1.9456   -2.7051    2.0404 O   0  0  0  0  0  0  0  0  0  0  0  0
   -2.6926   -0.8481    1.0174 N   0  0  0  0  0  0  0  0  0  0  0  0
   -3.4926   -0.3971    0.5954 H   0  0  0  0  0  0  0  0  0  0  0  0
   -1.4216   -0.1071    1.0434 C   0  0  1  0  0  0  0  0  0  0  0  0
   -0.7579   -0.5878    1.7640 H   0  0  0  0  0  0  0  0  0  0  0  0
   -0.7791   -0.1912   -0.3557 C   0  0  0  0  0  0  0  0  0  0  0  0
   -0.1840    0.7093   -0.5204 H   0  0  0  0  0  0  0  0  0  0  0  0
   -0.1078   -1.0520   -0.3890 H   0  0  0  0  0  0  0  0  0  0  0  0
   -1.8043   -0.3068   -1.4931 C   0  0  0  0  0  0  0  0  0  0  0  0
   -1.3209   -0.0965   -2.4482 H   0  0  0  0  0  0  0  0  0  0  0  0
   -2.2114   -1.3183   -1.5104 H   0  0  0  0  0  0  0  0  0  0  0  0
   -2.9433    0.6982   -1.2742 C   0  0  0  0  0  0  0  0  0  0  0  0
   -3.4040    0.4972   -0.3043 H   0  0  0  0  0  0  0  0  0  0  0  0
   -2.5205    1.7056   -1.2617 H   0  0  0  0  0  0  0  0  0  0  0  0
   -3.9676    0.6057   -2.3349 N   0  3  0  0  0  0  0  0  0  0  0  0
   -3.7891   -0.0460   -3.0797 H   0  0  0  0  0  0  0  0  0  0  0  0
   -5.0935    1.2968   -2.3965 C   0  0  0  0  0  0  0  0  0  0  0  0
   -5.4231    2.1677   -1.4842 N   0  0  0  0  0  0  0  0  0  0  0  0
   -4.8008    2.3159   -0.7095 H   0  0  0  0  0  0  0  0  0  0  0  0
   -6.2812    2.6841   -1.5463 H   0  0  0  0  0  0  0  0  0  0  0  0
   -5.9198    1.1249   -3.3890 N   0  0  0  0  0  0  0  0  0  0  0  0
   -5.7092    0.4639   -4.1167 H   0  0  0  0  0  0  0  0  0  0  0  0
   -6.7729    1.6512   -3.4318 H   0  0  0  0  0  0  0  0  0  0  0  0
   -1.6547    1.3413    1.4779 C   0  0  0  0  0  0  0  0  0  0  0  0
   -2.5654    1.9858    0.9716 O   0  0  0  0  0  0  0  0  0  0  0  0
   -0.8107    1.8504    2.3808 N   0  0  0  0  0  0  0  0  0  0  0  0
   -0.1136    1.2381    2.7719 H   0  0  0  0  0  0  0  0  0  0  0  0
   -0.8954    3.2155    2.9026 C   0  0  0  0  0  0  0  0  0  0  0  0
   -1.8299    3.3430    3.4532 H   0  0  0  0  0  0  0  0  0  0  0  0
   -0.0581    3.4194    3.5712 H   0  0  0  0  0  0  0  0  0  0  0  0
   -0.8804    3.9320    2.0784 H   0  0  0  0  0  0  0  0  0  0  0  0
  5  6  2  0  0  0  0
  5  7  1  0  0  0  0
  2  3  1  0  0  0  0
  2  4  1  0  0  0  0
  2  5  1  0  0  0  0
  1  2  1  0  0  0  0
 29 30  2  0  0  0  0
 29 31  1  0  0  0  0
 26 27  1  0  0  0  0
 26 28  1  0  0  0  0
 23 24  1  0  0  0  0
 23 25  1  0  0  0  0
 22 23  1  0  0  0  0
 22 26  1  0  0  0  0
 20 21  1  0  0  0  0
 20 22  2  0  0  0  0
 17 18  1  0  0  0  0
 17 19  1  0  0  0  0
 17 20  1  0  0  0  0
 14 15  1  0  0  0  0
 14 16  1  0  0  0  0
 14 17  1  0  0  0  0
 11 12  1  0  0  0  0
 11 13  1  0  0  0  0
 11 14  1  0  0  0  0
  9 10  1  0  0  0  0
  9 11  1  0  0  0  0
  9 29  1  0  0  0  0
  7  8  1  0  0  0  0
  7  9  1  0  0  0  0
 33 34  1  0  0  0  0
 33 35  1  0  0  0  0
 33 36  1  0  0  0  0
 31 32  1  0  0  0  0
 31 33  1  0  0  0  0
M  CHG  1  20   1
M  END
$$$$
default_name
  -OEChem-02102213163D

 36 35  0     1  0  0  0  0  0999 V2000
   -4.2256   -3.6731    1.8584 H   0  0  0  0  0  0  0  0  0  0  0  0
   -4.2396   -2.6781    1.4144 C   0  0  0  0  0  0  0  0  0  0  0  0
   -4.9506   -2.0521    1.9514 H   0  0  0  0  0  0  0  0  0  0  0  0
   -4.5266   -2.7521    0.3674 H   0  0  0  0  0  0  0  0  0  0  0  0
   -2.8576   -2.0761    1.5184 C   0  0  0  0  0  0  0  0  0  0  0  0
   -1.9456   -2.7051    2.0404 O   0  0  0  0  0  0  0  0  0  0  0  0
   -2.6926   -0.8481    1.0174 N   0  0  0  0  0  0  0  0  0  0  0  0
   -3.4926   -0.3971    0.5954 H   0  0  0  0  0  0  0  0  0  0  0  0
   -1.4216   -0.1071    1.0434 C   0  0  1  0  0  0  0  0  0  0  0  0
   -0.7579   -0.5878    1.7640 H   0  0  0  0  0  0  0  0  0  0  0  0
   -0.7791   -0.1912   -0.3557 C   0  0  0  0  0  0  0  0  0  0  0  0
   -0.1840    0.7093   -0.5204 H   0  0  0  0  0  0  0  0  0  0  0  0
   -0.1078   -1.0520   -0.3890 H   0  0  0  0  0  0  0  0  0  0  0  0
   -1.8043   -0.3068   -1.4931 C   0  0  0  0  0  0  0  0  0  0  0  0
   -1.2869   -0.3623   -2.4519 H   0  0  0  0  0  0  0  0  0  0  0  0
   -2.3994   -1.2097   -1.3521 H   0  0  0  0  0  0  0  0  0  0  0  0
   -2.7280    0.9188   -1.4907 C   0  0  0  0  0  0  0  0  0  0  0  0
   -3.2214    0.9816   -0.5181 H   0  0  0  0  0  0  0  0  0  0  0  0
   -2.1184    1.8139   -1.6352 H   0  0  0  0  0  0  0  0  0  0  0  0
   -3.7480    0.8388   -2.5565 N   0  3  0  0  0  0  0  0  0  0  0  0
   -3.6969    0.0452   -3.1720 H   0  0  0  0  0  0  0  0  0  0  0  0
   -4.7188    1.7097   -2.7762 C   0  0  0  0  0  0  0  0  0  0  0  0
   -4.8761    2.7730   -2.0387 N   0  0  0  0  0  0  0  0  0  0  0  0
   -4.2389    2.9332   -1.2787 H   0  0  0  0  0  0  0  0  0  0  0  0
   -5.6180    3.4241   -2.2193 H   0  0  0  0  0  0  0  0  0  0  0  0
   -5.5601    1.5272   -3.7540 N   0  0  0  0  0  0  0  0  0  0  0  0
   -5.4794    0.7214   -4.3500 H   0  0  0  0  0  0  0  0  0  0  0  0
   -6.2952    2.1902   -3.9171 H   0  0  0  0  0  0  0  0  0  0  0  0
   -1.6547    1.3413    1.4779 C   0  0  0  0  0  0  0  0  0  0  0  0
   -2.5654    1.9858    0.9716 O   0  0  0  0  0  0  0  0  0  0  0  0
   -0.8107    1.8504    2.3808 N   0  0  0  0  0  0  0  0  0  0  0  0
   -0.1136    1.2381    2.7719 H   0  0  0  0  0  0  0  0  0  0  0  0
   -0.8954    3.2155    2.9026 C   0  0  0  0  0  0  0  0  0  0  0  0
   -1.8299    3.3430    3.4532 H   0  0  0  0  0  0  0  0  0  0  0  0
   -0.0581    3.4194    3.5712 H   0  0  0  0  0  0  0  0  0  0  0  0
   -0.8804    3.9320    2.0784 H   0  0  0  0  0  0  0  0  0  0  0  0
  5  6  2  0  0  0  0
  5  7  1  0  0  0  0
  2  3  1  0  0  0  0
  2  4  1  0  0  0  0
  2  5  1  0  0  0  0
  1  2  1  0  0  0  0
 29 30  2  0  0  0  0
 29 31  1  0  0  0  0
 26 27  1  0  0  0  0
 26 28  1  0  0  0  0
 23 24  1  0  0  0  0
 23 25  1  0  0  0  0
 22 23  1  0  0  0  0
 22 26  1  0  0  0  0
 20 21  1  0  0  0  0
 20 22  2  0  0  0  0
 17 18  1  0  0  0  0
 17 19  1  0  0  0  0
 17 20  1  0  0  0  0
 14 15  1  0  0  0  0
 14 16  1  0  0  0  0
 14 17  1  0  0  0  0
 11 12  1  0  0  0  0
 11 13  1  0  0  0  0
 11 14  1  0  0  0  0
  9 10  1  0  0  0  0
  9 11  1  0  0  0  0
  9 29  1  0  0  0  0
  7  8  1  0  0  0  0
  7  9  1  0  0  0  0
 33 34  1  0  0  0  0
 33 35  1  0  0  0  0
 33 36  1  0  0  0  0
 31 32  1  0  0  0  0
 31 33  1  0  0  0  0
M  CHG  1  20   1
M  END
$$$$
default_name
  -OEChem-02102213163D

 36 35  0     1  0  0  0  0  0999 V2000
   -4.2256   -3.6731    1.8584 H   0  0  0  0  0  0  0  0  0  0  0  0
   -4.2396   -2.6781    1.4144 C   0  0  0  0  0  0  0  0  0  0  0  0
   -4.9506   -2.0521    1.9514 H   0  0  0  0  0  0  0  0  0  0  0  0
   -4.5266   -2.7521    0.3674 H   0  0  0  0  0  0  0  0  0  0  0  0
   -2.8576   -2.0761    1.5184 C   0  0  0  0  0  0  0  0  0  0  0  0
   -1.9456   -2.7051    2.0404 O   0  0  0  0  0  0  0  0  0  0  0  0
   -2.6926   -0.8481    1.0174 N   0  0  0  0  0  0  0  0  0  0  0  0
   -3.4926   -0.3971    0.5954 H   0  0  0  0  0  0  0  0  0  0  0  0
   -1.4216   -0.1071    1.0434 C   0  0  1  0  0  0  0  0  0  0  0  0
   -0.7579   -0.5878    1.7640 H   0  0  0  0  0  0  0  0  0  0  0  0
   -0.7791   -0.1912   -0.3557 C   0  0  0  0  0  0  0  0  0  0  0  0
   -0.1840    0.7093   -0.5204 H   0  0  0  0  0  0  0  0  0  0  0  0
   -0.1078   -1.0520   -0.3890 H   0  0  0  0  0  0  0  0  0  0  0  0
   -1.8043   -0.3068   -1.4931 C   0  0  0  0  0  0  0  0  0  0  0  0
   -1.3048   -0.6262   -2.4089 H   0  0  0  0  0  0  0  0  0  0  0  0
   -2.5631   -1.0414   -1.2216 H   0  0  0  0  0  0  0  0  0  0  0  0
   -2.4735    1.0532   -1.7338 C   0  0  0  0  0  0  0  0  0  0  0  0
   -2.9480    1.3775   -0.8048 H   0  0  0  0  0  0  0  0  0  0  0  0
   -1.7019    1.7769   -2.0068 H   0  0  0  0  0  0  0  0  0  0  0  0
   -3.4869    0.9836   -2.8065 N   0  3  0  0  0  0  0  0  0  0  0  0
   -3.5886    0.0996   -3.2751 H   0  0  0  0  0  0  0  0  0  0  0  0
   -4.2703    1.9710   -3.2069 C   0  0  0  0  0  0  0  0  0  0  0  0
   -4.2209    3.1570   -2.6683 N   0  0  0  0  0  0  0  0  0  0  0  0
   -3.5668    3.3235   -1.9241 H   0  0  0  0  0  0  0  0  0  0  0  0
   -4.8223    3.8955   -2.9843 H   0  0  0  0  0  0  0  0  0  0  0  0
   -5.1285    1.7837   -4.1692 N   0  0  0  0  0  0  0  0  0  0  0  0
   -5.2035    0.8858   -4.6154 H   0  0  0  0  0  0  0  0  0  0  0  0
   -5.7209    2.5355   -4.4698 H   0  0  0  0  0  0  0  0  0  0  0  0
   -1.6547    1.3413    1.4779 C   0  0  0  0  0  0  0  0  0  0  0  0
   -2.5654    1.9858    0.9716 O   0  0  0  0  0  0  0  0  0  0  0  0
   -0.8107    1.8504    2.3808 N   0  0  0  0  0  0  0  0  0  0  0  0
   -0.1136    1.2381    2.7719 H   0  0  0  0  0  0  0  0  0  0  0  0
   -0.8954    3.2155    2.9026 C   0  0  0  0  0  0  0  0  0  0  0  0
   -1.8299    3.3430    3.4532 H   0  0  0  0  0  0  0  0  0  0  0  0
   -0.0581    3.4194    3.5712 H   0  0  0  0  0  0  0  0  0  0  0  0
   -0.8804    3.9320    2.0784 H   0  0  0  0  0  0  0  0  0  0  0  0
  5  6  2  0  0  0  0
  5  7  1  0  0  0  0
  2  3  1  0  0  0  0
  2  4  1  0  0  0  0
  2  5  1  0  0  0  0
  1  2  1  0  0  0  0
 29 30  2  0  0  0  0
 29 31  1  0  0  0  0
 26 27  1  0  0  0  0
 26 28  1  0  0  0  0
 23 24  1  0  0  0  0
 23 25  1  0  0  0  0
 22 23  1  0  0  0  0
 22 26  1  0  0  0  0
 20 21  1  0  0  0  0
 20 22  2  0  0  0  0
 17 18  1  0  0  0  0
 17 19  1  0  0  0  0
 17 20  1  0  0  0  0
 14 15  1  0  0  0  0
 14 16  1  0  0  0  0
 14 17  1  0  0  0  0
 11 12  1  0  0  0  0
 11 13  1  0  0  0  0
 11 14  1  0  0  0  0
  9 10  1  0  0  0  0
  9 11  1  0  0  0  0
  9 29  1  0  0  0  0
  7  8  1  0  0  0  0
  7  9  1  0  0  0  0
 33 34  1  0  0  0  0
 33 35  1  0  0  0  0
 33 36  1  0  0  0  0
 31 32  1  0  0  0  0
 31 33  1  0  0  0  0
M  CHG  1  20   1
M  END
$$$$
default_name
  -OEChem-02102213163D

 36 35  0     1  0  0  0  0  0999 V2000
   -4.2256   -3.6731    1.8584 H   0  0  0  0  0  0  0  0  0  0  0  0
   -4.2396   -2.6781    1.4144 C   0  0  0  0  0  0  0  0  0  0  0  0
   -4.9506   -2.0521    1.9514 H   0  0  0  0  0  0  0  0  0  0  0  0
   -4.5266   -2.7521    0.3674 H   0  0  0  0  0  0  0  0  0  0  0  0
   -2.8576   -2.0761    1.5184 C   0  0  0  0  0  0  0  0  0  0  0  0
   -1.9456   -2.7051    2.0404 O   0  0  0  0  0  0  0  0  0  0  0  0
   -2.6926   -0.8481    1.0174 N   0  0  0  0  0  0  0  0  0  0  0  0
   -3.4926   -0.3971    0.5954 H   0  0  0  0  0  0  0  0  0  0  0  0
   -1.4216   -0.1071    1.0434 C   0  0  1  0  0  0  0  0  0  0  0  0
   -0.7579   -0.5878    1.7640 H   0  0  0  0  0  0  0  0  0  0  0  0
   -0.7791   -0.1912   -0.3557 C   0  0  0  0  0  0  0  0  0  0  0  0
   -0.1840    0.7093   -0.5204 H   0  0  0  0  0  0  0  0  0  0  0  0
   -0.1078   -1.0520   -0.3890 H   0  0  0  0  0  0  0  0  0  0  0  0
   -1.8043   -0.3068   -1.4931 C   0  0  0  0  0  0  0  0  0  0  0  0
   -1.3736   -0.8703   -2.3221 H   0  0  0  0  0  0  0  0  0  0  0  0
   -2.6916   -0.8249   -1.1278 H   0  0  0  0  0  0  0  0  0  0  0  0
   -2.1971    1.0923   -1.9868 C   0  0  0  0  0  0  0  0  0  0  0  0
   -2.6024    1.6580   -1.1448 H   0  0  0  0  0  0  0  0  0  0  0  0
   -1.2994    1.5971   -2.3513 H   0  0  0  0  0  0  0  0  0  0  0  0
   -3.2021    1.0301   -3.0680 N   0  3  0  0  0  0  0  0  0  0  0  0
   -3.4716    0.1136   -3.3820 H   0  0  0  0  0  0  0  0  0  0  0  0
   -3.7786    2.0630   -3.6594 C   0  0  0  0  0  0  0  0  0  0  0  0
   -3.5022    3.2935   -3.3299 N   0  0  0  0  0  0  0  0  0  0  0  0
   -2.8302    3.4601   -2.6019 H   0  0  0  0  0  0  0  0  0  0  0  0
   -3.9485    4.0661   -3.7891 H   0  0  0  0  0  0  0  0  0  0  0  0
   -4.6542    1.8770   -4.6060 N   0  0  0  0  0  0  0  0  0  0  0  0
   -4.9004    0.9459   -4.8947 H   0  0  0  0  0  0  0  0  0  0  0  0
   -5.0893    2.6634   -5.0521 H   0  0  0  0  0  0  0  0  0  0  0  0
   -1.6547    1.3413    1.4779 C   0  0  0  0  0  0  0  0  0  0  0  0
   -2.5654    1.9858    0.9716 O   0  0  0  0  0  0  0  0  0  0  0  0
   -0.8107    1.8504    2.3808 N   0  0  0  0  0  0  0  0  0  0  0  0
   -0.1136    1.2381    2.7719 H   0  0  0  0  0  0  0  0  0  0  0  0
   -0.8954    3.2155    2.9026 C   0  0  0  0  0  0  0  0  0  0  0  0
   -1.8299    3.3430    3.4532 H   0  0  0  0  0  0  0  0  0  0  0  0
   -0.0581    3.4194    3.5712 H   0  0  0  0  0  0  0  0  0  0  0  0
   -0.8804    3.9320    2.0784 H   0  0  0  0  0  0  0  0  0  0  0  0
  5  6  2  0  0  0  0
  5  7  1  0  0  0  0
  2  3  1  0  0  0  0
  2  4  1  0  0  0  0
  2  5  1  0  0  0  0
  1  2  1  0  0  0  0
 29 30  2  0  0  0  0
 29 31  1  0  0  0  0
 26 27  1  0  0  0  0
 26 28  1  0  0  0  0
 23 24  1  0  0  0  0
 23 25  1  0  0  0  0
 22 23  1  0  0  0  0
 22 26  1  0  0  0  0
 20 21  1  0  0  0  0
 20 22  2  0  0  0  0
 17 18  1  0  0  0  0
 17 19  1  0  0  0  0
 17 20  1  0  0  0  0
 14 15  1  0  0  0  0
 14 16  1  0  0  0  0
 14 17  1  0  0  0  0
 11 12  1  0  0  0  0
 11 13  1  0  0  0  0
 11 14  1  0  0  0  0
  9 10  1  0  0  0  0
  9 11  1  0  0  0  0
  9 29  1  0  0  0  0
  7  8  1  0  0  0  0
  7  9  1  0  0  0  0
 33 34  1  0  0  0  0
 33 35  1  0  0  0  0
 33 36  1  0  0  0  0
 31 32  1  0  0  0  0
 31 33  1  0  0  0  0
M  CHG  1  20   1
M  END
$$$$
default_name
  -OEChem-02102213163D

 36 35  0     1  0  0  0  0  0999 V2000
   -4.2256   -3.6731    1.8584 H   0  0  0  0  0  0  0  0  0  0  0  0
   -4.2396   -2.6781    1.4144 C   0  0  0  0  0  0  0  0  0  0  0  0
   -4.9506   -2.0521    1.9514 H   0  0  0  0  0  0  0  0  0  0  0  0
   -4.5266   -2.7521    0.3674 H   0  0  0  0  0  0  0  0  0  0  0  0
   -2.8576   -2.0761    1.5184 C   0  0  0  0  0  0  0  0  0  0  0  0
   -1.9456   -2.7051    2.0404 O   0  0  0  0  0  0  0  0  0  0  0  0
   -2.6926   -0.8481    1.0174 N   0  0  0  0  0  0  0  0  0  0  0  0
   -3.4926   -0.3971    0.5954 H   0  0  0  0  0  0  0  0  0  0  0  0
   -1.4216   -0.1071    1.0434 C   0  0  1  0  0  0  0  0  0  0  0  0
   -0.7579   -0.5878    1.7640 H   0  0  0  0  0  0  0  0  0  0  0  0
   -0.7791   -0.1912   -0.3557 C   0  0  0  0  0  0  0  0  0  0  0  0
   -0.1840    0.7093   -0.5204 H   0  0  0  0  0  0  0  0  0  0  0  0
   -0.1078   -1.0520   -0.3890 H   0  0  0  0  0  0  0  0  0  0  0  0
   -1.8043   -0.3068   -1.4931 C   0  0  0  0  0  0  0  0  0  0  0  0
   -1.4885   -1.0778   -2.1974 H   0  0  0  0  0  0  0  0  0  0  0  0
   -2.7760   -0.5749   -1.0772 H   0  0  0  0  0  0  0  0  0  0  0  0
   -1.9178    1.0333   -2.2325 C   0  0  0  0  0  0  0  0  0  0  0  0
   -2.2082    1.8040   -1.5149 H   0  0  0  0  0  0  0  0  0  0  0  0
   -0.9384    1.2868   -2.6451 H   0  0  0  0  0  0  0  0  0  0  0  0
   -2.9129    0.9753   -3.3230 N   0  3  0  0  0  0  0  0  0  0  0  0
   -3.3538    0.0862   -3.4854 H   0  0  0  0  0  0  0  0  0  0  0  0
   -3.2772    1.9794   -4.1028 C   0  0  0  0  0  0  0  0  0  0  0  0
   -2.7688    3.1733   -3.9786 N   0  0  0  0  0  0  0  0  0  0  0  0
   -2.0792    3.3337   -3.2658 H   0  0  0  0  0  0  0  0  0  0  0  0
   -3.0561    3.9242   -4.5790 H   0  0  0  0  0  0  0  0  0  0  0  0
   -4.1697    1.8008   -5.0349 N   0  0  0  0  0  0  0  0  0  0  0  0
   -4.5906    0.8975   -5.1690 H   0  0  0  0  0  0  0  0  0  0  0  0
   -4.4433    2.5652   -5.6243 H   0  0  0  0  0  0  0  0  0  0  0  0
   -1.6547    1.3413    1.4779 C   0  0  0  0  0  0  0  0  0  0  0  0
   -2.5654    1.9858    0.9716 O   0  0  0  0  0  0  0  0  0  0  0  0
   -0.8107    1.8504    2.3808 N   0  0  0  0  0  0  0  0  0  0  0  0
   -0.1136    1.2381    2.7719 H   0  0  0  0  0  0  0  0  0  0  0  0
   -0.8954    3.2155    2.9026 C   0  0  0  0  0  0  0  0  0  0  0  0
   -1.8299    3.3430    3.4532 H   0  0  0  0  0  0  0  0  0  0  0  0
   -0.0581    3.4194    3.5712 H   0  0  0  0  0  0  0  0  0  0  0  0
   -0.8804    3.9320    2.0784 H   0  0  0  0  0  0  0  0  0  0  0  0
  5  6  2  0  0  0  0
  5  7  1  0  0  0  0
  2  3  1  0  0  0  0
  2  4  1  0  0  0  0
  2  5  1  0  0  0  0
  1  2  1  0  0  0  0
 29 30  2  0  0  0  0
 29 31  1  0  0  0  0
 26 27  1  0  0  0  0
 26 28  1  0  0  0  0
 23 24  1  0  0  0  0
 23 25  1  0  0  0  0
 22 23  1  0  0  0  0
 22 26  1  0  0  0  0
 20 21  1  0  0  0  0
 20 22  2  0  0  0  0
 17 18  1  0  0  0  0
 17 19  1  0  0  0  0
 17 20  1  0  0  0  0
 14 15  1  0  0  0  0
 14 16  1  0  0  0  0
 14 17  1  0  0  0  0
 11 12  1  0  0  0  0
 11 13  1  0  0  0  0
 11 14  1  0  0  0  0
  9 10  1  0  0  0  0
  9 11  1  0  0  0  0
  9 29  1  0  0  0  0
  7  8  1  0  0  0  0
  7  9  1  0  0  0  0
 33 34  1  0  0  0  0
 33 35  1  0  0  0  0
 33 36  1  0  0  0  0
 31 32  1  0  0  0  0
 31 33  1  0  0  0  0
M  CHG  1  20   1
M  END
$$$$
default_name
  -OEChem-02102213163D

 36 35  0     1  0  0  0  0  0999 V2000
   -4.2256   -3.6731    1.8584 H   0  0  0  0  0  0  0  0  0  0  0  0
   -4.2396   -2.6781    1.4144 C   0  0  0  0  0  0  0  0  0  0  0  0
   -4.9506   -2.0521    1.9514 H   0  0  0  0  0  0  0  0  0  0  0  0
   -4.5266   -2.7521    0.3674 H   0  0  0  0  0  0  0  0  0  0  0  0
   -2.8576   -2.0761    1.5184 C   0  0  0  0  0  0  0  0  0  0  0  0
   -1.9456   -2.7051    2.0404 O   0  0  0  0  0  0  0  0  0  0  0  0
   -2.6926   -0.8481    1.0174 N   0  0  0  0  0  0  0  0  0  0  0  0
   -3.4926   -0.3971    0.5954 H   0  0  0  0  0  0  0  0  0  0  0  0
   -1.4216   -0.1071    1.0434 C   0  0  1  0  0  0  0  0  0  0  0  0
   -0.7579   -0.5878    1.7640 H   0  0  0  0  0  0  0  0  0  0  0  0
   -0.7791   -0.1912   -0.3557 C   0  0  0  0  0  0  0  0  0  0  0  0
   -0.1840    0.7093   -0.5204 H   0  0  0  0  0  0  0  0  0  0  0  0
   -0.1078   -1.0520   -0.3890 H   0  0  0  0  0  0  0  0  0  0  0  0
   -1.8043   -0.3068   -1.4931 C   0  0  0  0  0  0  0  0  0  0  0  0
   -1.6418   -1.2347   -2.0433 H   0  0  0  0  0  0  0  0  0  0  0  0
   -2.8106   -0.3085   -1.0731 H   0  0  0  0  0  0  0  0  0  0  0  0
   -1.6545    0.8803   -2.4543 C   0  0  0  0  0  0  0  0  0  0  0  0
   -1.7923    1.8054   -1.8899 H   0  0  0  0  0  0  0  0  0  0  0  0
   -0.6434    0.8670   -2.8682 H   0  0  0  0  0  0  0  0  0  0  0  0
   -2.6391    0.8228   -3.5543 N   0  3  0  0  0  0  0  0  0  0  0  0
   -3.2432    0.0193   -3.5782 H   0  0  0  0  0  0  0  0  0  0  0  0
   -2.8003    1.7259   -4.5069 C   0  0  0  0  0  0  0  0  0  0  0  0
   -2.0709    2.8045   -4.5701 N   0  0  0  0  0  0  0  0  0  0  0  0
   -1.3652    2.9530   -3.8706 H   0  0  0  0  0  0  0  0  0  0  0  0
   -2.2059    3.4797   -5.3000 H   0  0  0  0  0  0  0  0  0  0  0  0
   -3.7080    1.5601   -5.4266 N   0  0  0  0  0  0  0  0  0  0  0  0
   -4.2953    0.7440   -5.4195 H   0  0  0  0  0  0  0  0  0  0  0  0
   -3.8270    2.2477   -6.1474 H   0  0  0  0  0  0  0  0  0  0  0  0
   -1.6547    1.3413    1.4779 C   0  0  0  0  0  0  0  0  0  0  0  0
   -2.5654    1.9858    0.9716 O   0  0  0  0  0  0  0  0  0  0  0  0
   -0.8107    1.8504    2.3808 N   0  0  0  0  0  0  0  0  0  0  0  0
   -0.1136    1.2381    2.7719 H   0  0  0  0  0  0  0  0  0  0  0  0
   -0.8954    3.2155    2.9026 C   0  0  0  0  0  0  0  0  0  0  0  0
   -1.8299    3.3430    3.4532 H   0  0  0  0  0  0  0  0  0  0  0  0
   -0.0581    3.4194    3.5712 H   0  0  0  0  0  0  0  0  0  0  0  0
   -0.8804    3.9320    2.0784 H   0  0  0  0  0  0  0  0  0  0  0  0
  5  6  2  0  0  0  0
  5  7  1  0  0  0  0
  2  3  1  0  0  0  0
  2  4  1  0  0  0  0
  2  5  1  0  0  0  0
  1  2  1  0  0  0  0
 29 30  2  0  0  0  0
 29 31  1  0  0  0  0
 26 27  1  0  0  0  0
 26 28  1  0  0  0  0
 23 24  1  0  0  0  0
 23 25  1  0  0  0  0
 22 23  1  0  0  0  0
 22 26  1  0  0  0  0
 20 21  1  0  0  0  0
 20 22  2  0  0  0  0
 17 18  1  0  0  0  0
 17 19  1  0  0  0  0
 17 20  1  0  0  0  0
 14 15  1  0  0  0  0
 14 16  1  0  0  0  0
 14 17  1  0  0  0  0
 11 12  1  0  0  0  0
 11 13  1  0  0  0  0
 11 14  1  0  0  0  0
  9 10  1  0  0  0  0
  9 11  1  0  0  0  0
  9 29  1  0  0  0  0
  7  8  1  0  0  0  0
  7  9  1  0  0  0  0
 33 34  1  0  0  0  0
 33 35  1  0  0  0  0
 33 36  1  0  0  0  0
 31 32  1  0  0  0  0
 31 33  1  0  0  0  0
M  CHG  1  20   1
M  END
$$$$
default_name
  -OEChem-02102213163D

 36 35  0     1  0  0  0  0  0999 V2000
   -4.2256   -3.6731    1.8584 H   0  0  0  0  0  0  0  0  0  0  0  0
   -4.2396   -2.6781    1.4144 C   0  0  0  0  0  0  0  0  0  0  0  0
   -4.9506   -2.0521    1.9514 H   0  0  0  0  0  0  0  0  0  0  0  0
   -4.5266   -2.7521    0.3674 H   0  0  0  0  0  0  0  0  0  0  0  0
   -2.8576   -2.0761    1.5184 C   0  0  0  0  0  0  0  0  0  0  0  0
   -1.9456   -2.7051    2.0404 O   0  0  0  0  0  0  0  0  0  0  0  0
   -2.6926   -0.8481    1.0174 N   0  0  0  0  0  0  0  0  0  0  0  0
   -3.4926   -0.3971    0.5954 H   0  0  0  0  0  0  0  0  0  0  0  0
   -1.4216   -0.1071    1.0434 C   0  0  1  0  0  0  0  0  0  0  0  0
   -0.7579   -0.5878    1.7640 H   0  0  0  0  0  0  0  0  0  0  0  0
   -0.7791   -0.1912   -0.3557 C   0  0  0  0  0  0  0  0  0  0  0  0
   -0.1840    0.7093   -0.5204 H   0  0  0  0  0  0  0  0  0  0  0  0
   -0.1078   -1.0520   -0.3890 H   0  0  0  0  0  0  0  0  0  0  0  0
   -1.8043   -0.3068   -1.4931 C   0  0  0  0  0  0  0  0  0  0  0  0
   -1.8229   -1.3302   -1.8704 H   0  0  0  0  0  0  0  0  0  0  0  0
   -2.7930   -0.0439   -1.1158 H   0  0  0  0  0  0  0  0  0  0  0  0
   -1.4251    0.6437   -2.6369 C   0  0  0  0  0  0  0  0  0  0  0  0
   -1.3829    1.6623   -2.2443 H   0  0  0  0  0  0  0  0  0  0  0  0
   -0.4347    0.3665   -3.0054 H   0  0  0  0  0  0  0  0  0  0  0  0
   -2.3994    0.5831   -3.7460 N   0  3  0  0  0  0  0  0  0  0  0  0
   -3.1475   -0.0826   -3.6542 H   0  0  0  0  0  0  0  0  0  0  0  0
   -2.3803    1.3199   -4.8441 C   0  0  0  0  0  0  0  0  0  0  0  0
   -1.4559    2.2122   -5.0642 N   0  0  0  0  0  0  0  0  0  0  0  0
   -0.7366    2.3438   -4.3751 H   0  0  0  0  0  0  0  0  0  0  0  0
   -1.4558    2.7627   -5.9031 H   0  0  0  0  0  0  0  0  0  0  0  0
   -3.3005    1.1715   -5.7543 N   0  0  0  0  0  0  0  0  0  0  0  0
   -4.0346    0.4958   -5.6292 H   0  0  0  0  0  0  0  0  0  0  0  0
   -3.2824    1.7325   -6.5859 H   0  0  0  0  0  0  0  0  0  0  0  0
   -1.6547    1.3413    1.4779 C   0  0  0  0  0  0  0  0  0  0  0  0
   -2.5654    1.9858    0.9716 O   0  0  0  0  0  0  0  0  0  0  0  0
   -0.8107    1.8504    2.3808 N   0  0  0  0  0  0  0  0  0  0  0  0
   -0.1136    1.2381    2.7719 H   0  0  0  0  0  0  0  0  0  0  0  0
   -0.8954    3.2155    2.9026 C   0  0  0  0  0  0  0  0  0  0  0  0
   -1.8299    3.3430    3.4532 H   0  0  0  0  0  0  0  0  0  0  0  0
   -0.0581    3.4194    3.5712 H   0  0  0  0  0  0  0  0  0  0  0  0
   -0.8804    3.9320    2.0784 H   0  0  0  0  0  0  0  0  0  0  0  0
  5  6  2  0  0  0  0
  5  7  1  0  0  0  0
  2  3  1  0  0  0  0
  2  4  1  0  0  0  0
  2  5  1  0  0  0  0
  1  2  1  0  0  0  0
 29 30  2  0  0  0  0
 29 31  1  0  0  0  0
 26 27  1  0  0  0  0
 26 28  1  0  0  0  0
 23 24  1  0  0  0  0
 23 25  1  0  0  0  0
 22 23  1  0  0  0  0
 22 26  1  0  0  0  0
 20 21  1  0  0  0  0
 20 22  2  0  0  0  0
 17 18  1  0  0  0  0
 17 19  1  0  0  0  0
 17 20  1  0  0  0  0
 14 15  1  0  0  0  0
 14 16  1  0  0  0  0
 14 17  1  0  0  0  0
 11 12  1  0  0  0  0
 11 13  1  0  0  0  0
 11 14  1  0  0  0  0
  9 10  1  0  0  0  0
  9 11  1  0  0  0  0
  9 29  1  0  0  0  0
  7  8  1  0  0  0  0
  7  9  1  0  0  0  0
 33 34  1  0  0  0  0
 33 35  1  0  0  0  0
 33 36  1  0  0  0  0
 31 32  1  0  0  0  0
 31 33  1  0  0  0  0
M  CHG  1  20   1
M  END
$$$$
default_name
  -OEChem-02102213163D

 36 35  0     1  0  0  0  0  0999 V2000
   -4.2256   -3.6731    1.8584 H   0  0  0  0  0  0  0  0  0  0  0  0
   -4.2396   -2.6781    1.4144 C   0  0  0  0  0  0  0  0  0  0  0  0
   -4.9506   -2.0521    1.9514 H   0  0  0  0  0  0  0  0  0  0  0  0
   -4.5266   -2.7521    0.3674 H   0  0  0  0  0  0  0  0  0  0  0  0
   -2.8576   -2.0761    1.5184 C   0  0  0  0  0  0  0  0  0  0  0  0
   -1.9456   -2.7051    2.0404 O   0  0  0  0  0  0  0  0  0  0  0  0
   -2.6926   -0.8481    1.0174 N   0  0  0  0  0  0  0  0  0  0  0  0
   -3.4926   -0.3971    0.5954 H   0  0  0  0  0  0  0  0  0  0  0  0
   -1.4216   -0.1071    1.0434 C   0  0  1  0  0  0  0  0  0  0  0  0
   -0.7579   -0.5878    1.7640 H   0  0  0  0  0  0  0  0  0  0  0  0
   -0.7791   -0.1912   -0.3557 C   0  0  0  0  0  0  0  0  0  0  0  0
   -0.1840    0.7093   -0.5204 H   0  0  0  0  0  0  0  0  0  0  0  0
   -0.1078   -1.0520   -0.3890 H   0  0  0  0  0  0  0  0  0  0  0  0
   -1.8043   -0.3068   -1.4931 C   0  0  0  0  0  0  0  0  0  0  0  0
   -2.0195   -1.3579   -1.6904 H   0  0  0  0  0  0  0  0  0  0  0  0
   -2.7245    0.2010   -1.2025 H   0  0  0  0  0  0  0  0  0  0  0  0
   -1.2454    0.3397   -2.7680 C   0  0  0  0  0  0  0  0  0  0  0  0
   -1.0080    1.3843   -2.5539 H   0  0  0  0  0  0  0  0  0  0  0  0
   -0.3263   -0.1807   -3.0475 H   0  0  0  0  0  0  0  0  0  0  0  0
   -2.2100    0.2725   -3.8850 N   0  3  0  0  0  0  0  0  0  0  0  0
   -3.0730   -0.2125   -3.7081 H   0  0  0  0  0  0  0  0  0  0  0  0
   -2.0459    0.7888   -5.0915 C   0  0  0  0  0  0  0  0  0  0  0  0
   -0.9658    1.4369   -5.4271 N   0  0  0  0  0  0  0  0  0  0  0  0
   -0.2365    1.5477   -4.7450 H   0  0  0  0  0  0  0  0  0  0  0  0
   -0.8570    1.8222   -6.3472 H   0  0  0  0  0  0  0  0  0  0  0  0
   -2.9750    0.6613   -5.9958 N   0  0  0  0  0  0  0  0  0  0  0  0
   -3.8262    0.1699   -5.7838 H   0  0  0  0  0  0  0  0  0  0  0  0
   -2.8465    1.0546   -6.9097 H   0  0  0  0  0  0  0  0  0  0  0  0
   -1.6547    1.3413    1.4779 C   0  0  0  0  0  0  0  0  0  0  0  0
   -2.5654    1.9858    0.9716 O   0  0  0  0  0  0  0  0  0  0  0  0
   -0.8107    1.8504    2.3808 N   0  0  0  0  0  0  0  0  0  0  0  0
   -0.1136    1.2381    2.7719 H   0  0  0  0  0  0  0  0  0  0  0  0
   -0.8954    3.2155    2.9026 C   0  0  0  0  0  0  0  0  0  0  0  0
   -1.8299    3.3430    3.4532 H   0  0  0  0  0  0  0  0  0  0  0  0
   -0.0581    3.4194    3.5712 H   0  0  0  0  0  0  0  0  0  0  0  0
   -0.8804    3.9320    2.0784 H   0  0  0  0  0  0  0  0  0  0  0  0
  5  6  2  0  0  0  0
  5  7  1  0  0  0  0
  2  3  1  0  0  0  0
  2  4  1  0  0  0  0
  2  5  1  0  0  0  0
  1  2  1  0  0  0  0
 29 30  2  0  0  0  0
 29 31  1  0  0  0  0
 26 27  1  0  0  0  0
 26 28  1  0  0  0  0
 23 24  1  0  0  0  0
 23 25  1  0  0  0  0
 22 23  1  0  0  0  0
 22 26  1  0  0  0  0
 20 21  1  0  0  0  0
 20 22  2  0  0  0  0
 17 18  1  0  0  0  0
 17 19  1  0  0  0  0
 17 20  1  0  0  0  0
 14 15  1  0  0  0  0
 14 16  1  0  0  0  0
 14 17  1  0  0  0  0
 11 12  1  0  0  0  0
 11 13  1  0  0  0  0
 11 14  1  0  0  0  0
  9 10  1  0  0  0  0
  9 11  1  0  0  0  0
  9 29  1  0  0  0  0
  7  8  1  0  0  0  0
  7  9  1  0  0  0  0
 33 34  1  0  0  0  0
 33 35  1  0  0  0  0
 33 36  1  0  0  0  0
 31 32  1  0  0  0  0
 31 33  1  0  0  0  0
M  CHG  1  20   1
M  END
$$$$
default_name
  -OEChem-02102213163D

 36 35  0     1  0  0  0  0  0999 V2000
   -4.2256   -3.6731    1.8584 H   0  0  0  0  0  0  0  0  0  0  0  0
   -4.2396   -2.6781    1.4144 C   0  0  0  0  0  0  0  0  0  0  0  0
   -4.9506   -2.0521    1.9514 H   0  0  0  0  0  0  0  0  0  0  0  0
   -4.5266   -2.7521    0.3674 H   0  0  0  0  0  0  0  0  0  0  0  0
   -2.8576   -2.0761    1.5184 C   0  0  0  0  0  0  0  0  0  0  0  0
   -1.9456   -2.7051    2.0404 O   0  0  0  0  0  0  0  0  0  0  0  0
   -2.6926   -0.8481    1.0174 N   0  0  0  0  0  0  0  0  0  0  0  0
   -3.4926   -0.3971    0.5954 H   0  0  0  0  0  0  0  0  0  0  0  0
   -1.4216   -0.1071    1.0434 C   0  0  1  0  0  0  0  0  0  0  0  0
   -0.7579   -0.5878    1.7640 H   0  0  0  0  0  0  0  0  0  0  0  0
   -0.7791   -0.1912   -0.3557 C   0  0  0  0  0  0  0  0  0  0  0  0
   -0.1840    0.7093   -0.5204 H   0  0  0  0  0  0  0  0  0  0  0  0
   -0.1078   -1.0520   -0.3890 H   0  0  0  0  0  0  0  0  0  0  0  0
   -1.8043   -0.3068   -1.4931 C   0  0  0  0  0  0  0  0  0  0  0  0
   -2.2182   -1.3159   -1.5156 H   0  0  0  0  0  0  0  0  0  0  0  0
   -2.6097    0.4094   -1.3272 H   0  0  0  0  0  0  0  0  0  0  0  0
   -1.1276   -0.0111   -2.8385 C   0  0  0  0  0  0  0  0  0  0  0  0
   -0.6931    0.9904   -2.7976 H   0  0  0  0  0  0  0  0  0  0  0  0
   -0.3257   -0.7373   -2.9914 H   0  0  0  0  0  0  0  0  0  0  0  0
   -2.0840   -0.0878   -3.9620 N   0  3  0  0  0  0  0  0  0  0  0  0
   -3.0249   -0.3615   -3.7363 H   0  0  0  0  0  0  0  0  0  0  0  0
   -1.8199    0.1690   -5.2321 C   0  0  0  0  0  0  0  0  0  0  0  0
   -0.6339    0.5313   -5.6340 N   0  0  0  0  0  0  0  0  0  0  0  0
    0.1012    0.6189   -4.9549 H   0  0  0  0  0  0  0  0  0  0  0  0
   -0.4502    0.7222   -6.6019 H   0  0  0  0  0  0  0  0  0  0  0  0
   -2.7537    0.0644   -6.1345 N   0  0  0  0  0  0  0  0  0  0  0  0
   -3.6845   -0.2116   -5.8728 H   0  0  0  0  0  0  0  0  0  0  0  0
   -2.5491    0.2603   -7.0970 H   0  0  0  0  0  0  0  0  0  0  0  0
   -1.6547    1.3413    1.4779 C   0  0  0  0  0  0  0  0  0  0  0  0
   -2.5654    1.9858    0.9716 O   0  0  0  0  0  0  0  0  0  0  0  0
   -0.8107    1.8504    2.3808 N   0  0  0  0  0  0  0  0  0  0  0  0
   -0.1136    1.2381    2.7719 H   0  0  0  0  0  0  0  0  0  0  0  0
   -0.8954    3.2155    2.9026 C   0  0  0  0  0  0  0  0  0  0  0  0
   -1.8299    3.3430    3.4532 H   0  0  0  0  0  0  0  0  0  0  0  0
   -0.0581    3.4194    3.5712 H   0  0  0  0  0  0  0  0  0  0  0  0
   -0.8804    3.9320    2.0784 H   0  0  0  0  0  0  0  0  0  0  0  0
  5  6  2  0  0  0  0
  5  7  1  0  0  0  0
  2  3  1  0  0  0  0
  2  4  1  0  0  0  0
  2  5  1  0  0  0  0
  1  2  1  0  0  0  0
 29 30  2  0  0  0  0
 29 31  1  0  0  0  0
 26 27  1  0  0  0  0
 26 28  1  0  0  0  0
 23 24  1  0  0  0  0
 23 25  1  0  0  0  0
 22 23  1  0  0  0  0
 22 26  1  0  0  0  0
 20 21  1  0  0  0  0
 20 22  2  0  0  0  0
 17 18  1  0  0  0  0
 17 19  1  0  0  0  0
 17 20  1  0  0  0  0
 14 15  1  0  0  0  0
 14 16  1  0  0  0  0
 14 17  1  0  0  0  0
 11 12  1  0  0  0  0
 11 13  1  0  0  0  0
 11 14  1  0  0  0  0
  9 10  1  0  0  0  0
  9 11  1  0  0  0  0
  9 29  1  0  0  0  0
  7  8  1  0  0  0  0
  7  9  1  0  0  0  0
 33 34  1  0  0  0  0
 33 35  1  0  0  0  0
 33 36  1  0  0  0  0
 31 32  1  0  0  0  0
 31 33  1  0  0  0  0
M  CHG  1  20   1
M  END
$$$$
default_name
  -OEChem-02102213163D

 36 35  0     1  0  0  0  0  0999 V2000
   -4.2256   -3.6731    1.8584 H   0  0  0  0  0  0  0  0  0  0  0  0
   -4.2396   -2.6781    1.4144 C   0  0  0  0  0  0  0  0  0  0  0  0
   -4.9506   -2.0521    1.9514 H   0  0  0  0  0  0  0  0  0  0  0  0
   -4.5266   -2.7521    0.3674 H   0  0  0  0  0  0  0  0  0  0  0  0
   -2.8576   -2.0761    1.5184 C   0  0  0  0  0  0  0  0  0  0  0  0
   -1.9456   -2.7051    2.0404 O   0  0  0  0  0  0  0  0  0  0  0  0
   -2.6926   -0.8481    1.0174 N   0  0  0  0  0  0  0  0  0  0  0  0
   -3.4926   -0.3971    0.5954 H   0  0  0  0  0  0  0  0  0  0  0  0
   -1.4216   -0.1071    1.0434 C   0  0  1  0  0  0  0  0  0  0  0  0
   -0.7579   -0.5878    1.7640 H   0  0  0  0  0  0  0  0  0  0  0  0
   -0.7791   -0.1912   -0.3557 C   0  0  0  0  0  0  0  0  0  0  0  0
    0.0144    0.5560   -0.4201 H   0  0  0  0  0  0  0  0  0  0  0  0
   -0.3273   -1.1774   -0.4823 H   0  0  0  0  0  0  0  0  0  0  0  0
   -1.7718    0.0594   -1.5002 C   0  0  0  0  0  0  0  0  0  0  0  0
   -2.5705   -0.6829   -1.4651 H   0  0  0  0  0  0  0  0  0  0  0  0
   -2.2012    1.0561   -1.3936 H   0  0  0  0  0  0  0  0  0  0  0  0
   -1.0493   -0.0432   -2.8504 C   0  0  0  0  0  0  0  0  0  0  0  0
   -0.2349    0.6848   -2.8663 H   0  0  0  0  0  0  0  0  0  0  0  0
   -0.6271   -1.0466   -2.9433 H   0  0  0  0  0  0  0  0  0  0  0  0
   -1.9630    0.2148   -3.9823 N   0  3  0  0  0  0  0  0  0  0  0  0
   -2.9295    0.3753   -3.7551 H   0  0  0  0  0  0  0  0  0  0  0  0
   -1.6306    0.2546   -5.2617 C   0  0  0  0  0  0  0  0  0  0  0  0
   -0.4067    0.0602   -5.6663 N   0  0  0  0  0  0  0  0  0  0  0  0
    0.3055   -0.1241   -4.9820 H   0  0  0  0  0  0  0  0  0  0  0  0
   -0.1714    0.0935   -6.6411 H   0  0  0  0  0  0  0  0  0  0  0  0
   -2.5330    0.4922   -6.1709 N   0  0  0  0  0  0  0  0  0  0  0  0
   -3.4907    0.6487   -5.9075 H   0  0  0  0  0  0  0  0  0  0  0  0
   -2.2765    0.5216   -7.1403 H   0  0  0  0  0  0  0  0  0  0  0  0
   -1.6547    1.3413    1.4779 C   0  0  0  0  0  0  0  0  0  0  0  0
   -2.5654    1.9858    0.9716 O   0  0  0  0  0  0  0  0  0  0  0  0
   -0.8107    1.8504    2.3808 N   0  0  0  0  0  0  0  0  0  0  0  0
   -0.1136    1.2381    2.7719 H   0  0  0  0  0  0  0  0  0  0  0  0
   -0.8954    3.2155    2.9026 C   0  0  0  0  0  0  0  0  0  0  0  0
   -1.8299    3.3430    3.4532 H   0  0  0  0  0  0  0  0  0  0  0  0
   -0.0581    3.4194    3.5712 H   0  0  0  0  0  0  0  0  0  0  0  0
   -0.8804    3.9320    2.0784 H   0  0  0  0  0  0  0  0  0  0  0  0
  5  6  2  0  0  0  0
  5  7  1  0  0  0  0
  2  3  1  0  0  0  0
  2  4  1  0  0  0  0
  2  5  1  0  0  0  0
  1  2  1  0  0  0  0
 29 30  2  0  0  0  0
 29 31  1  0  0  0  0
 26 27  1  0  0  0  0
 26 28  1  0  0  0  0
 23 24  1  0  0  0  0
 23 25  1  0  0  0  0
 22 23  1  0  0  0  0
 22 26  1  0  0  0  0
 20 21  1  0  0  0  0
 20 22  2  0  0  0  0
 17 18  1  0  0  0  0
 17 19  1  0  0  0  0
 17 20  1  0  0  0  0
 14 15  1  0  0  0  0
 14 16  1  0  0  0  0
 14 17  1  0  0  0  0
 11 12  1  0  0  0  0
 11 13  1  0  0  0  0
 11 14  1  0  0  0  0
  9 10  1  0  0  0  0
  9 11  1  0  0  0  0
  9 29  1  0  0  0  0
  7  8  1  0  0  0  0
  7  9  1  0  0  0  0
 33 34  1  0  0  0  0
 33 35  1  0  0  0  0
 33 36  1  0  0  0  0
 31 32  1  0  0  0  0
 31 33  1  0  0  0  0
M  CHG  1  20   1
M  END
$$$$
default_name
  -OEChem-02102213163D

 36 35  0     1  0  0  0  0  0999 V2000
   -4.2256   -3.6731    1.8584 H   0  0  0  0  0  0  0  0  0  0  0  0
   -4.2396   -2.6781    1.4144 C   0  0  0  0  0  0  0  0  0  0  0  0
   -4.9506   -2.0521    1.9514 H   0  0  0  0  0  0  0  0  0  0  0  0
   -4.5266   -2.7521    0.3674 H   0  0  0  0  0  0  0  0  0  0  0  0
   -2.8576   -2.0761    1.5184 C   0  0  0  0  0  0  0  0  0  0  0  0
   -1.9456   -2.7051    2.0404 O   0  0  0  0  0  0  0  0  0  0  0  0
   -2.6926   -0.8481    1.0174 N   0  0  0  0  0  0  0  0  0  0  0  0
   -3.4926   -0.3971    0.5954 H   0  0  0  0  0  0  0  0  0  0  0  0
   -1.4216   -0.1071    1.0434 C   0  0  1  0  0  0  0  0  0  0  0  0
   -0.7579   -0.5878    1.7640 H   0  0  0  0  0  0  0  0  0  0  0  0
   -0.7791   -0.1912   -0.3557 C   0  0  0  0  0  0  0  0  0  0  0  0
    0.0144    0.5560   -0.4201 H   0  0  0  0  0  0  0  0  0  0  0  0
   -0.3273   -1.1774   -0.4823 H   0  0  0  0  0  0  0  0  0  0  0  0
   -1.7718    0.0594   -1.5002 C   0  0  0  0  0  0  0  0  0  0  0  0
   -2.6931   -0.4956   -1.3177 H   0  0  0  0  0  0  0  0  0  0  0  0
   -1.9978    1.1248   -1.5550 H   0  0  0  0  0  0  0  0  0  0  0  0
   -1.1622   -0.4021   -2.8310 C   0  0  0  0  0  0  0  0  0  0  0  0
   -0.2272    0.1391   -2.9925 H   0  0  0  0  0  0  0  0  0  0  0  0
   -0.9438   -1.4703   -2.7614 H   0  0  0  0  0  0  0  0  0  0  0  0
   -2.0754   -0.1578   -3.9664 N   0  3  0  0  0  0  0  0  0  0  0  0
   -2.9789    0.2244   -3.7453 H   0  0  0  0  0  0  0  0  0  0  0  0
   -1.8171   -0.3934   -5.2418 C   0  0  0  0  0  0  0  0  0  0  0  0
   -0.6780   -0.8878   -5.6386 N   0  0  0  0  0  0  0  0  0  0  0  0
    0.0253   -1.0943   -4.9514 H   0  0  0  0  0  0  0  0  0  0  0  0
   -0.4982   -1.0609   -6.6104 H   0  0  0  0  0  0  0  0  0  0  0  0
   -2.7099   -0.1347   -6.1547 N   0  0  0  0  0  0  0  0  0  0  0  0
   -3.6035    0.2478   -5.8974 H   0  0  0  0  0  0  0  0  0  0  0  0
   -2.5098   -0.3148   -7.1211 H   0  0  0  0  0  0  0  0  0  0  0  0
   -1.6547    1.3413    1.4779 C   0  0  0  0  0  0  0  0  0  0  0  0
   -2.5654    1.9858    0.9716 O   0  0  0  0  0  0  0  0  0  0  0  0
   -0.8107    1.8504    2.3808 N   0  0  0  0  0  0  0  0  0  0  0  0
   -0.1136    1.2381    2.7719 H   0  0  0  0  0  0  0  0  0  0  0  0
   -0.8954    3.2155    2.9026 C   0  0  0  0  0  0  0  0  0  0  0  0
   -1.8299    3.3430    3.4532 H   0  0  0  0  0  0  0  0  0  0  0  0
   -0.0581    3.4194    3.5712 H   0  0  0  0  0  0  0  0  0  0  0  0
   -0.8804    3.9320    2.0784 H   0  0  0  0  0  0  0  0  0  0  0  0
  5  6  2  0  0  0  0
  5  7  1  0  0  0  0
  2  3  1  0  0  0  0
  2  4  1  0  0  0  0
  2  5  1  0  0  0  0
  1  2  1  0  0  0  0
 29 30  2  0  0  0  0
 29 31  1  0  0  0  0
 26 27  1  0  0  0  0
 26 28  1  0  0  0  0
 23 24  1  0  0  0  0
 23 25  1  0  0  0  0
 22 23  1  0  0  0  0
 22 26  1  0  0  0  0
 20 21  1  0  0  0  0
 20 22  2  0  0  0  0
 17 18  1  0  0  0  0
 17 19  1  0  0  0  0
 17 20  1  0  0  0  0
 14 15  1  0  0  0  0
 14 16  1  0  0  0  0
 14 17  1  0  0  0  0
 11 12  1  0  0  0  0
 11 13  1  0  0  0  0
 11 14  1  0  0  0  0
  9 10  1  0  0  0  0
  9 11  1  0  0  0  0
  9 29  1  0  0  0  0
  7  8  1  0  0  0  0
  7  9  1  0  0  0  0
 33 34  1  0  0  0  0
 33 35  1  0  0  0  0
 33 36  1  0  0  0  0
 31 32  1  0  0  0  0
 31 33  1  0  0  0  0
M  CHG  1  20   1
M  END
$$$$
default_name
  -OEChem-02102213163D

 36 35  0     1  0  0  0  0  0999 V2000
   -4.2256   -3.6731    1.8584 H   0  0  0  0  0  0  0  0  0  0  0  0
   -4.2396   -2.6781    1.4144 C   0  0  0  0  0  0  0  0  0  0  0  0
   -4.9506   -2.0521    1.9514 H   0  0  0  0  0  0  0  0  0  0  0  0
   -4.5266   -2.7521    0.3674 H   0  0  0  0  0  0  0  0  0  0  0  0
   -2.8576   -2.0761    1.5184 C   0  0  0  0  0  0  0  0  0  0  0  0
   -1.9456   -2.7051    2.0404 O   0  0  0  0  0  0  0  0  0  0  0  0
   -2.6926   -0.8481    1.0174 N   0  0  0  0  0  0  0  0  0  0  0  0
   -3.4926   -0.3971    0.5954 H   0  0  0  0  0  0  0  0  0  0  0  0
   -1.4216   -0.1071    1.0434 C   0  0  1  0  0  0  0  0  0  0  0  0
   -0.7579   -0.5878    1.7640 H   0  0  0  0  0  0  0  0  0  0  0  0
   -0.7791   -0.1912   -0.3557 C   0  0  0  0  0  0  0  0  0  0  0  0
    0.0144    0.5560   -0.4201 H   0  0  0  0  0  0  0  0  0  0  0  0
   -0.3273   -1.1774   -0.4823 H   0  0  0  0  0  0  0  0  0  0  0  0
   -1.7718    0.0594   -1.5002 C   0  0  0  0  0  0  0  0  0  0  0  0
   -2.7692   -0.2664   -1.2015 H   0  0  0  0  0  0  0  0  0  0  0  0
   -1.7948    1.1249   -1.7310 H   0  0  0  0  0  0  0  0  0  0  0  0
   -1.3397   -0.7237   -2.7474 C   0  0  0  0  0  0  0  0  0  0  0  0
   -0.3302   -0.4105   -3.0234 H   0  0  0  0  0  0  0  0  0  0  0  0
   -1.3238   -1.7881   -2.5014 H   0  0  0  0  0  0  0  0  0  0  0  0
   -2.2551   -0.4933   -3.8840 N   0  3  0  0  0  0  0  0  0  0  0  0
   -3.0554    0.0899   -3.7084 H   0  0  0  0  0  0  0  0  0  0  0  0
   -2.1213   -0.9800   -5.1064 C   0  0  0  0  0  0  0  0  0  0  0  0
   -1.1217   -1.7465   -5.4417 N   0  0  0  0  0  0  0  0  0  0  0  0
   -0.4311   -1.9722   -4.7478 H   0  0  0  0  0  0  0  0  0  0  0  0
   -1.0353   -2.1078   -6.3738 H   0  0  0  0  0  0  0  0  0  0  0  0
   -3.0010   -0.7033   -6.0267 N   0  0  0  0  0  0  0  0  0  0  0  0
   -3.7894   -0.1160   -5.8158 H   0  0  0  0  0  0  0  0  0  0  0  0
   -2.8956   -1.0745   -6.9528 H   0  0  0  0  0  0  0  0  0  0  0  0
   -1.6547    1.3413    1.4779 C   0  0  0  0  0  0  0  0  0  0  0  0
   -2.5654    1.9858    0.9716 O   0  0  0  0  0  0  0  0  0  0  0  0
   -0.8107    1.8504    2.3808 N   0  0  0  0  0  0  0  0  0  0  0  0
   -0.1136    1.2381    2.7719 H   0  0  0  0  0  0  0  0  0  0  0  0
   -0.8954    3.2155    2.9026 C   0  0  0  0  0  0  0  0  0  0  0  0
   -1.8299    3.3430    3.4532 H   0  0  0  0  0  0  0  0  0  0  0  0
   -0.0581    3.4194    3.5712 H   0  0  0  0  0  0  0  0  0  0  0  0
   -0.8804    3.9320    2.0784 H   0  0  0  0  0  0  0  0  0  0  0  0
  5  6  2  0  0  0  0
  5  7  1  0  0  0  0
  2  3  1  0  0  0  0
  2  4  1  0  0  0  0
  2  5  1  0  0  0  0
  1  2  1  0  0  0  0
 29 30  2  0  0  0  0
 29 31  1  0  0  0  0
 26 27  1  0  0  0  0
 26 28  1  0  0  0  0
 23 24  1  0  0  0  0
 23 25  1  0  0  0  0
 22 23  1  0  0  0  0
 22 26  1  0  0  0  0
 20 21  1  0  0  0  0
 20 22  2  0  0  0  0
 17 18  1  0  0  0  0
 17 19  1  0  0  0  0
 17 20  1  0  0  0  0
 14 15  1  0  0  0  0
 14 16  1  0  0  0  0
 14 17  1  0  0  0  0
 11 12  1  0  0  0  0
 11 13  1  0  0  0  0
 11 14  1  0  0  0  0
  9 10  1  0  0  0  0
  9 11  1  0  0  0  0
  9 29  1  0  0  0  0
  7  8  1  0  0  0  0
  7  9  1  0  0  0  0
 33 34  1  0  0  0  0
 33 35  1  0  0  0  0
 33 36  1  0  0  0  0
 31 32  1  0  0  0  0
 31 33  1  0  0  0  0
M  CHG  1  20   1
M  END
$$$$
default_name
  -OEChem-02102213163D

 36 35  0     1  0  0  0  0  0999 V2000
   -4.2256   -3.6731    1.8584 H   0  0  0  0  0  0  0  0  0  0  0  0
   -4.2396   -2.6781    1.4144 C   0  0  0  0  0  0  0  0  0  0  0  0
   -4.9506   -2.0521    1.9514 H   0  0  0  0  0  0  0  0  0  0  0  0
   -4.5266   -2.7521    0.3674 H   0  0  0  0  0  0  0  0  0  0  0  0
   -2.8576   -2.0761    1.5184 C   0  0  0  0  0  0  0  0  0  0  0  0
   -1.9456   -2.7051    2.0404 O   0  0  0  0  0  0  0  0  0  0  0  0
   -2.6926   -0.8481    1.0174 N   0  0  0  0  0  0  0  0  0  0  0  0
   -3.4926   -0.3971    0.5954 H   0  0  0  0  0  0  0  0  0  0  0  0
   -1.4216   -0.1071    1.0434 C   0  0  1  0  0  0  0  0  0  0  0  0
   -0.7579   -0.5878    1.7640 H   0  0  0  0  0  0  0  0  0  0  0  0
   -0.7791   -0.1912   -0.3557 C   0  0  0  0  0  0  0  0  0  0  0  0
    0.0144    0.5560   -0.4201 H   0  0  0  0  0  0  0  0  0  0  0  0
   -0.3273   -1.1774   -0.4823 H   0  0  0  0  0  0  0  0  0  0  0  0
   -1.7718    0.0594   -1.5002 C   0  0  0  0  0  0  0  0  0  0  0  0
   -2.7935   -0.0108   -1.1245 H   0  0  0  0  0  0  0  0  0  0  0  0
   -1.6062    1.0565   -1.9096 H   0  0  0  0  0  0  0  0  0  0  0  0
   -1.5697   -0.9861   -2.6054 C   0  0  0  0  0  0  0  0  0  0  0  0
   -0.5371   -0.9267   -2.9570 H   0  0  0  0  0  0  0  0  0  0  0  0
   -1.7411   -1.9782   -2.1811 H   0  0  0  0  0  0  0  0  0  0  0  0
   -2.4900   -0.7689   -3.7406 N   0  3  0  0  0  0  0  0  0  0  0  0
   -3.1537   -0.0192   -3.6470 H   0  0  0  0  0  0  0  0  0  0  0  0
   -2.5227   -1.4652   -4.8645 C   0  0  0  0  0  0  0  0  0  0  0  0
   -1.7076   -2.4574   -5.0892 N   0  0  0  0  0  0  0  0  0  0  0  0
   -1.0328   -2.6982   -4.3849 H   0  0  0  0  0  0  0  0  0  0  0  0
   -1.7460   -2.9758   -5.9475 H   0  0  0  0  0  0  0  0  0  0  0  0
   -3.3865   -1.1750   -5.7956 N   0  0  0  0  0  0  0  0  0  0  0  0
   -4.0356   -0.4178   -5.6683 H   0  0  0  0  0  0  0  0  0  0  0  0
   -3.4078   -1.7057   -6.6468 H   0  0  0  0  0  0  0  0  0  0  0  0
   -1.6547    1.3413    1.4779 C   0  0  0  0  0  0  0  0  0  0  0  0
   -2.5654    1.9858    0.9716 O   0  0  0  0  0  0  0  0  0  0  0  0
   -0.8107    1.8504    2.3808 N   0  0  0  0  0  0  0  0  0  0  0  0
   -0.1136    1.2381    2.7719 H   0  0  0  0  0  0  0  0  0  0  0  0
   -0.8954    3.2155    2.9026 C   0  0  0  0  0  0  0  0  0  0  0  0
   -1.8299    3.3430    3.4532 H   0  0  0  0  0  0  0  0  0  0  0  0
   -0.0581    3.4194    3.5712 H   0  0  0  0  0  0  0  0  0  0  0  0
   -0.8804    3.9320    2.0784 H   0  0  0  0  0  0  0  0  0  0  0  0
  5  6  2  0  0  0  0
  5  7  1  0  0  0  0
  2  3  1  0  0  0  0
  2  4  1  0  0  0  0
  2  5  1  0  0  0  0
  1  2  1  0  0  0  0
 29 30  2  0  0  0  0
 29 31  1  0  0  0  0
 26 27  1  0  0  0  0
 26 28  1  0  0  0  0
 23 24  1  0  0  0  0
 23 25  1  0  0  0  0
 22 23  1  0  0  0  0
 22 26  1  0  0  0  0
 20 21  1  0  0  0  0
 20 22  2  0  0  0  0
 17 18  1  0  0  0  0
 17 19  1  0  0  0  0
 17 20  1  0  0  0  0
 14 15  1  0  0  0  0
 14 16  1  0  0  0  0
 14 17  1  0  0  0  0
 11 12  1  0  0  0  0
 11 13  1  0  0  0  0
 11 14  1  0  0  0  0
  9 10  1  0  0  0  0
  9 11  1  0  0  0  0
  9 29  1  0  0  0  0
  7  8  1  0  0  0  0
  7  9  1  0  0  0  0
 33 34  1  0  0  0  0
 33 35  1  0  0  0  0
 33 36  1  0  0  0  0
 31 32  1  0  0  0  0
 31 33  1  0  0  0  0
M  CHG  1  20   1
M  END
$$$$
default_name
  -OEChem-02102213163D

 36 35  0     1  0  0  0  0  0999 V2000
   -4.2256   -3.6731    1.8584 H   0  0  0  0  0  0  0  0  0  0  0  0
   -4.2396   -2.6781    1.4144 C   0  0  0  0  0  0  0  0  0  0  0  0
   -4.9506   -2.0521    1.9514 H   0  0  0  0  0  0  0  0  0  0  0  0
   -4.5266   -2.7521    0.3674 H   0  0  0  0  0  0  0  0  0  0  0  0
   -2.8576   -2.0761    1.5184 C   0  0  0  0  0  0  0  0  0  0  0  0
   -1.9456   -2.7051    2.0404 O   0  0  0  0  0  0  0  0  0  0  0  0
   -2.6926   -0.8481    1.0174 N   0  0  0  0  0  0  0  0  0  0  0  0
   -3.4926   -0.3971    0.5954 H   0  0  0  0  0  0  0  0  0  0  0  0
   -1.4216   -0.1071    1.0434 C   0  0  1  0  0  0  0  0  0  0  0  0
   -0.7579   -0.5878    1.7640 H   0  0  0  0  0  0  0  0  0  0  0  0
   -0.7791   -0.1912   -0.3557 C   0  0  0  0  0  0  0  0  0  0  0  0
    0.0144    0.5560   -0.4201 H   0  0  0  0  0  0  0  0  0  0  0  0
   -0.3273   -1.1774   -0.4823 H   0  0  0  0  0  0  0  0  0  0  0  0
   -1.7718    0.0594   -1.5002 C   0  0  0  0  0  0  0  0  0  0  0  0
   -2.7645    0.2536   -1.0917 H   0  0  0  0  0  0  0  0  0  0  0  0
   -1.4447    0.9241   -2.0786 H   0  0  0  0  0  0  0  0  0  0  0  0
   -1.8365   -1.1715   -2.4147 C   0  0  0  0  0  0  0  0  0  0  0  0
   -0.8337   -1.3743   -2.7977 H   0  0  0  0  0  0  0  0  0  0  0  0
   -2.1674   -2.0277   -1.8222 H   0  0  0  0  0  0  0  0  0  0  0  0
   -2.7640   -0.9659   -3.5461 N   0  3  0  0  0  0  0  0  0  0  0  0
   -3.2671   -0.0953   -3.5654 H   0  0  0  0  0  0  0  0  0  0  0  0
   -2.9937   -1.8160   -4.5328 C   0  0  0  0  0  0  0  0  0  0  0  0
   -2.3959   -2.9722   -4.6050 N   0  0  0  0  0  0  0  0  0  0  0  0
   -1.7387   -3.2226   -3.8875 H   0  0  0  0  0  0  0  0  0  0  0  0
   -2.5819   -3.6059   -5.3604 H   0  0  0  0  0  0  0  0  0  0  0  0
   -3.8401   -1.5176   -5.4772 N   0  0  0  0  0  0  0  0  0  0  0  0
   -4.3255   -0.6372   -5.4649 H   0  0  0  0  0  0  0  0  0  0  0  0
   -4.0113   -2.1654   -6.2240 H   0  0  0  0  0  0  0  0  0  0  0  0
   -1.6547    1.3413    1.4779 C   0  0  0  0  0  0  0  0  0  0  0  0
   -2.5654    1.9858    0.9716 O   0  0  0  0  0  0  0  0  0  0  0  0
   -0.8107    1.8504    2.3808 N   0  0  0  0  0  0  0  0  0  0  0  0
   -0.1136    1.2381    2.7719 H   0  0  0  0  0  0  0  0  0  0  0  0
   -0.8954    3.2155    2.9026 C   0  0  0  0  0  0  0  0  0  0  0  0
   -1.8299    3.3430    3.4532 H   0  0  0  0  0  0  0  0  0  0  0  0
   -0.0581    3.4194    3.5712 H   0  0  0  0  0  0  0  0  0  0  0  0
   -0.8804    3.9320    2.0784 H   0  0  0  0  0  0  0  0  0  0  0  0
  5  6  2  0  0  0  0
  5  7  1  0  0  0  0
  2  3  1  0  0  0  0
  2  4  1  0  0  0  0
  2  5  1  0  0  0  0
  1  2  1  0  0  0  0
 29 30  2  0  0  0  0
 29 31  1  0  0  0  0
 26 27  1  0  0  0  0
 26 28  1  0  0  0  0
 23 24  1  0  0  0  0
 23 25  1  0  0  0  0
 22 23  1  0  0  0  0
 22 26  1  0  0  0  0
 20 21  1  0  0  0  0
 20 22  2  0  0  0  0
 17 18  1  0  0  0  0
 17 19  1  0  0  0  0
 17 20  1  0  0  0  0
 14 15  1  0  0  0  0
 14 16  1  0  0  0  0
 14 17  1  0  0  0  0
 11 12  1  0  0  0  0
 11 13  1  0  0  0  0
 11 14  1  0  0  0  0
  9 10  1  0  0  0  0
  9 11  1  0  0  0  0
  9 29  1  0  0  0  0
  7  8  1  0  0  0  0
  7  9  1  0  0  0  0
 33 34  1  0  0  0  0
 33 35  1  0  0  0  0
 33 36  1  0  0  0  0
 31 32  1  0  0  0  0
 31 33  1  0  0  0  0
M  CHG  1  20   1
M  END
$$$$
default_name
  -OEChem-02102213163D

 36 35  0     1  0  0  0  0  0999 V2000
   -4.2256   -3.6731    1.8584 H   0  0  0  0  0  0  0  0  0  0  0  0
   -4.2396   -2.6781    1.4144 C   0  0  0  0  0  0  0  0  0  0  0  0
   -4.9506   -2.0521    1.9514 H   0  0  0  0  0  0  0  0  0  0  0  0
   -4.5266   -2.7521    0.3674 H   0  0  0  0  0  0  0  0  0  0  0  0
   -2.8576   -2.0761    1.5184 C   0  0  0  0  0  0  0  0  0  0  0  0
   -1.9456   -2.7051    2.0404 O   0  0  0  0  0  0  0  0  0  0  0  0
   -2.6926   -0.8481    1.0174 N   0  0  0  0  0  0  0  0  0  0  0  0
   -3.4926   -0.3971    0.5954 H   0  0  0  0  0  0  0  0  0  0  0  0
   -1.4216   -0.1071    1.0434 C   0  0  1  0  0  0  0  0  0  0  0  0
   -0.7579   -0.5878    1.7640 H   0  0  0  0  0  0  0  0  0  0  0  0
   -0.7791   -0.1912   -0.3557 C   0  0  0  0  0  0  0  0  0  0  0  0
    0.0144    0.5560   -0.4201 H   0  0  0  0  0  0  0  0  0  0  0  0
   -0.3273   -1.1774   -0.4823 H   0  0  0  0  0  0  0  0  0  0  0  0
   -1.7718    0.0594   -1.5002 C   0  0  0  0  0  0  0  0  0  0  0  0
   -2.6841    0.5089   -1.1056 H   0  0  0  0  0  0  0  0  0  0  0  0
   -1.3215    0.7367   -2.2265 H   0  0  0  0  0  0  0  0  0  0  0  0
   -2.1218   -1.2671   -2.1881 C   0  0  0  0  0  0  0  0  0  0  0  0
   -1.1998   -1.7228   -2.5565 H   0  0  0  0  0  0  0  0  0  0  0  0
   -2.5736   -1.9333   -1.4493 H   0  0  0  0  0  0  0  0  0  0  0  0
   -3.0584   -1.0707   -3.3138 N   0  3  0  0  0  0  0  0  0  0  0  0
   -3.3878   -0.1333   -3.4689 H   0  0  0  0  0  0  0  0  0  0  0  0
   -3.5024   -2.0085   -4.1338 C   0  0  0  0  0  0  0  0  0  0  0  0
   -3.1395   -3.2556   -4.0221 N   0  0  0  0  0  0  0  0  0  0  0  0
   -2.5007   -3.5097   -3.2895 H   0  0  0  0  0  0  0  0  0  0  0  0
   -3.4861   -3.9549   -4.6526 H   0  0  0  0  0  0  0  0  0  0  0  0
   -4.3308   -1.7078   -5.0932 N   0  0  0  0  0  0  0  0  0  0  0  0
   -4.6393   -0.7592   -5.2195 H   0  0  0  0  0  0  0  0  0  0  0  0
   -4.6651   -2.4223   -5.7132 H   0  0  0  0  0  0  0  0  0  0  0  0
   -1.6547    1.3413    1.4779 C   0  0  0  0  0  0  0  0  0  0  0  0
   -2.5654    1.9858    0.9716 O   0  0  0  0  0  0  0  0  0  0  0  0
   -0.8107    1.8504    2.3808 N   0  0  0  0  0  0  0  0  0  0  0  0
   -0.1136    1.2381    2.7719 H   0  0  0  0  0  0  0  0  0  0  0  0
   -0.8954    3.2155    2.9026 C   0  0  0  0  0  0  0  0  0  0  0  0
   -1.8299    3.3430    3.4532 H   0  0  0  0  0  0  0  0  0  0  0  0
   -0.0581    3.4194    3.5712 H   0  0  0  0  0  0  0  0  0  0  0  0
   -0.8804    3.9320    2.0784 H   0  0  0  0  0  0  0  0  0  0  0  0
  5  6  2  0  0  0  0
  5  7  1  0  0  0  0
  2  3  1  0  0  0  0
  2  4  1  0  0  0  0
  2  5  1  0  0  0  0
  1  2  1  0  0  0  0
 29 30  2  0  0  0  0
 29 31  1  0  0  0  0
 26 27  1  0  0  0  0
 26 28  1  0  0  0  0
 23 24  1  0  0  0  0
 23 25  1  0  0  0  0
 22 23  1  0  0  0  0
 22 26  1  0  0  0  0
 20 21  1  0  0  0  0
 20 22  2  0  0  0  0
 17 18  1  0  0  0  0
 17 19  1  0  0  0  0
 17 20  1  0  0  0  0
 14 15  1  0  0  0  0
 14 16  1  0  0  0  0
 14 17  1  0  0  0  0
 11 12  1  0  0  0  0
 11 13  1  0  0  0  0
 11 14  1  0  0  0  0
  9 10  1  0  0  0  0
  9 11  1  0  0  0  0
  9 29  1  0  0  0  0
  7  8  1  0  0  0  0
  7  9  1  0  0  0  0
 33 34  1  0  0  0  0
 33 35  1  0  0  0  0
 33 36  1  0  0  0  0
 31 32  1  0  0  0  0
 31 33  1  0  0  0  0
M  CHG  1  20   1
M  END
$$$$
default_name
  -OEChem-02102213163D

 36 35  0     1  0  0  0  0  0999 V2000
   -4.2256   -3.6731    1.8584 H   0  0  0  0  0  0  0  0  0  0  0  0
   -4.2396   -2.6781    1.4144 C   0  0  0  0  0  0  0  0  0  0  0  0
   -4.9506   -2.0521    1.9514 H   0  0  0  0  0  0  0  0  0  0  0  0
   -4.5266   -2.7521    0.3674 H   0  0  0  0  0  0  0  0  0  0  0  0
   -2.8576   -2.0761    1.5184 C   0  0  0  0  0  0  0  0  0  0  0  0
   -1.9456   -2.7051    2.0404 O   0  0  0  0  0  0  0  0  0  0  0  0
   -2.6926   -0.8481    1.0174 N   0  0  0  0  0  0  0  0  0  0  0  0
   -3.4926   -0.3971    0.5954 H   0  0  0  0  0  0  0  0  0  0  0  0
   -1.4216   -0.1071    1.0434 C   0  0  1  0  0  0  0  0  0  0  0  0
   -0.7579   -0.5878    1.7640 H   0  0  0  0  0  0  0  0  0  0  0  0
   -0.7791   -0.1912   -0.3557 C   0  0  0  0  0  0  0  0  0  0  0  0
    0.0144    0.5560   -0.4201 H   0  0  0  0  0  0  0  0  0  0  0  0
   -0.3273   -1.1774   -0.4823 H   0  0  0  0  0  0  0  0  0  0  0  0
   -1.7718    0.0594   -1.5002 C   0  0  0  0  0  0  0  0  0  0  0  0
   -2.5578    0.7376   -1.1651 H   0  0  0  0  0  0  0  0  0  0  0  0
   -1.2448    0.5073   -2.3433 H   0  0  0  0  0  0  0  0  0  0  0  0
   -2.4064   -1.2666   -1.9412 C   0  0  0  0  0  0  0  0  0  0  0  0
   -1.6105   -1.9484   -2.2497 H   0  0  0  0  0  0  0  0  0  0  0  0
   -2.9319   -1.7013   -1.0877 H   0  0  0  0  0  0  0  0  0  0  0  0
   -3.3532   -1.0763   -3.0593 N   0  3  0  0  0  0  0  0  0  0  0  0
   -3.5077   -0.1306   -3.3644 H   0  0  0  0  0  0  0  0  0  0  0  0
   -4.0140   -2.0296   -3.6947 C   0  0  0  0  0  0  0  0  0  0  0  0
   -3.8878   -3.2883   -3.3802 N   0  0  0  0  0  0  0  0  0  0  0  0
   -3.2668   -3.5401   -2.6316 H   0  0  0  0  0  0  0  0  0  0  0  0
   -4.3970   -3.9993   -3.8723 H   0  0  0  0  0  0  0  0  0  0  0  0
   -4.8253   -1.7326   -4.6698 N   0  0  0  0  0  0  0  0  0  0  0  0
   -4.9555   -0.7754   -4.9488 H   0  0  0  0  0  0  0  0  0  0  0  0
   -5.3247   -2.4588   -5.1492 H   0  0  0  0  0  0  0  0  0  0  0  0
   -1.6547    1.3413    1.4779 C   0  0  0  0  0  0  0  0  0  0  0  0
   -2.5654    1.9858    0.9716 O   0  0  0  0  0  0  0  0  0  0  0  0
   -0.8107    1.8504    2.3808 N   0  0  0  0  0  0  0  0  0  0  0  0
   -0.1136    1.2381    2.7719 H   0  0  0  0  0  0  0  0  0  0  0  0
   -0.8954    3.2155    2.9026 C   0  0  0  0  0  0  0  0  0  0  0  0
   -1.8299    3.3430    3.4532 H   0  0  0  0  0  0  0  0  0  0  0  0
   -0.0581    3.4194    3.5712 H   0  0  0  0  0  0  0  0  0  0  0  0
   -0.8804    3.9320    2.0784 H   0  0  0  0  0  0  0  0  0  0  0  0
  5  6  2  0  0  0  0
  5  7  1  0  0  0  0
  2  3  1  0  0  0  0
  2  4  1  0  0  0  0
  2  5  1  0  0  0  0
  1  2  1  0  0  0  0
 29 30  2  0  0  0  0
 29 31  1  0  0  0  0
 26 27  1  0  0  0  0
 26 28  1  0  0  0  0
 23 24  1  0  0  0  0
 23 25  1  0  0  0  0
 22 23  1  0  0  0  0
 22 26  1  0  0  0  0
 20 21  1  0  0  0  0
 20 22  2  0  0  0  0
 17 18  1  0  0  0  0
 17 19  1  0  0  0  0
 17 20  1  0  0  0  0
 14 15  1  0  0  0  0
 14 16  1  0  0  0  0
 14 17  1  0  0  0  0
 11 12  1  0  0  0  0
 11 13  1  0  0  0  0
 11 14  1  0  0  0  0
  9 10  1  0  0  0  0
  9 11  1  0  0  0  0
  9 29  1  0  0  0  0
  7  8  1  0  0  0  0
  7  9  1  0  0  0  0
 33 34  1  0  0  0  0
 33 35  1  0  0  0  0
 33 36  1  0  0  0  0
 31 32  1  0  0  0  0
 31 33  1  0  0  0  0
M  CHG  1  20   1
M  END
$$$$
default_name
  -OEChem-02102213163D

 36 35  0     1  0  0  0  0  0999 V2000
   -4.2256   -3.6731    1.8584 H   0  0  0  0  0  0  0  0  0  0  0  0
   -4.2396   -2.6781    1.4144 C   0  0  0  0  0  0  0  0  0  0  0  0
   -4.9506   -2.0521    1.9514 H   0  0  0  0  0  0  0  0  0  0  0  0
   -4.5266   -2.7521    0.3674 H   0  0  0  0  0  0  0  0  0  0  0  0
   -2.8576   -2.0761    1.5184 C   0  0  0  0  0  0  0  0  0  0  0  0
   -1.9456   -2.7051    2.0404 O   0  0  0  0  0  0  0  0  0  0  0  0
   -2.6926   -0.8481    1.0174 N   0  0  0  0  0  0  0  0  0  0  0  0
   -3.4926   -0.3971    0.5954 H   0  0  0  0  0  0  0  0  0  0  0  0
   -1.4216   -0.1071    1.0434 C   0  0  1  0  0  0  0  0  0  0  0  0
   -0.7579   -0.5878    1.7640 H   0  0  0  0  0  0  0  0  0  0  0  0
   -0.7791   -0.1912   -0.3557 C   0  0  0  0  0  0  0  0  0  0  0  0
    0.0144    0.5560   -0.4201 H   0  0  0  0  0  0  0  0  0  0  0  0
   -0.3273   -1.1774   -0.4823 H   0  0  0  0  0  0  0  0  0  0  0  0
   -1.7718    0.0594   -1.5002 C   0  0  0  0  0  0  0  0  0  0  0  0
   -2.3942    0.9242   -1.2661 H   0  0  0  0  0  0  0  0  0  0  0  0
   -1.2199    0.2513   -2.4209 H   0  0  0  0  0  0  0  0  0  0  0  0
   -2.6707   -1.1699   -1.6908 C   0  0  0  0  0  0  0  0  0  0  0  0
   -2.0378   -2.0358   -1.8983 H   0  0  0  0  0  0  0  0  0  0  0  0
   -3.2180   -1.3477   -0.7621 H   0  0  0  0  0  0  0  0  0  0  0  0
   -3.6282   -0.9823   -2.8002 N   0  3  0  0  0  0  0  0  0  0  0  0
   -3.6186   -0.0874   -3.2587 H   0  0  0  0  0  0  0  0  0  0  0  0
   -4.4937   -1.8777   -3.2454 C   0  0  0  0  0  0  0  0  0  0  0  0
   -4.5899   -3.0682   -2.7232 N   0  0  0  0  0  0  0  0  0  0  0  0
   -3.9850   -3.3115   -1.9588 H   0  0  0  0  0  0  0  0  0  0  0  0
   -5.2524   -3.7358   -3.0728 H   0  0  0  0  0  0  0  0  0  0  0  0
   -5.2899   -1.5903   -4.2357 N   0  0  0  0  0  0  0  0  0  0  0  0
   -5.2526   -0.6848   -4.6712 H   0  0  0  0  0  0  0  0  0  0  0  0
   -5.9449   -2.2725   -4.5704 H   0  0  0  0  0  0  0  0  0  0  0  0
   -1.6547    1.3413    1.4779 C   0  0  0  0  0  0  0  0  0  0  0  0
   -2.5654    1.9858    0.9716 O   0  0  0  0  0  0  0  0  0  0  0  0
   -0.8107    1.8504    2.3808 N   0  0  0  0  0  0  0  0  0  0  0  0
   -0.1136    1.2381    2.7719 H   0  0  0  0  0  0  0  0  0  0  0  0
   -0.8954    3.2155    2.9026 C   0  0  0  0  0  0  0  0  0  0  0  0
   -1.8299    3.3430    3.4532 H   0  0  0  0  0  0  0  0  0  0  0  0
   -0.0581    3.4194    3.5712 H   0  0  0  0  0  0  0  0  0  0  0  0
   -0.8804    3.9320    2.0784 H   0  0  0  0  0  0  0  0  0  0  0  0
  5  6  2  0  0  0  0
  5  7  1  0  0  0  0
  2  3  1  0  0  0  0
  2  4  1  0  0  0  0
  2  5  1  0  0  0  0
  1  2  1  0  0  0  0
 29 30  2  0  0  0  0
 29 31  1  0  0  0  0
 26 27  1  0  0  0  0
 26 28  1  0  0  0  0
 23 24  1  0  0  0  0
 23 25  1  0  0  0  0
 22 23  1  0  0  0  0
 22 26  1  0  0  0  0
 20 21  1  0  0  0  0
 20 22  2  0  0  0  0
 17 18  1  0  0  0  0
 17 19  1  0  0  0  0
 17 20  1  0  0  0  0
 14 15  1  0  0  0  0
 14 16  1  0  0  0  0
 14 17  1  0  0  0  0
 11 12  1  0  0  0  0
 11 13  1  0  0  0  0
 11 14  1  0  0  0  0
  9 10  1  0  0  0  0
  9 11  1  0  0  0  0
  9 29  1  0  0  0  0
  7  8  1  0  0  0  0
  7  9  1  0  0  0  0
 33 34  1  0  0  0  0
 33 35  1  0  0  0  0
 33 36  1  0  0  0  0
 31 32  1  0  0  0  0
 31 33  1  0  0  0  0
M  CHG  1  20   1
M  END
$$$$
default_name
  -OEChem-02102213163D

 36 35  0     1  0  0  0  0  0999 V2000
   -4.2256   -3.6731    1.8584 H   0  0  0  0  0  0  0  0  0  0  0  0
   -4.2396   -2.6781    1.4144 C   0  0  0  0  0  0  0  0  0  0  0  0
   -4.9506   -2.0521    1.9514 H   0  0  0  0  0  0  0  0  0  0  0  0
   -4.5266   -2.7521    0.3674 H   0  0  0  0  0  0  0  0  0  0  0  0
   -2.8576   -2.0761    1.5184 C   0  0  0  0  0  0  0  0  0  0  0  0
   -1.9456   -2.7051    2.0404 O   0  0  0  0  0  0  0  0  0  0  0  0
   -2.6926   -0.8481    1.0174 N   0  0  0  0  0  0  0  0  0  0  0  0
   -3.4926   -0.3971    0.5954 H   0  0  0  0  0  0  0  0  0  0  0  0
   -1.4216   -0.1071    1.0434 C   0  0  1  0  0  0  0  0  0  0  0  0
   -0.7579   -0.5878    1.7640 H   0  0  0  0  0  0  0  0  0  0  0  0
   -0.7791   -0.1912   -0.3557 C   0  0  0  0  0  0  0  0  0  0  0  0
    0.0144    0.5560   -0.4201 H   0  0  0  0  0  0  0  0  0  0  0  0
   -0.3273   -1.1774   -0.4823 H   0  0  0  0  0  0  0  0  0  0  0  0
   -1.7718    0.0594   -1.5002 C   0  0  0  0  0  0  0  0  0  0  0  0
   -2.2044    1.0560   -1.4019 H   0  0  0  0  0  0  0  0  0  0  0  0
   -1.2485   -0.0137   -2.4541 H   0  0  0  0  0  0  0  0  0  0  0  0
   -2.8967   -0.9836   -1.4540 C   0  0  0  0  0  0  0  0  0  0  0  0
   -2.4525   -1.9790   -1.5262 H   0  0  0  0  0  0  0  0  0  0  0  0
   -3.4124   -0.8964   -0.4947 H   0  0  0  0  0  0  0  0  0  0  0  0
   -3.8649   -0.7951   -2.5539 N   0  3  0  0  0  0  0  0  0  0  0  0
   -3.7129   -0.0065   -3.1593 H   0  0  0  0  0  0  0  0  0  0  0  0
   -4.9087   -1.5634   -2.8166 C   0  0  0  0  0  0  0  0  0  0  0  0
   -5.1978   -2.6103   -2.0957 N   0  0  0  0  0  0  0  0  0  0  0  0
   -4.6061   -2.8396   -1.3168 H   0  0  0  0  0  0  0  0  0  0  0  0
   -5.9941   -3.1826   -2.3084 H   0  0  0  0  0  0  0  0  0  0  0  0
   -5.6929   -1.2906   -3.8206 N   0  0  0  0  0  0  0  0  0  0  0  0
   -5.5104   -0.4935   -4.4058 H   0  0  0  0  0  0  0  0  0  0  0  0
   -6.4837   -1.8761   -4.0164 H   0  0  0  0  0  0  0  0  0  0  0  0
   -1.6547    1.3413    1.4779 C   0  0  0  0  0  0  0  0  0  0  0  0
   -2.5654    1.9858    0.9716 O   0  0  0  0  0  0  0  0  0  0  0  0
   -0.8107    1.8504    2.3808 N   0  0  0  0  0  0  0  0  0  0  0  0
   -0.1136    1.2381    2.7719 H   0  0  0  0  0  0  0  0  0  0  0  0
   -0.8954    3.2155    2.9026 C   0  0  0  0  0  0  0  0  0  0  0  0
   -1.8299    3.3430    3.4532 H   0  0  0  0  0  0  0  0  0  0  0  0
   -0.0581    3.4194    3.5712 H   0  0  0  0  0  0  0  0  0  0  0  0
   -0.8804    3.9320    2.0784 H   0  0  0  0  0  0  0  0  0  0  0  0
  5  6  2  0  0  0  0
  5  7  1  0  0  0  0
  2  3  1  0  0  0  0
  2  4  1  0  0  0  0
  2  5  1  0  0  0  0
  1  2  1  0  0  0  0
 29 30  2  0  0  0  0
 29 31  1  0  0  0  0
 26 27  1  0  0  0  0
 26 28  1  0  0  0  0
 23 24  1  0  0  0  0
 23 25  1  0  0  0  0
 22 23  1  0  0  0  0
 22 26  1  0  0  0  0
 20 21  1  0  0  0  0
 20 22  2  0  0  0  0
 17 18  1  0  0  0  0
 17 19  1  0  0  0  0
 17 20  1  0  0  0  0
 14 15  1  0  0  0  0
 14 16  1  0  0  0  0
 14 17  1  0  0  0  0
 11 12  1  0  0  0  0
 11 13  1  0  0  0  0
 11 14  1  0  0  0  0
  9 10  1  0  0  0  0
  9 11  1  0  0  0  0
  9 29  1  0  0  0  0
  7  8  1  0  0  0  0
  7  9  1  0  0  0  0
 33 34  1  0  0  0  0
 33 35  1  0  0  0  0
 33 36  1  0  0  0  0
 31 32  1  0  0  0  0
 31 33  1  0  0  0  0
M  CHG  1  20   1
M  END
$$$$
default_name
  -OEChem-02102213163D

 36 35  0     1  0  0  0  0  0999 V2000
   -4.2256   -3.6731    1.8584 H   0  0  0  0  0  0  0  0  0  0  0  0
   -4.2396   -2.6781    1.4144 C   0  0  0  0  0  0  0  0  0  0  0  0
   -4.9506   -2.0521    1.9514 H   0  0  0  0  0  0  0  0  0  0  0  0
   -4.5266   -2.7521    0.3674 H   0  0  0  0  0  0  0  0  0  0  0  0
   -2.8576   -2.0761    1.5184 C   0  0  0  0  0  0  0  0  0  0  0  0
   -1.9456   -2.7051    2.0404 O   0  0  0  0  0  0  0  0  0  0  0  0
   -2.6926   -0.8481    1.0174 N   0  0  0  0  0  0  0  0  0  0  0  0
   -3.4926   -0.3971    0.5954 H   0  0  0  0  0  0  0  0  0  0  0  0
   -1.4216   -0.1071    1.0434 C   0  0  1  0  0  0  0  0  0  0  0  0
   -0.7579   -0.5878    1.7640 H   0  0  0  0  0  0  0  0  0  0  0  0
   -0.7791   -0.1912   -0.3557 C   0  0  0  0  0  0  0  0  0  0  0  0
    0.0144    0.5560   -0.4201 H   0  0  0  0  0  0  0  0  0  0  0  0
   -0.3273   -1.1774   -0.4823 H   0  0  0  0  0  0  0  0  0  0  0  0
   -1.7718    0.0594   -1.5002 C   0  0  0  0  0  0  0  0  0  0  0  0
   -2.0013    1.1240   -1.5631 H   0  0  0  0  0  0  0  0  0  0  0  0
   -1.3287   -0.2698   -2.4406 H   0  0  0  0  0  0  0  0  0  0  0  0
   -3.0692   -0.7204   -1.2468 C   0  0  0  0  0  0  0  0  0  0  0  0
   -2.8264   -1.7819   -1.1587 H   0  0  0  0  0  0  0  0  0  0  0  0
   -3.5019   -0.3782   -0.3037 H   0  0  0  0  0  0  0  0  0  0  0  0
   -4.0469   -0.5274   -2.3375 N   0  3  0  0  0  0  0  0  0  0  0  0
   -3.7841    0.1064   -3.0727 H   0  0  0  0  0  0  0  0  0  0  0  0
   -5.2309   -1.1079   -2.4375 C   0  0  0  0  0  0  0  0  0  0  0  0
   -5.6702   -1.9457   -1.5405 N   0  0  0  0  0  0  0  0  0  0  0  0
   -5.0880   -2.1566   -0.7493 H   0  0  0  0  0  0  0  0  0  0  0  0
   -6.5715   -2.3773   -1.6314 H   0  0  0  0  0  0  0  0  0  0  0  0
   -6.0067   -0.8539   -3.4528 N   0  0  0  0  0  0  0  0  0  0  0  0
   -5.7114   -0.2146   -4.1704 H   0  0  0  0  0  0  0  0  0  0  0  0
   -6.9042   -1.2966   -3.5248 H   0  0  0  0  0  0  0  0  0  0  0  0
   -1.6547    1.3413    1.4779 C   0  0  0  0  0  0  0  0  0  0  0  0
   -2.5654    1.9858    0.9716 O   0  0  0  0  0  0  0  0  0  0  0  0
   -0.8107    1.8504    2.3808 N   0  0  0  0  0  0  0  0  0  0  0  0
   -0.1136    1.2381    2.7719 H   0  0  0  0  0  0  0  0  0  0  0  0
   -0.8954    3.2155    2.9026 C   0  0  0  0  0  0  0  0  0  0  0  0
   -1.8299    3.3430    3.4532 H   0  0  0  0  0  0  0  0  0  0  0  0
   -0.0581    3.4194    3.5712 H   0  0  0  0  0  0  0  0  0  0  0  0
   -0.8804    3.9320    2.0784 H   0  0  0  0  0  0  0  0  0  0  0  0
  5  6  2  0  0  0  0
  5  7  1  0  0  0  0
  2  3  1  0  0  0  0
  2  4  1  0  0  0  0
  2  5  1  0  0  0  0
  1  2  1  0  0  0  0
 29 30  2  0  0  0  0
 29 31  1  0  0  0  0
 26 27  1  0  0  0  0
 26 28  1  0  0  0  0
 23 24  1  0  0  0  0
 23 25  1  0  0  0  0
 22 23  1  0  0  0  0
 22 26  1  0  0  0  0
 20 21  1  0  0  0  0
 20 22  2  0  0  0  0
 17 18  1  0  0  0  0
 17 19  1  0  0  0  0
 17 20  1  0  0  0  0
 14 15  1  0  0  0  0
 14 16  1  0  0  0  0
 14 17  1  0  0  0  0
 11 12  1  0  0  0  0
 11 13  1  0  0  0  0
 11 14  1  0  0  0  0
  9 10  1  0  0  0  0
  9 11  1  0  0  0  0
  9 29  1  0  0  0  0
  7  8  1  0  0  0  0
  7  9  1  0  0  0  0
 33 34  1  0  0  0  0
 33 35  1  0  0  0  0
 33 36  1  0  0  0  0
 31 32  1  0  0  0  0
 31 33  1  0  0  0  0
M  CHG  1  20   1
M  END
$$$$
default_name
  -OEChem-02102213163D

 36 35  0     1  0  0  0  0  0999 V2000
   -4.2256   -3.6731    1.8584 H   0  0  0  0  0  0  0  0  0  0  0  0
   -4.2396   -2.6781    1.4144 C   0  0  0  0  0  0  0  0  0  0  0  0
   -4.9506   -2.0521    1.9514 H   0  0  0  0  0  0  0  0  0  0  0  0
   -4.5266   -2.7521    0.3674 H   0  0  0  0  0  0  0  0  0  0  0  0
   -2.8576   -2.0761    1.5184 C   0  0  0  0  0  0  0  0  0  0  0  0
   -1.9456   -2.7051    2.0404 O   0  0  0  0  0  0  0  0  0  0  0  0
   -2.6926   -0.8481    1.0174 N   0  0  0  0  0  0  0  0  0  0  0  0
   -3.4926   -0.3971    0.5954 H   0  0  0  0  0  0  0  0  0  0  0  0
   -1.4216   -0.1071    1.0434 C   0  0  1  0  0  0  0  0  0  0  0  0
   -0.7579   -0.5878    1.7640 H   0  0  0  0  0  0  0  0  0  0  0  0
   -0.7791   -0.1912   -0.3557 C   0  0  0  0  0  0  0  0  0  0  0  0
    0.0144    0.5560   -0.4201 H   0  0  0  0  0  0  0  0  0  0  0  0
   -0.3273   -1.1774   -0.4823 H   0  0  0  0  0  0  0  0  0  0  0  0
   -1.7718    0.0594   -1.5002 C   0  0  0  0  0  0  0  0  0  0  0  0
   -1.7989    1.1236   -1.7387 H   0  0  0  0  0  0  0  0  0  0  0  0
   -1.4549   -0.4994   -2.3814 H   0  0  0  0  0  0  0  0  0  0  0  0
   -3.1762   -0.3982   -1.0834 C   0  0  0  0  0  0  0  0  0  0  0  0
   -3.1341   -1.4578   -0.8210 H   0  0  0  0  0  0  0  0  0  0  0  0
   -3.4802    0.1715   -0.2022 H   0  0  0  0  0  0  0  0  0  0  0  0
   -4.1620   -0.1975   -2.1654 N   0  3  0  0  0  0  0  0  0  0  0  0
   -3.8276    0.2437   -3.0050 H   0  0  0  0  0  0  0  0  0  0  0  0
   -5.4383   -0.5424   -2.1338 C   0  0  0  0  0  0  0  0  0  0  0  0
   -5.9748   -1.1197   -1.0955 N   0  0  0  0  0  0  0  0  0  0  0  0
   -5.3977   -1.3090   -0.2952 H   0  0  0  0  0  0  0  0  0  0  0  0
   -6.9452   -1.3747   -1.0877 H   0  0  0  0  0  0  0  0  0  0  0  0
   -6.2102   -0.3100   -3.1573 N   0  0  0  0  0  0  0  0  0  0  0  0
   -5.8417    0.1329   -3.9813 H   0  0  0  0  0  0  0  0  0  0  0  0
   -7.1778   -0.5734   -3.1292 H   0  0  0  0  0  0  0  0  0  0  0  0
   -1.6547    1.3413    1.4779 C   0  0  0  0  0  0  0  0  0  0  0  0
   -2.5654    1.9858    0.9716 O   0  0  0  0  0  0  0  0  0  0  0  0
   -0.8107    1.8504    2.3808 N   0  0  0  0  0  0  0  0  0  0  0  0
   -0.1136    1.2381    2.7719 H   0  0  0  0  0  0  0  0  0  0  0  0
   -0.8954    3.2155    2.9026 C   0  0  0  0  0  0  0  0  0  0  0  0
   -1.8299    3.3430    3.4532 H   0  0  0  0  0  0  0  0  0  0  0  0
   -0.0581    3.4194    3.5712 H   0  0  0  0  0  0  0  0  0  0  0  0
   -0.8804    3.9320    2.0784 H   0  0  0  0  0  0  0  0  0  0  0  0
  5  6  2  0  0  0  0
  5  7  1  0  0  0  0
  2  3  1  0  0  0  0
  2  4  1  0  0  0  0
  2  5  1  0  0  0  0
  1  2  1  0  0  0  0
 29 30  2  0  0  0  0
 29 31  1  0  0  0  0
 26 27  1  0  0  0  0
 26 28  1  0  0  0  0
 23 24  1  0  0  0  0
 23 25  1  0  0  0  0
 22 23  1  0  0  0  0
 22 26  1  0  0  0  0
 20 21  1  0  0  0  0
 20 22  2  0  0  0  0
 17 18  1  0  0  0  0
 17 19  1  0  0  0  0
 17 20  1  0  0  0  0
 14 15  1  0  0  0  0
 14 16  1  0  0  0  0
 14 17  1  0  0  0  0
 11 12  1  0  0  0  0
 11 13  1  0  0  0  0
 11 14  1  0  0  0  0
  9 10  1  0  0  0  0
  9 11  1  0  0  0  0
  9 29  1  0  0  0  0
  7  8  1  0  0  0  0
  7  9  1  0  0  0  0
 33 34  1  0  0  0  0
 33 35  1  0  0  0  0
 33 36  1  0  0  0  0
 31 32  1  0  0  0  0
 31 33  1  0  0  0  0
M  CHG  1  20   1
M  END
$$$$
default_name
  -OEChem-02102213163D

 36 35  0     1  0  0  0  0  0999 V2000
   -4.2256   -3.6731    1.8584 H   0  0  0  0  0  0  0  0  0  0  0  0
   -4.2396   -2.6781    1.4144 C   0  0  0  0  0  0  0  0  0  0  0  0
   -4.9506   -2.0521    1.9514 H   0  0  0  0  0  0  0  0  0  0  0  0
   -4.5266   -2.7521    0.3674 H   0  0  0  0  0  0  0  0  0  0  0  0
   -2.8576   -2.0761    1.5184 C   0  0  0  0  0  0  0  0  0  0  0  0
   -1.9456   -2.7051    2.0404 O   0  0  0  0  0  0  0  0  0  0  0  0
   -2.6926   -0.8481    1.0174 N   0  0  0  0  0  0  0  0  0  0  0  0
   -3.4926   -0.3971    0.5954 H   0  0  0  0  0  0  0  0  0  0  0  0
   -1.4216   -0.1071    1.0434 C   0  0  1  0  0  0  0  0  0  0  0  0
   -0.7579   -0.5878    1.7640 H   0  0  0  0  0  0  0  0  0  0  0  0
   -0.7791   -0.1912   -0.3557 C   0  0  0  0  0  0  0  0  0  0  0  0
    0.0144    0.5560   -0.4201 H   0  0  0  0  0  0  0  0  0  0  0  0
   -0.3273   -1.1774   -0.4823 H   0  0  0  0  0  0  0  0  0  0  0  0
   -1.7718    0.0594   -1.5002 C   0  0  0  0  0  0  0  0  0  0  0  0
   -1.6109    1.0547   -1.9169 H   0  0  0  0  0  0  0  0  0  0  0  0
   -1.6187   -0.6869   -2.2804 H   0  0  0  0  0  0  0  0  0  0  0  0
   -3.2105   -0.0391   -0.9750 C   0  0  0  0  0  0  0  0  0  0  0  0
   -3.3544   -1.0290   -0.5360 H   0  0  0  0  0  0  0  0  0  0  0  0
   -3.3490    0.7152   -0.1969 H   0  0  0  0  0  0  0  0  0  0  0  0
   -4.2022    0.1722   -2.0496 N   0  3  0  0  0  0  0  0  0  0  0  0
   -3.8402    0.3960   -2.9608 H   0  0  0  0  0  0  0  0  0  0  0  0
   -5.5167    0.0946   -1.9264 C   0  0  0  0  0  0  0  0  0  0  0  0
   -6.0909   -0.1887   -0.7910 N   0  0  0  0  0  0  0  0  0  0  0  0
   -5.5141   -0.3545    0.0148 H   0  0  0  0  0  0  0  0  0  0  0  0
   -7.0899   -0.2433   -0.7145 H   0  0  0  0  0  0  0  0  0  0  0  0
   -6.2892    0.3040   -2.9543 N   0  0  0  0  0  0  0  0  0  0  0  0
   -5.8926    0.5254   -3.8513 H   0  0  0  0  0  0  0  0  0  0  0  0
   -7.2859    0.2441   -2.8565 H   0  0  0  0  0  0  0  0  0  0  0  0
   -1.6547    1.3413    1.4779 C   0  0  0  0  0  0  0  0  0  0  0  0
   -2.5654    1.9858    0.9716 O   0  0  0  0  0  0  0  0  0  0  0  0
   -0.8107    1.8504    2.3808 N   0  0  0  0  0  0  0  0  0  0  0  0
   -0.1136    1.2381    2.7719 H   0  0  0  0  0  0  0  0  0  0  0  0
   -0.8954    3.2155    2.9026 C   0  0  0  0  0  0  0  0  0  0  0  0
   -1.8299    3.3430    3.4532 H   0  0  0  0  0  0  0  0  0  0  0  0
   -0.0581    3.4194    3.5712 H   0  0  0  0  0  0  0  0  0  0  0  0
   -0.8804    3.9320    2.0784 H   0  0  0  0  0  0  0  0  0  0  0  0
  5  6  2  0  0  0  0
  5  7  1  0  0  0  0
  2  3  1  0  0  0  0
  2  4  1  0  0  0  0
  2  5  1  0  0  0  0
  1  2  1  0  0  0  0
 29 30  2  0  0  0  0
 29 31  1  0  0  0  0
 26 27  1  0  0  0  0
 26 28  1  0  0  0  0
 23 24  1  0  0  0  0
 23 25  1  0  0  0  0
 22 23  1  0  0  0  0
 22 26  1  0  0  0  0
 20 21  1  0  0  0  0
 20 22  2  0  0  0  0
 17 18  1  0  0  0  0
 17 19  1  0  0  0  0
 17 20  1  0  0  0  0
 14 15  1  0  0  0  0
 14 16  1  0  0  0  0
 14 17  1  0  0  0  0
 11 12  1  0  0  0  0
 11 13  1  0  0  0  0
 11 14  1  0  0  0  0
  9 10  1  0  0  0  0
  9 11  1  0  0  0  0
  9 29  1  0  0  0  0
  7  8  1  0  0  0  0
  7  9  1  0  0  0  0
 33 34  1  0  0  0  0
 33 35  1  0  0  0  0
 33 36  1  0  0  0  0
 31 32  1  0  0  0  0
 31 33  1  0  0  0  0
M  CHG  1  20   1
M  END
$$$$
default_name
  -OEChem-02102213163D

 36 35  0     1  0  0  0  0  0999 V2000
   -4.2256   -3.6731    1.8584 H   0  0  0  0  0  0  0  0  0  0  0  0
   -4.2396   -2.6781    1.4144 C   0  0  0  0  0  0  0  0  0  0  0  0
   -4.9506   -2.0521    1.9514 H   0  0  0  0  0  0  0  0  0  0  0  0
   -4.5266   -2.7521    0.3674 H   0  0  0  0  0  0  0  0  0  0  0  0
   -2.8576   -2.0761    1.5184 C   0  0  0  0  0  0  0  0  0  0  0  0
   -1.9456   -2.7051    2.0404 O   0  0  0  0  0  0  0  0  0  0  0  0
   -2.6926   -0.8481    1.0174 N   0  0  0  0  0  0  0  0  0  0  0  0
   -3.4926   -0.3971    0.5954 H   0  0  0  0  0  0  0  0  0  0  0  0
   -1.4216   -0.1071    1.0434 C   0  0  1  0  0  0  0  0  0  0  0  0
   -0.7579   -0.5878    1.7640 H   0  0  0  0  0  0  0  0  0  0  0  0
   -0.7791   -0.1912   -0.3557 C   0  0  0  0  0  0  0  0  0  0  0  0
    0.0144    0.5560   -0.4201 H   0  0  0  0  0  0  0  0  0  0  0  0
   -0.3273   -1.1774   -0.4823 H   0  0  0  0  0  0  0  0  0  0  0  0
   -1.7718    0.0594   -1.5002 C   0  0  0  0  0  0  0  0  0  0  0  0
   -1.4501    0.9221   -2.0854 H   0  0  0  0  0  0  0  0  0  0  0  0
   -1.8087   -0.8195   -2.1446 H   0  0  0  0  0  0  0  0  0  0  0  0
   -3.1698    0.3326   -0.9290 C   0  0  0  0  0  0  0  0  0  0  0  0
   -3.4725   -0.5246   -0.3231 H   0  0  0  0  0  0  0  0  0  0  0  0
   -3.1171    1.2161   -0.2884 H   0  0  0  0  0  0  0  0  0  0  0  0
   -4.1649    0.5564   -1.9979 N   0  3  0  0  0  0  0  0  0  0  0  0
   -3.8211    0.5530   -2.9430 H   0  0  0  0  0  0  0  0  0  0  0  0
   -5.4607    0.7598   -1.8293 C   0  0  0  0  0  0  0  0  0  0  0  0
   -6.0106    0.7840   -0.6477 N   0  0  0  0  0  0  0  0  0  0  0  0
   -5.4294    0.6418    0.1594 H   0  0  0  0  0  0  0  0  0  0  0  0
   -6.9957    0.9400   -0.5372 H   0  0  0  0  0  0  0  0  0  0  0  0
   -6.2386    0.9463   -2.8576 N   0  0  0  0  0  0  0  0  0  0  0  0
   -5.8605    0.9361   -3.7892 H   0  0  0  0  0  0  0  0  0  0  0  0
   -7.2211    1.1002   -2.7252 H   0  0  0  0  0  0  0  0  0  0  0  0
   -1.6547    1.3413    1.4779 C   0  0  0  0  0  0  0  0  0  0  0  0
   -2.5654    1.9858    0.9716 O   0  0  0  0  0  0  0  0  0  0  0  0
   -0.8107    1.8504    2.3808 N   0  0  0  0  0  0  0  0  0  0  0  0
   -0.1136    1.2381    2.7719 H   0  0  0  0  0  0  0  0  0  0  0  0
   -0.8954    3.2155    2.9026 C   0  0  0  0  0  0  0  0  0  0  0  0
   -1.8299    3.3430    3.4532 H   0  0  0  0  0  0  0  0  0  0  0  0
   -0.0581    3.4194    3.5712 H   0  0  0  0  0  0  0  0  0  0  0  0
   -0.8804    3.9320    2.0784 H   0  0  0  0  0  0  0  0  0  0  0  0
  5  6  2  0  0  0  0
  5  7  1  0  0  0  0
  2  3  1  0  0  0  0
  2  4  1  0  0  0  0
  2  5  1  0  0  0  0
  1  2  1  0  0  0  0
 29 30  2  0  0  0  0
 29 31  1  0  0  0  0
 26 27  1  0  0  0  0
 26 28  1  0  0  0  0
 23 24  1  0  0  0  0
 23 25  1  0  0  0  0
 22 23  1  0  0  0  0
 22 26  1  0  0  0  0
 20 21  1  0  0  0  0
 20 22  2  0  0  0  0
 17 18  1  0  0  0  0
 17 19  1  0  0  0  0
 17 20  1  0  0  0  0
 14 15  1  0  0  0  0
 14 16  1  0  0  0  0
 14 17  1  0  0  0  0
 11 12  1  0  0  0  0
 11 13  1  0  0  0  0
 11 14  1  0  0  0  0
  9 10  1  0  0  0  0
  9 11  1  0  0  0  0
  9 29  1  0  0  0  0
  7  8  1  0  0  0  0
  7  9  1  0  0  0  0
 33 34  1  0  0  0  0
 33 35  1  0  0  0  0
 33 36  1  0  0  0  0
 31 32  1  0  0  0  0
 31 33  1  0  0  0  0
M  CHG  1  20   1
M  END
$$$$
default_name
  -OEChem-02102213163D

 36 35  0     1  0  0  0  0  0999 V2000
   -4.2256   -3.6731    1.8584 H   0  0  0  0  0  0  0  0  0  0  0  0
   -4.2396   -2.6781    1.4144 C   0  0  0  0  0  0  0  0  0  0  0  0
   -4.9506   -2.0521    1.9514 H   0  0  0  0  0  0  0  0  0  0  0  0
   -4.5266   -2.7521    0.3674 H   0  0  0  0  0  0  0  0  0  0  0  0
   -2.8576   -2.0761    1.5184 C   0  0  0  0  0  0  0  0  0  0  0  0
   -1.9456   -2.7051    2.0404 O   0  0  0  0  0  0  0  0  0  0  0  0
   -2.6926   -0.8481    1.0174 N   0  0  0  0  0  0  0  0  0  0  0  0
   -3.4926   -0.3971    0.5954 H   0  0  0  0  0  0  0  0  0  0  0  0
   -1.4216   -0.1071    1.0434 C   0  0  1  0  0  0  0  0  0  0  0  0
   -0.7579   -0.5878    1.7640 H   0  0  0  0  0  0  0  0  0  0  0  0
   -0.7791   -0.1912   -0.3557 C   0  0  0  0  0  0  0  0  0  0  0  0
    0.0144    0.5560   -0.4201 H   0  0  0  0  0  0  0  0  0  0  0  0
   -0.3273   -1.1774   -0.4823 H   0  0  0  0  0  0  0  0  0  0  0  0
   -1.7718    0.0594   -1.5002 C   0  0  0  0  0  0  0  0  0  0  0  0
   -1.3275    0.7348   -2.2327 H   0  0  0  0  0  0  0  0  0  0  0  0
   -2.0122   -0.8882   -1.9832 H   0  0  0  0  0  0  0  0  0  0  0  0
   -3.0569    0.6914   -0.9484 C   0  0  0  0  0  0  0  0  0  0  0  0
   -3.4803    0.0210   -0.1969 H   0  0  0  0  0  0  0  0  0  0  0  0
   -2.8004    1.6398   -0.4703 H   0  0  0  0  0  0  0  0  0  0  0  0
   -4.0525    0.9289   -2.0138 N   0  3  0  0  0  0  0  0  0  0  0  0
   -3.7716    0.7039   -2.9528 H   0  0  0  0  0  0  0  0  0  0  0  0
   -5.2742    1.4077   -1.8492 C   0  0  0  0  0  0  0  0  0  0  0  0
   -5.7394    1.7320   -0.6754 N   0  0  0  0  0  0  0  0  0  0  0  0
   -5.1493    1.6120    0.1288 H   0  0  0  0  0  0  0  0  0  0  0  0
   -6.6689    2.0944   -0.5680 H   0  0  0  0  0  0  0  0  0  0  0  0
   -6.0617    1.5731   -2.8738 N   0  0  0  0  0  0  0  0  0  0  0  0
   -5.7477    1.3369   -3.7993 H   0  0  0  0  0  0  0  0  0  0  0  0
   -6.9879    1.9366   -2.7445 H   0  0  0  0  0  0  0  0  0  0  0  0
   -1.6547    1.3413    1.4779 C   0  0  0  0  0  0  0  0  0  0  0  0
   -2.5654    1.9858    0.9716 O   0  0  0  0  0  0  0  0  0  0  0  0
   -0.8107    1.8504    2.3808 N   0  0  0  0  0  0  0  0  0  0  0  0
   -0.1136    1.2381    2.7719 H   0  0  0  0  0  0  0  0  0  0  0  0
   -0.8954    3.2155    2.9026 C   0  0  0  0  0  0  0  0  0  0  0  0
   -1.8299    3.3430    3.4532 H   0  0  0  0  0  0  0  0  0  0  0  0
   -0.0581    3.4194    3.5712 H   0  0  0  0  0  0  0  0  0  0  0  0
   -0.8804    3.9320    2.0784 H   0  0  0  0  0  0  0  0  0  0  0  0
  5  6  2  0  0  0  0
  5  7  1  0  0  0  0
  2  3  1  0  0  0  0
  2  4  1  0  0  0  0
  2  5  1  0  0  0  0
  1  2  1  0  0  0  0
 29 30  2  0  0  0  0
 29 31  1  0  0  0  0
 26 27  1  0  0  0  0
 26 28  1  0  0  0  0
 23 24  1  0  0  0  0
 23 25  1  0  0  0  0
 22 23  1  0  0  0  0
 22 26  1  0  0  0  0
 20 21  1  0  0  0  0
 20 22  2  0  0  0  0
 17 18  1  0  0  0  0
 17 19  1  0  0  0  0
 17 20  1  0  0  0  0
 14 15  1  0  0  0  0
 14 16  1  0  0  0  0
 14 17  1  0  0  0  0
 11 12  1  0  0  0  0
 11 13  1  0  0  0  0
 11 14  1  0  0  0  0
  9 10  1  0  0  0  0
  9 11  1  0  0  0  0
  9 29  1  0  0  0  0
  7  8  1  0  0  0  0
  7  9  1  0  0  0  0
 33 34  1  0  0  0  0
 33 35  1  0  0  0  0
 33 36  1  0  0  0  0
 31 32  1  0  0  0  0
 31 33  1  0  0  0  0
M  CHG  1  20   1
M  END
$$$$
default_name
  -OEChem-02102213163D

 36 35  0     1  0  0  0  0  0999 V2000
   -4.2256   -3.6731    1.8584 H   0  0  0  0  0  0  0  0  0  0  0  0
   -4.2396   -2.6781    1.4144 C   0  0  0  0  0  0  0  0  0  0  0  0
   -4.9506   -2.0521    1.9514 H   0  0  0  0  0  0  0  0  0  0  0  0
   -4.5266   -2.7521    0.3674 H   0  0  0  0  0  0  0  0  0  0  0  0
   -2.8576   -2.0761    1.5184 C   0  0  0  0  0  0  0  0  0  0  0  0
   -1.9456   -2.7051    2.0404 O   0  0  0  0  0  0  0  0  0  0  0  0
   -2.6926   -0.8481    1.0174 N   0  0  0  0  0  0  0  0  0  0  0  0
   -3.4926   -0.3971    0.5954 H   0  0  0  0  0  0  0  0  0  0  0  0
   -1.4216   -0.1071    1.0434 C   0  0  1  0  0  0  0  0  0  0  0  0
   -0.7579   -0.5878    1.7640 H   0  0  0  0  0  0  0  0  0  0  0  0
   -0.7791   -0.1912   -0.3557 C   0  0  0  0  0  0  0  0  0  0  0  0
    0.0144    0.5560   -0.4201 H   0  0  0  0  0  0  0  0  0  0  0  0
   -0.3273   -1.1774   -0.4823 H   0  0  0  0  0  0  0  0  0  0  0  0
   -1.7718    0.0594   -1.5002 C   0  0  0  0  0  0  0  0  0  0  0  0
   -1.2514    0.5056   -2.3489 H   0  0  0  0  0  0  0  0  0  0  0  0
   -2.2152   -0.8884   -1.8072 H   0  0  0  0  0  0  0  0  0  0  0  0
   -2.8794    1.0130   -1.0319 C   0  0  0  0  0  0  0  0  0  0  0  0
   -3.3773    0.5707   -0.1660 H   0  0  0  0  0  0  0  0  0  0  0  0
   -2.4204    1.9575   -0.7303 H   0  0  0  0  0  0  0  0  0  0  0  0
   -3.8728    1.2645   -2.0962 N   0  3  0  0  0  0  0  0  0  0  0  0
   -3.6951    0.8385   -2.9897 H   0  0  0  0  0  0  0  0  0  0  0  0
   -4.9700    1.9943   -1.9847 C   0  0  0  0  0  0  0  0  0  0  0  0
   -5.2956    2.5907   -0.8722 N   0  0  0  0  0  0  0  0  0  0  0  0
   -4.6928    2.4900   -0.0748 H   0  0  0  0  0  0  0  0  0  0  0  0
   -6.1318    3.1413   -0.8046 H   0  0  0  0  0  0  0  0  0  0  0  0
   -5.7706    2.1418   -3.0018 N   0  0  0  0  0  0  0  0  0  0  0  0
   -5.5618    1.7007   -3.8809 H   0  0  0  0  0  0  0  0  0  0  0  0
   -6.6020    2.6963   -2.9128 H   0  0  0  0  0  0  0  0  0  0  0  0
   -1.6547    1.3413    1.4779 C   0  0  0  0  0  0  0  0  0  0  0  0
   -2.5654    1.9858    0.9716 O   0  0  0  0  0  0  0  0  0  0  0  0
   -0.8107    1.8504    2.3808 N   0  0  0  0  0  0  0  0  0  0  0  0
   -0.1136    1.2381    2.7719 H   0  0  0  0  0  0  0  0  0  0  0  0
   -0.8954    3.2155    2.9026 C   0  0  0  0  0  0  0  0  0  0  0  0
   -1.8299    3.3430    3.4532 H   0  0  0  0  0  0  0  0  0  0  0  0
   -0.0581    3.4194    3.5712 H   0  0  0  0  0  0  0  0  0  0  0  0
   -0.8804    3.9320    2.0784 H   0  0  0  0  0  0  0  0  0  0  0  0
  5  6  2  0  0  0  0
  5  7  1  0  0  0  0
  2  3  1  0  0  0  0
  2  4  1  0  0  0  0
  2  5  1  0  0  0  0
  1  2  1  0  0  0  0
 29 30  2  0  0  0  0
 29 31  1  0  0  0  0
 26 27  1  0  0  0  0
 26 28  1  0  0  0  0
 23 24  1  0  0  0  0
 23 25  1  0  0  0  0
 22 23  1  0  0  0  0
 22 26  1  0  0  0  0
 20 21  1  0  0  0  0
 20 22  2  0  0  0  0
 17 18  1  0  0  0  0
 17 19  1  0  0  0  0
 17 20  1  0  0  0  0
 14 15  1  0  0  0  0
 14 16  1  0  0  0  0
 14 17  1  0  0  0  0
 11 12  1  0  0  0  0
 11 13  1  0  0  0  0
 11 14  1  0  0  0  0
  9 10  1  0  0  0  0
  9 11  1  0  0  0  0
  9 29  1  0  0  0  0
  7  8  1  0  0  0  0
  7  9  1  0  0  0  0
 33 34  1  0  0  0  0
 33 35  1  0  0  0  0
 33 36  1  0  0  0  0
 31 32  1  0  0  0  0
 31 33  1  0  0  0  0
M  CHG  1  20   1
M  END
$$$$
default_name
  -OEChem-02102213163D

 36 35  0     1  0  0  0  0  0999 V2000
   -4.2256   -3.6731    1.8584 H   0  0  0  0  0  0  0  0  0  0  0  0
   -4.2396   -2.6781    1.4144 C   0  0  0  0  0  0  0  0  0  0  0  0
   -4.9506   -2.0521    1.9514 H   0  0  0  0  0  0  0  0  0  0  0  0
   -4.5266   -2.7521    0.3674 H   0  0  0  0  0  0  0  0  0  0  0  0
   -2.8576   -2.0761    1.5184 C   0  0  0  0  0  0  0  0  0  0  0  0
   -1.9456   -2.7051    2.0404 O   0  0  0  0  0  0  0  0  0  0  0  0
   -2.6926   -0.8481    1.0174 N   0  0  0  0  0  0  0  0  0  0  0  0
   -3.4926   -0.3971    0.5954 H   0  0  0  0  0  0  0  0  0  0  0  0
   -1.4216   -0.1071    1.0434 C   0  0  1  0  0  0  0  0  0  0  0  0
   -0.7579   -0.5878    1.7640 H   0  0  0  0  0  0  0  0  0  0  0  0
   -0.7791   -0.1912   -0.3557 C   0  0  0  0  0  0  0  0  0  0  0  0
    0.0144    0.5560   -0.4201 H   0  0  0  0  0  0  0  0  0  0  0  0
   -0.3273   -1.1774   -0.4823 H   0  0  0  0  0  0  0  0  0  0  0  0
   -1.7718    0.0594   -1.5002 C   0  0  0  0  0  0  0  0  0  0  0  0
   -1.2271    0.2501   -2.4259 H   0  0  0  0  0  0  0  0  0  0  0  0
   -2.4038   -0.8199   -1.6286 H   0  0  0  0  0  0  0  0  0  0  0  0
   -2.6494    1.2755   -1.1739 C   0  0  0  0  0  0  0  0  0  0  0  0
   -3.1704    1.0869   -0.2324 H   0  0  0  0  0  0  0  0  0  0  0  0
   -2.0031    2.1476   -1.0507 H   0  0  0  0  0  0  0  0  0  0  0  0
   -3.6379    1.5401   -2.2396 N   0  3  0  0  0  0  0  0  0  0  0  0
   -3.5968    0.9475   -3.0511 H   0  0  0  0  0  0  0  0  0  0  0  0
   -4.5687    2.4795   -2.2265 C   0  0  0  0  0  0  0  0  0  0  0  0
   -4.7097    3.3017   -1.2248 N   0  0  0  0  0  0  0  0  0  0  0  0
   -4.0911    3.2159   -0.4377 H   0  0  0  0  0  0  0  0  0  0  0  0
   -5.4211    4.0093   -1.2309 H   0  0  0  0  0  0  0  0  0  0  0  0
   -5.3851    2.6135   -3.2328 N   0  0  0  0  0  0  0  0  0  0  0  0
   -5.3155    2.0026   -4.0284 H   0  0  0  0  0  0  0  0  0  0  0  0
   -6.0898    3.3275   -3.2188 H   0  0  0  0  0  0  0  0  0  0  0  0
   -1.6547    1.3413    1.4779 C   0  0  0  0  0  0  0  0  0  0  0  0
   -2.5654    1.9858    0.9716 O   0  0  0  0  0  0  0  0  0  0  0  0
   -0.8107    1.8504    2.3808 N   0  0  0  0  0  0  0  0  0  0  0  0
   -0.1136    1.2381    2.7719 H   0  0  0  0  0  0  0  0  0  0  0  0
   -0.8954    3.2155    2.9026 C   0  0  0  0  0  0  0  0  0  0  0  0
   -1.8299    3.3430    3.4532 H   0  0  0  0  0  0  0  0  0  0  0  0
   -0.0581    3.4194    3.5712 H   0  0  0  0  0  0  0  0  0  0  0  0
   -0.8804    3.9320    2.0784 H   0  0  0  0  0  0  0  0  0  0  0  0
  5  6  2  0  0  0  0
  5  7  1  0  0  0  0
  2  3  1  0  0  0  0
  2  4  1  0  0  0  0
  2  5  1  0  0  0  0
  1  2  1  0  0  0  0
 29 30  2  0  0  0  0
 29 31  1  0  0  0  0
 26 27  1  0  0  0  0
 26 28  1  0  0  0  0
 23 24  1  0  0  0  0
 23 25  1  0  0  0  0
 22 23  1  0  0  0  0
 22 26  1  0  0  0  0
 20 21  1  0  0  0  0
 20 22  2  0  0  0  0
 17 18  1  0  0  0  0
 17 19  1  0  0  0  0
 17 20  1  0  0  0  0
 14 15  1  0  0  0  0
 14 16  1  0  0  0  0
 14 17  1  0  0  0  0
 11 12  1  0  0  0  0
 11 13  1  0  0  0  0
 11 14  1  0  0  0  0
  9 10  1  0  0  0  0
  9 11  1  0  0  0  0
  9 29  1  0  0  0  0
  7  8  1  0  0  0  0
  7  9  1  0  0  0  0
 33 34  1  0  0  0  0
 33 35  1  0  0  0  0
 33 36  1  0  0  0  0
 31 32  1  0  0  0  0
 31 33  1  0  0  0  0
M  CHG  1  20   1
M  END
$$$$
default_name
  -OEChem-02102213163D

 36 35  0     1  0  0  0  0  0999 V2000
   -4.2256   -3.6731    1.8584 H   0  0  0  0  0  0  0  0  0  0  0  0
   -4.2396   -2.6781    1.4144 C   0  0  0  0  0  0  0  0  0  0  0  0
   -4.9506   -2.0521    1.9514 H   0  0  0  0  0  0  0  0  0  0  0  0
   -4.5266   -2.7521    0.3674 H   0  0  0  0  0  0  0  0  0  0  0  0
   -2.8576   -2.0761    1.5184 C   0  0  0  0  0  0  0  0  0  0  0  0
   -1.9456   -2.7051    2.0404 O   0  0  0  0  0  0  0  0  0  0  0  0
   -2.6926   -0.8481    1.0174 N   0  0  0  0  0  0  0  0  0  0  0  0
   -3.4926   -0.3971    0.5954 H   0  0  0  0  0  0  0  0  0  0  0  0
   -1.4216   -0.1071    1.0434 C   0  0  1  0  0  0  0  0  0  0  0  0
   -0.7579   -0.5878    1.7640 H   0  0  0  0  0  0  0  0  0  0  0  0
   -0.7791   -0.1912   -0.3557 C   0  0  0  0  0  0  0  0  0  0  0  0
    0.0144    0.5560   -0.4201 H   0  0  0  0  0  0  0  0  0  0  0  0
   -0.3273   -1.1774   -0.4823 H   0  0  0  0  0  0  0  0  0  0  0  0
   -1.7718    0.0594   -1.5002 C   0  0  0  0  0  0  0  0  0  0  0  0
   -1.2561   -0.0143   -2.4587 H   0  0  0  0  0  0  0  0  0  0  0  0
   -2.5653   -0.6875   -1.4596 H   0  0  0  0  0  0  0  0  0  0  0  0
   -2.3827    1.4608   -1.3647 C   0  0  0  0  0  0  0  0  0  0  0  0
   -2.8738    1.5345   -0.3917 H   0  0  0  0  0  0  0  0  0  0  0  0
   -1.5768    2.1972   -1.4095 H   0  0  0  0  0  0  0  0  0  0  0  0
   -3.3639    1.7370   -2.4341 N   0  3  0  0  0  0  0  0  0  0  0  0
   -3.4834    1.0236   -3.1327 H   0  0  0  0  0  0  0  0  0  0  0  0
   -4.0976    2.8303   -2.5582 C   0  0  0  0  0  0  0  0  0  0  0  0
   -4.0215    3.8164   -1.7090 N   0  0  0  0  0  0  0  0  0  0  0  0
   -3.3852    3.7403   -0.9351 H   0  0  0  0  0  0  0  0  0  0  0  0
   -4.5851    4.6393   -1.8180 H   0  0  0  0  0  0  0  0  0  0  0  0
   -4.9316    2.9561   -3.5512 N   0  0  0  0  0  0  0  0  0  0  0  0
   -5.0256    2.2220   -4.2318 H   0  0  0  0  0  0  0  0  0  0  0  0
   -5.4863    3.7872   -3.6416 H   0  0  0  0  0  0  0  0  0  0  0  0
   -1.6547    1.3413    1.4779 C   0  0  0  0  0  0  0  0  0  0  0  0
   -2.5654    1.9858    0.9716 O   0  0  0  0  0  0  0  0  0  0  0  0
   -0.8107    1.8504    2.3808 N   0  0  0  0  0  0  0  0  0  0  0  0
   -0.1136    1.2381    2.7719 H   0  0  0  0  0  0  0  0  0  0  0  0
   -0.8954    3.2155    2.9026 C   0  0  0  0  0  0  0  0  0  0  0  0
   -1.8299    3.3430    3.4532 H   0  0  0  0  0  0  0  0  0  0  0  0
   -0.0581    3.4194    3.5712 H   0  0  0  0  0  0  0  0  0  0  0  0
   -0.8804    3.9320    2.0784 H   0  0  0  0  0  0  0  0  0  0  0  0
  5  6  2  0  0  0  0
  5  7  1  0  0  0  0
  2  3  1  0  0  0  0
  2  4  1  0  0  0  0
  2  5  1  0  0  0  0
  1  2  1  0  0  0  0
 29 30  2  0  0  0  0
 29 31  1  0  0  0  0
 26 27  1  0  0  0  0
 26 28  1  0  0  0  0
 23 24  1  0  0  0  0
 23 25  1  0  0  0  0
 22 23  1  0  0  0  0
 22 26  1  0  0  0  0
 20 21  1  0  0  0  0
 20 22  2  0  0  0  0
 17 18  1  0  0  0  0
 17 19  1  0  0  0  0
 17 20  1  0  0  0  0
 14 15  1  0  0  0  0
 14 16  1  0  0  0  0
 14 17  1  0  0  0  0
 11 12  1  0  0  0  0
 11 13  1  0  0  0  0
 11 14  1  0  0  0  0
  9 10  1  0  0  0  0
  9 11  1  0  0  0  0
  9 29  1  0  0  0  0
  7  8  1  0  0  0  0
  7  9  1  0  0  0  0
 33 34  1  0  0  0  0
 33 35  1  0  0  0  0
 33 36  1  0  0  0  0
 31 32  1  0  0  0  0
 31 33  1  0  0  0  0
M  CHG  1  20   1
M  END
$$$$
default_name
  -OEChem-02102213163D

 36 35  0     1  0  0  0  0  0999 V2000
   -4.2256   -3.6731    1.8584 H   0  0  0  0  0  0  0  0  0  0  0  0
   -4.2396   -2.6781    1.4144 C   0  0  0  0  0  0  0  0  0  0  0  0
   -4.9506   -2.0521    1.9514 H   0  0  0  0  0  0  0  0  0  0  0  0
   -4.5266   -2.7521    0.3674 H   0  0  0  0  0  0  0  0  0  0  0  0
   -2.8576   -2.0761    1.5184 C   0  0  0  0  0  0  0  0  0  0  0  0
   -1.9456   -2.7051    2.0404 O   0  0  0  0  0  0  0  0  0  0  0  0
   -2.6926   -0.8481    1.0174 N   0  0  0  0  0  0  0  0  0  0  0  0
   -3.4926   -0.3971    0.5954 H   0  0  0  0  0  0  0  0  0  0  0  0
   -1.4216   -0.1071    1.0434 C   0  0  1  0  0  0  0  0  0  0  0  0
   -0.7579   -0.5878    1.7640 H   0  0  0  0  0  0  0  0  0  0  0  0
   -0.7791   -0.1912   -0.3557 C   0  0  0  0  0  0  0  0  0  0  0  0
    0.0144    0.5560   -0.4201 H   0  0  0  0  0  0  0  0  0  0  0  0
   -0.3273   -1.1774   -0.4823 H   0  0  0  0  0  0  0  0  0  0  0  0
   -1.7718    0.0594   -1.5002 C   0  0  0  0  0  0  0  0  0  0  0  0
   -1.3365   -0.2696   -2.4448 H   0  0  0  0  0  0  0  0  0  0  0  0
   -2.6885   -0.5002   -1.3117 H   0  0  0  0  0  0  0  0  0  0  0  0
   -2.0973    1.5565   -1.5912 C   0  0  0  0  0  0  0  0  0  0  0  0
   -2.5076    1.8830   -0.6329 H   0  0  0  0  0  0  0  0  0  0  0  0
   -1.1706    2.1028   -1.7825 H   0  0  0  0  0  0  0  0  0  0  0  0
   -3.0695    1.8419   -2.6664 N   0  3  0  0  0  0  0  0  0  0  0  0
   -3.3627    1.0616   -3.2291 H   0  0  0  0  0  0  0  0  0  0  0  0
   -3.5890    3.0228   -2.9572 C   0  0  0  0  0  0  0  0  0  0  0  0
   -3.2779    4.0998   -2.2919 N   0  0  0  0  0  0  0  0  0  0  0  0
   -2.6233    4.0275   -1.5331 H   0  0  0  0  0  0  0  0  0  0  0  0
   -3.6809    4.9884   -2.5258 H   0  0  0  0  0  0  0  0  0  0  0  0
   -4.4408    3.1463   -3.9352 N   0  0  0  0  0  0  0  0  0  0  0  0
   -4.7119    2.3439   -4.4772 H   0  0  0  0  0  0  0  0  0  0  0  0
   -4.8325    4.0440   -4.1524 H   0  0  0  0  0  0  0  0  0  0  0  0
   -1.6547    1.3413    1.4779 C   0  0  0  0  0  0  0  0  0  0  0  0
   -2.5654    1.9858    0.9716 O   0  0  0  0  0  0  0  0  0  0  0  0
   -0.8107    1.8504    2.3808 N   0  0  0  0  0  0  0  0  0  0  0  0
   -0.1136    1.2381    2.7719 H   0  0  0  0  0  0  0  0  0  0  0  0
   -0.8954    3.2155    2.9026 C   0  0  0  0  0  0  0  0  0  0  0  0
   -1.8299    3.3430    3.4532 H   0  0  0  0  0  0  0  0  0  0  0  0
   -0.0581    3.4194    3.5712 H   0  0  0  0  0  0  0  0  0  0  0  0
   -0.8804    3.9320    2.0784 H   0  0  0  0  0  0  0  0  0  0  0  0
  5  6  2  0  0  0  0
  5  7  1  0  0  0  0
  2  3  1  0  0  0  0
  2  4  1  0  0  0  0
  2  5  1  0  0  0  0
  1  2  1  0  0  0  0
 29 30  2  0  0  0  0
 29 31  1  0  0  0  0
 26 27  1  0  0  0  0
 26 28  1  0  0  0  0
 23 24  1  0  0  0  0
 23 25  1  0  0  0  0
 22 23  1  0  0  0  0
 22 26  1  0  0  0  0
 20 21  1  0  0  0  0
 20 22  2  0  0  0  0
 17 18  1  0  0  0  0
 17 19  1  0  0  0  0
 17 20  1  0  0  0  0
 14 15  1  0  0  0  0
 14 16  1  0  0  0  0
 14 17  1  0  0  0  0
 11 12  1  0  0  0  0
 11 13  1  0  0  0  0
 11 14  1  0  0  0  0
  9 10  1  0  0  0  0
  9 11  1  0  0  0  0
  9 29  1  0  0  0  0
  7  8  1  0  0  0  0
  7  9  1  0  0  0  0
 33 34  1  0  0  0  0
 33 35  1  0  0  0  0
 33 36  1  0  0  0  0
 31 32  1  0  0  0  0
 31 33  1  0  0  0  0
M  CHG  1  20   1
M  END
$$$$
default_name
  -OEChem-02102213163D

 36 35  0     1  0  0  0  0  0999 V2000
   -4.2256   -3.6731    1.8584 H   0  0  0  0  0  0  0  0  0  0  0  0
   -4.2396   -2.6781    1.4144 C   0  0  0  0  0  0  0  0  0  0  0  0
   -4.9506   -2.0521    1.9514 H   0  0  0  0  0  0  0  0  0  0  0  0
   -4.5266   -2.7521    0.3674 H   0  0  0  0  0  0  0  0  0  0  0  0
   -2.8576   -2.0761    1.5184 C   0  0  0  0  0  0  0  0  0  0  0  0
   -1.9456   -2.7051    2.0404 O   0  0  0  0  0  0  0  0  0  0  0  0
   -2.6926   -0.8481    1.0174 N   0  0  0  0  0  0  0  0  0  0  0  0
   -3.4926   -0.3971    0.5954 H   0  0  0  0  0  0  0  0  0  0  0  0
   -1.4216   -0.1071    1.0434 C   0  0  1  0  0  0  0  0  0  0  0  0
   -0.7579   -0.5878    1.7640 H   0  0  0  0  0  0  0  0  0  0  0  0
   -0.7791   -0.1912   -0.3557 C   0  0  0  0  0  0  0  0  0  0  0  0
    0.0144    0.5560   -0.4201 H   0  0  0  0  0  0  0  0  0  0  0  0
   -0.3273   -1.1774   -0.4823 H   0  0  0  0  0  0  0  0  0  0  0  0
   -1.7718    0.0594   -1.5002 C   0  0  0  0  0  0  0  0  0  0  0  0
   -1.4628   -0.4984   -2.3853 H   0  0  0  0  0  0  0  0  0  0  0  0
   -2.7652   -0.2707   -1.1949 H   0  0  0  0  0  0  0  0  0  0  0  0
   -1.8128    1.5560   -1.8381 C   0  0  0  0  0  0  0  0  0  0  0  0
   -2.0969    2.1086   -0.9397 H   0  0  0  0  0  0  0  0  0  0  0  0
   -0.8123    1.8708   -2.1440 H   0  0  0  0  0  0  0  0  0  0  0  0
   -2.7747    1.8475   -2.9209 N   0  3  0  0  0  0  0  0  0  0  0  0
   -3.2428    1.0589   -3.3337 H   0  0  0  0  0  0  0  0  0  0  0  0
   -3.0773    3.0439   -3.3963 C   0  0  0  0  0  0  0  0  0  0  0  0
   -2.5295    4.1325   -2.9337 N   0  0  0  0  0  0  0  0  0  0  0  0
   -1.8571    4.0578   -2.1910 H   0  0  0  0  0  0  0  0  0  0  0  0
   -2.7701    5.0327   -3.3060 H   0  0  0  0  0  0  0  0  0  0  0  0
   -3.9463    3.1711   -4.3587 N   0  0  0  0  0  0  0  0  0  0  0  0
   -4.3957    2.3602   -4.7479 H   0  0  0  0  0  0  0  0  0  0  0  0
   -4.1730    4.0806   -4.7164 H   0  0  0  0  0  0  0  0  0  0  0  0
   -1.6547    1.3413    1.4779 C   0  0  0  0  0  0  0  0  0  0  0  0
   -2.5654    1.9858    0.9716 O   0  0  0  0  0  0  0  0  0  0  0  0
   -0.8107    1.8504    2.3808 N   0  0  0  0  0  0  0  0  0  0  0  0
   -0.1136    1.2381    2.7719 H   0  0  0  0  0  0  0  0  0  0  0  0
   -0.8954    3.2155    2.9026 C   0  0  0  0  0  0  0  0  0  0  0  0
   -1.8299    3.3430    3.4532 H   0  0  0  0  0  0  0  0  0  0  0  0
   -0.0581    3.4194    3.5712 H   0  0  0  0  0  0  0  0  0  0  0  0
   -0.8804    3.9320    2.0784 H   0  0  0  0  0  0  0  0  0  0  0  0
  5  6  2  0  0  0  0
  5  7  1  0  0  0  0
  2  3  1  0  0  0  0
  2  4  1  0  0  0  0
  2  5  1  0  0  0  0
  1  2  1  0  0  0  0
 29 30  2  0  0  0  0
 29 31  1  0  0  0  0
 26 27  1  0  0  0  0
 26 28  1  0  0  0  0
 23 24  1  0  0  0  0
 23 25  1  0  0  0  0
 22 23  1  0  0  0  0
 22 26  1  0  0  0  0
 20 21  1  0  0  0  0
 20 22  2  0  0  0  0
 17 18  1  0  0  0  0
 17 19  1  0  0  0  0
 17 20  1  0  0  0  0
 14 15  1  0  0  0  0
 14 16  1  0  0  0  0
 14 17  1  0  0  0  0
 11 12  1  0  0  0  0
 11 13  1  0  0  0  0
 11 14  1  0  0  0  0
  9 10  1  0  0  0  0
  9 11  1  0  0  0  0
  9 29  1  0  0  0  0
  7  8  1  0  0  0  0
  7  9  1  0  0  0  0
 33 34  1  0  0  0  0
 33 35  1  0  0  0  0
 33 36  1  0  0  0  0
 31 32  1  0  0  0  0
 31 33  1  0  0  0  0
M  CHG  1  20   1
M  END
$$$$
default_name
  -OEChem-02102213163D

 36 35  0     1  0  0  0  0  0999 V2000
   -4.2256   -3.6731    1.8584 H   0  0  0  0  0  0  0  0  0  0  0  0
   -4.2396   -2.6781    1.4144 C   0  0  0  0  0  0  0  0  0  0  0  0
   -4.9506   -2.0521    1.9514 H   0  0  0  0  0  0  0  0  0  0  0  0
   -4.5266   -2.7521    0.3674 H   0  0  0  0  0  0  0  0  0  0  0  0
   -2.8576   -2.0761    1.5184 C   0  0  0  0  0  0  0  0  0  0  0  0
   -1.9456   -2.7051    2.0404 O   0  0  0  0  0  0  0  0  0  0  0  0
   -2.6926   -0.8481    1.0174 N   0  0  0  0  0  0  0  0  0  0  0  0
   -3.4926   -0.3971    0.5954 H   0  0  0  0  0  0  0  0  0  0  0  0
   -1.4216   -0.1071    1.0434 C   0  0  1  0  0  0  0  0  0  0  0  0
   -0.7579   -0.5878    1.7640 H   0  0  0  0  0  0  0  0  0  0  0  0
   -0.7791   -0.1912   -0.3557 C   0  0  0  0  0  0  0  0  0  0  0  0
    0.0144    0.5560   -0.4201 H   0  0  0  0  0  0  0  0  0  0  0  0
   -0.3273   -1.1774   -0.4823 H   0  0  0  0  0  0  0  0  0  0  0  0
   -1.7718    0.0594   -1.5002 C   0  0  0  0  0  0  0  0  0  0  0  0
   -1.6264   -0.6850   -2.2843 H   0  0  0  0  0  0  0  0  0  0  0  0
   -2.7901   -0.0148   -1.1173 H   0  0  0  0  0  0  0  0  0  0  0  0
   -1.5485    1.4592   -2.0885 C   0  0  0  0  0  0  0  0  0  0  0  0
   -1.6697    2.1960   -1.2911 H   0  0  0  0  0  0  0  0  0  0  0  0
   -0.5262    1.5171   -2.4696 H   0  0  0  0  0  0  0  0  0  0  0  0
   -2.4997    1.7535   -3.1800 N   0  3  0  0  0  0  0  0  0  0  0  0
   -3.1319    1.0157   -3.4393 H   0  0  0  0  0  0  0  0  0  0  0  0
   -2.5977    2.8921   -3.8456 C   0  0  0  0  0  0  0  0  0  0  0  0
   -1.8275    3.9125   -3.5908 N   0  0  0  0  0  0  0  0  0  0  0  0
   -1.1390    3.8293   -2.8638 H   0  0  0  0  0  0  0  0  0  0  0  0
   -1.9147    4.7693   -4.1056 H   0  0  0  0  0  0  0  0  0  0  0  0
   -3.4817    3.0288   -4.7927 N   0  0  0  0  0  0  0  0  0  0  0  0
   -4.0985    2.2696   -5.0254 H   0  0  0  0  0  0  0  0  0  0  0  0
   -3.5527    3.8943   -5.2951 H   0  0  0  0  0  0  0  0  0  0  0  0
   -1.6547    1.3413    1.4779 C   0  0  0  0  0  0  0  0  0  0  0  0
   -2.5654    1.9858    0.9716 O   0  0  0  0  0  0  0  0  0  0  0  0
   -0.8107    1.8504    2.3808 N   0  0  0  0  0  0  0  0  0  0  0  0
   -0.1136    1.2381    2.7719 H   0  0  0  0  0  0  0  0  0  0  0  0
   -0.8954    3.2155    2.9026 C   0  0  0  0  0  0  0  0  0  0  0  0
   -1.8299    3.3430    3.4532 H   0  0  0  0  0  0  0  0  0  0  0  0
   -0.0581    3.4194    3.5712 H   0  0  0  0  0  0  0  0  0  0  0  0
   -0.8804    3.9320    2.0784 H   0  0  0  0  0  0  0  0  0  0  0  0
  5  6  2  0  0  0  0
  5  7  1  0  0  0  0
  2  3  1  0  0  0  0
  2  4  1  0  0  0  0
  2  5  1  0  0  0  0
  1  2  1  0  0  0  0
 29 30  2  0  0  0  0
 29 31  1  0  0  0  0
 26 27  1  0  0  0  0
 26 28  1  0  0  0  0
 23 24  1  0  0  0  0
 23 25  1  0  0  0  0
 22 23  1  0  0  0  0
 22 26  1  0  0  0  0
 20 21  1  0  0  0  0
 20 22  2  0  0  0  0
 17 18  1  0  0  0  0
 17 19  1  0  0  0  0
 17 20  1  0  0  0  0
 14 15  1  0  0  0  0
 14 16  1  0  0  0  0
 14 17  1  0  0  0  0
 11 12  1  0  0  0  0
 11 13  1  0  0  0  0
 11 14  1  0  0  0  0
  9 10  1  0  0  0  0
  9 11  1  0  0  0  0
  9 29  1  0  0  0  0
  7  8  1  0  0  0  0
  7  9  1  0  0  0  0
 33 34  1  0  0  0  0
 33 35  1  0  0  0  0
 33 36  1  0  0  0  0
 31 32  1  0  0  0  0
 31 33  1  0  0  0  0
M  CHG  1  20   1
M  END
$$$$
default_name
  -OEChem-02102213163D

 36 35  0     1  0  0  0  0  0999 V2000
   -4.2256   -3.6731    1.8584 H   0  0  0  0  0  0  0  0  0  0  0  0
   -4.2396   -2.6781    1.4144 C   0  0  0  0  0  0  0  0  0  0  0  0
   -4.9506   -2.0521    1.9514 H   0  0  0  0  0  0  0  0  0  0  0  0
   -4.5266   -2.7521    0.3674 H   0  0  0  0  0  0  0  0  0  0  0  0
   -2.8576   -2.0761    1.5184 C   0  0  0  0  0  0  0  0  0  0  0  0
   -1.9456   -2.7051    2.0404 O   0  0  0  0  0  0  0  0  0  0  0  0
   -2.6926   -0.8481    1.0174 N   0  0  0  0  0  0  0  0  0  0  0  0
   -3.4926   -0.3971    0.5954 H   0  0  0  0  0  0  0  0  0  0  0  0
   -1.4216   -0.1071    1.0434 C   0  0  1  0  0  0  0  0  0  0  0  0
   -0.7579   -0.5878    1.7640 H   0  0  0  0  0  0  0  0  0  0  0  0
   -0.7791   -0.1912   -0.3557 C   0  0  0  0  0  0  0  0  0  0  0  0
    0.0144    0.5560   -0.4201 H   0  0  0  0  0  0  0  0  0  0  0  0
   -0.3273   -1.1774   -0.4823 H   0  0  0  0  0  0  0  0  0  0  0  0
   -1.7718    0.0594   -1.5002 C   0  0  0  0  0  0  0  0  0  0  0  0
   -1.8162   -0.8168   -2.1485 H   0  0  0  0  0  0  0  0  0  0  0  0
   -2.7615    0.2503   -1.0841 H   0  0  0  0  0  0  0  0  0  0  0  0
   -1.3224    1.2729   -2.3254 C   0  0  0  0  0  0  0  0  0  0  0  0
   -1.2550    2.1392   -1.6632 H   0  0  0  0  0  0  0  0  0  0  0  0
   -0.3317    1.0658   -2.7370 H   0  0  0  0  0  0  0  0  0  0  0  0
   -2.2630    1.5662   -3.4263 N   0  3  0  0  0  0  0  0  0  0  0  0
   -3.0376    0.9348   -3.5388 H   0  0  0  0  0  0  0  0  0  0  0  0
   -2.1826    2.5777   -4.2744 C   0  0  0  0  0  0  0  0  0  0  0  0
   -1.2196    3.4545   -4.2183 N   0  0  0  0  0  0  0  0  0  0  0  0
   -0.5178    3.3574   -3.5058 H   0  0  0  0  0  0  0  0  0  0  0  0
   -1.1730    4.2161   -4.8700 H   0  0  0  0  0  0  0  0  0  0  0  0
   -3.0788    2.7291   -5.2078 N   0  0  0  0  0  0  0  0  0  0  0  0
   -3.8407    2.0783   -5.2909 H   0  0  0  0  0  0  0  0  0  0  0  0
   -3.0140    3.4979   -5.8492 H   0  0  0  0  0  0  0  0  0  0  0  0
   -1.6547    1.3413    1.4779 C   0  0  0  0  0  0  0  0  0  0  0  0
   -2.5654    1.9858    0.9716 O   0  0  0  0  0  0  0  0  0  0  0  0
   -0.8107    1.8504    2.3808 N   0  0  0  0  0  0  0  0  0  0  0  0
   -0.1136    1.2381    2.7719 H   0  0  0  0  0  0  0  0  0  0  0  0
   -0.8954    3.2155    2.9026 C   0  0  0  0  0  0  0  0  0  0  0  0
   -1.8299    3.3430    3.4532 H   0  0  0  0  0  0  0  0  0  0  0  0
   -0.0581    3.4194    3.5712 H   0  0  0  0  0  0  0  0  0  0  0  0
   -0.8804    3.9320    2.0784 H   0  0  0  0  0  0  0  0  0  0  0  0
  5  6  2  0  0  0  0
  5  7  1  0  0  0  0
  2  3  1  0  0  0  0
  2  4  1  0  0  0  0
  2  5  1  0  0  0  0
  1  2  1  0  0  0  0
 29 30  2  0  0  0  0
 29 31  1  0  0  0  0
 26 27  1  0  0  0  0
 26 28  1  0  0  0  0
 23 24  1  0  0  0  0
 23 25  1  0  0  0  0
 22 23  1  0  0  0  0
 22 26  1  0  0  0  0
 20 21  1  0  0  0  0
 20 22  2  0  0  0  0
 17 18  1  0  0  0  0
 17 19  1  0  0  0  0
 17 20  1  0  0  0  0
 14 15  1  0  0  0  0
 14 16  1  0  0  0  0
 14 17  1  0  0  0  0
 11 12  1  0  0  0  0
 11 13  1  0  0  0  0
 11 14  1  0  0  0  0
  9 10  1  0  0  0  0
  9 11  1  0  0  0  0
  9 29  1  0  0  0  0
  7  8  1  0  0  0  0
  7  9  1  0  0  0  0
 33 34  1  0  0  0  0
 33 35  1  0  0  0  0
 33 36  1  0  0  0  0
 31 32  1  0  0  0  0
 31 33  1  0  0  0  0
M  CHG  1  20   1
M  END
$$$$
default_name
  -OEChem-02102213163D

 36 35  0     1  0  0  0  0  0999 V2000
   -4.2256   -3.6731    1.8584 H   0  0  0  0  0  0  0  0  0  0  0  0
   -4.2396   -2.6781    1.4144 C   0  0  0  0  0  0  0  0  0  0  0  0
   -4.9506   -2.0521    1.9514 H   0  0  0  0  0  0  0  0  0  0  0  0
   -4.5266   -2.7521    0.3674 H   0  0  0  0  0  0  0  0  0  0  0  0
   -2.8576   -2.0761    1.5184 C   0  0  0  0  0  0  0  0  0  0  0  0
   -1.9456   -2.7051    2.0404 O   0  0  0  0  0  0  0  0  0  0  0  0
   -2.6926   -0.8481    1.0174 N   0  0  0  0  0  0  0  0  0  0  0  0
   -3.4926   -0.3971    0.5954 H   0  0  0  0  0  0  0  0  0  0  0  0
   -1.4216   -0.1071    1.0434 C   0  0  1  0  0  0  0  0  0  0  0  0
   -0.7579   -0.5878    1.7640 H   0  0  0  0  0  0  0  0  0  0  0  0
   -0.7791   -0.1912   -0.3557 C   0  0  0  0  0  0  0  0  0  0  0  0
    0.0144    0.5560   -0.4201 H   0  0  0  0  0  0  0  0  0  0  0  0
   -0.3273   -1.1774   -0.4823 H   0  0  0  0  0  0  0  0  0  0  0  0
   -1.7718    0.0594   -1.5002 C   0  0  0  0  0  0  0  0  0  0  0  0
   -2.0192   -0.8848   -1.9873 H   0  0  0  0  0  0  0  0  0  0  0  0
   -2.6813    0.5063   -1.0976 H   0  0  0  0  0  0  0  0  0  0  0  0
   -1.1500    1.0097   -2.5325 C   0  0  0  0  0  0  0  0  0  0  0  0
   -0.8810    1.9420   -2.0307 H   0  0  0  0  0  0  0  0  0  0  0  0
   -0.2423    0.5477   -2.9280 H   0  0  0  0  0  0  0  0  0  0  0  0
   -2.0810    1.2985   -3.6427 N   0  3  0  0  0  0  0  0  0  0  0  0
   -2.9664    0.8219   -3.6253 H   0  0  0  0  0  0  0  0  0  0  0  0
   -1.8604    2.1223   -4.6536 C   0  0  0  0  0  0  0  0  0  0  0  0
   -0.7472    2.7899   -4.7734 N   0  0  0  0  0  0  0  0  0  0  0  0
   -0.0360    2.6744   -4.0733 H   0  0  0  0  0  0  0  0  0  0  0  0
   -0.5956    3.4107   -5.5470 H   0  0  0  0  0  0  0  0  0  0  0  0
   -2.7649    2.2924   -5.5757 N   0  0  0  0  0  0  0  0  0  0  0  0
   -3.6398    1.7994   -5.5262 H   0  0  0  0  0  0  0  0  0  0  0  0
   -2.5935    2.9183   -6.3408 H   0  0  0  0  0  0  0  0  0  0  0  0
   -1.6547    1.3413    1.4779 C   0  0  0  0  0  0  0  0  0  0  0  0
   -2.5654    1.9858    0.9716 O   0  0  0  0  0  0  0  0  0  0  0  0
   -0.8107    1.8504    2.3808 N   0  0  0  0  0  0  0  0  0  0  0  0
   -0.1136    1.2381    2.7719 H   0  0  0  0  0  0  0  0  0  0  0  0
   -0.8954    3.2155    2.9026 C   0  0  0  0  0  0  0  0  0  0  0  0
   -1.8299    3.3430    3.4532 H   0  0  0  0  0  0  0  0  0  0  0  0
   -0.0581    3.4194    3.5712 H   0  0  0  0  0  0  0  0  0  0  0  0
   -0.8804    3.9320    2.0784 H   0  0  0  0  0  0  0  0  0  0  0  0
  5  6  2  0  0  0  0
  5  7  1  0  0  0  0
  2  3  1  0  0  0  0
  2  4  1  0  0  0  0
  2  5  1  0  0  0  0
  1  2  1  0  0  0  0
 29 30  2  0  0  0  0
 29 31  1  0  0  0  0
 26 27  1  0  0  0  0
 26 28  1  0  0  0  0
 23 24  1  0  0  0  0
 23 25  1  0  0  0  0
 22 23  1  0  0  0  0
 22 26  1  0  0  0  0
 20 21  1  0  0  0  0
 20 22  2  0  0  0  0
 17 18  1  0  0  0  0
 17 19  1  0  0  0  0
 17 20  1  0  0  0  0
 14 15  1  0  0  0  0
 14 16  1  0  0  0  0
 14 17  1  0  0  0  0
 11 12  1  0  0  0  0
 11 13  1  0  0  0  0
 11 14  1  0  0  0  0
  9 10  1  0  0  0  0
  9 11  1  0  0  0  0
  9 29  1  0  0  0  0
  7  8  1  0  0  0  0
  7  9  1  0  0  0  0
 33 34  1  0  0  0  0
 33 35  1  0  0  0  0
 33 36  1  0  0  0  0
 31 32  1  0  0  0  0
 31 33  1  0  0  0  0
M  CHG  1  20   1
M  END
$$$$
default_name
  -OEChem-02102213163D

 36 35  0     1  0  0  0  0  0999 V2000
   -4.2256   -3.6731    1.8584 H   0  0  0  0  0  0  0  0  0  0  0  0
   -4.2396   -2.6781    1.4144 C   0  0  0  0  0  0  0  0  0  0  0  0
   -4.9506   -2.0521    1.9514 H   0  0  0  0  0  0  0  0  0  0  0  0
   -4.5266   -2.7521    0.3674 H   0  0  0  0  0  0  0  0  0  0  0  0
   -2.8576   -2.0761    1.5184 C   0  0  0  0  0  0  0  0  0  0  0  0
   -1.9456   -2.7051    2.0404 O   0  0  0  0  0  0  0  0  0  0  0  0
   -2.6926   -0.8481    1.0174 N   0  0  0  0  0  0  0  0  0  0  0  0
   -3.4926   -0.3971    0.5954 H   0  0  0  0  0  0  0  0  0  0  0  0
   -1.4216   -0.1071    1.0434 C   0  0  1  0  0  0  0  0  0  0  0  0
   -0.7579   -0.5878    1.7640 H   0  0  0  0  0  0  0  0  0  0  0  0
   -0.7791   -0.1912   -0.3557 C   0  0  0  0  0  0  0  0  0  0  0  0
    0.0144    0.5560   -0.4201 H   0  0  0  0  0  0  0  0  0  0  0  0
   -0.3273   -1.1774   -0.4823 H   0  0  0  0  0  0  0  0  0  0  0  0
   -1.7718    0.0594   -1.5002 C   0  0  0  0  0  0  0  0  0  0  0  0
   -2.2217   -0.8843   -1.8117 H   0  0  0  0  0  0  0  0  0  0  0  0
   -2.5551    0.7359   -1.1568 H   0  0  0  0  0  0  0  0  0  0  0  0
   -1.0429    0.6876   -2.6959 C   0  0  0  0  0  0  0  0  0  0  0  0
   -0.5734    1.6180   -2.3684 H   0  0  0  0  0  0  0  0  0  0  0  0
   -0.2640   -0.0020   -3.0296 H   0  0  0  0  0  0  0  0  0  0  0  0
   -1.9659    0.9686   -3.8148 N   0  3  0  0  0  0  0  0  0  0  0  0
   -2.9230    0.6846   -3.6931 H   0  0  0  0  0  0  0  0  0  0  0  0
   -1.6530    1.5568   -4.9572 C   0  0  0  0  0  0  0  0  0  0  0  0
   -0.4426    1.9639   -5.2185 N   0  0  0  0  0  0  0  0  0  0  0  0
    0.2737    1.8267   -4.5274 H   0  0  0  0  0  0  0  0  0  0  0  0
   -0.2218    2.4082   -6.0907 H   0  0  0  0  0  0  0  0  0  0  0  0
   -2.5615    1.7485   -5.8711 N   0  0  0  0  0  0  0  0  0  0  0  0
   -3.5094    1.4518   -5.7153 H   0  0  0  0  0  0  0  0  0  0  0  0
   -2.3198    2.1952   -6.7364 H   0  0  0  0  0  0  0  0  0  0  0  0
   -1.6547    1.3413    1.4779 C   0  0  0  0  0  0  0  0  0  0  0  0
   -2.5654    1.9858    0.9716 O   0  0  0  0  0  0  0  0  0  0  0  0
   -0.8107    1.8504    2.3808 N   0  0  0  0  0  0  0  0  0  0  0  0
   -0.1136    1.2381    2.7719 H   0  0  0  0  0  0  0  0  0  0  0  0
   -0.8954    3.2155    2.9026 C   0  0  0  0  0  0  0  0  0  0  0  0
   -1.8299    3.3430    3.4532 H   0  0  0  0  0  0  0  0  0  0  0  0
   -0.0581    3.4194    3.5712 H   0  0  0  0  0  0  0  0  0  0  0  0
   -0.8804    3.9320    2.0784 H   0  0  0  0  0  0  0  0  0  0  0  0
  5  6  2  0  0  0  0
  5  7  1  0  0  0  0
  2  3  1  0  0  0  0
  2  4  1  0  0  0  0
  2  5  1  0  0  0  0
  1  2  1  0  0  0  0
 29 30  2  0  0  0  0
 29 31  1  0  0  0  0
 26 27  1  0  0  0  0
 26 28  1  0  0  0  0
 23 24  1  0  0  0  0
 23 25  1  0  0  0  0
 22 23  1  0  0  0  0
 22 26  1  0  0  0  0
 20 21  1  0  0  0  0
 20 22  2  0  0  0  0
 17 18  1  0  0  0  0
 17 19  1  0  0  0  0
 17 20  1  0  0  0  0
 14 15  1  0  0  0  0
 14 16  1  0  0  0  0
 14 17  1  0  0  0  0
 11 12  1  0  0  0  0
 11 13  1  0  0  0  0
 11 14  1  0  0  0  0
  9 10  1  0  0  0  0
  9 11  1  0  0  0  0
  9 29  1  0  0  0  0
  7  8  1  0  0  0  0
  7  9  1  0  0  0  0
 33 34  1  0  0  0  0
 33 35  1  0  0  0  0
 33 36  1  0  0  0  0
 31 32  1  0  0  0  0
 31 33  1  0  0  0  0
M  CHG  1  20   1
M  END
$$$$
default_name
  -OEChem-02102213163D

 36 35  0     1  0  0  0  0  0999 V2000
   -4.2256   -3.6731    1.8584 H   0  0  0  0  0  0  0  0  0  0  0  0
   -4.2396   -2.6781    1.4144 C   0  0  0  0  0  0  0  0  0  0  0  0
   -4.9506   -2.0521    1.9514 H   0  0  0  0  0  0  0  0  0  0  0  0
   -4.5266   -2.7521    0.3674 H   0  0  0  0  0  0  0  0  0  0  0  0
   -2.8576   -2.0761    1.5184 C   0  0  0  0  0  0  0  0  0  0  0  0
   -1.9456   -2.7051    2.0404 O   0  0  0  0  0  0  0  0  0  0  0  0
   -2.6926   -0.8481    1.0174 N   0  0  0  0  0  0  0  0  0  0  0  0
   -3.4926   -0.3971    0.5954 H   0  0  0  0  0  0  0  0  0  0  0  0
   -1.4216   -0.1071    1.0434 C   0  0  1  0  0  0  0  0  0  0  0  0
   -0.7579   -0.5878    1.7640 H   0  0  0  0  0  0  0  0  0  0  0  0
   -0.7791   -0.1912   -0.3557 C   0  0  0  0  0  0  0  0  0  0  0  0
    0.0144    0.5560   -0.4201 H   0  0  0  0  0  0  0  0  0  0  0  0
   -0.3273   -1.1774   -0.4823 H   0  0  0  0  0  0  0  0  0  0  0  0
   -1.7718    0.0594   -1.5002 C   0  0  0  0  0  0  0  0  0  0  0  0
   -2.4097   -0.8155   -1.6335 H   0  0  0  0  0  0  0  0  0  0  0  0
   -2.3913    0.9234   -1.2578 H   0  0  0  0  0  0  0  0  0  0  0  0
   -1.0086    0.3284   -2.8043 C   0  0  0  0  0  0  0  0  0  0  0  0
   -0.3530    1.1892   -2.6534 H   0  0  0  0  0  0  0  0  0  0  0  0
   -0.3952   -0.5458   -3.0348 H   0  0  0  0  0  0  0  0  0  0  0  0
   -1.9257    0.5990   -3.9306 N   0  3  0  0  0  0  0  0  0  0  0  0
   -2.9104    0.5323   -3.7373 H   0  0  0  0  0  0  0  0  0  0  0  0
   -1.5747    0.9197   -5.1646 C   0  0  0  0  0  0  0  0  0  0  0  0
   -0.3264    1.0329   -5.5230 N   0  0  0  0  0  0  0  0  0  0  0  0
    0.3902    0.8722   -4.8374 H   0  0  0  0  0  0  0  0  0  0  0  0
   -0.0771    1.2767   -6.4639 H   0  0  0  0  0  0  0  0  0  0  0  0
   -2.4824    1.1345   -6.0741 N   0  0  0  0  0  0  0  0  0  0  0  0
   -3.4586    1.0594   -5.8454 H   0  0  0  0  0  0  0  0  0  0  0  0
   -2.2117    1.3777   -7.0091 H   0  0  0  0  0  0  0  0  0  0  0  0
   -1.6547    1.3413    1.4779 C   0  0  0  0  0  0  0  0  0  0  0  0
   -2.5654    1.9858    0.9716 O   0  0  0  0  0  0  0  0  0  0  0  0
   -0.8107    1.8504    2.3808 N   0  0  0  0  0  0  0  0  0  0  0  0
   -0.1136    1.2381    2.7719 H   0  0  0  0  0  0  0  0  0  0  0  0
   -0.8954    3.2155    2.9026 C   0  0  0  0  0  0  0  0  0  0  0  0
   -1.8299    3.3430    3.4532 H   0  0  0  0  0  0  0  0  0  0  0  0
   -0.0581    3.4194    3.5712 H   0  0  0  0  0  0  0  0  0  0  0  0
   -0.8804    3.9320    2.0784 H   0  0  0  0  0  0  0  0  0  0  0  0
  5  6  2  0  0  0  0
  5  7  1  0  0  0  0
  2  3  1  0  0  0  0
  2  4  1  0  0  0  0
  2  5  1  0  0  0  0
  1  2  1  0  0  0  0
 29 30  2  0  0  0  0
 29 31  1  0  0  0  0
 26 27  1  0  0  0  0
 26 28  1  0  0  0  0
 23 24  1  0  0  0  0
 23 25  1  0  0  0  0
 22 23  1  0  0  0  0
 22 26  1  0  0  0  0
 20 21  1  0  0  0  0
 20 22  2  0  0  0  0
 17 18  1  0  0  0  0
 17 19  1  0  0  0  0
 17 20  1  0  0  0  0
 14 15  1  0  0  0  0
 14 16  1  0  0  0  0
 14 17  1  0  0  0  0
 11 12  1  0  0  0  0
 11 13  1  0  0  0  0
 11 14  1  0  0  0  0
  9 10  1  0  0  0  0
  9 11  1  0  0  0  0
  9 29  1  0  0  0  0
  7  8  1  0  0  0  0
  7  9  1  0  0  0  0
 33 34  1  0  0  0  0
 33 35  1  0  0  0  0
 33 36  1  0  0  0  0
 31 32  1  0  0  0  0
 31 33  1  0  0  0  0
M  CHG  1  20   1
M  END
$$$$
default_name
  -OEChem-02102213163D

 36 35  0     1  0  0  0  0  0999 V2000
   -4.2256   -3.6731    1.8584 H   0  0  0  0  0  0  0  0  0  0  0  0
   -4.2396   -2.6781    1.4144 C   0  0  0  0  0  0  0  0  0  0  0  0
   -4.9506   -2.0521    1.9514 H   0  0  0  0  0  0  0  0  0  0  0  0
   -4.5266   -2.7521    0.3674 H   0  0  0  0  0  0  0  0  0  0  0  0
   -2.8576   -2.0761    1.5184 C   0  0  0  0  0  0  0  0  0  0  0  0
   -1.9456   -2.7051    2.0404 O   0  0  0  0  0  0  0  0  0  0  0  0
   -2.6926   -0.8481    1.0174 N   0  0  0  0  0  0  0  0  0  0  0  0
   -3.4926   -0.3971    0.5954 H   0  0  0  0  0  0  0  0  0  0  0  0
   -1.4216   -0.1071    1.0434 C   0  0  1  0  0  0  0  0  0  0  0  0
   -0.7579   -0.5878    1.7640 H   0  0  0  0  0  0  0  0  0  0  0  0
   -0.7791   -0.1912   -0.3557 C   0  0  0  0  0  0  0  0  0  0  0  0
    0.1687    0.3505   -0.3369 H   0  0  0  0  0  0  0  0  0  0  0  0
   -0.5675   -1.2369   -0.5890 H   0  0  0  0  0  0  0  0  0  0  0  0
   -1.6543    0.4063   -1.4671 C   0  0  0  0  0  0  0  0  0  0  0  0
   -2.6052   -0.1263   -1.5144 H   0  0  0  0  0  0  0  0  0  0  0  0
   -1.8412    1.4590   -1.2525 H   0  0  0  0  0  0  0  0  0  0  0  0
   -0.9397    0.2802   -2.8195 C   0  0  0  0  0  0  0  0  0  0  0  0
    0.0225    0.7933   -2.7546 H   0  0  0  0  0  0  0  0  0  0  0  0
   -0.7618   -0.7787   -3.0213 H   0  0  0  0  0  0  0  0  0  0  0  0
   -1.7368    0.8649   -3.9175 N   0  3  0  0  0  0  0  0  0  0  0  0
   -2.6446    1.2237   -3.6752 H   0  0  0  0  0  0  0  0  0  0  0  0
   -1.3699    0.9609   -5.1844 C   0  0  0  0  0  0  0  0  0  0  0  0
   -0.2151    0.5277   -5.6063 N   0  0  0  0  0  0  0  0  0  0  0  0
    0.4155    0.1092   -4.9455 H   0  0  0  0  0  0  0  0  0  0  0  0
    0.0477    0.6079   -6.5714 H   0  0  0  0  0  0  0  0  0  0  0  0
   -2.1667    1.4996   -6.0632 N   0  0  0  0  0  0  0  0  0  0  0  0
   -3.0679    1.8484   -5.7854 H   0  0  0  0  0  0  0  0  0  0  0  0
   -1.8844    1.5704   -7.0233 H   0  0  0  0  0  0  0  0  0  0  0  0
   -1.6547    1.3413    1.4779 C   0  0  0  0  0  0  0  0  0  0  0  0
   -2.5654    1.9858    0.9716 O   0  0  0  0  0  0  0  0  0  0  0  0
   -0.8107    1.8504    2.3808 N   0  0  0  0  0  0  0  0  0  0  0  0
   -0.1136    1.2381    2.7719 H   0  0  0  0  0  0  0  0  0  0  0  0
   -0.8954    3.2155    2.9026 C   0  0  0  0  0  0  0  0  0  0  0  0
   -1.8299    3.3430    3.4532 H   0  0  0  0  0  0  0  0  0  0  0  0
   -0.0581    3.4194    3.5712 H   0  0  0  0  0  0  0  0  0  0  0  0
   -0.8804    3.9320    2.0784 H   0  0  0  0  0  0  0  0  0  0  0  0
  5  6  2  0  0  0  0
  5  7  1  0  0  0  0
  2  3  1  0  0  0  0
  2  4  1  0  0  0  0
  2  5  1  0  0  0  0
  1  2  1  0  0  0  0
 29 30  2  0  0  0  0
 29 31  1  0  0  0  0
 26 27  1  0  0  0  0
 26 28  1  0  0  0  0
 23 24  1  0  0  0  0
 23 25  1  0  0  0  0
 22 23  1  0  0  0  0
 22 26  1  0  0  0  0
 20 21  1  0  0  0  0
 20 22  2  0  0  0  0
 17 18  1  0  0  0  0
 17 19  1  0  0  0  0
 17 20  1  0  0  0  0
 14 15  1  0  0  0  0
 14 16  1  0  0  0  0
 14 17  1  0  0  0  0
 11 12  1  0  0  0  0
 11 13  1  0  0  0  0
 11 14  1  0  0  0  0
  9 10  1  0  0  0  0
  9 11  1  0  0  0  0
  9 29  1  0  0  0  0
  7  8  1  0  0  0  0
  7  9  1  0  0  0  0
 33 34  1  0  0  0  0
 33 35  1  0  0  0  0
 33 36  1  0  0  0  0
 31 32  1  0  0  0  0
 31 33  1  0  0  0  0
M  CHG  1  20   1
M  END
$$$$
default_name
  -OEChem-02102213163D

 36 35  0     1  0  0  0  0  0999 V2000
   -4.2256   -3.6731    1.8584 H   0  0  0  0  0  0  0  0  0  0  0  0
   -4.2396   -2.6781    1.4144 C   0  0  0  0  0  0  0  0  0  0  0  0
   -4.9506   -2.0521    1.9514 H   0  0  0  0  0  0  0  0  0  0  0  0
   -4.5266   -2.7521    0.3674 H   0  0  0  0  0  0  0  0  0  0  0  0
   -2.8576   -2.0761    1.5184 C   0  0  0  0  0  0  0  0  0  0  0  0
   -1.9456   -2.7051    2.0404 O   0  0  0  0  0  0  0  0  0  0  0  0
   -2.6926   -0.8481    1.0174 N   0  0  0  0  0  0  0  0  0  0  0  0
   -3.4926   -0.3971    0.5954 H   0  0  0  0  0  0  0  0  0  0  0  0
   -1.4216   -0.1071    1.0434 C   0  0  1  0  0  0  0  0  0  0  0  0
   -0.7579   -0.5878    1.7640 H   0  0  0  0  0  0  0  0  0  0  0  0
   -0.7791   -0.1912   -0.3557 C   0  0  0  0  0  0  0  0  0  0  0  0
    0.1687    0.3505   -0.3369 H   0  0  0  0  0  0  0  0  0  0  0  0
   -0.5675   -1.2369   -0.5890 H   0  0  0  0  0  0  0  0  0  0  0  0
   -1.6543    0.4063   -1.4671 C   0  0  0  0  0  0  0  0  0  0  0  0
   -2.6845    0.0679   -1.3476 H   0  0  0  0  0  0  0  0  0  0  0  0
   -1.6231    1.4946   -1.4051 H   0  0  0  0  0  0  0  0  0  0  0  0
   -1.1340   -0.0419   -2.8397 C   0  0  0  0  0  0  0  0  0  0  0  0
   -0.0942    0.2778   -2.9398 H   0  0  0  0  0  0  0  0  0  0  0  0
   -1.1737   -1.1327   -2.8872 H   0  0  0  0  0  0  0  0  0  0  0  0
   -1.9337    0.5298   -3.9426 N   0  3  0  0  0  0  0  0  0  0  0  0
   -2.7282    1.0885   -3.6820 H   0  0  0  0  0  0  0  0  0  0  0  0
   -1.7033    0.3768   -5.2359 C   0  0  0  0  0  0  0  0  0  0  0  0
   -0.7013   -0.3271   -5.6829 N   0  0  0  0  0  0  0  0  0  0  0  0
   -0.0847   -0.7653   -5.0217 H   0  0  0  0  0  0  0  0  0  0  0  0
   -0.5409   -0.4336   -6.6677 H   0  0  0  0  0  0  0  0  0  0  0  0
   -2.4858    0.9340   -6.1159 N   0  0  0  0  0  0  0  0  0  0  0  0
   -3.2716    1.4867   -5.8194 H   0  0  0  0  0  0  0  0  0  0  0  0
   -2.3074    0.8154   -7.0961 H   0  0  0  0  0  0  0  0  0  0  0  0
   -1.6547    1.3413    1.4779 C   0  0  0  0  0  0  0  0  0  0  0  0
   -2.5654    1.9858    0.9716 O   0  0  0  0  0  0  0  0  0  0  0  0
   -0.8107    1.8504    2.3808 N   0  0  0  0  0  0  0  0  0  0  0  0
   -0.1136    1.2381    2.7719 H   0  0  0  0  0  0  0  0  0  0  0  0
   -0.8954    3.2155    2.9026 C   0  0  0  0  0  0  0  0  0  0  0  0
   -1.8299    3.3430    3.4532 H   0  0  0  0  0  0  0  0  0  0  0  0
   -0.0581    3.4194    3.5712 H   0  0  0  0  0  0  0  0  0  0  0  0
   -0.8804    3.9320    2.0784 H   0  0  0  0  0  0  0  0  0  0  0  0
  5  6  2  0  0  0  0
  5  7  1  0  0  0  0
  2  3  1  0  0  0  0
  2  4  1  0  0  0  0
  2  5  1  0  0  0  0
  1  2  1  0  0  0  0
 29 30  2  0  0  0  0
 29 31  1  0  0  0  0
 26 27  1  0  0  0  0
 26 28  1  0  0  0  0
 23 24  1  0  0  0  0
 23 25  1  0  0  0  0
 22 23  1  0  0  0  0
 22 26  1  0  0  0  0
 20 21  1  0  0  0  0
 20 22  2  0  0  0  0
 17 18  1  0  0  0  0
 17 19  1  0  0  0  0
 17 20  1  0  0  0  0
 14 15  1  0  0  0  0
 14 16  1  0  0  0  0
 14 17  1  0  0  0  0
 11 12  1  0  0  0  0
 11 13  1  0  0  0  0
 11 14  1  0  0  0  0
  9 10  1  0  0  0  0
  9 11  1  0  0  0  0
  9 29  1  0  0  0  0
  7  8  1  0  0  0  0
  7  9  1  0  0  0  0
 33 34  1  0  0  0  0
 33 35  1  0  0  0  0
 33 36  1  0  0  0  0
 31 32  1  0  0  0  0
 31 33  1  0  0  0  0
M  CHG  1  20   1
M  END
$$$$
default_name
  -OEChem-02102213163D

 36 35  0     1  0  0  0  0  0999 V2000
   -4.2256   -3.6731    1.8584 H   0  0  0  0  0  0  0  0  0  0  0  0
   -4.2396   -2.6781    1.4144 C   0  0  0  0  0  0  0  0  0  0  0  0
   -4.9506   -2.0521    1.9514 H   0  0  0  0  0  0  0  0  0  0  0  0
   -4.5266   -2.7521    0.3674 H   0  0  0  0  0  0  0  0  0  0  0  0
   -2.8576   -2.0761    1.5184 C   0  0  0  0  0  0  0  0  0  0  0  0
   -1.9456   -2.7051    2.0404 O   0  0  0  0  0  0  0  0  0  0  0  0
   -2.6926   -0.8481    1.0174 N   0  0  0  0  0  0  0  0  0  0  0  0
   -3.4926   -0.3971    0.5954 H   0  0  0  0  0  0  0  0  0  0  0  0
   -1.4216   -0.1071    1.0434 C   0  0  1  0  0  0  0  0  0  0  0  0
   -0.7579   -0.5878    1.7640 H   0  0  0  0  0  0  0  0  0  0  0  0
   -0.7791   -0.1912   -0.3557 C   0  0  0  0  0  0  0  0  0  0  0  0
    0.1687    0.3505   -0.3369 H   0  0  0  0  0  0  0  0  0  0  0  0
   -0.5675   -1.2369   -0.5890 H   0  0  0  0  0  0  0  0  0  0  0  0
   -1.6543    0.4063   -1.4671 C   0  0  0  0  0  0  0  0  0  0  0  0
   -2.7079    0.2949   -1.2071 H   0  0  0  0  0  0  0  0  0  0  0  0
   -1.4210    1.4656   -1.5798 H   0  0  0  0  0  0  0  0  0  0  0  0
   -1.3841   -0.3196   -2.7921 C   0  0  0  0  0  0  0  0  0  0  0  0
   -0.3222   -0.2256   -3.0309 H   0  0  0  0  0  0  0  0  0  0  0  0
   -1.6243   -1.3777   -2.6641 H   0  0  0  0  0  0  0  0  0  0  0  0
   -2.1891    0.2393   -3.8976 N   0  3  0  0  0  0  0  0  0  0  0  0
   -2.8351    0.9726   -3.6602 H   0  0  0  0  0  0  0  0  0  0  0  0
   -2.1400   -0.1326   -5.1658 C   0  0  0  0  0  0  0  0  0  0  0  0
   -1.3389   -1.0730   -5.5819 N   0  0  0  0  0  0  0  0  0  0  0  0
   -0.7393   -1.5275   -4.9160 H   0  0  0  0  0  0  0  0  0  0  0  0
   -1.3143   -1.3435   -6.5479 H   0  0  0  0  0  0  0  0  0  0  0  0
   -2.9053    0.4396   -6.0514 N   0  0  0  0  0  0  0  0  0  0  0  0
   -3.5396    1.1704   -5.7784 H   0  0  0  0  0  0  0  0  0  0  0  0
   -2.8648    0.1545   -7.0124 H   0  0  0  0  0  0  0  0  0  0  0  0
   -1.6547    1.3413    1.4779 C   0  0  0  0  0  0  0  0  0  0  0  0
   -2.5654    1.9858    0.9716 O   0  0  0  0  0  0  0  0  0  0  0  0
   -0.8107    1.8504    2.3808 N   0  0  0  0  0  0  0  0  0  0  0  0
   -0.1136    1.2381    2.7719 H   0  0  0  0  0  0  0  0  0  0  0  0
   -0.8954    3.2155    2.9026 C   0  0  0  0  0  0  0  0  0  0  0  0
   -1.8299    3.3430    3.4532 H   0  0  0  0  0  0  0  0  0  0  0  0
   -0.0581    3.4194    3.5712 H   0  0  0  0  0  0  0  0  0  0  0  0
   -0.8804    3.9320    2.0784 H   0  0  0  0  0  0  0  0  0  0  0  0
  5  6  2  0  0  0  0
  5  7  1  0  0  0  0
  2  3  1  0  0  0  0
  2  4  1  0  0  0  0
  2  5  1  0  0  0  0
  1  2  1  0  0  0  0
 29 30  2  0  0  0  0
 29 31  1  0  0  0  0
 26 27  1  0  0  0  0
 26 28  1  0  0  0  0
 23 24  1  0  0  0  0
 23 25  1  0  0  0  0
 22 23  1  0  0  0  0
 22 26  1  0  0  0  0
 20 21  1  0  0  0  0
 20 22  2  0  0  0  0
 17 18  1  0  0  0  0
 17 19  1  0  0  0  0
 17 20  1  0  0  0  0
 14 15  1  0  0  0  0
 14 16  1  0  0  0  0
 14 17  1  0  0  0  0
 11 12  1  0  0  0  0
 11 13  1  0  0  0  0
 11 14  1  0  0  0  0
  9 10  1  0  0  0  0
  9 11  1  0  0  0  0
  9 29  1  0  0  0  0
  7  8  1  0  0  0  0
  7  9  1  0  0  0  0
 33 34  1  0  0  0  0
 33 35  1  0  0  0  0
 33 36  1  0  0  0  0
 31 32  1  0  0  0  0
 31 33  1  0  0  0  0
M  CHG  1  20   1
M  END
$$$$
default_name
  -OEChem-02102213163D

 36 35  0     1  0  0  0  0  0999 V2000
   -4.2256   -3.6731    1.8584 H   0  0  0  0  0  0  0  0  0  0  0  0
   -4.2396   -2.6781    1.4144 C   0  0  0  0  0  0  0  0  0  0  0  0
   -4.9506   -2.0521    1.9514 H   0  0  0  0  0  0  0  0  0  0  0  0
   -4.5266   -2.7521    0.3674 H   0  0  0  0  0  0  0  0  0  0  0  0
   -2.8576   -2.0761    1.5184 C   0  0  0  0  0  0  0  0  0  0  0  0
   -1.9456   -2.7051    2.0404 O   0  0  0  0  0  0  0  0  0  0  0  0
   -2.6926   -0.8481    1.0174 N   0  0  0  0  0  0  0  0  0  0  0  0
   -3.4926   -0.3971    0.5954 H   0  0  0  0  0  0  0  0  0  0  0  0
   -1.4216   -0.1071    1.0434 C   0  0  1  0  0  0  0  0  0  0  0  0
   -0.7579   -0.5878    1.7640 H   0  0  0  0  0  0  0  0  0  0  0  0
   -0.7791   -0.1912   -0.3557 C   0  0  0  0  0  0  0  0  0  0  0  0
    0.1687    0.3505   -0.3369 H   0  0  0  0  0  0  0  0  0  0  0  0
   -0.5675   -1.2369   -0.5890 H   0  0  0  0  0  0  0  0  0  0  0  0
   -1.6543    0.4063   -1.4671 C   0  0  0  0  0  0  0  0  0  0  0  0
   -2.6738    0.5393   -1.1026 H   0  0  0  0  0  0  0  0  0  0  0  0
   -1.2489    1.3739   -1.7646 H   0  0  0  0  0  0  0  0  0  0  0  0
   -1.6728   -0.5340   -2.6799 C   0  0  0  0  0  0  0  0  0  0  0  0
   -0.6459   -0.6826   -3.0216 H   0  0  0  0  0  0  0  0  0  0  0  0
   -2.0831   -1.4970   -2.3670 H   0  0  0  0  0  0  0  0  0  0  0  0
   -2.4857    0.0132   -3.7856 N   0  3  0  0  0  0  0  0  0  0  0  0
   -2.9578    0.8839   -3.6113 H   0  0  0  0  0  0  0  0  0  0  0  0
   -2.6501   -0.5324   -4.9791 C   0  0  0  0  0  0  0  0  0  0  0  0
   -2.0843   -1.6592   -5.3101 N   0  0  0  0  0  0  0  0  0  0  0  0
   -1.5038   -2.1255   -4.6355 H   0  0  0  0  0  0  0  0  0  0  0  0
   -2.2197   -2.0598   -6.2200 H   0  0  0  0  0  0  0  0  0  0  0  0
   -3.3966    0.0503   -5.8738 N   0  0  0  0  0  0  0  0  0  0  0  0
   -3.8536    0.9212   -5.6651 H   0  0  0  0  0  0  0  0  0  0  0  0
   -3.5186   -0.3670   -6.7780 H   0  0  0  0  0  0  0  0  0  0  0  0
   -1.6547    1.3413    1.4779 C   0  0  0  0  0  0  0  0  0  0  0  0
   -2.5654    1.9858    0.9716 O   0  0  0  0  0  0  0  0  0  0  0  0
   -0.8107    1.8504    2.3808 N   0  0  0  0  0  0  0  0  0  0  0  0
   -0.1136    1.2381    2.7719 H   0  0  0  0  0  0  0  0  0  0  0  0
   -0.8954    3.2155    2.9026 C   0  0  0  0  0  0  0  0  0  0  0  0
   -1.8299    3.3430    3.4532 H   0  0  0  0  0  0  0  0  0  0  0  0
   -0.0581    3.4194    3.5712 H   0  0  0  0  0  0  0  0  0  0  0  0
   -0.8804    3.9320    2.0784 H   0  0  0  0  0  0  0  0  0  0  0  0
  5  6  2  0  0  0  0
  5  7  1  0  0  0  0
  2  3  1  0  0  0  0
  2  4  1  0  0  0  0
  2  5  1  0  0  0  0
  1  2  1  0  0  0  0
 29 30  2  0  0  0  0
 29 31  1  0  0  0  0
 26 27  1  0  0  0  0
 26 28  1  0  0  0  0
 23 24  1  0  0  0  0
 23 25  1  0  0  0  0
 22 23  1  0  0  0  0
 22 26  1  0  0  0  0
 20 21  1  0  0  0  0
 20 22  2  0  0  0  0
 17 18  1  0  0  0  0
 17 19  1  0  0  0  0
 17 20  1  0  0  0  0
 14 15  1  0  0  0  0
 14 16  1  0  0  0  0
 14 17  1  0  0  0  0
 11 12  1  0  0  0  0
 11 13  1  0  0  0  0
 11 14  1  0  0  0  0
  9 10  1  0  0  0  0
  9 11  1  0  0  0  0
  9 29  1  0  0  0  0
  7  8  1  0  0  0  0
  7  9  1  0  0  0  0
 33 34  1  0  0  0  0
 33 35  1  0  0  0  0
 33 36  1  0  0  0  0
 31 32  1  0  0  0  0
 31 33  1  0  0  0  0
M  CHG  1  20   1
M  END
$$$$
default_name
  -OEChem-02102213163D

 36 35  0     1  0  0  0  0  0999 V2000
   -4.2256   -3.6731    1.8584 H   0  0  0  0  0  0  0  0  0  0  0  0
   -4.2396   -2.6781    1.4144 C   0  0  0  0  0  0  0  0  0  0  0  0
   -4.9506   -2.0521    1.9514 H   0  0  0  0  0  0  0  0  0  0  0  0
   -4.5266   -2.7521    0.3674 H   0  0  0  0  0  0  0  0  0  0  0  0
   -2.8576   -2.0761    1.5184 C   0  0  0  0  0  0  0  0  0  0  0  0
   -1.9456   -2.7051    2.0404 O   0  0  0  0  0  0  0  0  0  0  0  0
   -2.6926   -0.8481    1.0174 N   0  0  0  0  0  0  0  0  0  0  0  0
   -3.4926   -0.3971    0.5954 H   0  0  0  0  0  0  0  0  0  0  0  0
   -1.4216   -0.1071    1.0434 C   0  0  1  0  0  0  0  0  0  0  0  0
   -0.7579   -0.5878    1.7640 H   0  0  0  0  0  0  0  0  0  0  0  0
   -0.7791   -0.1912   -0.3557 C   0  0  0  0  0  0  0  0  0  0  0  0
    0.1687    0.3505   -0.3369 H   0  0  0  0  0  0  0  0  0  0  0  0
   -0.5675   -1.2369   -0.5890 H   0  0  0  0  0  0  0  0  0  0  0  0
   -1.6543    0.4063   -1.4671 C   0  0  0  0  0  0  0  0  0  0  0  0
   -2.5847    0.7844   -1.0410 H   0  0  0  0  0  0  0  0  0  0  0  0
   -1.1184    1.2259   -1.9469 H   0  0  0  0  0  0  0  0  0  0  0  0
   -1.9806   -0.6705   -2.5109 C   0  0  0  0  0  0  0  0  0  0  0  0
   -1.0432   -1.0620   -2.9127 H   0  0  0  0  0  0  0  0  0  0  0  0
   -2.5187   -1.4825   -2.0162 H   0  0  0  0  0  0  0  0  0  0  0  0
   -2.8033   -0.1332   -3.6142 N   0  3  0  0  0  0  0  0  0  0  0  0
   -3.0880    0.8284   -3.5386 H   0  0  0  0  0  0  0  0  0  0  0  0
   -3.1990   -0.7956   -4.6883 C   0  0  0  0  0  0  0  0  0  0  0  0
   -2.8867   -2.0456   -4.8860 N   0  0  0  0  0  0  0  0  0  0  0  0
   -2.3260   -2.5186   -4.1994 H   0  0  0  0  0  0  0  0  0  0  0  0
   -3.1954   -2.5338   -5.7065 H   0  0  0  0  0  0  0  0  0  0  0  0
   -3.9262   -0.2076   -5.5954 N   0  0  0  0  0  0  0  0  0  0  0  0
   -4.1922    0.7560   -5.4873 H   0  0  0  0  0  0  0  0  0  0  0  0
   -4.2241   -0.7138   -6.4088 H   0  0  0  0  0  0  0  0  0  0  0  0
   -1.6547    1.3413    1.4779 C   0  0  0  0  0  0  0  0  0  0  0  0
   -2.5654    1.9858    0.9716 O   0  0  0  0  0  0  0  0  0  0  0  0
   -0.8107    1.8504    2.3808 N   0  0  0  0  0  0  0  0  0  0  0  0
   -0.1136    1.2381    2.7719 H   0  0  0  0  0  0  0  0  0  0  0  0
   -0.8954    3.2155    2.9026 C   0  0  0  0  0  0  0  0  0  0  0  0
   -1.8299    3.3430    3.4532 H   0  0  0  0  0  0  0  0  0  0  0  0
   -0.0581    3.4194    3.5712 H   0  0  0  0  0  0  0  0  0  0  0  0
   -0.8804    3.9320    2.0784 H   0  0  0  0  0  0  0  0  0  0  0  0
  5  6  2  0  0  0  0
  5  7  1  0  0  0  0
  2  3  1  0  0  0  0
  2  4  1  0  0  0  0
  2  5  1  0  0  0  0
  1  2  1  0  0  0  0
 29 30  2  0  0  0  0
 29 31  1  0  0  0  0
 26 27  1  0  0  0  0
 26 28  1  0  0  0  0
 23 24  1  0  0  0  0
 23 25  1  0  0  0  0
 22 23  1  0  0  0  0
 22 26  1  0  0  0  0
 20 21  1  0  0  0  0
 20 22  2  0  0  0  0
 17 18  1  0  0  0  0
 17 19  1  0  0  0  0
 17 20  1  0  0  0  0
 14 15  1  0  0  0  0
 14 16  1  0  0  0  0
 14 17  1  0  0  0  0
 11 12  1  0  0  0  0
 11 13  1  0  0  0  0
 11 14  1  0  0  0  0
  9 10  1  0  0  0  0
  9 11  1  0  0  0  0
  9 29  1  0  0  0  0
  7  8  1  0  0  0  0
  7  9  1  0  0  0  0
 33 34  1  0  0  0  0
 33 35  1  0  0  0  0
 33 36  1  0  0  0  0
 31 32  1  0  0  0  0
 31 33  1  0  0  0  0
M  CHG  1  20   1
M  END
$$$$
default_name
  -OEChem-02102213163D

 36 35  0     1  0  0  0  0  0999 V2000
   -4.2256   -3.6731    1.8584 H   0  0  0  0  0  0  0  0  0  0  0  0
   -4.2396   -2.6781    1.4144 C   0  0  0  0  0  0  0  0  0  0  0  0
   -4.9506   -2.0521    1.9514 H   0  0  0  0  0  0  0  0  0  0  0  0
   -4.5266   -2.7521    0.3674 H   0  0  0  0  0  0  0  0  0  0  0  0
   -2.8576   -2.0761    1.5184 C   0  0  0  0  0  0  0  0  0  0  0  0
   -1.9456   -2.7051    2.0404 O   0  0  0  0  0  0  0  0  0  0  0  0
   -2.6926   -0.8481    1.0174 N   0  0  0  0  0  0  0  0  0  0  0  0
   -3.4926   -0.3971    0.5954 H   0  0  0  0  0  0  0  0  0  0  0  0
   -1.4216   -0.1071    1.0434 C   0  0  1  0  0  0  0  0  0  0  0  0
   -0.7579   -0.5878    1.7640 H   0  0  0  0  0  0  0  0  0  0  0  0
   -0.7791   -0.1912   -0.3557 C   0  0  0  0  0  0  0  0  0  0  0  0
    0.1687    0.3505   -0.3369 H   0  0  0  0  0  0  0  0  0  0  0  0
   -0.5675   -1.2369   -0.5890 H   0  0  0  0  0  0  0  0  0  0  0  0
   -1.6543    0.4063   -1.4671 C   0  0  0  0  0  0  0  0  0  0  0  0
   -2.4464    1.0136   -1.0267 H   0  0  0  0  0  0  0  0  0  0  0  0
   -1.0385    1.0316   -2.1143 H   0  0  0  0  0  0  0  0  0  0  0  0
   -2.2864   -0.7197   -2.2966 C   0  0  0  0  0  0  0  0  0  0  0  0
   -1.4871   -1.3380   -2.7115 H   0  0  0  0  0  0  0  0  0  0  0  0
   -2.9013   -1.3352   -1.6357 H   0  0  0  0  0  0  0  0  0  0  0  0
   -3.1203   -0.1898   -3.3951 N   0  3  0  0  0  0  0  0  0  0  0  0
   -3.2168    0.8099   -3.4471 H   0  0  0  0  0  0  0  0  0  0  0  0
   -3.7491   -0.9040   -4.3134 C   0  0  0  0  0  0  0  0  0  0  0  0
   -3.6914   -2.2061   -4.3385 N   0  0  0  0  0  0  0  0  0  0  0  0
   -3.1498   -2.6799   -3.6374 H   0  0  0  0  0  0  0  0  0  0  0  0
   -4.1750   -2.7331   -5.0423 H   0  0  0  0  0  0  0  0  0  0  0  0
   -4.4580   -0.3165   -5.2352 N   0  0  0  0  0  0  0  0  0  0  0  0
   -4.5323    0.6860   -5.2571 H   0  0  0  0  0  0  0  0  0  0  0  0
   -4.9334   -0.8621   -5.9300 H   0  0  0  0  0  0  0  0  0  0  0  0
   -1.6547    1.3413    1.4779 C   0  0  0  0  0  0  0  0  0  0  0  0
   -2.5654    1.9858    0.9716 O   0  0  0  0  0  0  0  0  0  0  0  0
   -0.8107    1.8504    2.3808 N   0  0  0  0  0  0  0  0  0  0  0  0
   -0.1136    1.2381    2.7719 H   0  0  0  0  0  0  0  0  0  0  0  0
   -0.8954    3.2155    2.9026 C   0  0  0  0  0  0  0  0  0  0  0  0
   -1.8299    3.3430    3.4532 H   0  0  0  0  0  0  0  0  0  0  0  0
   -0.0581    3.4194    3.5712 H   0  0  0  0  0  0  0  0  0  0  0  0
   -0.8804    3.9320    2.0784 H   0  0  0  0  0  0  0  0  0  0  0  0
  5  6  2  0  0  0  0
  5  7  1  0  0  0  0
  2  3  1  0  0  0  0
  2  4  1  0  0  0  0
  2  5  1  0  0  0  0
  1  2  1  0  0  0  0
 29 30  2  0  0  0  0
 29 31  1  0  0  0  0
 26 27  1  0  0  0  0
 26 28  1  0  0  0  0
 23 24  1  0  0  0  0
 23 25  1  0  0  0  0
 22 23  1  0  0  0  0
 22 26  1  0  0  0  0
 20 21  1  0  0  0  0
 20 22  2  0  0  0  0
 17 18  1  0  0  0  0
 17 19  1  0  0  0  0
 17 20  1  0  0  0  0
 14 15  1  0  0  0  0
 14 16  1  0  0  0  0
 14 17  1  0  0  0  0
 11 12  1  0  0  0  0
 11 13  1  0  0  0  0
 11 14  1  0  0  0  0
  9 10  1  0  0  0  0
  9 11  1  0  0  0  0
  9 29  1  0  0  0  0
  7  8  1  0  0  0  0
  7  9  1  0  0  0  0
 33 34  1  0  0  0  0
 33 35  1  0  0  0  0
 33 36  1  0  0  0  0
 31 32  1  0  0  0  0
 31 33  1  0  0  0  0
M  CHG  1  20   1
M  END
$$$$
default_name
  -OEChem-02102213163D

 36 35  0     1  0  0  0  0  0999 V2000
   -4.2256   -3.6731    1.8584 H   0  0  0  0  0  0  0  0  0  0  0  0
   -4.2396   -2.6781    1.4144 C   0  0  0  0  0  0  0  0  0  0  0  0
   -4.9506   -2.0521    1.9514 H   0  0  0  0  0  0  0  0  0  0  0  0
   -4.5266   -2.7521    0.3674 H   0  0  0  0  0  0  0  0  0  0  0  0
   -2.8576   -2.0761    1.5184 C   0  0  0  0  0  0  0  0  0  0  0  0
   -1.9456   -2.7051    2.0404 O   0  0  0  0  0  0  0  0  0  0  0  0
   -2.6926   -0.8481    1.0174 N   0  0  0  0  0  0  0  0  0  0  0  0
   -3.4926   -0.3971    0.5954 H   0  0  0  0  0  0  0  0  0  0  0  0
   -1.4216   -0.1071    1.0434 C   0  0  1  0  0  0  0  0  0  0  0  0
   -0.7579   -0.5878    1.7640 H   0  0  0  0  0  0  0  0  0  0  0  0
   -0.7791   -0.1912   -0.3557 C   0  0  0  0  0  0  0  0  0  0  0  0
    0.1687    0.3505   -0.3369 H   0  0  0  0  0  0  0  0  0  0  0  0
   -0.5675   -1.2369   -0.5890 H   0  0  0  0  0  0  0  0  0  0  0  0
   -1.6543    0.4063   -1.4671 C   0  0  0  0  0  0  0  0  0  0  0  0
   -2.2685    1.2111   -1.0607 H   0  0  0  0  0  0  0  0  0  0  0  0
   -1.0145    0.8043   -2.2554 H   0  0  0  0  0  0  0  0  0  0  0  0
   -2.5695   -0.6783   -2.0514 C   0  0  0  0  0  0  0  0  0  0  0  0
   -1.9474   -1.4917   -2.4318 H   0  0  0  0  0  0  0  0  0  0  0  0
   -3.2051   -1.0651   -1.2513 H   0  0  0  0  0  0  0  0  0  0  0  0
   -3.4149   -0.1527   -3.1431 N   0  3  0  0  0  0  0  0  0  0  0  0
   -3.3355    0.8297   -3.3430 H   0  0  0  0  0  0  0  0  0  0  0  0
   -4.2631   -0.8504   -3.8799 C   0  0  0  0  0  0  0  0  0  0  0  0
   -4.4437   -2.1295   -3.7050 N   0  0  0  0  0  0  0  0  0  0  0  0
   -3.9193   -2.5985   -2.9878 H   0  0  0  0  0  0  0  0  0  0  0  0
   -5.0916   -2.6441   -4.2727 H   0  0  0  0  0  0  0  0  0  0  0  0
   -4.9558   -0.2688   -4.8176 N   0  0  0  0  0  0  0  0  0  0  0  0
   -4.8507    0.7161   -4.9902 H   0  0  0  0  0  0  0  0  0  0  0  0
   -5.5981   -0.8019   -5.3742 H   0  0  0  0  0  0  0  0  0  0  0  0
   -1.6547    1.3413    1.4779 C   0  0  0  0  0  0  0  0  0  0  0  0
   -2.5654    1.9858    0.9716 O   0  0  0  0  0  0  0  0  0  0  0  0
   -0.8107    1.8504    2.3808 N   0  0  0  0  0  0  0  0  0  0  0  0
   -0.1136    1.2381    2.7719 H   0  0  0  0  0  0  0  0  0  0  0  0
   -0.8954    3.2155    2.9026 C   0  0  0  0  0  0  0  0  0  0  0  0
   -1.8299    3.3430    3.4532 H   0  0  0  0  0  0  0  0  0  0  0  0
   -0.0581    3.4194    3.5712 H   0  0  0  0  0  0  0  0  0  0  0  0
   -0.8804    3.9320    2.0784 H   0  0  0  0  0  0  0  0  0  0  0  0
  5  6  2  0  0  0  0
  5  7  1  0  0  0  0
  2  3  1  0  0  0  0
  2  4  1  0  0  0  0
  2  5  1  0  0  0  0
  1  2  1  0  0  0  0
 29 30  2  0  0  0  0
 29 31  1  0  0  0  0
 26 27  1  0  0  0  0
 26 28  1  0  0  0  0
 23 24  1  0  0  0  0
 23 25  1  0  0  0  0
 22 23  1  0  0  0  0
 22 26  1  0  0  0  0
 20 21  1  0  0  0  0
 20 22  2  0  0  0  0
 17 18  1  0  0  0  0
 17 19  1  0  0  0  0
 17 20  1  0  0  0  0
 14 15  1  0  0  0  0
 14 16  1  0  0  0  0
 14 17  1  0  0  0  0
 11 12  1  0  0  0  0
 11 13  1  0  0  0  0
 11 14  1  0  0  0  0
  9 10  1  0  0  0  0
  9 11  1  0  0  0  0
  9 29  1  0  0  0  0
  7  8  1  0  0  0  0
  7  9  1  0  0  0  0
 33 34  1  0  0  0  0
 33 35  1  0  0  0  0
 33 36  1  0  0  0  0
 31 32  1  0  0  0  0
 31 33  1  0  0  0  0
M  CHG  1  20   1
M  END
$$$$
default_name
  -OEChem-02102213163D

 36 35  0     1  0  0  0  0  0999 V2000
   -4.2256   -3.6731    1.8584 H   0  0  0  0  0  0  0  0  0  0  0  0
   -4.2396   -2.6781    1.4144 C   0  0  0  0  0  0  0  0  0  0  0  0
   -4.9506   -2.0521    1.9514 H   0  0  0  0  0  0  0  0  0  0  0  0
   -4.5266   -2.7521    0.3674 H   0  0  0  0  0  0  0  0  0  0  0  0
   -2.8576   -2.0761    1.5184 C   0  0  0  0  0  0  0  0  0  0  0  0
   -1.9456   -2.7051    2.0404 O   0  0  0  0  0  0  0  0  0  0  0  0
   -2.6926   -0.8481    1.0174 N   0  0  0  0  0  0  0  0  0  0  0  0
   -3.4926   -0.3971    0.5954 H   0  0  0  0  0  0  0  0  0  0  0  0
   -1.4216   -0.1071    1.0434 C   0  0  1  0  0  0  0  0  0  0  0  0
   -0.7579   -0.5878    1.7640 H   0  0  0  0  0  0  0  0  0  0  0  0
   -0.7791   -0.1912   -0.3557 C   0  0  0  0  0  0  0  0  0  0  0  0
    0.1687    0.3505   -0.3369 H   0  0  0  0  0  0  0  0  0  0  0  0
   -0.5675   -1.2369   -0.5890 H   0  0  0  0  0  0  0  0  0  0  0  0
   -1.6543    0.4063   -1.4671 C   0  0  0  0  0  0  0  0  0  0  0  0
   -2.0630    1.3636   -1.1405 H   0  0  0  0  0  0  0  0  0  0  0  0
   -1.0482    0.5594   -2.3606 H   0  0  0  0  0  0  0  0  0  0  0  0
   -2.8105   -0.5492   -1.7923 C   0  0  0  0  0  0  0  0  0  0  0  0
   -2.3925   -1.5128   -2.0926 H   0  0  0  0  0  0  0  0  0  0  0  0
   -3.4091   -0.6905   -0.8893 H   0  0  0  0  0  0  0  0  0  0  0  0
   -3.6672   -0.0246   -2.8756 N   0  3  0  0  0  0  0  0  0  0  0  0
   -3.4360    0.8864   -3.2334 H   0  0  0  0  0  0  0  0  0  0  0  0
   -4.7059   -0.6384   -3.4173 C   0  0  0  0  0  0  0  0  0  0  0  0
   -5.0922   -1.8212   -3.0287 N   0  0  0  0  0  0  0  0  0  0  0  0
   -4.5819   -2.2799   -2.2948 H   0  0  0  0  0  0  0  0  0  0  0  0
   -5.8829   -2.2729   -3.4501 H   0  0  0  0  0  0  0  0  0  0  0  0
   -5.3857   -0.0680   -4.3711 N   0  0  0  0  0  0  0  0  0  0  0  0
   -5.1258    0.8442   -4.7048 H   0  0  0  0  0  0  0  0  0  0  0  0
   -6.1729   -0.5372   -4.7794 H   0  0  0  0  0  0  0  0  0  0  0  0
   -1.6547    1.3413    1.4779 C   0  0  0  0  0  0  0  0  0  0  0  0
   -2.5654    1.9858    0.9716 O   0  0  0  0  0  0  0  0  0  0  0  0
   -0.8107    1.8504    2.3808 N   0  0  0  0  0  0  0  0  0  0  0  0
   -0.1136    1.2381    2.7719 H   0  0  0  0  0  0  0  0  0  0  0  0
   -0.8954    3.2155    2.9026 C   0  0  0  0  0  0  0  0  0  0  0  0
   -1.8299    3.3430    3.4532 H   0  0  0  0  0  0  0  0  0  0  0  0
   -0.0581    3.4194    3.5712 H   0  0  0  0  0  0  0  0  0  0  0  0
   -0.8804    3.9320    2.0784 H   0  0  0  0  0  0  0  0  0  0  0  0
  5  6  2  0  0  0  0
  5  7  1  0  0  0  0
  2  3  1  0  0  0  0
  2  4  1  0  0  0  0
  2  5  1  0  0  0  0
  1  2  1  0  0  0  0
 29 30  2  0  0  0  0
 29 31  1  0  0  0  0
 26 27  1  0  0  0  0
 26 28  1  0  0  0  0
 23 24  1  0  0  0  0
 23 25  1  0  0  0  0
 22 23  1  0  0  0  0
 22 26  1  0  0  0  0
 20 21  1  0  0  0  0
 20 22  2  0  0  0  0
 17 18  1  0  0  0  0
 17 19  1  0  0  0  0
 17 20  1  0  0  0  0
 14 15  1  0  0  0  0
 14 16  1  0  0  0  0
 14 17  1  0  0  0  0
 11 12  1  0  0  0  0
 11 13  1  0  0  0  0
 11 14  1  0  0  0  0
  9 10  1  0  0  0  0
  9 11  1  0  0  0  0
  9 29  1  0  0  0  0
  7  8  1  0  0  0  0
  7  9  1  0  0  0  0
 33 34  1  0  0  0  0
 33 35  1  0  0  0  0
 33 36  1  0  0  0  0
 31 32  1  0  0  0  0
 31 33  1  0  0  0  0
M  CHG  1  20   1
M  END
$$$$
default_name
  -OEChem-02102213163D

 36 35  0     1  0  0  0  0  0999 V2000
   -4.2256   -3.6731    1.8584 H   0  0  0  0  0  0  0  0  0  0  0  0
   -4.2396   -2.6781    1.4144 C   0  0  0  0  0  0  0  0  0  0  0  0
   -4.9506   -2.0521    1.9514 H   0  0  0  0  0  0  0  0  0  0  0  0
   -4.5266   -2.7521    0.3674 H   0  0  0  0  0  0  0  0  0  0  0  0
   -2.8576   -2.0761    1.5184 C   0  0  0  0  0  0  0  0  0  0  0  0
   -1.9456   -2.7051    2.0404 O   0  0  0  0  0  0  0  0  0  0  0  0
   -2.6926   -0.8481    1.0174 N   0  0  0  0  0  0  0  0  0  0  0  0
   -3.4926   -0.3971    0.5954 H   0  0  0  0  0  0  0  0  0  0  0  0
   -1.4216   -0.1071    1.0434 C   0  0  1  0  0  0  0  0  0  0  0  0
   -0.7579   -0.5878    1.7640 H   0  0  0  0  0  0  0  0  0  0  0  0
   -0.7791   -0.1912   -0.3557 C   0  0  0  0  0  0  0  0  0  0  0  0
    0.1687    0.3505   -0.3369 H   0  0  0  0  0  0  0  0  0  0  0  0
   -0.5675   -1.2369   -0.5890 H   0  0  0  0  0  0  0  0  0  0  0  0
   -1.6543    0.4063   -1.4671 C   0  0  0  0  0  0  0  0  0  0  0  0
   -1.8440    1.4606   -1.2607 H   0  0  0  0  0  0  0  0  0  0  0  0
   -1.1371    0.3136   -2.4226 H   0  0  0  0  0  0  0  0  0  0  0  0
   -2.9930   -0.3411   -1.5367 C   0  0  0  0  0  0  0  0  0  0  0  0
   -2.7923   -1.3997   -1.7170 H   0  0  0  0  0  0  0  0  0  0  0  0
   -3.4996   -0.2372   -0.5743 H   0  0  0  0  0  0  0  0  0  0  0  0
   -3.8600    0.1859   -2.6106 N   0  3  0  0  0  0  0  0  0  0  0  0
   -3.5114    0.9761   -3.1258 H   0  0  0  0  0  0  0  0  0  0  0  0
   -5.0473   -0.2825   -2.9571 C   0  0  0  0  0  0  0  0  0  0  0  0
   -5.5927   -1.3022   -2.3555 N   0  0  0  0  0  0  0  0  0  0  0  0
   -5.0924   -1.7459   -1.6057 H   0  0  0  0  0  0  0  0  0  0  0  0
   -6.4948   -1.6449   -2.6307 H   0  0  0  0  0  0  0  0  0  0  0  0
   -5.7184    0.2724   -3.9262 N   0  0  0  0  0  0  0  0  0  0  0  0
   -5.3387    1.0615   -4.4203 H   0  0  0  0  0  0  0  0  0  0  0  0
   -6.6187   -0.0861   -4.1859 H   0  0  0  0  0  0  0  0  0  0  0  0
   -1.6547    1.3413    1.4779 C   0  0  0  0  0  0  0  0  0  0  0  0
   -2.5654    1.9858    0.9716 O   0  0  0  0  0  0  0  0  0  0  0  0
   -0.8107    1.8504    2.3808 N   0  0  0  0  0  0  0  0  0  0  0  0
   -0.1136    1.2381    2.7719 H   0  0  0  0  0  0  0  0  0  0  0  0
   -0.8954    3.2155    2.9026 C   0  0  0  0  0  0  0  0  0  0  0  0
   -1.8299    3.3430    3.4532 H   0  0  0  0  0  0  0  0  0  0  0  0
   -0.0581    3.4194    3.5712 H   0  0  0  0  0  0  0  0  0  0  0  0
   -0.8804    3.9320    2.0784 H   0  0  0  0  0  0  0  0  0  0  0  0
  5  6  2  0  0  0  0
  5  7  1  0  0  0  0
  2  3  1  0  0  0  0
  2  4  1  0  0  0  0
  2  5  1  0  0  0  0
  1  2  1  0  0  0  0
 29 30  2  0  0  0  0
 29 31  1  0  0  0  0
 26 27  1  0  0  0  0
 26 28  1  0  0  0  0
 23 24  1  0  0  0  0
 23 25  1  0  0  0  0
 22 23  1  0  0  0  0
 22 26  1  0  0  0  0
 20 21  1  0  0  0  0
 20 22  2  0  0  0  0
 17 18  1  0  0  0  0
 17 19  1  0  0  0  0
 17 20  1  0  0  0  0
 14 15  1  0  0  0  0
 14 16  1  0  0  0  0
 14 17  1  0  0  0  0
 11 12  1  0  0  0  0
 11 13  1  0  0  0  0
 11 14  1  0  0  0  0
  9 10  1  0  0  0  0
  9 11  1  0  0  0  0
  9 29  1  0  0  0  0
  7  8  1  0  0  0  0
  7  9  1  0  0  0  0
 33 34  1  0  0  0  0
 33 35  1  0  0  0  0
 33 36  1  0  0  0  0
 31 32  1  0  0  0  0
 31 33  1  0  0  0  0
M  CHG  1  20   1
M  END
$$$$
default_name
  -OEChem-02102213163D

 36 35  0     1  0  0  0  0  0999 V2000
   -4.2256   -3.6731    1.8584 H   0  0  0  0  0  0  0  0  0  0  0  0
   -4.2396   -2.6781    1.4144 C   0  0  0  0  0  0  0  0  0  0  0  0
   -4.9506   -2.0521    1.9514 H   0  0  0  0  0  0  0  0  0  0  0  0
   -4.5266   -2.7521    0.3674 H   0  0  0  0  0  0  0  0  0  0  0  0
   -2.8576   -2.0761    1.5184 C   0  0  0  0  0  0  0  0  0  0  0  0
   -1.9456   -2.7051    2.0404 O   0  0  0  0  0  0  0  0  0  0  0  0
   -2.6926   -0.8481    1.0174 N   0  0  0  0  0  0  0  0  0  0  0  0
   -3.4926   -0.3971    0.5954 H   0  0  0  0  0  0  0  0  0  0  0  0
   -1.4216   -0.1071    1.0434 C   0  0  1  0  0  0  0  0  0  0  0  0
   -0.7579   -0.5878    1.7640 H   0  0  0  0  0  0  0  0  0  0  0  0
   -0.7791   -0.1912   -0.3557 C   0  0  0  0  0  0  0  0  0  0  0  0
    0.1687    0.3505   -0.3369 H   0  0  0  0  0  0  0  0  0  0  0  0
   -0.5675   -1.2369   -0.5890 H   0  0  0  0  0  0  0  0  0  0  0  0
   -1.6543    0.4063   -1.4671 C   0  0  0  0  0  0  0  0  0  0  0  0
   -1.6265    1.4955   -1.4133 H   0  0  0  0  0  0  0  0  0  0  0  0
   -1.2753    0.0837   -2.4374 H   0  0  0  0  0  0  0  0  0  0  0  0
   -3.1045   -0.0682   -1.3022 C   0  0  0  0  0  0  0  0  0  0  0  0
   -3.1195   -1.1602   -1.3306 H   0  0  0  0  0  0  0  0  0  0  0  0
   -3.4704    0.2642   -0.3279 H   0  0  0  0  0  0  0  0  0  0  0  0
   -3.9801    0.4644   -2.3663 N   0  3  0  0  0  0  0  0  0  0  0  0
   -3.5566    1.0928   -3.0275 H   0  0  0  0  0  0  0  0  0  0  0  0
   -5.2640    0.1932   -2.5308 C   0  0  0  0  0  0  0  0  0  0  0  0
   -5.9112   -0.6078   -1.7315 N   0  0  0  0  0  0  0  0  0  0  0  0
   -5.4161   -1.0328   -0.9675 H   0  0  0  0  0  0  0  0  0  0  0  0
   -6.8857   -0.8027   -1.8702 H   0  0  0  0  0  0  0  0  0  0  0  0
   -5.9311    0.7292   -3.5131 N   0  0  0  0  0  0  0  0  0  0  0  0
   -5.4750    1.3533   -4.1561 H   0  0  0  0  0  0  0  0  0  0  0  0
   -6.9050    0.5207   -3.6343 H   0  0  0  0  0  0  0  0  0  0  0  0
   -1.6547    1.3413    1.4779 C   0  0  0  0  0  0  0  0  0  0  0  0
   -2.5654    1.9858    0.9716 O   0  0  0  0  0  0  0  0  0  0  0  0
   -0.8107    1.8504    2.3808 N   0  0  0  0  0  0  0  0  0  0  0  0
   -0.1136    1.2381    2.7719 H   0  0  0  0  0  0  0  0  0  0  0  0
   -0.8954    3.2155    2.9026 C   0  0  0  0  0  0  0  0  0  0  0  0
   -1.8299    3.3430    3.4532 H   0  0  0  0  0  0  0  0  0  0  0  0
   -0.0581    3.4194    3.5712 H   0  0  0  0  0  0  0  0  0  0  0  0
   -0.8804    3.9320    2.0784 H   0  0  0  0  0  0  0  0  0  0  0  0
  5  6  2  0  0  0  0
  5  7  1  0  0  0  0
  2  3  1  0  0  0  0
  2  4  1  0  0  0  0
  2  5  1  0  0  0  0
  1  2  1  0  0  0  0
 29 30  2  0  0  0  0
 29 31  1  0  0  0  0
 26 27  1  0  0  0  0
 26 28  1  0  0  0  0
 23 24  1  0  0  0  0
 23 25  1  0  0  0  0
 22 23  1  0  0  0  0
 22 26  1  0  0  0  0
 20 21  1  0  0  0  0
 20 22  2  0  0  0  0
 17 18  1  0  0  0  0
 17 19  1  0  0  0  0
 17 20  1  0  0  0  0
 14 15  1  0  0  0  0
 14 16  1  0  0  0  0
 14 17  1  0  0  0  0
 11 12  1  0  0  0  0
 11 13  1  0  0  0  0
 11 14  1  0  0  0  0
  9 10  1  0  0  0  0
  9 11  1  0  0  0  0
  9 29  1  0  0  0  0
  7  8  1  0  0  0  0
  7  9  1  0  0  0  0
 33 34  1  0  0  0  0
 33 35  1  0  0  0  0
 33 36  1  0  0  0  0
 31 32  1  0  0  0  0
 31 33  1  0  0  0  0
M  CHG  1  20   1
M  END
$$$$
default_name
  -OEChem-02102213163D

 36 35  0     1  0  0  0  0  0999 V2000
   -4.2256   -3.6731    1.8584 H   0  0  0  0  0  0  0  0  0  0  0  0
   -4.2396   -2.6781    1.4144 C   0  0  0  0  0  0  0  0  0  0  0  0
   -4.9506   -2.0521    1.9514 H   0  0  0  0  0  0  0  0  0  0  0  0
   -4.5266   -2.7521    0.3674 H   0  0  0  0  0  0  0  0  0  0  0  0
   -2.8576   -2.0761    1.5184 C   0  0  0  0  0  0  0  0  0  0  0  0
   -1.9456   -2.7051    2.0404 O   0  0  0  0  0  0  0  0  0  0  0  0
   -2.6926   -0.8481    1.0174 N   0  0  0  0  0  0  0  0  0  0  0  0
   -3.4926   -0.3971    0.5954 H   0  0  0  0  0  0  0  0  0  0  0  0
   -1.4216   -0.1071    1.0434 C   0  0  1  0  0  0  0  0  0  0  0  0
   -0.7579   -0.5878    1.7640 H   0  0  0  0  0  0  0  0  0  0  0  0
   -0.7791   -0.1912   -0.3557 C   0  0  0  0  0  0  0  0  0  0  0  0
    0.1687    0.3505   -0.3369 H   0  0  0  0  0  0  0  0  0  0  0  0
   -0.5675   -1.2369   -0.5890 H   0  0  0  0  0  0  0  0  0  0  0  0
   -1.6543    0.4063   -1.4671 C   0  0  0  0  0  0  0  0  0  0  0  0
   -1.4251    1.4660   -1.5877 H   0  0  0  0  0  0  0  0  0  0  0  0
   -1.4534   -0.1146   -2.4038 H   0  0  0  0  0  0  0  0  0  0  0  0
   -3.1375    0.2509   -1.1047 C   0  0  0  0  0  0  0  0  0  0  0  0
   -3.3517   -0.8105   -0.9598 H   0  0  0  0  0  0  0  0  0  0  0  0
   -3.3234    0.7793   -0.1667 H   0  0  0  0  0  0  0  0  0  0  0  0
   -4.0193    0.7920   -2.1594 N   0  3  0  0  0  0  0  0  0  0  0  0
   -3.5684    1.2285   -2.9452 H   0  0  0  0  0  0  0  0  0  0  0  0
   -5.3413    0.7561   -2.1673 C   0  0  0  0  0  0  0  0  0  0  0  0
   -6.0259    0.2146   -1.1991 N   0  0  0  0  0  0  0  0  0  0  0  0
   -5.5309   -0.1891   -0.4236 H   0  0  0  0  0  0  0  0  0  0  0  0
   -7.0289    0.1961   -1.2204 H   0  0  0  0  0  0  0  0  0  0  0  0
   -6.0095    1.2711   -3.1601 N   0  0  0  0  0  0  0  0  0  0  0  0
   -5.5254    1.6997   -3.9302 H   0  0  0  0  0  0  0  0  0  0  0  0
   -7.0123    1.2417   -3.1622 H   0  0  0  0  0  0  0  0  0  0  0  0
   -1.6547    1.3413    1.4779 C   0  0  0  0  0  0  0  0  0  0  0  0
   -2.5654    1.9858    0.9716 O   0  0  0  0  0  0  0  0  0  0  0  0
   -0.8107    1.8504    2.3808 N   0  0  0  0  0  0  0  0  0  0  0  0
   -0.1136    1.2381    2.7719 H   0  0  0  0  0  0  0  0  0  0  0  0
   -0.8954    3.2155    2.9026 C   0  0  0  0  0  0  0  0  0  0  0  0
   -1.8299    3.3430    3.4532 H   0  0  0  0  0  0  0  0  0  0  0  0
   -0.0581    3.4194    3.5712 H   0  0  0  0  0  0  0  0  0  0  0  0
   -0.8804    3.9320    2.0784 H   0  0  0  0  0  0  0  0  0  0  0  0
  5  6  2  0  0  0  0
  5  7  1  0  0  0  0
  2  3  1  0  0  0  0
  2  4  1  0  0  0  0
  2  5  1  0  0  0  0
  1  2  1  0  0  0  0
 29 30  2  0  0  0  0
 29 31  1  0  0  0  0
 26 27  1  0  0  0  0
 26 28  1  0  0  0  0
 23 24  1  0  0  0  0
 23 25  1  0  0  0  0
 22 23  1  0  0  0  0
 22 26  1  0  0  0  0
 20 21  1  0  0  0  0
 20 22  2  0  0  0  0
 17 18  1  0  0  0  0
 17 19  1  0  0  0  0
 17 20  1  0  0  0  0
 14 15  1  0  0  0  0
 14 16  1  0  0  0  0
 14 17  1  0  0  0  0
 11 12  1  0  0  0  0
 11 13  1  0  0  0  0
 11 14  1  0  0  0  0
  9 10  1  0  0  0  0
  9 11  1  0  0  0  0
  9 29  1  0  0  0  0
  7  8  1  0  0  0  0
  7  9  1  0  0  0  0
 33 34  1  0  0  0  0
 33 35  1  0  0  0  0
 33 36  1  0  0  0  0
 31 32  1  0  0  0  0
 31 33  1  0  0  0  0
M  CHG  1  20   1
M  END
$$$$
default_name
  -OEChem-02102213163D

 36 35  0     1  0  0  0  0  0999 V2000
   -4.2256   -3.6731    1.8584 H   0  0  0  0  0  0  0  0  0  0  0  0
   -4.2396   -2.6781    1.4144 C   0  0  0  0  0  0  0  0  0  0  0  0
   -4.9506   -2.0521    1.9514 H   0  0  0  0  0  0  0  0  0  0  0  0
   -4.5266   -2.7521    0.3674 H   0  0  0  0  0  0  0  0  0  0  0  0
   -2.8576   -2.0761    1.5184 C   0  0  0  0  0  0  0  0  0  0  0  0
   -1.9456   -2.7051    2.0404 O   0  0  0  0  0  0  0  0  0  0  0  0
   -2.6926   -0.8481    1.0174 N   0  0  0  0  0  0  0  0  0  0  0  0
   -3.4926   -0.3971    0.5954 H   0  0  0  0  0  0  0  0  0  0  0  0
   -1.4216   -0.1071    1.0434 C   0  0  1  0  0  0  0  0  0  0  0  0
   -0.7579   -0.5878    1.7640 H   0  0  0  0  0  0  0  0  0  0  0  0
   -0.7791   -0.1912   -0.3557 C   0  0  0  0  0  0  0  0  0  0  0  0
    0.1687    0.3505   -0.3369 H   0  0  0  0  0  0  0  0  0  0  0  0
   -0.5675   -1.2369   -0.5890 H   0  0  0  0  0  0  0  0  0  0  0  0
   -1.6543    0.4063   -1.4671 C   0  0  0  0  0  0  0  0  0  0  0  0
   -1.2537    1.3741   -1.7720 H   0  0  0  0  0  0  0  0  0  0  0  0
   -1.6591   -0.2679   -2.3242 H   0  0  0  0  0  0  0  0  0  0  0  0
   -3.0898    0.5944   -0.9576 C   0  0  0  0  0  0  0  0  0  0  0  0
   -3.4732   -0.3746   -0.6298 H   0  0  0  0  0  0  0  0  0  0  0  0
   -3.0688    1.2732   -0.1017 H   0  0  0  0  0  0  0  0  0  0  0  0
   -3.9750    1.1463   -2.0038 N   0  3  0  0  0  0  0  0  0  0  0  0
   -3.5462    1.3739   -2.8845 H   0  0  0  0  0  0  0  0  0  0  0  0
   -5.2740    1.3680   -1.8914 C   0  0  0  0  0  0  0  0  0  0  0  0
   -5.9290    1.1091   -0.7945 N   0  0  0  0  0  0  0  0  0  0  0  0
   -5.4290    0.7275   -0.0111 H   0  0  0  0  0  0  0  0  0  0  0  0
   -6.9147    1.2836   -0.7258 H   0  0  0  0  0  0  0  0  0  0  0  0
   -5.9481    1.8614   -2.8912 N   0  0  0  0  0  0  0  0  0  0  0  0
   -5.4865    2.0770   -3.7580 H   0  0  0  0  0  0  0  0  0  0  0  0
   -6.9334    2.0280   -2.8017 H   0  0  0  0  0  0  0  0  0  0  0  0
   -1.6547    1.3413    1.4779 C   0  0  0  0  0  0  0  0  0  0  0  0
   -2.5654    1.9858    0.9716 O   0  0  0  0  0  0  0  0  0  0  0  0
   -0.8107    1.8504    2.3808 N   0  0  0  0  0  0  0  0  0  0  0  0
   -0.1136    1.2381    2.7719 H   0  0  0  0  0  0  0  0  0  0  0  0
   -0.8954    3.2155    2.9026 C   0  0  0  0  0  0  0  0  0  0  0  0
   -1.8299    3.3430    3.4532 H   0  0  0  0  0  0  0  0  0  0  0  0
   -0.0581    3.4194    3.5712 H   0  0  0  0  0  0  0  0  0  0  0  0
   -0.8804    3.9320    2.0784 H   0  0  0  0  0  0  0  0  0  0  0  0
  5  6  2  0  0  0  0
  5  7  1  0  0  0  0
  2  3  1  0  0  0  0
  2  4  1  0  0  0  0
  2  5  1  0  0  0  0
  1  2  1  0  0  0  0
 29 30  2  0  0  0  0
 29 31  1  0  0  0  0
 26 27  1  0  0  0  0
 26 28  1  0  0  0  0
 23 24  1  0  0  0  0
 23 25  1  0  0  0  0
 22 23  1  0  0  0  0
 22 26  1  0  0  0  0
 20 21  1  0  0  0  0
 20 22  2  0  0  0  0
 17 18  1  0  0  0  0
 17 19  1  0  0  0  0
 17 20  1  0  0  0  0
 14 15  1  0  0  0  0
 14 16  1  0  0  0  0
 14 17  1  0  0  0  0
 11 12  1  0  0  0  0
 11 13  1  0  0  0  0
 11 14  1  0  0  0  0
  9 10  1  0  0  0  0
  9 11  1  0  0  0  0
  9 29  1  0  0  0  0
  7  8  1  0  0  0  0
  7  9  1  0  0  0  0
 33 34  1  0  0  0  0
 33 35  1  0  0  0  0
 33 36  1  0  0  0  0
 31 32  1  0  0  0  0
 31 33  1  0  0  0  0
M  CHG  1  20   1
M  END
$$$$
default_name
  -OEChem-02102213163D

 36 35  0     1  0  0  0  0  0999 V2000
   -4.2256   -3.6731    1.8584 H   0  0  0  0  0  0  0  0  0  0  0  0
   -4.2396   -2.6781    1.4144 C   0  0  0  0  0  0  0  0  0  0  0  0
   -4.9506   -2.0521    1.9514 H   0  0  0  0  0  0  0  0  0  0  0  0
   -4.5266   -2.7521    0.3674 H   0  0  0  0  0  0  0  0  0  0  0  0
   -2.8576   -2.0761    1.5184 C   0  0  0  0  0  0  0  0  0  0  0  0
   -1.9456   -2.7051    2.0404 O   0  0  0  0  0  0  0  0  0  0  0  0
   -2.6926   -0.8481    1.0174 N   0  0  0  0  0  0  0  0  0  0  0  0
   -3.4926   -0.3971    0.5954 H   0  0  0  0  0  0  0  0  0  0  0  0
   -1.4216   -0.1071    1.0434 C   0  0  1  0  0  0  0  0  0  0  0  0
   -0.7579   -0.5878    1.7640 H   0  0  0  0  0  0  0  0  0  0  0  0
   -0.7791   -0.1912   -0.3557 C   0  0  0  0  0  0  0  0  0  0  0  0
    0.1687    0.3505   -0.3369 H   0  0  0  0  0  0  0  0  0  0  0  0
   -0.5675   -1.2369   -0.5890 H   0  0  0  0  0  0  0  0  0  0  0  0
   -1.6543    0.4063   -1.4671 C   0  0  0  0  0  0  0  0  0  0  0  0
   -1.1240    1.2260   -1.9538 H   0  0  0  0  0  0  0  0  0  0  0  0
   -1.8786   -0.3656   -2.2039 H   0  0  0  0  0  0  0  0  0  0  0  0
   -2.9645    0.9390   -0.8711 C   0  0  0  0  0  0  0  0  0  0  0  0
   -3.4756    0.1179   -0.3631 H   0  0  0  0  0  0  0  0  0  0  0  0
   -2.7237    1.7120   -0.1375 H   0  0  0  0  0  0  0  0  0  0  0  0
   -3.8502    1.5031   -1.9103 N   0  3  0  0  0  0  0  0  0  0  0  0
   -3.4914    1.5191   -2.8496 H   0  0  0  0  0  0  0  0  0  0  0  0
   -5.0665    1.9870   -1.7220 C   0  0  0  0  0  0  0  0  0  0  0  0
   -5.6272    2.0145   -0.5455 N   0  0  0  0  0  0  0  0  0  0  0  0
   -5.1174    1.6546    0.2419 H   0  0  0  0  0  0  0  0  0  0  0  0
   -6.5509    2.3856   -0.4198 H   0  0  0  0  0  0  0  0  0  0  0  0
   -5.7511    2.4597   -2.7246 N   0  0  0  0  0  0  0  0  0  0  0  0
   -5.3609    2.4596   -3.6513 H   0  0  0  0  0  0  0  0  0  0  0  0
   -6.6735    2.8258   -2.5774 H   0  0  0  0  0  0  0  0  0  0  0  0
   -1.6547    1.3413    1.4779 C   0  0  0  0  0  0  0  0  0  0  0  0
   -2.5654    1.9858    0.9716 O   0  0  0  0  0  0  0  0  0  0  0  0
   -0.8107    1.8504    2.3808 N   0  0  0  0  0  0  0  0  0  0  0  0
   -0.1136    1.2381    2.7719 H   0  0  0  0  0  0  0  0  0  0  0  0
   -0.8954    3.2155    2.9026 C   0  0  0  0  0  0  0  0  0  0  0  0
   -1.8299    3.3430    3.4532 H   0  0  0  0  0  0  0  0  0  0  0  0
   -0.0581    3.4194    3.5712 H   0  0  0  0  0  0  0  0  0  0  0  0
   -0.8804    3.9320    2.0784 H   0  0  0  0  0  0  0  0  0  0  0  0
  5  6  2  0  0  0  0
  5  7  1  0  0  0  0
  2  3  1  0  0  0  0
  2  4  1  0  0  0  0
  2  5  1  0  0  0  0
  1  2  1  0  0  0  0
 29 30  2  0  0  0  0
 29 31  1  0  0  0  0
 26 27  1  0  0  0  0
 26 28  1  0  0  0  0
 23 24  1  0  0  0  0
 23 25  1  0  0  0  0
 22 23  1  0  0  0  0
 22 26  1  0  0  0  0
 20 21  1  0  0  0  0
 20 22  2  0  0  0  0
 17 18  1  0  0  0  0
 17 19  1  0  0  0  0
 17 20  1  0  0  0  0
 14 15  1  0  0  0  0
 14 16  1  0  0  0  0
 14 17  1  0  0  0  0
 11 12  1  0  0  0  0
 11 13  1  0  0  0  0
 11 14  1  0  0  0  0
  9 10  1  0  0  0  0
  9 11  1  0  0  0  0
  9 29  1  0  0  0  0
  7  8  1  0  0  0  0
  7  9  1  0  0  0  0
 33 34  1  0  0  0  0
 33 35  1  0  0  0  0
 33 36  1  0  0  0  0
 31 32  1  0  0  0  0
 31 33  1  0  0  0  0
M  CHG  1  20   1
M  END
$$$$
default_name
  -OEChem-02102213163D

 36 35  0     1  0  0  0  0  0999 V2000
   -4.2256   -3.6731    1.8584 H   0  0  0  0  0  0  0  0  0  0  0  0
   -4.2396   -2.6781    1.4144 C   0  0  0  0  0  0  0  0  0  0  0  0
   -4.9506   -2.0521    1.9514 H   0  0  0  0  0  0  0  0  0  0  0  0
   -4.5266   -2.7521    0.3674 H   0  0  0  0  0  0  0  0  0  0  0  0
   -2.8576   -2.0761    1.5184 C   0  0  0  0  0  0  0  0  0  0  0  0
   -1.9456   -2.7051    2.0404 O   0  0  0  0  0  0  0  0  0  0  0  0
   -2.6926   -0.8481    1.0174 N   0  0  0  0  0  0  0  0  0  0  0  0
   -3.4926   -0.3971    0.5954 H   0  0  0  0  0  0  0  0  0  0  0  0
   -1.4216   -0.1071    1.0434 C   0  0  1  0  0  0  0  0  0  0  0  0
   -0.7579   -0.5878    1.7640 H   0  0  0  0  0  0  0  0  0  0  0  0
   -0.7791   -0.1912   -0.3557 C   0  0  0  0  0  0  0  0  0  0  0  0
    0.1687    0.3505   -0.3369 H   0  0  0  0  0  0  0  0  0  0  0  0
   -0.5675   -1.2369   -0.5890 H   0  0  0  0  0  0  0  0  0  0  0  0
   -1.6543    0.4063   -1.4671 C   0  0  0  0  0  0  0  0  0  0  0  0
   -1.0447    1.0318   -2.1207 H   0  0  0  0  0  0  0  0  0  0  0  0
   -2.0967   -0.4012   -2.0513 H   0  0  0  0  0  0  0  0  0  0  0  0
   -2.7702    1.2611   -0.8509 C   0  0  0  0  0  0  0  0  0  0  0  0
   -3.3589    0.6335   -0.1779 H   0  0  0  0  0  0  0  0  0  0  0  0
   -2.3118    2.0660   -0.2716 H   0  0  0  0  0  0  0  0  0  0  0  0
   -3.6534    1.8382   -1.8851 N   0  3  0  0  0  0  0  0  0  0  0  0
   -3.4077    1.6543   -2.8428 H   0  0  0  0  0  0  0  0  0  0  0  0
   -4.7331    2.5712   -1.6706 C   0  0  0  0  0  0  0  0  0  0  0  0
   -5.1409    2.8694   -0.4689 N   0  0  0  0  0  0  0  0  0  0  0  0
   -4.6172    2.5290    0.3181 H   0  0  0  0  0  0  0  0  0  0  0  0
   -5.9623    3.4271   -0.3235 H   0  0  0  0  0  0  0  0  0  0  0  0
   -5.4320    3.0253   -2.6718 N   0  0  0  0  0  0  0  0  0  0  0  0
   -5.1571    2.8214   -3.6173 H   0  0  0  0  0  0  0  0  0  0  0  0
   -6.2505    3.5809   -2.5046 H   0  0  0  0  0  0  0  0  0  0  0  0
   -1.6547    1.3413    1.4779 C   0  0  0  0  0  0  0  0  0  0  0  0
   -2.5654    1.9858    0.9716 O   0  0  0  0  0  0  0  0  0  0  0  0
   -0.8107    1.8504    2.3808 N   0  0  0  0  0  0  0  0  0  0  0  0
   -0.1136    1.2381    2.7719 H   0  0  0  0  0  0  0  0  0  0  0  0
   -0.8954    3.2155    2.9026 C   0  0  0  0  0  0  0  0  0  0  0  0
   -1.8299    3.3430    3.4532 H   0  0  0  0  0  0  0  0  0  0  0  0
   -0.0581    3.4194    3.5712 H   0  0  0  0  0  0  0  0  0  0  0  0
   -0.8804    3.9320    2.0784 H   0  0  0  0  0  0  0  0  0  0  0  0
  5  6  2  0  0  0  0
  5  7  1  0  0  0  0
  2  3  1  0  0  0  0
  2  4  1  0  0  0  0
  2  5  1  0  0  0  0
  1  2  1  0  0  0  0
 29 30  2  0  0  0  0
 29 31  1  0  0  0  0
 26 27  1  0  0  0  0
 26 28  1  0  0  0  0
 23 24  1  0  0  0  0
 23 25  1  0  0  0  0
 22 23  1  0  0  0  0
 22 26  1  0  0  0  0
 20 21  1  0  0  0  0
 20 22  2  0  0  0  0
 17 18  1  0  0  0  0
 17 19  1  0  0  0  0
 17 20  1  0  0  0  0
 14 15  1  0  0  0  0
 14 16  1  0  0  0  0
 14 17  1  0  0  0  0
 11 12  1  0  0  0  0
 11 13  1  0  0  0  0
 11 14  1  0  0  0  0
  9 10  1  0  0  0  0
  9 11  1  0  0  0  0
  9 29  1  0  0  0  0
  7  8  1  0  0  0  0
  7  9  1  0  0  0  0
 33 34  1  0  0  0  0
 33 35  1  0  0  0  0
 33 36  1  0  0  0  0
 31 32  1  0  0  0  0
 31 33  1  0  0  0  0
M  CHG  1  20   1
M  END
$$$$
default_name
  -OEChem-02102213163D

 36 35  0     1  0  0  0  0  0999 V2000
   -4.2256   -3.6731    1.8584 H   0  0  0  0  0  0  0  0  0  0  0  0
   -4.2396   -2.6781    1.4144 C   0  0  0  0  0  0  0  0  0  0  0  0
   -4.9506   -2.0521    1.9514 H   0  0  0  0  0  0  0  0  0  0  0  0
   -4.5266   -2.7521    0.3674 H   0  0  0  0  0  0  0  0  0  0  0  0
   -2.8576   -2.0761    1.5184 C   0  0  0  0  0  0  0  0  0  0  0  0
   -1.9456   -2.7051    2.0404 O   0  0  0  0  0  0  0  0  0  0  0  0
   -2.6926   -0.8481    1.0174 N   0  0  0  0  0  0  0  0  0  0  0  0
   -3.4926   -0.3971    0.5954 H   0  0  0  0  0  0  0  0  0  0  0  0
   -1.4216   -0.1071    1.0434 C   0  0  1  0  0  0  0  0  0  0  0  0
   -0.7579   -0.5878    1.7640 H   0  0  0  0  0  0  0  0  0  0  0  0
   -0.7791   -0.1912   -0.3557 C   0  0  0  0  0  0  0  0  0  0  0  0
    0.1687    0.3505   -0.3369 H   0  0  0  0  0  0  0  0  0  0  0  0
   -0.5675   -1.2369   -0.5890 H   0  0  0  0  0  0  0  0  0  0  0  0
   -1.6543    0.4063   -1.4671 C   0  0  0  0  0  0  0  0  0  0  0  0
   -1.0212    0.8048   -2.2611 H   0  0  0  0  0  0  0  0  0  0  0  0
   -2.2988   -0.3722   -1.8766 H   0  0  0  0  0  0  0  0  0  0  0  0
   -2.5201    1.5388   -0.8985 C   0  0  0  0  0  0  0  0  0  0  0  0
   -3.1309    1.1369   -0.0868 H   0  0  0  0  0  0  0  0  0  0  0  0
   -1.8611    2.3110   -0.4947 H   0  0  0  0  0  0  0  0  0  0  0  0
   -3.3979    2.1287   -1.9301 N   0  3  0  0  0  0  0  0  0  0  0  0
   -3.3009    1.7702   -2.8646 H   0  0  0  0  0  0  0  0  0  0  0  0
   -4.2964    3.0805   -1.7406 C   0  0  0  0  0  0  0  0  0  0  0  0
   -4.5033    3.6153   -0.5699 N   0  0  0  0  0  0  0  0  0  0  0  0
   -3.9626    3.2913    0.2124 H   0  0  0  0  0  0  0  0  0  0  0  0
   -5.1889    4.3370   -0.4434 H   0  0  0  0  0  0  0  0  0  0  0  0
   -5.0126    3.5196   -2.7364 N   0  0  0  0  0  0  0  0  0  0  0  0
   -4.8891    3.1376   -3.6583 H   0  0  0  0  0  0  0  0  0  0  0  0
   -5.6931    4.2417   -2.5883 H   0  0  0  0  0  0  0  0  0  0  0  0
   -1.6547    1.3413    1.4779 C   0  0  0  0  0  0  0  0  0  0  0  0
   -2.5654    1.9858    0.9716 O   0  0  0  0  0  0  0  0  0  0  0  0
   -0.8107    1.8504    2.3808 N   0  0  0  0  0  0  0  0  0  0  0  0
   -0.1136    1.2381    2.7719 H   0  0  0  0  0  0  0  0  0  0  0  0
   -0.8954    3.2155    2.9026 C   0  0  0  0  0  0  0  0  0  0  0  0
   -1.8299    3.3430    3.4532 H   0  0  0  0  0  0  0  0  0  0  0  0
   -0.0581    3.4194    3.5712 H   0  0  0  0  0  0  0  0  0  0  0  0
   -0.8804    3.9320    2.0784 H   0  0  0  0  0  0  0  0  0  0  0  0
  5  6  2  0  0  0  0
  5  7  1  0  0  0  0
  2  3  1  0  0  0  0
  2  4  1  0  0  0  0
  2  5  1  0  0  0  0
  1  2  1  0  0  0  0
 29 30  2  0  0  0  0
 29 31  1  0  0  0  0
 26 27  1  0  0  0  0
 26 28  1  0  0  0  0
 23 24  1  0  0  0  0
 23 25  1  0  0  0  0
 22 23  1  0  0  0  0
 22 26  1  0  0  0  0
 20 21  1  0  0  0  0
 20 22  2  0  0  0  0
 17 18  1  0  0  0  0
 17 19  1  0  0  0  0
 17 20  1  0  0  0  0
 14 15  1  0  0  0  0
 14 16  1  0  0  0  0
 14 17  1  0  0  0  0
 11 12  1  0  0  0  0
 11 13  1  0  0  0  0
 11 14  1  0  0  0  0
  9 10  1  0  0  0  0
  9 11  1  0  0  0  0
  9 29  1  0  0  0  0
  7  8  1  0  0  0  0
  7  9  1  0  0  0  0
 33 34  1  0  0  0  0
 33 35  1  0  0  0  0
 33 36  1  0  0  0  0
 31 32  1  0  0  0  0
 31 33  1  0  0  0  0
M  CHG  1  20   1
M  END
$$$$
default_name
  -OEChem-02102213163D

 36 35  0     1  0  0  0  0  0999 V2000
   -4.2256   -3.6731    1.8584 H   0  0  0  0  0  0  0  0  0  0  0  0
   -4.2396   -2.6781    1.4144 C   0  0  0  0  0  0  0  0  0  0  0  0
   -4.9506   -2.0521    1.9514 H   0  0  0  0  0  0  0  0  0  0  0  0
   -4.5266   -2.7521    0.3674 H   0  0  0  0  0  0  0  0  0  0  0  0
   -2.8576   -2.0761    1.5184 C   0  0  0  0  0  0  0  0  0  0  0  0
   -1.9456   -2.7051    2.0404 O   0  0  0  0  0  0  0  0  0  0  0  0
   -2.6926   -0.8481    1.0174 N   0  0  0  0  0  0  0  0  0  0  0  0
   -3.4926   -0.3971    0.5954 H   0  0  0  0  0  0  0  0  0  0  0  0
   -1.4216   -0.1071    1.0434 C   0  0  1  0  0  0  0  0  0  0  0  0
   -0.7579   -0.5878    1.7640 H   0  0  0  0  0  0  0  0  0  0  0  0
   -0.7791   -0.1912   -0.3557 C   0  0  0  0  0  0  0  0  0  0  0  0
    0.1687    0.3505   -0.3369 H   0  0  0  0  0  0  0  0  0  0  0  0
   -0.5675   -1.2369   -0.5890 H   0  0  0  0  0  0  0  0  0  0  0  0
   -1.6543    0.4063   -1.4671 C   0  0  0  0  0  0  0  0  0  0  0  0
   -1.0553    0.5604   -2.3657 H   0  0  0  0  0  0  0  0  0  0  0  0
   -2.4709   -0.2806   -1.6918 H   0  0  0  0  0  0  0  0  0  0  0  0
   -2.2314    1.7532   -1.0106 C   0  0  0  0  0  0  0  0  0  0  0  0
   -2.8072    1.5939   -0.0961 H   0  0  0  0  0  0  0  0  0  0  0  0
   -1.4024    2.4304   -0.7918 H   0  0  0  0  0  0  0  0  0  0  0  0
   -3.1013    2.3549   -2.0421 N   0  3  0  0  0  0  0  0  0  0  0  0
   -3.1782    1.8589   -2.9136 H   0  0  0  0  0  0  0  0  0  0  0  0
   -3.7863    3.4803   -1.9273 C   0  0  0  0  0  0  0  0  0  0  0  0
   -3.7580    4.2014   -0.8418 N   0  0  0  0  0  0  0  0  0  0  0  0
   -3.1981    3.8893   -0.0681 H   0  0  0  0  0  0  0  0  0  0  0  0
   -4.2835    5.0533   -0.7713 H   0  0  0  0  0  0  0  0  0  0  0  0
   -4.5213    3.9090   -2.9140 N   0  0  0  0  0  0  0  0  0  0  0  0
   -4.5751    3.3869   -3.7715 H   0  0  0  0  0  0  0  0  0  0  0  0
   -5.0394    4.7632   -2.8227 H   0  0  0  0  0  0  0  0  0  0  0  0
   -1.6547    1.3413    1.4779 C   0  0  0  0  0  0  0  0  0  0  0  0
   -2.5654    1.9858    0.9716 O   0  0  0  0  0  0  0  0  0  0  0  0
   -0.8107    1.8504    2.3808 N   0  0  0  0  0  0  0  0  0  0  0  0
   -0.1136    1.2381    2.7719 H   0  0  0  0  0  0  0  0  0  0  0  0
   -0.8954    3.2155    2.9026 C   0  0  0  0  0  0  0  0  0  0  0  0
   -1.8299    3.3430    3.4532 H   0  0  0  0  0  0  0  0  0  0  0  0
   -0.0581    3.4194    3.5712 H   0  0  0  0  0  0  0  0  0  0  0  0
   -0.8804    3.9320    2.0784 H   0  0  0  0  0  0  0  0  0  0  0  0
  5  6  2  0  0  0  0
  5  7  1  0  0  0  0
  2  3  1  0  0  0  0
  2  4  1  0  0  0  0
  2  5  1  0  0  0  0
  1  2  1  0  0  0  0
 29 30  2  0  0  0  0
 29 31  1  0  0  0  0
 26 27  1  0  0  0  0
 26 28  1  0  0  0  0
 23 24  1  0  0  0  0
 23 25  1  0  0  0  0
 22 23  1  0  0  0  0
 22 26  1  0  0  0  0
 20 21  1  0  0  0  0
 20 22  2  0  0  0  0
 17 18  1  0  0  0  0
 17 19  1  0  0  0  0
 17 20  1  0  0  0  0
 14 15  1  0  0  0  0
 14 16  1  0  0  0  0
 14 17  1  0  0  0  0
 11 12  1  0  0  0  0
 11 13  1  0  0  0  0
 11 14  1  0  0  0  0
  9 10  1  0  0  0  0
  9 11  1  0  0  0  0
  9 29  1  0  0  0  0
  7  8  1  0  0  0  0
  7  9  1  0  0  0  0
 33 34  1  0  0  0  0
 33 35  1  0  0  0  0
 33 36  1  0  0  0  0
 31 32  1  0  0  0  0
 31 33  1  0  0  0  0
M  CHG  1  20   1
M  END
$$$$
default_name
  -OEChem-02102213163D

 36 35  0     1  0  0  0  0  0999 V2000
   -4.2256   -3.6731    1.8584 H   0  0  0  0  0  0  0  0  0  0  0  0
   -4.2396   -2.6781    1.4144 C   0  0  0  0  0  0  0  0  0  0  0  0
   -4.9506   -2.0521    1.9514 H   0  0  0  0  0  0  0  0  0  0  0  0
   -4.5266   -2.7521    0.3674 H   0  0  0  0  0  0  0  0  0  0  0  0
   -2.8576   -2.0761    1.5184 C   0  0  0  0  0  0  0  0  0  0  0  0
   -1.9456   -2.7051    2.0404 O   0  0  0  0  0  0  0  0  0  0  0  0
   -2.6926   -0.8481    1.0174 N   0  0  0  0  0  0  0  0  0  0  0  0
   -3.4926   -0.3971    0.5954 H   0  0  0  0  0  0  0  0  0  0  0  0
   -1.4216   -0.1071    1.0434 C   0  0  1  0  0  0  0  0  0  0  0  0
   -0.7579   -0.5878    1.7640 H   0  0  0  0  0  0  0  0  0  0  0  0
   -0.7791   -0.1912   -0.3557 C   0  0  0  0  0  0  0  0  0  0  0  0
    0.1687    0.3505   -0.3369 H   0  0  0  0  0  0  0  0  0  0  0  0
   -0.5675   -1.2369   -0.5890 H   0  0  0  0  0  0  0  0  0  0  0  0
   -1.6543    0.4063   -1.4671 C   0  0  0  0  0  0  0  0  0  0  0  0
   -1.1445    0.3153   -2.4272 H   0  0  0  0  0  0  0  0  0  0  0  0
   -2.6014   -0.1326   -1.5095 H   0  0  0  0  0  0  0  0  0  0  0  0
   -1.9236    1.8897   -1.1796 C   0  0  0  0  0  0  0  0  0  0  0  0
   -2.4099    1.9733   -0.2050 H   0  0  0  0  0  0  0  0  0  0  0  0
   -0.9668    2.4159   -1.1426 H   0  0  0  0  0  0  0  0  0  0  0  0
   -2.7837    2.5012   -2.2135 N   0  3  0  0  0  0  0  0  0  0  0  0
   -3.0480    1.9144   -2.9863 H   0  0  0  0  0  0  0  0  0  0  0  0
   -3.2374    3.7435   -2.2181 C   0  0  0  0  0  0  0  0  0  0  0  0
   -2.9556    4.5879   -1.2658 N   0  0  0  0  0  0  0  0  0  0  0  0
   -2.3759    4.2823   -0.5042 H   0  0  0  0  0  0  0  0  0  0  0  0
   -3.3078    5.5273   -1.2848 H   0  0  0  0  0  0  0  0  0  0  0  0
   -3.9917    4.1669   -3.1923 N   0  0  0  0  0  0  0  0  0  0  0  0
   -4.2366    3.5521   -3.9493 H   0  0  0  0  0  0  0  0  0  0  0  0
   -4.3338    5.1100   -3.1919 H   0  0  0  0  0  0  0  0  0  0  0  0
   -1.6547    1.3413    1.4779 C   0  0  0  0  0  0  0  0  0  0  0  0
   -2.5654    1.9858    0.9716 O   0  0  0  0  0  0  0  0  0  0  0  0
   -0.8107    1.8504    2.3808 N   0  0  0  0  0  0  0  0  0  0  0  0
   -0.1136    1.2381    2.7719 H   0  0  0  0  0  0  0  0  0  0  0  0
   -0.8954    3.2155    2.9026 C   0  0  0  0  0  0  0  0  0  0  0  0
   -1.8299    3.3430    3.4532 H   0  0  0  0  0  0  0  0  0  0  0  0
   -0.0581    3.4194    3.5712 H   0  0  0  0  0  0  0  0  0  0  0  0
   -0.8804    3.9320    2.0784 H   0  0  0  0  0  0  0  0  0  0  0  0
  5  6  2  0  0  0  0
  5  7  1  0  0  0  0
  2  3  1  0  0  0  0
  2  4  1  0  0  0  0
  2  5  1  0  0  0  0
  1  2  1  0  0  0  0
 29 30  2  0  0  0  0
 29 31  1  0  0  0  0
 26 27  1  0  0  0  0
 26 28  1  0  0  0  0
 23 24  1  0  0  0  0
 23 25  1  0  0  0  0
 22 23  1  0  0  0  0
 22 26  1  0  0  0  0
 20 21  1  0  0  0  0
 20 22  2  0  0  0  0
 17 18  1  0  0  0  0
 17 19  1  0  0  0  0
 17 20  1  0  0  0  0
 14 15  1  0  0  0  0
 14 16  1  0  0  0  0
 14 17  1  0  0  0  0
 11 12  1  0  0  0  0
 11 13  1  0  0  0  0
 11 14  1  0  0  0  0
  9 10  1  0  0  0  0
  9 11  1  0  0  0  0
  9 29  1  0  0  0  0
  7  8  1  0  0  0  0
  7  9  1  0  0  0  0
 33 34  1  0  0  0  0
 33 35  1  0  0  0  0
 33 36  1  0  0  0  0
 31 32  1  0  0  0  0
 31 33  1  0  0  0  0
M  CHG  1  20   1
M  END
$$$$
default_name
  -OEChem-02102213163D

 36 35  0     1  0  0  0  0  0999 V2000
   -4.2256   -3.6731    1.8584 H   0  0  0  0  0  0  0  0  0  0  0  0
   -4.2396   -2.6781    1.4144 C   0  0  0  0  0  0  0  0  0  0  0  0
   -4.9506   -2.0521    1.9514 H   0  0  0  0  0  0  0  0  0  0  0  0
   -4.5266   -2.7521    0.3674 H   0  0  0  0  0  0  0  0  0  0  0  0
   -2.8576   -2.0761    1.5184 C   0  0  0  0  0  0  0  0  0  0  0  0
   -1.9456   -2.7051    2.0404 O   0  0  0  0  0  0  0  0  0  0  0  0
   -2.6926   -0.8481    1.0174 N   0  0  0  0  0  0  0  0  0  0  0  0
   -3.4926   -0.3971    0.5954 H   0  0  0  0  0  0  0  0  0  0  0  0
   -1.4216   -0.1071    1.0434 C   0  0  1  0  0  0  0  0  0  0  0  0
   -0.7579   -0.5878    1.7640 H   0  0  0  0  0  0  0  0  0  0  0  0
   -0.7791   -0.1912   -0.3557 C   0  0  0  0  0  0  0  0  0  0  0  0
    0.1687    0.3505   -0.3369 H   0  0  0  0  0  0  0  0  0  0  0  0
   -0.5675   -1.2369   -0.5890 H   0  0  0  0  0  0  0  0  0  0  0  0
   -1.6543    0.4063   -1.4671 C   0  0  0  0  0  0  0  0  0  0  0  0
   -1.2828    0.0861   -2.4415 H   0  0  0  0  0  0  0  0  0  0  0  0
   -2.6813    0.0617   -1.3421 H   0  0  0  0  0  0  0  0  0  0  0  0
   -1.6177    1.9389   -1.3940 C   0  0  0  0  0  0  0  0  0  0  0  0
   -1.9659    2.2493   -0.4062 H   0  0  0  0  0  0  0  0  0  0  0  0
   -0.5841    2.2685   -1.5231 H   0  0  0  0  0  0  0  0  0  0  0  0
   -2.4668    2.5578   -2.4327 N   0  3  0  0  0  0  0  0  0  0  0  0
   -2.9191    1.9329   -3.0778 H   0  0  0  0  0  0  0  0  0  0  0  0
   -2.6873    3.8519   -2.5930 C   0  0  0  0  0  0  0  0  0  0  0  0
   -2.1508    4.7483   -1.8133 N   0  0  0  0  0  0  0  0  0  0  0  0
   -1.5520    4.4437   -1.0662 H   0  0  0  0  0  0  0  0  0  0  0  0
   -2.3282    5.7266   -1.9490 H   0  0  0  0  0  0  0  0  0  0  0  0
   -3.4598    4.2757   -3.5526 N   0  0  0  0  0  0  0  0  0  0  0  0
   -3.8965    3.6220   -4.1795 H   0  0  0  0  0  0  0  0  0  0  0  0
   -3.6245    5.2583   -3.6707 H   0  0  0  0  0  0  0  0  0  0  0  0
   -1.6547    1.3413    1.4779 C   0  0  0  0  0  0  0  0  0  0  0  0
   -2.5654    1.9858    0.9716 O   0  0  0  0  0  0  0  0  0  0  0  0
   -0.8107    1.8504    2.3808 N   0  0  0  0  0  0  0  0  0  0  0  0
   -0.1136    1.2381    2.7719 H   0  0  0  0  0  0  0  0  0  0  0  0
   -0.8954    3.2155    2.9026 C   0  0  0  0  0  0  0  0  0  0  0  0
   -1.8299    3.3430    3.4532 H   0  0  0  0  0  0  0  0  0  0  0  0
   -0.0581    3.4194    3.5712 H   0  0  0  0  0  0  0  0  0  0  0  0
   -0.8804    3.9320    2.0784 H   0  0  0  0  0  0  0  0  0  0  0  0
  5  6  2  0  0  0  0
  5  7  1  0  0  0  0
  2  3  1  0  0  0  0
  2  4  1  0  0  0  0
  2  5  1  0  0  0  0
  1  2  1  0  0  0  0
 29 30  2  0  0  0  0
 29 31  1  0  0  0  0
 26 27  1  0  0  0  0
 26 28  1  0  0  0  0
 23 24  1  0  0  0  0
 23 25  1  0  0  0  0
 22 23  1  0  0  0  0
 22 26  1  0  0  0  0
 20 21  1  0  0  0  0
 20 22  2  0  0  0  0
 17 18  1  0  0  0  0
 17 19  1  0  0  0  0
 17 20  1  0  0  0  0
 14 15  1  0  0  0  0
 14 16  1  0  0  0  0
 14 17  1  0  0  0  0
 11 12  1  0  0  0  0
 11 13  1  0  0  0  0
 11 14  1  0  0  0  0
  9 10  1  0  0  0  0
  9 11  1  0  0  0  0
  9 29  1  0  0  0  0
  7  8  1  0  0  0  0
  7  9  1  0  0  0  0
 33 34  1  0  0  0  0
 33 35  1  0  0  0  0
 33 36  1  0  0  0  0
 31 32  1  0  0  0  0
 31 33  1  0  0  0  0
M  CHG  1  20   1
M  END
$$$$
default_name
  -OEChem-02102213163D

 36 35  0     1  0  0  0  0  0999 V2000
   -4.2256   -3.6731    1.8584 H   0  0  0  0  0  0  0  0  0  0  0  0
   -4.2396   -2.6781    1.4144 C   0  0  0  0  0  0  0  0  0  0  0  0
   -4.9506   -2.0521    1.9514 H   0  0  0  0  0  0  0  0  0  0  0  0
   -4.5266   -2.7521    0.3674 H   0  0  0  0  0  0  0  0  0  0  0  0
   -2.8576   -2.0761    1.5184 C   0  0  0  0  0  0  0  0  0  0  0  0
   -1.9456   -2.7051    2.0404 O   0  0  0  0  0  0  0  0  0  0  0  0
   -2.6926   -0.8481    1.0174 N   0  0  0  0  0  0  0  0  0  0  0  0
   -3.4926   -0.3971    0.5954 H   0  0  0  0  0  0  0  0  0  0  0  0
   -1.4216   -0.1071    1.0434 C   0  0  1  0  0  0  0  0  0  0  0  0
   -0.7579   -0.5878    1.7640 H   0  0  0  0  0  0  0  0  0  0  0  0
   -0.7791   -0.1912   -0.3557 C   0  0  0  0  0  0  0  0  0  0  0  0
    0.1687    0.3505   -0.3369 H   0  0  0  0  0  0  0  0  0  0  0  0
   -0.5675   -1.2369   -0.5890 H   0  0  0  0  0  0  0  0  0  0  0  0
   -1.6543    0.4063   -1.4671 C   0  0  0  0  0  0  0  0  0  0  0  0
   -1.4607   -0.1114   -2.4076 H   0  0  0  0  0  0  0  0  0  0  0  0
   -2.7053    0.2891   -1.2010 H   0  0  0  0  0  0  0  0  0  0  0  0
   -1.3347    1.8975   -1.6391 C   0  0  0  0  0  0  0  0  0  0  0  0
   -1.5057    2.4030   -0.6859 H   0  0  0  0  0  0  0  0  0  0  0  0
   -0.2804    1.9984   -1.9075 H   0  0  0  0  0  0  0  0  0  0  0  0
   -2.1721    2.5208   -2.6846 N   0  3  0  0  0  0  0  0  0  0  0  0
   -2.8004    1.9131   -3.1819 H   0  0  0  0  0  0  0  0  0  0  0  0
   -2.1733    3.7983   -3.0265 C   0  0  0  0  0  0  0  0  0  0  0  0
   -1.3986    4.6718   -2.4468 N   0  0  0  0  0  0  0  0  0  0  0  0
   -0.7826    4.3623   -1.7159 H   0  0  0  0  0  0  0  0  0  0  0  0
   -1.4116    5.6376   -2.7186 H   0  0  0  0  0  0  0  0  0  0  0  0
   -2.9620    4.2281   -3.9702 N   0  0  0  0  0  0  0  0  0  0  0  0
   -3.5781    3.5919   -4.4464 H   0  0  0  0  0  0  0  0  0  0  0  0
   -2.9598    5.1981   -4.2264 H   0  0  0  0  0  0  0  0  0  0  0  0
   -1.6547    1.3413    1.4779 C   0  0  0  0  0  0  0  0  0  0  0  0
   -2.5654    1.9858    0.9716 O   0  0  0  0  0  0  0  0  0  0  0  0
   -0.8107    1.8504    2.3808 N   0  0  0  0  0  0  0  0  0  0  0  0
   -0.1136    1.2381    2.7719 H   0  0  0  0  0  0  0  0  0  0  0  0
   -0.8954    3.2155    2.9026 C   0  0  0  0  0  0  0  0  0  0  0  0
   -1.8299    3.3430    3.4532 H   0  0  0  0  0  0  0  0  0  0  0  0
   -0.0581    3.4194    3.5712 H   0  0  0  0  0  0  0  0  0  0  0  0
   -0.8804    3.9320    2.0784 H   0  0  0  0  0  0  0  0  0  0  0  0
  5  6  2  0  0  0  0
  5  7  1  0  0  0  0
  2  3  1  0  0  0  0
  2  4  1  0  0  0  0
  2  5  1  0  0  0  0
  1  2  1  0  0  0  0
 29 30  2  0  0  0  0
 29 31  1  0  0  0  0
 26 27  1  0  0  0  0
 26 28  1  0  0  0  0
 23 24  1  0  0  0  0
 23 25  1  0  0  0  0
 22 23  1  0  0  0  0
 22 26  1  0  0  0  0
 20 21  1  0  0  0  0
 20 22  2  0  0  0  0
 17 18  1  0  0  0  0
 17 19  1  0  0  0  0
 17 20  1  0  0  0  0
 14 15  1  0  0  0  0
 14 16  1  0  0  0  0
 14 17  1  0  0  0  0
 11 12  1  0  0  0  0
 11 13  1  0  0  0  0
 11 14  1  0  0  0  0
  9 10  1  0  0  0  0
  9 11  1  0  0  0  0
  9 29  1  0  0  0  0
  7  8  1  0  0  0  0
  7  9  1  0  0  0  0
 33 34  1  0  0  0  0
 33 35  1  0  0  0  0
 33 36  1  0  0  0  0
 31 32  1  0  0  0  0
 31 33  1  0  0  0  0
M  CHG  1  20   1
M  END
$$$$
default_name
  -OEChem-02102213163D

 36 35  0     1  0  0  0  0  0999 V2000
   -4.2256   -3.6731    1.8584 H   0  0  0  0  0  0  0  0  0  0  0  0
   -4.2396   -2.6781    1.4144 C   0  0  0  0  0  0  0  0  0  0  0  0
   -4.9506   -2.0521    1.9514 H   0  0  0  0  0  0  0  0  0  0  0  0
   -4.5266   -2.7521    0.3674 H   0  0  0  0  0  0  0  0  0  0  0  0
   -2.8576   -2.0761    1.5184 C   0  0  0  0  0  0  0  0  0  0  0  0
   -1.9456   -2.7051    2.0404 O   0  0  0  0  0  0  0  0  0  0  0  0
   -2.6926   -0.8481    1.0174 N   0  0  0  0  0  0  0  0  0  0  0  0
   -3.4926   -0.3971    0.5954 H   0  0  0  0  0  0  0  0  0  0  0  0
   -1.4216   -0.1071    1.0434 C   0  0  1  0  0  0  0  0  0  0  0  0
   -0.7579   -0.5878    1.7640 H   0  0  0  0  0  0  0  0  0  0  0  0
   -0.7791   -0.1912   -0.3557 C   0  0  0  0  0  0  0  0  0  0  0  0
    0.1687    0.3505   -0.3369 H   0  0  0  0  0  0  0  0  0  0  0  0
   -0.5675   -1.2369   -0.5890 H   0  0  0  0  0  0  0  0  0  0  0  0
   -1.6543    0.4063   -1.4671 C   0  0  0  0  0  0  0  0  0  0  0  0
   -1.6661   -0.2638   -2.3278 H   0  0  0  0  0  0  0  0  0  0  0  0
   -2.6716    0.5340   -1.0959 H   0  0  0  0  0  0  0  0  0  0  0  0
   -1.0937    1.7684   -1.8983 C   0  0  0  0  0  0  0  0  0  0  0  0
   -1.0606    2.4240   -1.0251 H   0  0  0  0  0  0  0  0  0  0  0  0
   -0.0763    1.6239   -2.2695 H   0  0  0  0  0  0  0  0  0  0  0  0
   -1.9198    2.3926   -2.9522 N   0  3  0  0  0  0  0  0  0  0  0  0
   -2.7000    1.8564   -3.2915 H   0  0  0  0  0  0  0  0  0  0  0  0
   -1.7305    3.5863   -3.4891 C   0  0  0  0  0  0  0  0  0  0  0  0
   -0.7501    4.3635   -3.1231 N   0  0  0  0  0  0  0  0  0  0  0  0
   -0.1200    4.0437   -2.4088 H   0  0  0  0  0  0  0  0  0  0  0  0
   -0.6204    5.2664   -3.5411 H   0  0  0  0  0  0  0  0  0  0  0  0
   -2.5321    4.0272   -4.4167 N   0  0  0  0  0  0  0  0  0  0  0  0
   -3.3030    3.4638   -4.7319 H   0  0  0  0  0  0  0  0  0  0  0  0
   -2.3850    4.9334   -4.8213 H   0  0  0  0  0  0  0  0  0  0  0  0
   -1.6547    1.3413    1.4779 C   0  0  0  0  0  0  0  0  0  0  0  0
   -2.5654    1.9858    0.9716 O   0  0  0  0  0  0  0  0  0  0  0  0
   -0.8107    1.8504    2.3808 N   0  0  0  0  0  0  0  0  0  0  0  0
   -0.1136    1.2381    2.7719 H   0  0  0  0  0  0  0  0  0  0  0  0
   -0.8954    3.2155    2.9026 C   0  0  0  0  0  0  0  0  0  0  0  0
   -1.8299    3.3430    3.4532 H   0  0  0  0  0  0  0  0  0  0  0  0
   -0.0581    3.4194    3.5712 H   0  0  0  0  0  0  0  0  0  0  0  0
   -0.8804    3.9320    2.0784 H   0  0  0  0  0  0  0  0  0  0  0  0
  5  6  2  0  0  0  0
  5  7  1  0  0  0  0
  2  3  1  0  0  0  0
  2  4  1  0  0  0  0
  2  5  1  0  0  0  0
  1  2  1  0  0  0  0
 29 30  2  0  0  0  0
 29 31  1  0  0  0  0
 26 27  1  0  0  0  0
 26 28  1  0  0  0  0
 23 24  1  0  0  0  0
 23 25  1  0  0  0  0
 22 23  1  0  0  0  0
 22 26  1  0  0  0  0
 20 21  1  0  0  0  0
 20 22  2  0  0  0  0
 17 18  1  0  0  0  0
 17 19  1  0  0  0  0
 17 20  1  0  0  0  0
 14 15  1  0  0  0  0
 14 16  1  0  0  0  0
 14 17  1  0  0  0  0
 11 12  1  0  0  0  0
 11 13  1  0  0  0  0
 11 14  1  0  0  0  0
  9 10  1  0  0  0  0
  9 11  1  0  0  0  0
  9 29  1  0  0  0  0
  7  8  1  0  0  0  0
  7  9  1  0  0  0  0
 33 34  1  0  0  0  0
 33 35  1  0  0  0  0
 33 36  1  0  0  0  0
 31 32  1  0  0  0  0
 31 33  1  0  0  0  0
M  CHG  1  20   1
M  END
$$$$
default_name
  -OEChem-02102213163D

 36 35  0     1  0  0  0  0  0999 V2000
   -4.2256   -3.6731    1.8584 H   0  0  0  0  0  0  0  0  0  0  0  0
   -4.2396   -2.6781    1.4144 C   0  0  0  0  0  0  0  0  0  0  0  0
   -4.9506   -2.0521    1.9514 H   0  0  0  0  0  0  0  0  0  0  0  0
   -4.5266   -2.7521    0.3674 H   0  0  0  0  0  0  0  0  0  0  0  0
   -2.8576   -2.0761    1.5184 C   0  0  0  0  0  0  0  0  0  0  0  0
   -1.9456   -2.7051    2.0404 O   0  0  0  0  0  0  0  0  0  0  0  0
   -2.6926   -0.8481    1.0174 N   0  0  0  0  0  0  0  0  0  0  0  0
   -3.4926   -0.3971    0.5954 H   0  0  0  0  0  0  0  0  0  0  0  0
   -1.4216   -0.1071    1.0434 C   0  0  1  0  0  0  0  0  0  0  0  0
   -0.7579   -0.5878    1.7640 H   0  0  0  0  0  0  0  0  0  0  0  0
   -0.7791   -0.1912   -0.3557 C   0  0  0  0  0  0  0  0  0  0  0  0
    0.1687    0.3505   -0.3369 H   0  0  0  0  0  0  0  0  0  0  0  0
   -0.5675   -1.2369   -0.5890 H   0  0  0  0  0  0  0  0  0  0  0  0
   -1.6543    0.4063   -1.4671 C   0  0  0  0  0  0  0  0  0  0  0  0
   -1.8851   -0.3609   -2.2075 H   0  0  0  0  0  0  0  0  0  0  0  0
   -2.5827    0.7797   -1.0338 H   0  0  0  0  0  0  0  0  0  0  0  0
   -0.9112    1.5603   -2.1538 C   0  0  0  0  0  0  0  0  0  0  0  0
   -0.6608    2.3109   -1.4007 H   0  0  0  0  0  0  0  0  0  0  0  0
    0.0142    1.1705   -2.5845 H   0  0  0  0  0  0  0  0  0  0  0  0
   -1.7270    2.1821   -3.2171 N   0  3  0  0  0  0  0  0  0  0  0  0
   -2.6246    1.7667   -3.3991 H   0  0  0  0  0  0  0  0  0  0  0  0
   -1.3891    3.2304   -3.9493 C   0  0  0  0  0  0  0  0  0  0  0  0
   -0.2495    3.8445   -3.7963 N   0  0  0  0  0  0  0  0  0  0  0  0
    0.3905    3.5097   -3.0979 H   0  0  0  0  0  0  0  0  0  0  0  0
   -0.0084    4.6384   -4.3606 H   0  0  0  0  0  0  0  0  0  0  0  0
   -2.1995    3.6868   -4.8616 N   0  0  0  0  0  0  0  0  0  0  0  0
   -3.0901    3.2465   -5.0164 H   0  0  0  0  0  0  0  0  0  0  0  0
   -1.9393    4.4823   -5.4148 H   0  0  0  0  0  0  0  0  0  0  0  0
   -1.6547    1.3413    1.4779 C   0  0  0  0  0  0  0  0  0  0  0  0
   -2.5654    1.9858    0.9716 O   0  0  0  0  0  0  0  0  0  0  0  0
   -0.8107    1.8504    2.3808 N   0  0  0  0  0  0  0  0  0  0  0  0
   -0.1136    1.2381    2.7719 H   0  0  0  0  0  0  0  0  0  0  0  0
   -0.8954    3.2155    2.9026 C   0  0  0  0  0  0  0  0  0  0  0  0
   -1.8299    3.3430    3.4532 H   0  0  0  0  0  0  0  0  0  0  0  0
   -0.0581    3.4194    3.5712 H   0  0  0  0  0  0  0  0  0  0  0  0
   -0.8804    3.9320    2.0784 H   0  0  0  0  0  0  0  0  0  0  0  0
  5  6  2  0  0  0  0
  5  7  1  0  0  0  0
  2  3  1  0  0  0  0
  2  4  1  0  0  0  0
  2  5  1  0  0  0  0
  1  2  1  0  0  0  0
 29 30  2  0  0  0  0
 29 31  1  0  0  0  0
 26 27  1  0  0  0  0
 26 28  1  0  0  0  0
 23 24  1  0  0  0  0
 23 25  1  0  0  0  0
 22 23  1  0  0  0  0
 22 26  1  0  0  0  0
 20 21  1  0  0  0  0
 20 22  2  0  0  0  0
 17 18  1  0  0  0  0
 17 19  1  0  0  0  0
 17 20  1  0  0  0  0
 14 15  1  0  0  0  0
 14 16  1  0  0  0  0
 14 17  1  0  0  0  0
 11 12  1  0  0  0  0
 11 13  1  0  0  0  0
 11 14  1  0  0  0  0
  9 10  1  0  0  0  0
  9 11  1  0  0  0  0
  9 29  1  0  0  0  0
  7  8  1  0  0  0  0
  7  9  1  0  0  0  0
 33 34  1  0  0  0  0
 33 35  1  0  0  0  0
 33 36  1  0  0  0  0
 31 32  1  0  0  0  0
 31 33  1  0  0  0  0
M  CHG  1  20   1
M  END
$$$$
default_name
  -OEChem-02102213163D

 36 35  0     1  0  0  0  0  0999 V2000
   -4.2256   -3.6731    1.8584 H   0  0  0  0  0  0  0  0  0  0  0  0
   -4.2396   -2.6781    1.4144 C   0  0  0  0  0  0  0  0  0  0  0  0
   -4.9506   -2.0521    1.9514 H   0  0  0  0  0  0  0  0  0  0  0  0
   -4.5266   -2.7521    0.3674 H   0  0  0  0  0  0  0  0  0  0  0  0
   -2.8576   -2.0761    1.5184 C   0  0  0  0  0  0  0  0  0  0  0  0
   -1.9456   -2.7051    2.0404 O   0  0  0  0  0  0  0  0  0  0  0  0
   -2.6926   -0.8481    1.0174 N   0  0  0  0  0  0  0  0  0  0  0  0
   -3.4926   -0.3971    0.5954 H   0  0  0  0  0  0  0  0  0  0  0  0
   -1.4216   -0.1071    1.0434 C   0  0  1  0  0  0  0  0  0  0  0  0
   -0.7579   -0.5878    1.7640 H   0  0  0  0  0  0  0  0  0  0  0  0
   -0.7791   -0.1912   -0.3557 C   0  0  0  0  0  0  0  0  0  0  0  0
    0.1687    0.3505   -0.3369 H   0  0  0  0  0  0  0  0  0  0  0  0
   -0.5675   -1.2369   -0.5890 H   0  0  0  0  0  0  0  0  0  0  0  0
   -1.6543    0.4063   -1.4671 C   0  0  0  0  0  0  0  0  0  0  0  0
   -2.1027   -0.3958   -2.0550 H   0  0  0  0  0  0  0  0  0  0  0  0
   -2.4445    1.0096   -1.0190 H   0  0  0  0  0  0  0  0  0  0  0  0
   -0.7997    1.2874   -2.3884 C   0  0  0  0  0  0  0  0  0  0  0  0
   -0.3336    2.0714   -1.7871 H   0  0  0  0  0  0  0  0  0  0  0  0
   -0.0151    0.6692   -2.8309 H   0  0  0  0  0  0  0  0  0  0  0  0
   -1.6069    1.9036   -3.4614 N   0  3  0  0  0  0  0  0  0  0  0  0
   -2.5794    1.6500   -3.4974 H   0  0  0  0  0  0  0  0  0  0  0  0
   -1.1724    2.7547   -4.3756 C   0  0  0  0  0  0  0  0  0  0  0  0
    0.0690    3.1501   -4.4203 N   0  0  0  0  0  0  0  0  0  0  0  0
    0.7142    2.7965   -3.7361 H   0  0  0  0  0  0  0  0  0  0  0  0
    0.3825    3.7962   -5.1211 H   0  0  0  0  0  0  0  0  0  0  0  0
   -1.9867    3.2301   -5.2747 N   0  0  0  0  0  0  0  0  0  0  0  0
   -2.9537    2.9547   -5.2806 H   0  0  0  0  0  0  0  0  0  0  0  0
   -1.6530    3.8756   -5.9664 H   0  0  0  0  0  0  0  0  0  0  0  0
   -1.6547    1.3413    1.4779 C   0  0  0  0  0  0  0  0  0  0  0  0
   -2.5654    1.9858    0.9716 O   0  0  0  0  0  0  0  0  0  0  0  0
   -0.8107    1.8504    2.3808 N   0  0  0  0  0  0  0  0  0  0  0  0
   -0.1136    1.2381    2.7719 H   0  0  0  0  0  0  0  0  0  0  0  0
   -0.8954    3.2155    2.9026 C   0  0  0  0  0  0  0  0  0  0  0  0
   -1.8299    3.3430    3.4532 H   0  0  0  0  0  0  0  0  0  0  0  0
   -0.0581    3.4194    3.5712 H   0  0  0  0  0  0  0  0  0  0  0  0
   -0.8804    3.9320    2.0784 H   0  0  0  0  0  0  0  0  0  0  0  0
  5  6  2  0  0  0  0
  5  7  1  0  0  0  0
  2  3  1  0  0  0  0
  2  4  1  0  0  0  0
  2  5  1  0  0  0  0
  1  2  1  0  0  0  0
 29 30  2  0  0  0  0
 29 31  1  0  0  0  0
 26 27  1  0  0  0  0
 26 28  1  0  0  0  0
 23 24  1  0  0  0  0
 23 25  1  0  0  0  0
 22 23  1  0  0  0  0
 22 26  1  0  0  0  0
 20 21  1  0  0  0  0
 20 22  2  0  0  0  0
 17 18  1  0  0  0  0
 17 19  1  0  0  0  0
 17 20  1  0  0  0  0
 14 15  1  0  0  0  0
 14 16  1  0  0  0  0
 14 17  1  0  0  0  0
 11 12  1  0  0  0  0
 11 13  1  0  0  0  0
 11 14  1  0  0  0  0
  9 10  1  0  0  0  0
  9 11  1  0  0  0  0
  9 29  1  0  0  0  0
  7  8  1  0  0  0  0
  7  9  1  0  0  0  0
 33 34  1  0  0  0  0
 33 35  1  0  0  0  0
 33 36  1  0  0  0  0
 31 32  1  0  0  0  0
 31 33  1  0  0  0  0
M  CHG  1  20   1
M  END
$$$$
default_name
  -OEChem-02102213163D

 36 35  0     1  0  0  0  0  0999 V2000
   -4.2256   -3.6731    1.8584 H   0  0  0  0  0  0  0  0  0  0  0  0
   -4.2396   -2.6781    1.4144 C   0  0  0  0  0  0  0  0  0  0  0  0
   -4.9506   -2.0521    1.9514 H   0  0  0  0  0  0  0  0  0  0  0  0
   -4.5266   -2.7521    0.3674 H   0  0  0  0  0  0  0  0  0  0  0  0
   -2.8576   -2.0761    1.5184 C   0  0  0  0  0  0  0  0  0  0  0  0
   -1.9456   -2.7051    2.0404 O   0  0  0  0  0  0  0  0  0  0  0  0
   -2.6926   -0.8481    1.0174 N   0  0  0  0  0  0  0  0  0  0  0  0
   -3.4926   -0.3971    0.5954 H   0  0  0  0  0  0  0  0  0  0  0  0
   -1.4216   -0.1071    1.0434 C   0  0  1  0  0  0  0  0  0  0  0  0
   -0.7579   -0.5878    1.7640 H   0  0  0  0  0  0  0  0  0  0  0  0
   -0.7791   -0.1912   -0.3557 C   0  0  0  0  0  0  0  0  0  0  0  0
    0.1687    0.3505   -0.3369 H   0  0  0  0  0  0  0  0  0  0  0  0
   -0.5675   -1.2369   -0.5890 H   0  0  0  0  0  0  0  0  0  0  0  0
   -1.6543    0.4063   -1.4671 C   0  0  0  0  0  0  0  0  0  0  0  0
   -2.3040   -0.3663   -1.8806 H   0  0  0  0  0  0  0  0  0  0  0  0
   -2.2664    1.2080   -1.0526 H   0  0  0  0  0  0  0  0  0  0  0  0
   -0.7667    0.9683   -2.5859 C   0  0  0  0  0  0  0  0  0  0  0  0
   -0.1014    1.7218   -2.1579 H   0  0  0  0  0  0  0  0  0  0  0  0
   -0.1620    0.1540   -2.9921 H   0  0  0  0  0  0  0  0  0  0  0  0
   -1.5677    1.5761   -3.6684 N   0  3  0  0  0  0  0  0  0  0  0  0
   -2.5675    1.5143   -3.5797 H   0  0  0  0  0  0  0  0  0  0  0  0
   -1.0951    2.1918   -4.7391 C   0  0  0  0  0  0  0  0  0  0  0  0
    0.1837    2.3276   -4.9527 N   0  0  0  0  0  0  0  0  0  0  0  0
    0.8290    1.9529   -4.2800 H   0  0  0  0  0  0  0  0  0  0  0  0
    0.5257    2.7974   -5.7708 H   0  0  0  0  0  0  0  0  0  0  0  0
   -1.9084    2.6881   -5.6277 N   0  0  0  0  0  0  0  0  0  0  0  0
   -2.9033    2.6083   -5.5065 H   0  0  0  0  0  0  0  0  0  0  0  0
   -1.5456    3.1545   -6.4385 H   0  0  0  0  0  0  0  0  0  0  0  0
   -1.6547    1.3413    1.4779 C   0  0  0  0  0  0  0  0  0  0  0  0
   -2.5654    1.9858    0.9716 O   0  0  0  0  0  0  0  0  0  0  0  0
   -0.8107    1.8504    2.3808 N   0  0  0  0  0  0  0  0  0  0  0  0
   -0.1136    1.2381    2.7719 H   0  0  0  0  0  0  0  0  0  0  0  0
   -0.8954    3.2155    2.9026 C   0  0  0  0  0  0  0  0  0  0  0  0
   -1.8299    3.3430    3.4532 H   0  0  0  0  0  0  0  0  0  0  0  0
   -0.0581    3.4194    3.5712 H   0  0  0  0  0  0  0  0  0  0  0  0
   -0.8804    3.9320    2.0784 H   0  0  0  0  0  0  0  0  0  0  0  0
  5  6  2  0  0  0  0
  5  7  1  0  0  0  0
  2  3  1  0  0  0  0
  2  4  1  0  0  0  0
  2  5  1  0  0  0  0
  1  2  1  0  0  0  0
 29 30  2  0  0  0  0
 29 31  1  0  0  0  0
 26 27  1  0  0  0  0
 26 28  1  0  0  0  0
 23 24  1  0  0  0  0
 23 25  1  0  0  0  0
 22 23  1  0  0  0  0
 22 26  1  0  0  0  0
 20 21  1  0  0  0  0
 20 22  2  0  0  0  0
 17 18  1  0  0  0  0
 17 19  1  0  0  0  0
 17 20  1  0  0  0  0
 14 15  1  0  0  0  0
 14 16  1  0  0  0  0
 14 17  1  0  0  0  0
 11 12  1  0  0  0  0
 11 13  1  0  0  0  0
 11 14  1  0  0  0  0
  9 10  1  0  0  0  0
  9 11  1  0  0  0  0
  9 29  1  0  0  0  0
  7  8  1  0  0  0  0
  7  9  1  0  0  0  0
 33 34  1  0  0  0  0
 33 35  1  0  0  0  0
 33 36  1  0  0  0  0
 31 32  1  0  0  0  0
 31 33  1  0  0  0  0
M  CHG  1  20   1
M  END
$$$$
default_name
  -OEChem-02102213163D

 36 35  0     1  0  0  0  0  0999 V2000
   -4.2256   -3.6731    1.8584 H   0  0  0  0  0  0  0  0  0  0  0  0
   -4.2396   -2.6781    1.4144 C   0  0  0  0  0  0  0  0  0  0  0  0
   -4.9506   -2.0521    1.9514 H   0  0  0  0  0  0  0  0  0  0  0  0
   -4.5266   -2.7521    0.3674 H   0  0  0  0  0  0  0  0  0  0  0  0
   -2.8576   -2.0761    1.5184 C   0  0  0  0  0  0  0  0  0  0  0  0
   -1.9456   -2.7051    2.0404 O   0  0  0  0  0  0  0  0  0  0  0  0
   -2.6926   -0.8481    1.0174 N   0  0  0  0  0  0  0  0  0  0  0  0
   -3.4926   -0.3971    0.5954 H   0  0  0  0  0  0  0  0  0  0  0  0
   -1.4216   -0.1071    1.0434 C   0  0  1  0  0  0  0  0  0  0  0  0
   -0.7579   -0.5878    1.7640 H   0  0  0  0  0  0  0  0  0  0  0  0
   -0.7791   -0.1912   -0.3557 C   0  0  0  0  0  0  0  0  0  0  0  0
    0.1687    0.3505   -0.3369 H   0  0  0  0  0  0  0  0  0  0  0  0
   -0.5675   -1.2369   -0.5890 H   0  0  0  0  0  0  0  0  0  0  0  0
   -1.6543    0.4063   -1.4671 C   0  0  0  0  0  0  0  0  0  0  0  0
   -2.4754   -0.2744   -1.6962 H   0  0  0  0  0  0  0  0  0  0  0  0
   -2.0607    1.3612   -1.1323 H   0  0  0  0  0  0  0  0  0  0  0  0
   -0.8144    0.6248   -2.7329 C   0  0  0  0  0  0  0  0  0  0  0  0
    0.0201    1.2858   -2.4879 H   0  0  0  0  0  0  0  0  0  0  0  0
   -0.4167   -0.3398   -3.0571 H   0  0  0  0  0  0  0  0  0  0  0  0
   -1.6120    1.2218   -3.8239 N   0  3  0  0  0  0  0  0  0  0  0  0
   -2.5897    1.3689   -3.6403 H   0  0  0  0  0  0  0  0  0  0  0  0
   -1.1624    1.5799   -5.0150 C   0  0  0  0  0  0  0  0  0  0  0  0
    0.0868    1.4332   -5.3573 N   0  0  0  0  0  0  0  0  0  0  0  0
    0.7271    1.0363   -4.6925 H   0  0  0  0  0  0  0  0  0  0  0  0
    0.4115    1.7099   -6.2655 H   0  0  0  0  0  0  0  0  0  0  0  0
   -1.9698    2.0979   -5.8966 N   0  0  0  0  0  0  0  0  0  0  0  0
   -2.9423    2.2310   -5.6786 H   0  0  0  0  0  0  0  0  0  0  0  0
   -1.6246    2.3683   -6.7990 H   0  0  0  0  0  0  0  0  0  0  0  0
   -1.6547    1.3413    1.4779 C   0  0  0  0  0  0  0  0  0  0  0  0
   -2.5654    1.9858    0.9716 O   0  0  0  0  0  0  0  0  0  0  0  0
   -0.8107    1.8504    2.3808 N   0  0  0  0  0  0  0  0  0  0  0  0
   -0.1136    1.2381    2.7719 H   0  0  0  0  0  0  0  0  0  0  0  0
   -0.8954    3.2155    2.9026 C   0  0  0  0  0  0  0  0  0  0  0  0
   -1.8299    3.3430    3.4532 H   0  0  0  0  0  0  0  0  0  0  0  0
   -0.0581    3.4194    3.5712 H   0  0  0  0  0  0  0  0  0  0  0  0
   -0.8804    3.9320    2.0784 H   0  0  0  0  0  0  0  0  0  0  0  0
  5  6  2  0  0  0  0
  5  7  1  0  0  0  0
  2  3  1  0  0  0  0
  2  4  1  0  0  0  0
  2  5  1  0  0  0  0
  1  2  1  0  0  0  0
 29 30  2  0  0  0  0
 29 31  1  0  0  0  0
 26 27  1  0  0  0  0
 26 28  1  0  0  0  0
 23 24  1  0  0  0  0
 23 25  1  0  0  0  0
 22 23  1  0  0  0  0
 22 26  1  0  0  0  0
 20 21  1  0  0  0  0
 20 22  2  0  0  0  0
 17 18  1  0  0  0  0
 17 19  1  0  0  0  0
 17 20  1  0  0  0  0
 14 15  1  0  0  0  0
 14 16  1  0  0  0  0
 14 17  1  0  0  0  0
 11 12  1  0  0  0  0
 11 13  1  0  0  0  0
 11 14  1  0  0  0  0
  9 10  1  0  0  0  0
  9 11  1  0  0  0  0
  9 29  1  0  0  0  0
  7  8  1  0  0  0  0
  7  9  1  0  0  0  0
 33 34  1  0  0  0  0
 33 35  1  0  0  0  0
 33 36  1  0  0  0  0
 31 32  1  0  0  0  0
 31 33  1  0  0  0  0
M  CHG  1  20   1
M  END
$$$$
default_name
  -OEChem-02102213163D

 36 35  0     1  0  0  0  0  0999 V2000
   -4.2256   -3.6731    1.8584 H   0  0  0  0  0  0  0  0  0  0  0  0
   -4.2396   -2.6781    1.4144 C   0  0  0  0  0  0  0  0  0  0  0  0
   -4.9506   -2.0521    1.9514 H   0  0  0  0  0  0  0  0  0  0  0  0
   -4.5266   -2.7521    0.3674 H   0  0  0  0  0  0  0  0  0  0  0  0
   -2.8576   -2.0761    1.5184 C   0  0  0  0  0  0  0  0  0  0  0  0
   -1.9456   -2.7051    2.0404 O   0  0  0  0  0  0  0  0  0  0  0  0
   -2.6926   -0.8481    1.0174 N   0  0  0  0  0  0  0  0  0  0  0  0
   -3.4926   -0.3971    0.5954 H   0  0  0  0  0  0  0  0  0  0  0  0
   -1.4216   -0.1071    1.0434 C   0  0  1  0  0  0  0  0  0  0  0  0
   -0.7579   -0.5878    1.7640 H   0  0  0  0  0  0  0  0  0  0  0  0
   -0.7791   -0.1912   -0.3557 C   0  0  0  0  0  0  0  0  0  0  0  0
    0.2683    0.1068   -0.2765 H   0  0  0  0  0  0  0  0  0  0  0  0
   -0.8119   -1.2265   -0.7019 H   0  0  0  0  0  0  0  0  0  0  0  0
   -1.4598    0.7102   -1.3960 C   0  0  0  0  0  0  0  0  0  0  0  0
   -2.5073    0.4248   -1.5026 H   0  0  0  0  0  0  0  0  0  0  0  0
   -1.4009    1.7484   -1.0677 H   0  0  0  0  0  0  0  0  0  0  0  0
   -0.7584    0.5636   -2.7532 C   0  0  0  0  0  0  0  0  0  0  0  0
    0.2951    0.8256   -2.6313 H   0  0  0  0  0  0  0  0  0  0  0  0
   -0.8278   -0.4798   -3.0696 H   0  0  0  0  0  0  0  0  0  0  0  0
   -1.3665    1.4328   -3.7815 N   0  3  0  0  0  0  0  0  0  0  0  0
   -2.1713    1.9675   -3.5026 H   0  0  0  0  0  0  0  0  0  0  0  0
   -0.9533    1.5735   -5.0299 C   0  0  0  0  0  0  0  0  0  0  0  0
    0.0790    0.9278   -5.4953 N   0  0  0  0  0  0  0  0  0  0  0  0
    0.5760    0.3048   -4.8835 H   0  0  0  0  0  0  0  0  0  0  0  0
    0.3792    1.0457   -6.4455 H   0  0  0  0  0  0  0  0  0  0  0  0
   -1.5779    2.3750   -5.8453 N   0  0  0  0  0  0  0  0  0  0  0  0
   -2.3795    2.8948   -5.5321 H   0  0  0  0  0  0  0  0  0  0  0  0
   -1.2610    2.4788   -6.7916 H   0  0  0  0  0  0  0  0  0  0  0  0
   -1.6547    1.3413    1.4779 C   0  0  0  0  0  0  0  0  0  0  0  0
   -2.5654    1.9858    0.9716 O   0  0  0  0  0  0  0  0  0  0  0  0
   -0.8107    1.8504    2.3808 N   0  0  0  0  0  0  0  0  0  0  0  0
   -0.1136    1.2381    2.7719 H   0  0  0  0  0  0  0  0  0  0  0  0
   -0.8954    3.2155    2.9026 C   0  0  0  0  0  0  0  0  0  0  0  0
   -1.8299    3.3430    3.4532 H   0  0  0  0  0  0  0  0  0  0  0  0
   -0.0581    3.4194    3.5712 H   0  0  0  0  0  0  0  0  0  0  0  0
   -0.8804    3.9320    2.0784 H   0  0  0  0  0  0  0  0  0  0  0  0
  5  6  2  0  0  0  0
  5  7  1  0  0  0  0
  2  3  1  0  0  0  0
  2  4  1  0  0  0  0
  2  5  1  0  0  0  0
  1  2  1  0  0  0  0
 29 30  2  0  0  0  0
 29 31  1  0  0  0  0
 26 27  1  0  0  0  0
 26 28  1  0  0  0  0
 23 24  1  0  0  0  0
 23 25  1  0  0  0  0
 22 23  1  0  0  0  0
 22 26  1  0  0  0  0
 20 21  1  0  0  0  0
 20 22  2  0  0  0  0
 17 18  1  0  0  0  0
 17 19  1  0  0  0  0
 17 20  1  0  0  0  0
 14 15  1  0  0  0  0
 14 16  1  0  0  0  0
 14 17  1  0  0  0  0
 11 12  1  0  0  0  0
 11 13  1  0  0  0  0
 11 14  1  0  0  0  0
  9 10  1  0  0  0  0
  9 11  1  0  0  0  0
  9 29  1  0  0  0  0
  7  8  1  0  0  0  0
  7  9  1  0  0  0  0
 33 34  1  0  0  0  0
 33 35  1  0  0  0  0
 33 36  1  0  0  0  0
 31 32  1  0  0  0  0
 31 33  1  0  0  0  0
M  CHG  1  20   1
M  END
$$$$
default_name
  -OEChem-02102213163D

 36 35  0     1  0  0  0  0  0999 V2000
   -4.2256   -3.6731    1.8584 H   0  0  0  0  0  0  0  0  0  0  0  0
   -4.2396   -2.6781    1.4144 C   0  0  0  0  0  0  0  0  0  0  0  0
   -4.9506   -2.0521    1.9514 H   0  0  0  0  0  0  0  0  0  0  0  0
   -4.5266   -2.7521    0.3674 H   0  0  0  0  0  0  0  0  0  0  0  0
   -2.8576   -2.0761    1.5184 C   0  0  0  0  0  0  0  0  0  0  0  0
   -1.9456   -2.7051    2.0404 O   0  0  0  0  0  0  0  0  0  0  0  0
   -2.6926   -0.8481    1.0174 N   0  0  0  0  0  0  0  0  0  0  0  0
   -3.4926   -0.3971    0.5954 H   0  0  0  0  0  0  0  0  0  0  0  0
   -1.4216   -0.1071    1.0434 C   0  0  1  0  0  0  0  0  0  0  0  0
   -0.7579   -0.5878    1.7640 H   0  0  0  0  0  0  0  0  0  0  0  0
   -0.7791   -0.1912   -0.3557 C   0  0  0  0  0  0  0  0  0  0  0  0
    0.2683    0.1068   -0.2765 H   0  0  0  0  0  0  0  0  0  0  0  0
   -0.8119   -1.2265   -0.7019 H   0  0  0  0  0  0  0  0  0  0  0  0
   -1.4598    0.7102   -1.3960 C   0  0  0  0  0  0  0  0  0  0  0  0
   -2.5434    0.6134   -1.3156 H   0  0  0  0  0  0  0  0  0  0  0  0
   -1.1764    1.7476   -1.2152 H   0  0  0  0  0  0  0  0  0  0  0  0
   -1.0221    0.3004   -2.8088 C   0  0  0  0  0  0  0  0  0  0  0  0
    0.0660    0.3748   -2.8720 H   0  0  0  0  0  0  0  0  0  0  0  0
   -1.3146   -0.7390   -2.9756 H   0  0  0  0  0  0  0  0  0  0  0  0
   -1.6356    1.1582   -3.8435 N   0  3  0  0  0  0  0  0  0  0  0  0
   -2.2840    1.8574   -3.5242 H   0  0  0  0  0  0  0  0  0  0  0  0
   -1.4127    1.0933   -5.1454 C   0  0  0  0  0  0  0  0  0  0  0  0
   -0.5916    0.2247   -5.6657 N   0  0  0  0  0  0  0  0  0  0  0  0
   -0.1127   -0.4140   -5.0557 H   0  0  0  0  0  0  0  0  0  0  0  0
   -0.4341    0.1886   -6.6560 H   0  0  0  0  0  0  0  0  0  0  0  0
   -2.0189    1.9094   -5.9601 N   0  0  0  0  0  0  0  0  0  0  0  0
   -2.6613    2.5970   -5.6058 H   0  0  0  0  0  0  0  0  0  0  0  0
   -1.8469    1.8568   -6.9471 H   0  0  0  0  0  0  0  0  0  0  0  0
   -1.6547    1.3413    1.4779 C   0  0  0  0  0  0  0  0  0  0  0  0
   -2.5654    1.9858    0.9716 O   0  0  0  0  0  0  0  0  0  0  0  0
   -0.8107    1.8504    2.3808 N   0  0  0  0  0  0  0  0  0  0  0  0
   -0.1136    1.2381    2.7719 H   0  0  0  0  0  0  0  0  0  0  0  0
   -0.8954    3.2155    2.9026 C   0  0  0  0  0  0  0  0  0  0  0  0
   -1.8299    3.3430    3.4532 H   0  0  0  0  0  0  0  0  0  0  0  0
   -0.0581    3.4194    3.5712 H   0  0  0  0  0  0  0  0  0  0  0  0
   -0.8804    3.9320    2.0784 H   0  0  0  0  0  0  0  0  0  0  0  0
  5  6  2  0  0  0  0
  5  7  1  0  0  0  0
  2  3  1  0  0  0  0
  2  4  1  0  0  0  0
  2  5  1  0  0  0  0
  1  2  1  0  0  0  0
 29 30  2  0  0  0  0
 29 31  1  0  0  0  0
 26 27  1  0  0  0  0
 26 28  1  0  0  0  0
 23 24  1  0  0  0  0
 23 25  1  0  0  0  0
 22 23  1  0  0  0  0
 22 26  1  0  0  0  0
 20 21  1  0  0  0  0
 20 22  2  0  0  0  0
 17 18  1  0  0  0  0
 17 19  1  0  0  0  0
 17 20  1  0  0  0  0
 14 15  1  0  0  0  0
 14 16  1  0  0  0  0
 14 17  1  0  0  0  0
 11 12  1  0  0  0  0
 11 13  1  0  0  0  0
 11 14  1  0  0  0  0
  9 10  1  0  0  0  0
  9 11  1  0  0  0  0
  9 29  1  0  0  0  0
  7  8  1  0  0  0  0
  7  9  1  0  0  0  0
 33 34  1  0  0  0  0
 33 35  1  0  0  0  0
 33 36  1  0  0  0  0
 31 32  1  0  0  0  0
 31 33  1  0  0  0  0
M  CHG  1  20   1
M  END
$$$$
default_name
  -OEChem-02102213163D

 36 35  0     1  0  0  0  0  0999 V2000
   -4.2256   -3.6731    1.8584 H   0  0  0  0  0  0  0  0  0  0  0  0
   -4.2396   -2.6781    1.4144 C   0  0  0  0  0  0  0  0  0  0  0  0
   -4.9506   -2.0521    1.9514 H   0  0  0  0  0  0  0  0  0  0  0  0
   -4.5266   -2.7521    0.3674 H   0  0  0  0  0  0  0  0  0  0  0  0
   -2.8576   -2.0761    1.5184 C   0  0  0  0  0  0  0  0  0  0  0  0
   -1.9456   -2.7051    2.0404 O   0  0  0  0  0  0  0  0  0  0  0  0
   -2.6926   -0.8481    1.0174 N   0  0  0  0  0  0  0  0  0  0  0  0
   -3.4926   -0.3971    0.5954 H   0  0  0  0  0  0  0  0  0  0  0  0
   -1.4216   -0.1071    1.0434 C   0  0  1  0  0  0  0  0  0  0  0  0
   -0.7579   -0.5878    1.7640 H   0  0  0  0  0  0  0  0  0  0  0  0
   -0.7791   -0.1912   -0.3557 C   0  0  0  0  0  0  0  0  0  0  0  0
    0.2683    0.1068   -0.2765 H   0  0  0  0  0  0  0  0  0  0  0  0
   -0.8119   -1.2265   -0.7019 H   0  0  0  0  0  0  0  0  0  0  0  0
   -1.4598    0.7102   -1.3960 C   0  0  0  0  0  0  0  0  0  0  0  0
   -2.5168    0.8233   -1.1511 H   0  0  0  0  0  0  0  0  0  0  0  0
   -0.9821    1.6905   -1.3918 H   0  0  0  0  0  0  0  0  0  0  0  0
   -1.3313    0.0859   -2.7922 C   0  0  0  0  0  0  0  0  0  0  0  0
   -0.2710   -0.0481   -3.0180 H   0  0  0  0  0  0  0  0  0  0  0  0
   -1.8160   -0.8932   -2.7812 H   0  0  0  0  0  0  0  0  0  0  0  0
   -1.9530    0.9329   -3.8309 N   0  3  0  0  0  0  0  0  0  0  0  0
   -2.4156    1.7683   -3.5154 H   0  0  0  0  0  0  0  0  0  0  0  0
   -1.9581    0.6967   -5.1321 C   0  0  0  0  0  0  0  0  0  0  0  0
   -1.3885   -0.3564   -5.6477 N   0  0  0  0  0  0  0  0  0  0  0  0
   -0.9302   -1.0073   -5.0349 H   0  0  0  0  0  0  0  0  0  0  0  0
   -1.4019   -0.5209   -6.6375 H   0  0  0  0  0  0  0  0  0  0  0  0
   -2.5440    1.5238   -5.9506 N   0  0  0  0  0  0  0  0  0  0  0  0
   -2.9969    2.3503   -5.6000 H   0  0  0  0  0  0  0  0  0  0  0  0
   -2.5455    1.3409   -6.9370 H   0  0  0  0  0  0  0  0  0  0  0  0
   -1.6547    1.3413    1.4779 C   0  0  0  0  0  0  0  0  0  0  0  0
   -2.5654    1.9858    0.9716 O   0  0  0  0  0  0  0  0  0  0  0  0
   -0.8107    1.8504    2.3808 N   0  0  0  0  0  0  0  0  0  0  0  0
   -0.1136    1.2381    2.7719 H   0  0  0  0  0  0  0  0  0  0  0  0
   -0.8954    3.2155    2.9026 C   0  0  0  0  0  0  0  0  0  0  0  0
   -1.8299    3.3430    3.4532 H   0  0  0  0  0  0  0  0  0  0  0  0
   -0.0581    3.4194    3.5712 H   0  0  0  0  0  0  0  0  0  0  0  0
   -0.8804    3.9320    2.0784 H   0  0  0  0  0  0  0  0  0  0  0  0
  5  6  2  0  0  0  0
  5  7  1  0  0  0  0
  2  3  1  0  0  0  0
  2  4  1  0  0  0  0
  2  5  1  0  0  0  0
  1  2  1  0  0  0  0
 29 30  2  0  0  0  0
 29 31  1  0  0  0  0
 26 27  1  0  0  0  0
 26 28  1  0  0  0  0
 23 24  1  0  0  0  0
 23 25  1  0  0  0  0
 22 23  1  0  0  0  0
 22 26  1  0  0  0  0
 20 21  1  0  0  0  0
 20 22  2  0  0  0  0
 17 18  1  0  0  0  0
 17 19  1  0  0  0  0
 17 20  1  0  0  0  0
 14 15  1  0  0  0  0
 14 16  1  0  0  0  0
 14 17  1  0  0  0  0
 11 12  1  0  0  0  0
 11 13  1  0  0  0  0
 11 14  1  0  0  0  0
  9 10  1  0  0  0  0
  9 11  1  0  0  0  0
  9 29  1  0  0  0  0
  7  8  1  0  0  0  0
  7  9  1  0  0  0  0
 33 34  1  0  0  0  0
 33 35  1  0  0  0  0
 33 36  1  0  0  0  0
 31 32  1  0  0  0  0
 31 33  1  0  0  0  0
M  CHG  1  20   1
M  END
$$$$
default_name
  -OEChem-02102213163D

 36 35  0     1  0  0  0  0  0999 V2000
   -4.2256   -3.6731    1.8584 H   0  0  0  0  0  0  0  0  0  0  0  0
   -4.2396   -2.6781    1.4144 C   0  0  0  0  0  0  0  0  0  0  0  0
   -4.9506   -2.0521    1.9514 H   0  0  0  0  0  0  0  0  0  0  0  0
   -4.5266   -2.7521    0.3674 H   0  0  0  0  0  0  0  0  0  0  0  0
   -2.8576   -2.0761    1.5184 C   0  0  0  0  0  0  0  0  0  0  0  0
   -1.9456   -2.7051    2.0404 O   0  0  0  0  0  0  0  0  0  0  0  0
   -2.6926   -0.8481    1.0174 N   0  0  0  0  0  0  0  0  0  0  0  0
   -3.4926   -0.3971    0.5954 H   0  0  0  0  0  0  0  0  0  0  0  0
   -1.4216   -0.1071    1.0434 C   0  0  1  0  0  0  0  0  0  0  0  0
   -0.7579   -0.5878    1.7640 H   0  0  0  0  0  0  0  0  0  0  0  0
   -0.7791   -0.1912   -0.3557 C   0  0  0  0  0  0  0  0  0  0  0  0
    0.2683    0.1068   -0.2765 H   0  0  0  0  0  0  0  0  0  0  0  0
   -0.8119   -1.2265   -0.7019 H   0  0  0  0  0  0  0  0  0  0  0  0
   -1.4598    0.7102   -1.3960 C   0  0  0  0  0  0  0  0  0  0  0  0
   -2.4294    1.0402   -1.0204 H   0  0  0  0  0  0  0  0  0  0  0  0
   -0.8313    1.5810   -1.5853 H   0  0  0  0  0  0  0  0  0  0  0  0
   -1.6652   -0.0650   -2.7046 C   0  0  0  0  0  0  0  0  0  0  0  0
   -0.6928   -0.4143   -3.0592 H   0  0  0  0  0  0  0  0  0  0  0  0
   -2.2978   -0.9319   -2.4995 H   0  0  0  0  0  0  0  0  0  0  0  0
   -2.2973    0.7725   -3.7447 N   0  3  0  0  0  0  0  0  0  0  0  0
   -2.5569    1.7063   -3.4766 H   0  0  0  0  0  0  0  0  0  0  0  0
   -2.5526    0.4108   -4.9909 C   0  0  0  0  0  0  0  0  0  0  0  0
   -2.2574   -0.7758   -5.4426 N   0  0  0  0  0  0  0  0  0  0  0  0
   -1.8207   -1.4347   -4.8225 H   0  0  0  0  0  0  0  0  0  0  0  0
   -2.4583   -1.0343   -6.3911 H   0  0  0  0  0  0  0  0  0  0  0  0
   -3.1174    1.2446   -5.8174 N   0  0  0  0  0  0  0  0  0  0  0  0
   -3.3634    2.1715   -5.5151 H   0  0  0  0  0  0  0  0  0  0  0  0
   -3.3093    0.9662   -6.7620 H   0  0  0  0  0  0  0  0  0  0  0  0
   -1.6547    1.3413    1.4779 C   0  0  0  0  0  0  0  0  0  0  0  0
   -2.5654    1.9858    0.9716 O   0  0  0  0  0  0  0  0  0  0  0  0
   -0.8107    1.8504    2.3808 N   0  0  0  0  0  0  0  0  0  0  0  0
   -0.1136    1.2381    2.7719 H   0  0  0  0  0  0  0  0  0  0  0  0
   -0.8954    3.2155    2.9026 C   0  0  0  0  0  0  0  0  0  0  0  0
   -1.8299    3.3430    3.4532 H   0  0  0  0  0  0  0  0  0  0  0  0
   -0.0581    3.4194    3.5712 H   0  0  0  0  0  0  0  0  0  0  0  0
   -0.8804    3.9320    2.0784 H   0  0  0  0  0  0  0  0  0  0  0  0
  5  6  2  0  0  0  0
  5  7  1  0  0  0  0
  2  3  1  0  0  0  0
  2  4  1  0  0  0  0
  2  5  1  0  0  0  0
  1  2  1  0  0  0  0
 29 30  2  0  0  0  0
 29 31  1  0  0  0  0
 26 27  1  0  0  0  0
 26 28  1  0  0  0  0
 23 24  1  0  0  0  0
 23 25  1  0  0  0  0
 22 23  1  0  0  0  0
 22 26  1  0  0  0  0
 20 21  1  0  0  0  0
 20 22  2  0  0  0  0
 17 18  1  0  0  0  0
 17 19  1  0  0  0  0
 17 20  1  0  0  0  0
 14 15  1  0  0  0  0
 14 16  1  0  0  0  0
 14 17  1  0  0  0  0
 11 12  1  0  0  0  0
 11 13  1  0  0  0  0
 11 14  1  0  0  0  0
  9 10  1  0  0  0  0
  9 11  1  0  0  0  0
  9 29  1  0  0  0  0
  7  8  1  0  0  0  0
  7  9  1  0  0  0  0
 33 34  1  0  0  0  0
 33 35  1  0  0  0  0
 33 36  1  0  0  0  0
 31 32  1  0  0  0  0
 31 33  1  0  0  0  0
M  CHG  1  20   1
M  END
$$$$
default_name
  -OEChem-02102213163D

 36 35  0     1  0  0  0  0  0999 V2000
   -4.2256   -3.6731    1.8584 H   0  0  0  0  0  0  0  0  0  0  0  0
   -4.2396   -2.6781    1.4144 C   0  0  0  0  0  0  0  0  0  0  0  0
   -4.9506   -2.0521    1.9514 H   0  0  0  0  0  0  0  0  0  0  0  0
   -4.5266   -2.7521    0.3674 H   0  0  0  0  0  0  0  0  0  0  0  0
   -2.8576   -2.0761    1.5184 C   0  0  0  0  0  0  0  0  0  0  0  0
   -1.9456   -2.7051    2.0404 O   0  0  0  0  0  0  0  0  0  0  0  0
   -2.6926   -0.8481    1.0174 N   0  0  0  0  0  0  0  0  0  0  0  0
   -3.4926   -0.3971    0.5954 H   0  0  0  0  0  0  0  0  0  0  0  0
   -1.4216   -0.1071    1.0434 C   0  0  1  0  0  0  0  0  0  0  0  0
   -0.7579   -0.5878    1.7640 H   0  0  0  0  0  0  0  0  0  0  0  0
   -0.7791   -0.1912   -0.3557 C   0  0  0  0  0  0  0  0  0  0  0  0
    0.2683    0.1068   -0.2765 H   0  0  0  0  0  0  0  0  0  0  0  0
   -0.8119   -1.2265   -0.7019 H   0  0  0  0  0  0  0  0  0  0  0  0
   -1.4598    0.7102   -1.3960 C   0  0  0  0  0  0  0  0  0  0  0  0
   -2.2869    1.2495   -0.9323 H   0  0  0  0  0  0  0  0  0  0  0  0
   -0.7342    1.4267   -1.7825 H   0  0  0  0  0  0  0  0  0  0  0  0
   -2.0008   -0.1423   -2.5519 C   0  0  0  0  0  0  0  0  0  0  0  0
   -1.1707   -0.6987   -2.9930 H   0  0  0  0  0  0  0  0  0  0  0  0
   -2.7271   -0.8525   -2.1498 H   0  0  0  0  0  0  0  0  0  0  0  0
   -2.6448    0.6877   -3.5907 N   0  3  0  0  0  0  0  0  0  0  0  0
   -2.6984    1.6757   -3.4106 H   0  0  0  0  0  0  0  0  0  0  0  0
   -3.1554    0.2551   -4.7314 C   0  0  0  0  0  0  0  0  0  0  0  0
   -3.1392   -1.0051   -5.0644 N   0  0  0  0  0  0  0  0  0  0  0  0
   -2.7235   -1.6670   -4.4331 H   0  0  0  0  0  0  0  0  0  0  0  0
   -3.5314   -1.3168   -5.9338 H   0  0  0  0  0  0  0  0  0  0  0  0
   -3.7000    1.0907   -5.5696 N   0  0  0  0  0  0  0  0  0  0  0  0
   -3.7359    2.0728   -5.3569 H   0  0  0  0  0  0  0  0  0  0  0  0
   -4.0861    0.7583   -6.4339 H   0  0  0  0  0  0  0  0  0  0  0  0
   -1.6547    1.3413    1.4779 C   0  0  0  0  0  0  0  0  0  0  0  0
   -2.5654    1.9858    0.9716 O   0  0  0  0  0  0  0  0  0  0  0  0
   -0.8107    1.8504    2.3808 N   0  0  0  0  0  0  0  0  0  0  0  0
   -0.1136    1.2381    2.7719 H   0  0  0  0  0  0  0  0  0  0  0  0
   -0.8954    3.2155    2.9026 C   0  0  0  0  0  0  0  0  0  0  0  0
   -1.8299    3.3430    3.4532 H   0  0  0  0  0  0  0  0  0  0  0  0
   -0.0581    3.4194    3.5712 H   0  0  0  0  0  0  0  0  0  0  0  0
   -0.8804    3.9320    2.0784 H   0  0  0  0  0  0  0  0  0  0  0  0
  5  6  2  0  0  0  0
  5  7  1  0  0  0  0
  2  3  1  0  0  0  0
  2  4  1  0  0  0  0
  2  5  1  0  0  0  0
  1  2  1  0  0  0  0
 29 30  2  0  0  0  0
 29 31  1  0  0  0  0
 26 27  1  0  0  0  0
 26 28  1  0  0  0  0
 23 24  1  0  0  0  0
 23 25  1  0  0  0  0
 22 23  1  0  0  0  0
 22 26  1  0  0  0  0
 20 21  1  0  0  0  0
 20 22  2  0  0  0  0
 17 18  1  0  0  0  0
 17 19  1  0  0  0  0
 17 20  1  0  0  0  0
 14 15  1  0  0  0  0
 14 16  1  0  0  0  0
 14 17  1  0  0  0  0
 11 12  1  0  0  0  0
 11 13  1  0  0  0  0
 11 14  1  0  0  0  0
  9 10  1  0  0  0  0
  9 11  1  0  0  0  0
  9 29  1  0  0  0  0
  7  8  1  0  0  0  0
  7  9  1  0  0  0  0
 33 34  1  0  0  0  0
 33 35  1  0  0  0  0
 33 36  1  0  0  0  0
 31 32  1  0  0  0  0
 31 33  1  0  0  0  0
M  CHG  1  20   1
M  END
$$$$
default_name
  -OEChem-02102213163D

 36 35  0     1  0  0  0  0  0999 V2000
   -4.2256   -3.6731    1.8584 H   0  0  0  0  0  0  0  0  0  0  0  0
   -4.2396   -2.6781    1.4144 C   0  0  0  0  0  0  0  0  0  0  0  0
   -4.9506   -2.0521    1.9514 H   0  0  0  0  0  0  0  0  0  0  0  0
   -4.5266   -2.7521    0.3674 H   0  0  0  0  0  0  0  0  0  0  0  0
   -2.8576   -2.0761    1.5184 C   0  0  0  0  0  0  0  0  0  0  0  0
   -1.9456   -2.7051    2.0404 O   0  0  0  0  0  0  0  0  0  0  0  0
   -2.6926   -0.8481    1.0174 N   0  0  0  0  0  0  0  0  0  0  0  0
   -3.4926   -0.3971    0.5954 H   0  0  0  0  0  0  0  0  0  0  0  0
   -1.4216   -0.1071    1.0434 C   0  0  1  0  0  0  0  0  0  0  0  0
   -0.7579   -0.5878    1.7640 H   0  0  0  0  0  0  0  0  0  0  0  0
   -0.7791   -0.1912   -0.3557 C   0  0  0  0  0  0  0  0  0  0  0  0
    0.2683    0.1068   -0.2765 H   0  0  0  0  0  0  0  0  0  0  0  0
   -0.8119   -1.2265   -0.7019 H   0  0  0  0  0  0  0  0  0  0  0  0
   -1.4598    0.7102   -1.3960 C   0  0  0  0  0  0  0  0  0  0  0  0
   -2.0993    1.4367   -0.8928 H   0  0  0  0  0  0  0  0  0  0  0  0
   -0.6975    1.2379   -1.9701 H   0  0  0  0  0  0  0  0  0  0  0  0
   -2.3153   -0.1405   -2.3446 C   0  0  0  0  0  0  0  0  0  0  0  0
   -1.6721   -0.8821   -2.8238 H   0  0  0  0  0  0  0  0  0  0  0  0
   -3.0748   -0.6604   -1.7559 H   0  0  0  0  0  0  0  0  0  0  0  0
   -2.9720    0.6845   -3.3795 N   0  3  0  0  0  0  0  0  0  0  0  0
   -2.8304    1.6785   -3.3218 H   0  0  0  0  0  0  0  0  0  0  0  0
   -3.7256    0.2402   -4.3713 C   0  0  0  0  0  0  0  0  0  0  0  0
   -3.9736   -1.0286   -4.5388 N   0  0  0  0  0  0  0  0  0  0  0  0
   -3.5771   -1.6884   -3.8931 H   0  0  0  0  0  0  0  0  0  0  0  0
   -4.5479   -1.3490   -5.2966 H   0  0  0  0  0  0  0  0  0  0  0  0
   -4.2521    1.0726   -5.2240 N   0  0  0  0  0  0  0  0  0  0  0  0
   -4.0890    2.0609   -5.1362 H   0  0  0  0  0  0  0  0  0  0  0  0
   -4.8231    0.7313   -5.9750 H   0  0  0  0  0  0  0  0  0  0  0  0
   -1.6547    1.3413    1.4779 C   0  0  0  0  0  0  0  0  0  0  0  0
   -2.5654    1.9858    0.9716 O   0  0  0  0  0  0  0  0  0  0  0  0
   -0.8107    1.8504    2.3808 N   0  0  0  0  0  0  0  0  0  0  0  0
   -0.1136    1.2381    2.7719 H   0  0  0  0  0  0  0  0  0  0  0  0
   -0.8954    3.2155    2.9026 C   0  0  0  0  0  0  0  0  0  0  0  0
   -1.8299    3.3430    3.4532 H   0  0  0  0  0  0  0  0  0  0  0  0
   -0.0581    3.4194    3.5712 H   0  0  0  0  0  0  0  0  0  0  0  0
   -0.8804    3.9320    2.0784 H   0  0  0  0  0  0  0  0  0  0  0  0
  5  6  2  0  0  0  0
  5  7  1  0  0  0  0
  2  3  1  0  0  0  0
  2  4  1  0  0  0  0
  2  5  1  0  0  0  0
  1  2  1  0  0  0  0
 29 30  2  0  0  0  0
 29 31  1  0  0  0  0
 26 27  1  0  0  0  0
 26 28  1  0  0  0  0
 23 24  1  0  0  0  0
 23 25  1  0  0  0  0
 22 23  1  0  0  0  0
 22 26  1  0  0  0  0
 20 21  1  0  0  0  0
 20 22  2  0  0  0  0
 17 18  1  0  0  0  0
 17 19  1  0  0  0  0
 17 20  1  0  0  0  0
 14 15  1  0  0  0  0
 14 16  1  0  0  0  0
 14 17  1  0  0  0  0
 11 12  1  0  0  0  0
 11 13  1  0  0  0  0
 11 14  1  0  0  0  0
  9 10  1  0  0  0  0
  9 11  1  0  0  0  0
  9 29  1  0  0  0  0
  7  8  1  0  0  0  0
  7  9  1  0  0  0  0
 33 34  1  0  0  0  0
 33 35  1  0  0  0  0
 33 36  1  0  0  0  0
 31 32  1  0  0  0  0
 31 33  1  0  0  0  0
M  CHG  1  20   1
M  END
$$$$
default_name
  -OEChem-02102213163D

 36 35  0     1  0  0  0  0  0999 V2000
   -4.2256   -3.6731    1.8584 H   0  0  0  0  0  0  0  0  0  0  0  0
   -4.2396   -2.6781    1.4144 C   0  0  0  0  0  0  0  0  0  0  0  0
   -4.9506   -2.0521    1.9514 H   0  0  0  0  0  0  0  0  0  0  0  0
   -4.5266   -2.7521    0.3674 H   0  0  0  0  0  0  0  0  0  0  0  0
   -2.8576   -2.0761    1.5184 C   0  0  0  0  0  0  0  0  0  0  0  0
   -1.9456   -2.7051    2.0404 O   0  0  0  0  0  0  0  0  0  0  0  0
   -2.6926   -0.8481    1.0174 N   0  0  0  0  0  0  0  0  0  0  0  0
   -3.4926   -0.3971    0.5954 H   0  0  0  0  0  0  0  0  0  0  0  0
   -1.4216   -0.1071    1.0434 C   0  0  1  0  0  0  0  0  0  0  0  0
   -0.7579   -0.5878    1.7640 H   0  0  0  0  0  0  0  0  0  0  0  0
   -0.7791   -0.1912   -0.3557 C   0  0  0  0  0  0  0  0  0  0  0  0
    0.2683    0.1068   -0.2765 H   0  0  0  0  0  0  0  0  0  0  0  0
   -0.8119   -1.2265   -0.7019 H   0  0  0  0  0  0  0  0  0  0  0  0
   -1.4598    0.7102   -1.3960 C   0  0  0  0  0  0  0  0  0  0  0  0
   -1.8793    1.5892   -0.9046 H   0  0  0  0  0  0  0  0  0  0  0  0
   -0.7236    1.0276   -2.1352 H   0  0  0  0  0  0  0  0  0  0  0  0
   -2.5874   -0.0599   -2.0968 C   0  0  0  0  0  0  0  0  0  0  0  0
   -2.1629   -0.9519   -2.5632 H   0  0  0  0  0  0  0  0  0  0  0  0
   -3.3171   -0.3687   -1.3446 H   0  0  0  0  0  0  0  0  0  0  0  0
   -3.2565    0.7630   -3.1254 N   0  3  0  0  0  0  0  0  0  0  0  0
   -2.9440    1.7145   -3.2163 H   0  0  0  0  0  0  0  0  0  0  0  0
   -4.2242    0.3670   -3.9352 C   0  0  0  0  0  0  0  0  0  0  0  0
   -4.7038   -0.8446   -3.9017 N   0  0  0  0  0  0  0  0  0  0  0  0
   -4.3234   -1.4974   -3.2394 H   0  0  0  0  0  0  0  0  0  0  0  0
   -5.4387   -1.1288   -4.5230 H   0  0  0  0  0  0  0  0  0  0  0  0
   -4.7360    1.1916   -4.8043 N   0  0  0  0  0  0  0  0  0  0  0  0
   -4.3986    2.1367   -4.8679 H   0  0  0  0  0  0  0  0  0  0  0  0
   -5.4700    0.8872   -5.4168 H   0  0  0  0  0  0  0  0  0  0  0  0
   -1.6547    1.3413    1.4779 C   0  0  0  0  0  0  0  0  0  0  0  0
   -2.5654    1.9858    0.9716 O   0  0  0  0  0  0  0  0  0  0  0  0
   -0.8107    1.8504    2.3808 N   0  0  0  0  0  0  0  0  0  0  0  0
   -0.1136    1.2381    2.7719 H   0  0  0  0  0  0  0  0  0  0  0  0
   -0.8954    3.2155    2.9026 C   0  0  0  0  0  0  0  0  0  0  0  0
   -1.8299    3.3430    3.4532 H   0  0  0  0  0  0  0  0  0  0  0  0
   -0.0581    3.4194    3.5712 H   0  0  0  0  0  0  0  0  0  0  0  0
   -0.8804    3.9320    2.0784 H   0  0  0  0  0  0  0  0  0  0  0  0
  5  6  2  0  0  0  0
  5  7  1  0  0  0  0
  2  3  1  0  0  0  0
  2  4  1  0  0  0  0
  2  5  1  0  0  0  0
  1  2  1  0  0  0  0
 29 30  2  0  0  0  0
 29 31  1  0  0  0  0
 26 27  1  0  0  0  0
 26 28  1  0  0  0  0
 23 24  1  0  0  0  0
 23 25  1  0  0  0  0
 22 23  1  0  0  0  0
 22 26  1  0  0  0  0
 20 21  1  0  0  0  0
 20 22  2  0  0  0  0
 17 18  1  0  0  0  0
 17 19  1  0  0  0  0
 17 20  1  0  0  0  0
 14 15  1  0  0  0  0
 14 16  1  0  0  0  0
 14 17  1  0  0  0  0
 11 12  1  0  0  0  0
 11 13  1  0  0  0  0
 11 14  1  0  0  0  0
  9 10  1  0  0  0  0
  9 11  1  0  0  0  0
  9 29  1  0  0  0  0
  7  8  1  0  0  0  0
  7  9  1  0  0  0  0
 33 34  1  0  0  0  0
 33 35  1  0  0  0  0
 33 36  1  0  0  0  0
 31 32  1  0  0  0  0
 31 33  1  0  0  0  0
M  CHG  1  20   1
M  END
$$$$
default_name
  -OEChem-02102213163D

 36 35  0     1  0  0  0  0  0999 V2000
   -4.2256   -3.6731    1.8584 H   0  0  0  0  0  0  0  0  0  0  0  0
   -4.2396   -2.6781    1.4144 C   0  0  0  0  0  0  0  0  0  0  0  0
   -4.9506   -2.0521    1.9514 H   0  0  0  0  0  0  0  0  0  0  0  0
   -4.5266   -2.7521    0.3674 H   0  0  0  0  0  0  0  0  0  0  0  0
   -2.8576   -2.0761    1.5184 C   0  0  0  0  0  0  0  0  0  0  0  0
   -1.9456   -2.7051    2.0404 O   0  0  0  0  0  0  0  0  0  0  0  0
   -2.6926   -0.8481    1.0174 N   0  0  0  0  0  0  0  0  0  0  0  0
   -3.4926   -0.3971    0.5954 H   0  0  0  0  0  0  0  0  0  0  0  0
   -1.4216   -0.1071    1.0434 C   0  0  1  0  0  0  0  0  0  0  0  0
   -0.7579   -0.5878    1.7640 H   0  0  0  0  0  0  0  0  0  0  0  0
   -0.7791   -0.1912   -0.3557 C   0  0  0  0  0  0  0  0  0  0  0  0
    0.2683    0.1068   -0.2765 H   0  0  0  0  0  0  0  0  0  0  0  0
   -0.8119   -1.2265   -0.7019 H   0  0  0  0  0  0  0  0  0  0  0  0
   -1.4598    0.7102   -1.3960 C   0  0  0  0  0  0  0  0  0  0  0  0
   -1.6417    1.6966   -0.9670 H   0  0  0  0  0  0  0  0  0  0  0  0
   -0.8108    0.8101   -2.2666 H   0  0  0  0  0  0  0  0  0  0  0  0
   -2.7983    0.0941   -1.8253 C   0  0  0  0  0  0  0  0  0  0  0  0
   -2.6096   -0.9033   -2.2288 H   0  0  0  0  0  0  0  0  0  0  0  0
   -3.4376    0.0028   -0.9440 H   0  0  0  0  0  0  0  0  0  0  0  0
   -3.4789    0.9178   -2.8457 N   0  3  0  0  0  0  0  0  0  0  0  0
   -3.0313    1.7813   -3.1013 H   0  0  0  0  0  0  0  0  0  0  0  0
   -4.6174    0.6271   -3.4526 C   0  0  0  0  0  0  0  0  0  0  0  0
   -5.2802   -0.4658   -3.1964 N   0  0  0  0  0  0  0  0  0  0  0  0
   -4.9114   -1.1071   -2.5165 H   0  0  0  0  0  0  0  0  0  0  0  0
   -6.1430   -0.6711   -3.6657 H   0  0  0  0  0  0  0  0  0  0  0  0
   -5.1188    1.4396   -4.3391 N   0  0  0  0  0  0  0  0  0  0  0  0
   -4.6436    2.2949   -4.5705 H   0  0  0  0  0  0  0  0  0  0  0  0
   -5.9827    1.2151   -4.7972 H   0  0  0  0  0  0  0  0  0  0  0  0
   -1.6547    1.3413    1.4779 C   0  0  0  0  0  0  0  0  0  0  0  0
   -2.5654    1.9858    0.9716 O   0  0  0  0  0  0  0  0  0  0  0  0
   -0.8107    1.8504    2.3808 N   0  0  0  0  0  0  0  0  0  0  0  0
   -0.1136    1.2381    2.7719 H   0  0  0  0  0  0  0  0  0  0  0  0
   -0.8954    3.2155    2.9026 C   0  0  0  0  0  0  0  0  0  0  0  0
   -1.8299    3.3430    3.4532 H   0  0  0  0  0  0  0  0  0  0  0  0
   -0.0581    3.4194    3.5712 H   0  0  0  0  0  0  0  0  0  0  0  0
   -0.8804    3.9320    2.0784 H   0  0  0  0  0  0  0  0  0  0  0  0
  5  6  2  0  0  0  0
  5  7  1  0  0  0  0
  2  3  1  0  0  0  0
  2  4  1  0  0  0  0
  2  5  1  0  0  0  0
  1  2  1  0  0  0  0
 29 30  2  0  0  0  0
 29 31  1  0  0  0  0
 26 27  1  0  0  0  0
 26 28  1  0  0  0  0
 23 24  1  0  0  0  0
 23 25  1  0  0  0  0
 22 23  1  0  0  0  0
 22 26  1  0  0  0  0
 20 21  1  0  0  0  0
 20 22  2  0  0  0  0
 17 18  1  0  0  0  0
 17 19  1  0  0  0  0
 17 20  1  0  0  0  0
 14 15  1  0  0  0  0
 14 16  1  0  0  0  0
 14 17  1  0  0  0  0
 11 12  1  0  0  0  0
 11 13  1  0  0  0  0
 11 14  1  0  0  0  0
  9 10  1  0  0  0  0
  9 11  1  0  0  0  0
  9 29  1  0  0  0  0
  7  8  1  0  0  0  0
  7  9  1  0  0  0  0
 33 34  1  0  0  0  0
 33 35  1  0  0  0  0
 33 36  1  0  0  0  0
 31 32  1  0  0  0  0
 31 33  1  0  0  0  0
M  CHG  1  20   1
M  END
$$$$
default_name
  -OEChem-02102213163D

 36 35  0     1  0  0  0  0  0999 V2000
   -4.2256   -3.6731    1.8584 H   0  0  0  0  0  0  0  0  0  0  0  0
   -4.2396   -2.6781    1.4144 C   0  0  0  0  0  0  0  0  0  0  0  0
   -4.9506   -2.0521    1.9514 H   0  0  0  0  0  0  0  0  0  0  0  0
   -4.5266   -2.7521    0.3674 H   0  0  0  0  0  0  0  0  0  0  0  0
   -2.8576   -2.0761    1.5184 C   0  0  0  0  0  0  0  0  0  0  0  0
   -1.9456   -2.7051    2.0404 O   0  0  0  0  0  0  0  0  0  0  0  0
   -2.6926   -0.8481    1.0174 N   0  0  0  0  0  0  0  0  0  0  0  0
   -3.4926   -0.3971    0.5954 H   0  0  0  0  0  0  0  0  0  0  0  0
   -1.4216   -0.1071    1.0434 C   0  0  1  0  0  0  0  0  0  0  0  0
   -0.7579   -0.5878    1.7640 H   0  0  0  0  0  0  0  0  0  0  0  0
   -0.7791   -0.1912   -0.3557 C   0  0  0  0  0  0  0  0  0  0  0  0
    0.2683    0.1068   -0.2765 H   0  0  0  0  0  0  0  0  0  0  0  0
   -0.8119   -1.2265   -0.7019 H   0  0  0  0  0  0  0  0  0  0  0  0
   -1.4598    0.7102   -1.3960 C   0  0  0  0  0  0  0  0  0  0  0  0
   -1.4030    1.7515   -1.0757 H   0  0  0  0  0  0  0  0  0  0  0  0
   -0.9531    0.6002   -2.3553 H   0  0  0  0  0  0  0  0  0  0  0  0
   -2.9339    0.3110   -1.5487 C   0  0  0  0  0  0  0  0  0  0  0  0
   -2.9818   -0.7397   -1.8436 H   0  0  0  0  0  0  0  0  0  0  0  0
   -3.4279    0.4287   -0.5814 H   0  0  0  0  0  0  0  0  0  0  0  0
   -3.6241    1.1384   -2.5595 N   0  3  0  0  0  0  0  0  0  0  0  0
   -3.0865    1.8743   -2.9846 H   0  0  0  0  0  0  0  0  0  0  0  0
   -4.8783    1.0025   -2.9567 C   0  0  0  0  0  0  0  0  0  0  0  0
   -5.6633    0.0821   -2.4711 N   0  0  0  0  0  0  0  0  0  0  0  0
   -5.3011   -0.5440   -1.7737 H   0  0  0  0  0  0  0  0  0  0  0  0
   -6.6127   -0.0072   -2.7832 H   0  0  0  0  0  0  0  0  0  0  0  0
   -5.3744    1.7996   -3.8599 N   0  0  0  0  0  0  0  0  0  0  0  0
   -4.8074    2.5249   -4.2642 H   0  0  0  0  0  0  0  0  0  0  0  0
   -6.3263    1.6929   -4.1585 H   0  0  0  0  0  0  0  0  0  0  0  0
   -1.6547    1.3413    1.4779 C   0  0  0  0  0  0  0  0  0  0  0  0
   -2.5654    1.9858    0.9716 O   0  0  0  0  0  0  0  0  0  0  0  0
   -0.8107    1.8504    2.3808 N   0  0  0  0  0  0  0  0  0  0  0  0
   -0.1136    1.2381    2.7719 H   0  0  0  0  0  0  0  0  0  0  0  0
   -0.8954    3.2155    2.9026 C   0  0  0  0  0  0  0  0  0  0  0  0
   -1.8299    3.3430    3.4532 H   0  0  0  0  0  0  0  0  0  0  0  0
   -0.0581    3.4194    3.5712 H   0  0  0  0  0  0  0  0  0  0  0  0
   -0.8804    3.9320    2.0784 H   0  0  0  0  0  0  0  0  0  0  0  0
  5  6  2  0  0  0  0
  5  7  1  0  0  0  0
  2  3  1  0  0  0  0
  2  4  1  0  0  0  0
  2  5  1  0  0  0  0
  1  2  1  0  0  0  0
 29 30  2  0  0  0  0
 29 31  1  0  0  0  0
 26 27  1  0  0  0  0
 26 28  1  0  0  0  0
 23 24  1  0  0  0  0
 23 25  1  0  0  0  0
 22 23  1  0  0  0  0
 22 26  1  0  0  0  0
 20 21  1  0  0  0  0
 20 22  2  0  0  0  0
 17 18  1  0  0  0  0
 17 19  1  0  0  0  0
 17 20  1  0  0  0  0
 14 15  1  0  0  0  0
 14 16  1  0  0  0  0
 14 17  1  0  0  0  0
 11 12  1  0  0  0  0
 11 13  1  0  0  0  0
 11 14  1  0  0  0  0
  9 10  1  0  0  0  0
  9 11  1  0  0  0  0
  9 29  1  0  0  0  0
  7  8  1  0  0  0  0
  7  9  1  0  0  0  0
 33 34  1  0  0  0  0
 33 35  1  0  0  0  0
 33 36  1  0  0  0  0
 31 32  1  0  0  0  0
 31 33  1  0  0  0  0
M  CHG  1  20   1
M  END
$$$$
default_name
  -OEChem-02102213163D

 36 35  0     1  0  0  0  0  0999 V2000
   -4.2256   -3.6731    1.8584 H   0  0  0  0  0  0  0  0  0  0  0  0
   -4.2396   -2.6781    1.4144 C   0  0  0  0  0  0  0  0  0  0  0  0
   -4.9506   -2.0521    1.9514 H   0  0  0  0  0  0  0  0  0  0  0  0
   -4.5266   -2.7521    0.3674 H   0  0  0  0  0  0  0  0  0  0  0  0
   -2.8576   -2.0761    1.5184 C   0  0  0  0  0  0  0  0  0  0  0  0
   -1.9456   -2.7051    2.0404 O   0  0  0  0  0  0  0  0  0  0  0  0
   -2.6926   -0.8481    1.0174 N   0  0  0  0  0  0  0  0  0  0  0  0
   -3.4926   -0.3971    0.5954 H   0  0  0  0  0  0  0  0  0  0  0  0
   -1.4216   -0.1071    1.0434 C   0  0  1  0  0  0  0  0  0  0  0  0
   -0.7579   -0.5878    1.7640 H   0  0  0  0  0  0  0  0  0  0  0  0
   -0.7791   -0.1912   -0.3557 C   0  0  0  0  0  0  0  0  0  0  0  0
    0.2683    0.1068   -0.2765 H   0  0  0  0  0  0  0  0  0  0  0  0
   -0.8119   -1.2265   -0.7019 H   0  0  0  0  0  0  0  0  0  0  0  0
   -1.4598    0.7102   -1.3960 C   0  0  0  0  0  0  0  0  0  0  0  0
   -1.1792    1.7502   -1.2232 H   0  0  0  0  0  0  0  0  0  0  0  0
   -1.1408    0.4123   -2.3953 H   0  0  0  0  0  0  0  0  0  0  0  0
   -2.9847    0.5760   -1.2859 C   0  0  0  0  0  0  0  0  0  0  0  0
   -3.2541   -0.4723   -1.4337 H   0  0  0  0  0  0  0  0  0  0  0  0
   -3.2888    0.8799   -0.2814 H   0  0  0  0  0  0  0  0  0  0  0  0
   -3.6823    1.4099   -2.2863 N   0  3  0  0  0  0  0  0  0  0  0  0
   -3.1057    1.9873   -2.8741 H   0  0  0  0  0  0  0  0  0  0  0  0
   -4.9891    1.4678   -2.4811 C   0  0  0  0  0  0  0  0  0  0  0  0
   -5.8271    0.7617   -1.7751 N   0  0  0  0  0  0  0  0  0  0  0  0
   -5.4660    0.1534   -1.0616 H   0  0  0  0  0  0  0  0  0  0  0  0
   -6.8160    0.8177   -1.9355 H   0  0  0  0  0  0  0  0  0  0  0  0
   -5.4854    2.2471   -3.3996 N   0  0  0  0  0  0  0  0  0  0  0  0
   -4.8787    2.8108   -3.9698 H   0  0  0  0  0  0  0  0  0  0  0  0
   -6.4774    2.2880   -3.5441 H   0  0  0  0  0  0  0  0  0  0  0  0
   -1.6547    1.3413    1.4779 C   0  0  0  0  0  0  0  0  0  0  0  0
   -2.5654    1.9858    0.9716 O   0  0  0  0  0  0  0  0  0  0  0  0
   -0.8107    1.8504    2.3808 N   0  0  0  0  0  0  0  0  0  0  0  0
   -0.1136    1.2381    2.7719 H   0  0  0  0  0  0  0  0  0  0  0  0
   -0.8954    3.2155    2.9026 C   0  0  0  0  0  0  0  0  0  0  0  0
   -1.8299    3.3430    3.4532 H   0  0  0  0  0  0  0  0  0  0  0  0
   -0.0581    3.4194    3.5712 H   0  0  0  0  0  0  0  0  0  0  0  0
   -0.8804    3.9320    2.0784 H   0  0  0  0  0  0  0  0  0  0  0  0
  5  6  2  0  0  0  0
  5  7  1  0  0  0  0
  2  3  1  0  0  0  0
  2  4  1  0  0  0  0
  2  5  1  0  0  0  0
  1  2  1  0  0  0  0
 29 30  2  0  0  0  0
 29 31  1  0  0  0  0
 26 27  1  0  0  0  0
 26 28  1  0  0  0  0
 23 24  1  0  0  0  0
 23 25  1  0  0  0  0
 22 23  1  0  0  0  0
 22 26  1  0  0  0  0
 20 21  1  0  0  0  0
 20 22  2  0  0  0  0
 17 18  1  0  0  0  0
 17 19  1  0  0  0  0
 17 20  1  0  0  0  0
 14 15  1  0  0  0  0
 14 16  1  0  0  0  0
 14 17  1  0  0  0  0
 11 12  1  0  0  0  0
 11 13  1  0  0  0  0
 11 14  1  0  0  0  0
  9 10  1  0  0  0  0
  9 11  1  0  0  0  0
  9 29  1  0  0  0  0
  7  8  1  0  0  0  0
  7  9  1  0  0  0  0
 33 34  1  0  0  0  0
 33 35  1  0  0  0  0
 33 36  1  0  0  0  0
 31 32  1  0  0  0  0
 31 33  1  0  0  0  0
M  CHG  1  20   1
M  END
$$$$
default_name
  -OEChem-02102213163D

 36 35  0     1  0  0  0  0  0999 V2000
   -4.2256   -3.6731    1.8584 H   0  0  0  0  0  0  0  0  0  0  0  0
   -4.2396   -2.6781    1.4144 C   0  0  0  0  0  0  0  0  0  0  0  0
   -4.9506   -2.0521    1.9514 H   0  0  0  0  0  0  0  0  0  0  0  0
   -4.5266   -2.7521    0.3674 H   0  0  0  0  0  0  0  0  0  0  0  0
   -2.8576   -2.0761    1.5184 C   0  0  0  0  0  0  0  0  0  0  0  0
   -1.9456   -2.7051    2.0404 O   0  0  0  0  0  0  0  0  0  0  0  0
   -2.6926   -0.8481    1.0174 N   0  0  0  0  0  0  0  0  0  0  0  0
   -3.4926   -0.3971    0.5954 H   0  0  0  0  0  0  0  0  0  0  0  0
   -1.4216   -0.1071    1.0434 C   0  0  1  0  0  0  0  0  0  0  0  0
   -0.7579   -0.5878    1.7640 H   0  0  0  0  0  0  0  0  0  0  0  0
   -0.7791   -0.1912   -0.3557 C   0  0  0  0  0  0  0  0  0  0  0  0
    0.2683    0.1068   -0.2765 H   0  0  0  0  0  0  0  0  0  0  0  0
   -0.8119   -1.2265   -0.7019 H   0  0  0  0  0  0  0  0  0  0  0  0
   -1.4598    0.7102   -1.3960 C   0  0  0  0  0  0  0  0  0  0  0  0
   -0.9858    1.6927   -1.3995 H   0  0  0  0  0  0  0  0  0  0  0  0
   -1.3612    0.2591   -2.3839 H   0  0  0  0  0  0  0  0  0  0  0  0
   -2.9474    0.8711   -1.0546 C   0  0  0  0  0  0  0  0  0  0  0  0
   -3.4079   -0.1191   -1.0271 H   0  0  0  0  0  0  0  0  0  0  0  0
   -3.0297    1.3258   -0.0646 H   0  0  0  0  0  0  0  0  0  0  0  0
   -3.6493    1.7136   -2.0448 N   0  3  0  0  0  0  0  0  0  0  0  0
   -3.0877    2.1124   -2.7775 H   0  0  0  0  0  0  0  0  0  0  0  0
   -4.9422    1.9913   -2.0582 C   0  0  0  0  0  0  0  0  0  0  0  0
   -5.7604    1.5267   -1.1559 N   0  0  0  0  0  0  0  0  0  0  0  0
   -5.3948    0.9377   -0.4288 H   0  0  0  0  0  0  0  0  0  0  0  0
   -6.7389    1.7474   -1.1804 H   0  0  0  0  0  0  0  0  0  0  0  0
   -5.4442    2.7516   -2.9895 N   0  0  0  0  0  0  0  0  0  0  0  0
   -4.8527    3.1333   -3.7074 H   0  0  0  0  0  0  0  0  0  0  0  0
   -6.4256    2.9597   -2.9960 H   0  0  0  0  0  0  0  0  0  0  0  0
   -1.6547    1.3413    1.4779 C   0  0  0  0  0  0  0  0  0  0  0  0
   -2.5654    1.9858    0.9716 O   0  0  0  0  0  0  0  0  0  0  0  0
   -0.8107    1.8504    2.3808 N   0  0  0  0  0  0  0  0  0  0  0  0
   -0.1136    1.2381    2.7719 H   0  0  0  0  0  0  0  0  0  0  0  0
   -0.8954    3.2155    2.9026 C   0  0  0  0  0  0  0  0  0  0  0  0
   -1.8299    3.3430    3.4532 H   0  0  0  0  0  0  0  0  0  0  0  0
   -0.0581    3.4194    3.5712 H   0  0  0  0  0  0  0  0  0  0  0  0
   -0.8804    3.9320    2.0784 H   0  0  0  0  0  0  0  0  0  0  0  0
  5  6  2  0  0  0  0
  5  7  1  0  0  0  0
  2  3  1  0  0  0  0
  2  4  1  0  0  0  0
  2  5  1  0  0  0  0
  1  2  1  0  0  0  0
 29 30  2  0  0  0  0
 29 31  1  0  0  0  0
 26 27  1  0  0  0  0
 26 28  1  0  0  0  0
 23 24  1  0  0  0  0
 23 25  1  0  0  0  0
 22 23  1  0  0  0  0
 22 26  1  0  0  0  0
 20 21  1  0  0  0  0
 20 22  2  0  0  0  0
 17 18  1  0  0  0  0
 17 19  1  0  0  0  0
 17 20  1  0  0  0  0
 14 15  1  0  0  0  0
 14 16  1  0  0  0  0
 14 17  1  0  0  0  0
 11 12  1  0  0  0  0
 11 13  1  0  0  0  0
 11 14  1  0  0  0  0
  9 10  1  0  0  0  0
  9 11  1  0  0  0  0
  9 29  1  0  0  0  0
  7  8  1  0  0  0  0
  7  9  1  0  0  0  0
 33 34  1  0  0  0  0
 33 35  1  0  0  0  0
 33 36  1  0  0  0  0
 31 32  1  0  0  0  0
 31 33  1  0  0  0  0
M  CHG  1  20   1
M  END
$$$$
default_name
  -OEChem-02102213163D

 36 35  0     1  0  0  0  0  0999 V2000
   -4.2256   -3.6731    1.8584 H   0  0  0  0  0  0  0  0  0  0  0  0
   -4.2396   -2.6781    1.4144 C   0  0  0  0  0  0  0  0  0  0  0  0
   -4.9506   -2.0521    1.9514 H   0  0  0  0  0  0  0  0  0  0  0  0
   -4.5266   -2.7521    0.3674 H   0  0  0  0  0  0  0  0  0  0  0  0
   -2.8576   -2.0761    1.5184 C   0  0  0  0  0  0  0  0  0  0  0  0
   -1.9456   -2.7051    2.0404 O   0  0  0  0  0  0  0  0  0  0  0  0
   -2.6926   -0.8481    1.0174 N   0  0  0  0  0  0  0  0  0  0  0  0
   -3.4926   -0.3971    0.5954 H   0  0  0  0  0  0  0  0  0  0  0  0
   -1.4216   -0.1071    1.0434 C   0  0  1  0  0  0  0  0  0  0  0  0
   -0.7579   -0.5878    1.7640 H   0  0  0  0  0  0  0  0  0  0  0  0
   -0.7791   -0.1912   -0.3557 C   0  0  0  0  0  0  0  0  0  0  0  0
    0.2683    0.1068   -0.2765 H   0  0  0  0  0  0  0  0  0  0  0  0
   -0.8119   -1.2265   -0.7019 H   0  0  0  0  0  0  0  0  0  0  0  0
   -1.4598    0.7102   -1.3960 C   0  0  0  0  0  0  0  0  0  0  0  0
   -0.8357    1.5831   -1.5927 H   0  0  0  0  0  0  0  0  0  0  0  0
   -1.5992    0.1511   -2.3218 H   0  0  0  0  0  0  0  0  0  0  0  0
   -2.8246    1.1761   -0.8708 C   0  0  0  0  0  0  0  0  0  0  0  0
   -3.4328    0.2956   -0.6515 H   0  0  0  0  0  0  0  0  0  0  0  0
   -2.6684    1.7360    0.0543 H   0  0  0  0  0  0  0  0  0  0  0  0
   -3.5275    2.0289   -1.8513 N   0  3  0  0  0  0  0  0  0  0  0  0
   -3.0337    2.2412   -2.7013 H   0  0  0  0  0  0  0  0  0  0  0  0
   -4.7410    2.5372   -1.7169 C   0  0  0  0  0  0  0  0  0  0  0  0
   -5.4678    2.3250   -0.6558 N   0  0  0  0  0  0  0  0  0  0  0  0
   -5.0924    1.7553    0.0818 H   0  0  0  0  0  0  0  0  0  0  0  0
   -6.3868    2.7186   -0.5695 H   0  0  0  0  0  0  0  0  0  0  0  0
   -5.2536    3.2788   -2.6574 N   0  0  0  0  0  0  0  0  0  0  0  0
   -4.7312    3.4704   -3.4949 H   0  0  0  0  0  0  0  0  0  0  0  0
   -6.1746    3.6624   -2.5514 H   0  0  0  0  0  0  0  0  0  0  0  0
   -1.6547    1.3413    1.4779 C   0  0  0  0  0  0  0  0  0  0  0  0
   -2.5654    1.9858    0.9716 O   0  0  0  0  0  0  0  0  0  0  0  0
   -0.8107    1.8504    2.3808 N   0  0  0  0  0  0  0  0  0  0  0  0
   -0.1136    1.2381    2.7719 H   0  0  0  0  0  0  0  0  0  0  0  0
   -0.8954    3.2155    2.9026 C   0  0  0  0  0  0  0  0  0  0  0  0
   -1.8299    3.3430    3.4532 H   0  0  0  0  0  0  0  0  0  0  0  0
   -0.0581    3.4194    3.5712 H   0  0  0  0  0  0  0  0  0  0  0  0
   -0.8804    3.9320    2.0784 H   0  0  0  0  0  0  0  0  0  0  0  0
  5  6  2  0  0  0  0
  5  7  1  0  0  0  0
  2  3  1  0  0  0  0
  2  4  1  0  0  0  0
  2  5  1  0  0  0  0
  1  2  1  0  0  0  0
 29 30  2  0  0  0  0
 29 31  1  0  0  0  0
 26 27  1  0  0  0  0
 26 28  1  0  0  0  0
 23 24  1  0  0  0  0
 23 25  1  0  0  0  0
 22 23  1  0  0  0  0
 22 26  1  0  0  0  0
 20 21  1  0  0  0  0
 20 22  2  0  0  0  0
 17 18  1  0  0  0  0
 17 19  1  0  0  0  0
 17 20  1  0  0  0  0
 14 15  1  0  0  0  0
 14 16  1  0  0  0  0
 14 17  1  0  0  0  0
 11 12  1  0  0  0  0
 11 13  1  0  0  0  0
 11 14  1  0  0  0  0
  9 10  1  0  0  0  0
  9 11  1  0  0  0  0
  9 29  1  0  0  0  0
  7  8  1  0  0  0  0
  7  9  1  0  0  0  0
 33 34  1  0  0  0  0
 33 35  1  0  0  0  0
 33 36  1  0  0  0  0
 31 32  1  0  0  0  0
 31 33  1  0  0  0  0
M  CHG  1  20   1
M  END
$$$$
default_name
  -OEChem-02102213163D

 36 35  0     1  0  0  0  0  0999 V2000
   -4.2256   -3.6731    1.8584 H   0  0  0  0  0  0  0  0  0  0  0  0
   -4.2396   -2.6781    1.4144 C   0  0  0  0  0  0  0  0  0  0  0  0
   -4.9506   -2.0521    1.9514 H   0  0  0  0  0  0  0  0  0  0  0  0
   -4.5266   -2.7521    0.3674 H   0  0  0  0  0  0  0  0  0  0  0  0
   -2.8576   -2.0761    1.5184 C   0  0  0  0  0  0  0  0  0  0  0  0
   -1.9456   -2.7051    2.0404 O   0  0  0  0  0  0  0  0  0  0  0  0
   -2.6926   -0.8481    1.0174 N   0  0  0  0  0  0  0  0  0  0  0  0
   -3.4926   -0.3971    0.5954 H   0  0  0  0  0  0  0  0  0  0  0  0
   -1.4216   -0.1071    1.0434 C   0  0  1  0  0  0  0  0  0  0  0  0
   -0.7579   -0.5878    1.7640 H   0  0  0  0  0  0  0  0  0  0  0  0
   -0.7791   -0.1912   -0.3557 C   0  0  0  0  0  0  0  0  0  0  0  0
    0.2683    0.1068   -0.2765 H   0  0  0  0  0  0  0  0  0  0  0  0
   -0.8119   -1.2265   -0.7019 H   0  0  0  0  0  0  0  0  0  0  0  0
   -1.4598    0.7102   -1.3960 C   0  0  0  0  0  0  0  0  0  0  0  0
   -0.7394    1.4288   -1.7894 H   0  0  0  0  0  0  0  0  0  0  0  0
   -1.8386    0.0956   -2.2133 H   0  0  0  0  0  0  0  0  0  0  0  0
   -2.6245    1.4702   -0.7469 C   0  0  0  0  0  0  0  0  0  0  0  0
   -3.3271    0.7436   -0.3325 H   0  0  0  0  0  0  0  0  0  0  0  0
   -2.2293    2.0824    0.0672 H   0  0  0  0  0  0  0  0  0  0  0  0
   -3.3252    2.3342   -1.7191 N   0  3  0  0  0  0  0  0  0  0  0  0
   -2.9474    2.3649   -2.6506 H   0  0  0  0  0  0  0  0  0  0  0  0
   -4.3990    3.0683   -1.4804 C   0  0  0  0  0  0  0  0  0  0  0  0
   -4.9692    3.1021   -0.3087 N   0  0  0  0  0  0  0  0  0  0  0  0
   -4.5793    2.5507    0.4351 H   0  0  0  0  0  0  0  0  0  0  0  0
   -5.7835    3.6649   -0.1443 H   0  0  0  0  0  0  0  0  0  0  0  0
   -4.9267    3.7927   -2.4261 N   0  0  0  0  0  0  0  0  0  0  0  0
   -4.5224    3.7990   -3.3467 H   0  0  0  0  0  0  0  0  0  0  0  0
   -5.7414    4.3481   -2.2408 H   0  0  0  0  0  0  0  0  0  0  0  0
   -1.6547    1.3413    1.4779 C   0  0  0  0  0  0  0  0  0  0  0  0
   -2.5654    1.9858    0.9716 O   0  0  0  0  0  0  0  0  0  0  0  0
   -0.8107    1.8504    2.3808 N   0  0  0  0  0  0  0  0  0  0  0  0
   -0.1136    1.2381    2.7719 H   0  0  0  0  0  0  0  0  0  0  0  0
   -0.8954    3.2155    2.9026 C   0  0  0  0  0  0  0  0  0  0  0  0
   -1.8299    3.3430    3.4532 H   0  0  0  0  0  0  0  0  0  0  0  0
   -0.0581    3.4194    3.5712 H   0  0  0  0  0  0  0  0  0  0  0  0
   -0.8804    3.9320    2.0784 H   0  0  0  0  0  0  0  0  0  0  0  0
  5  6  2  0  0  0  0
  5  7  1  0  0  0  0
  2  3  1  0  0  0  0
  2  4  1  0  0  0  0
  2  5  1  0  0  0  0
  1  2  1  0  0  0  0
 29 30  2  0  0  0  0
 29 31  1  0  0  0  0
 26 27  1  0  0  0  0
 26 28  1  0  0  0  0
 23 24  1  0  0  0  0
 23 25  1  0  0  0  0
 22 23  1  0  0  0  0
 22 26  1  0  0  0  0
 20 21  1  0  0  0  0
 20 22  2  0  0  0  0
 17 18  1  0  0  0  0
 17 19  1  0  0  0  0
 17 20  1  0  0  0  0
 14 15  1  0  0  0  0
 14 16  1  0  0  0  0
 14 17  1  0  0  0  0
 11 12  1  0  0  0  0
 11 13  1  0  0  0  0
 11 14  1  0  0  0  0
  9 10  1  0  0  0  0
  9 11  1  0  0  0  0
  9 29  1  0  0  0  0
  7  8  1  0  0  0  0
  7  9  1  0  0  0  0
 33 34  1  0  0  0  0
 33 35  1  0  0  0  0
 33 36  1  0  0  0  0
 31 32  1  0  0  0  0
 31 33  1  0  0  0  0
M  CHG  1  20   1
M  END
$$$$
default_name
  -OEChem-02102213163D

 36 35  0     1  0  0  0  0  0999 V2000
   -4.2256   -3.6731    1.8584 H   0  0  0  0  0  0  0  0  0  0  0  0
   -4.2396   -2.6781    1.4144 C   0  0  0  0  0  0  0  0  0  0  0  0
   -4.9506   -2.0521    1.9514 H   0  0  0  0  0  0  0  0  0  0  0  0
   -4.5266   -2.7521    0.3674 H   0  0  0  0  0  0  0  0  0  0  0  0
   -2.8576   -2.0761    1.5184 C   0  0  0  0  0  0  0  0  0  0  0  0
   -1.9456   -2.7051    2.0404 O   0  0  0  0  0  0  0  0  0  0  0  0
   -2.6926   -0.8481    1.0174 N   0  0  0  0  0  0  0  0  0  0  0  0
   -3.4926   -0.3971    0.5954 H   0  0  0  0  0  0  0  0  0  0  0  0
   -1.4216   -0.1071    1.0434 C   0  0  1  0  0  0  0  0  0  0  0  0
   -0.7579   -0.5878    1.7640 H   0  0  0  0  0  0  0  0  0  0  0  0
   -0.7791   -0.1912   -0.3557 C   0  0  0  0  0  0  0  0  0  0  0  0
    0.2683    0.1068   -0.2765 H   0  0  0  0  0  0  0  0  0  0  0  0
   -0.8119   -1.2265   -0.7019 H   0  0  0  0  0  0  0  0  0  0  0  0
   -1.4598    0.7102   -1.3960 C   0  0  0  0  0  0  0  0  0  0  0  0
   -0.7033    1.2402   -1.9764 H   0  0  0  0  0  0  0  0  0  0  0  0
   -2.0630    0.0964   -2.0657 H   0  0  0  0  0  0  0  0  0  0  0  0
   -2.3608    1.7335   -0.6913 C   0  0  0  0  0  0  0  0  0  0  0  0
   -3.0980    1.1945   -0.0918 H   0  0  0  0  0  0  0  0  0  0  0  0
   -1.7425    2.3416   -0.0267 H   0  0  0  0  0  0  0  0  0  0  0  0
   -3.0561    2.6089   -1.6572 N   0  3  0  0  0  0  0  0  0  0  0  0
   -2.8346    2.4750   -2.6289 H   0  0  0  0  0  0  0  0  0  0  0  0
   -3.9397    3.5486   -1.3649 C   0  0  0  0  0  0  0  0  0  0  0  0
   -4.2986    3.8052   -0.1383 N   0  0  0  0  0  0  0  0  0  0  0  0
   -3.8905    3.2695    0.6073 H   0  0  0  0  0  0  0  0  0  0  0  0
   -4.9702    4.5221    0.0662 H   0  0  0  0  0  0  0  0  0  0  0  0
   -4.4856    4.2582   -2.3113 N   0  0  0  0  0  0  0  0  0  0  0  0
   -4.2407    4.0968   -3.2730 H   0  0  0  0  0  0  0  0  0  0  0  0
   -5.1555    4.9701   -2.0852 H   0  0  0  0  0  0  0  0  0  0  0  0
   -1.6547    1.3413    1.4779 C   0  0  0  0  0  0  0  0  0  0  0  0
   -2.5654    1.9858    0.9716 O   0  0  0  0  0  0  0  0  0  0  0  0
   -0.8107    1.8504    2.3808 N   0  0  0  0  0  0  0  0  0  0  0  0
   -0.1136    1.2381    2.7719 H   0  0  0  0  0  0  0  0  0  0  0  0
   -0.8954    3.2155    2.9026 C   0  0  0  0  0  0  0  0  0  0  0  0
   -1.8299    3.3430    3.4532 H   0  0  0  0  0  0  0  0  0  0  0  0
   -0.0581    3.4194    3.5712 H   0  0  0  0  0  0  0  0  0  0  0  0
   -0.8804    3.9320    2.0784 H   0  0  0  0  0  0  0  0  0  0  0  0
  5  6  2  0  0  0  0
  5  7  1  0  0  0  0
  2  3  1  0  0  0  0
  2  4  1  0  0  0  0
  2  5  1  0  0  0  0
  1  2  1  0  0  0  0
 29 30  2  0  0  0  0
 29 31  1  0  0  0  0
 26 27  1  0  0  0  0
 26 28  1  0  0  0  0
 23 24  1  0  0  0  0
 23 25  1  0  0  0  0
 22 23  1  0  0  0  0
 22 26  1  0  0  0  0
 20 21  1  0  0  0  0
 20 22  2  0  0  0  0
 17 18  1  0  0  0  0
 17 19  1  0  0  0  0
 17 20  1  0  0  0  0
 14 15  1  0  0  0  0
 14 16  1  0  0  0  0
 14 17  1  0  0  0  0
 11 12  1  0  0  0  0
 11 13  1  0  0  0  0
 11 14  1  0  0  0  0
  9 10  1  0  0  0  0
  9 11  1  0  0  0  0
  9 29  1  0  0  0  0
  7  8  1  0  0  0  0
  7  9  1  0  0  0  0
 33 34  1  0  0  0  0
 33 35  1  0  0  0  0
 33 36  1  0  0  0  0
 31 32  1  0  0  0  0
 31 33  1  0  0  0  0
M  CHG  1  20   1
M  END
$$$$
default_name
  -OEChem-02102213163D

 36 35  0     1  0  0  0  0  0999 V2000
   -4.2256   -3.6731    1.8584 H   0  0  0  0  0  0  0  0  0  0  0  0
   -4.2396   -2.6781    1.4144 C   0  0  0  0  0  0  0  0  0  0  0  0
   -4.9506   -2.0521    1.9514 H   0  0  0  0  0  0  0  0  0  0  0  0
   -4.5266   -2.7521    0.3674 H   0  0  0  0  0  0  0  0  0  0  0  0
   -2.8576   -2.0761    1.5184 C   0  0  0  0  0  0  0  0  0  0  0  0
   -1.9456   -2.7051    2.0404 O   0  0  0  0  0  0  0  0  0  0  0  0
   -2.6926   -0.8481    1.0174 N   0  0  0  0  0  0  0  0  0  0  0  0
   -3.4926   -0.3971    0.5954 H   0  0  0  0  0  0  0  0  0  0  0  0
   -1.4216   -0.1071    1.0434 C   0  0  1  0  0  0  0  0  0  0  0  0
   -0.7579   -0.5878    1.7640 H   0  0  0  0  0  0  0  0  0  0  0  0
   -0.7791   -0.1912   -0.3557 C   0  0  0  0  0  0  0  0  0  0  0  0
    0.2683    0.1068   -0.2765 H   0  0  0  0  0  0  0  0  0  0  0  0
   -0.8119   -1.2265   -0.7019 H   0  0  0  0  0  0  0  0  0  0  0  0
   -1.4598    0.7102   -1.3960 C   0  0  0  0  0  0  0  0  0  0  0  0
   -0.7299    1.0303   -2.1409 H   0  0  0  0  0  0  0  0  0  0  0  0
   -2.2573    0.1535   -1.8891 H   0  0  0  0  0  0  0  0  0  0  0  0
   -2.0515    1.9479   -0.7079 C   0  0  0  0  0  0  0  0  0  0  0  0
   -2.7610    1.6174    0.0541 H   0  0  0  0  0  0  0  0  0  0  0  0
   -1.2412    2.4958   -0.2212 H   0  0  0  0  0  0  0  0  0  0  0  0
   -2.7387    2.8341   -1.6697 N   0  3  0  0  0  0  0  0  0  0  0  0
   -2.7031    2.5641   -2.6378 H   0  0  0  0  0  0  0  0  0  0  0  0
   -3.3942    3.9452   -1.3782 C   0  0  0  0  0  0  0  0  0  0  0  0
   -3.5017    4.3862   -0.1563 N   0  0  0  0  0  0  0  0  0  0  0  0
   -3.0731    3.8628    0.5865 H   0  0  0  0  0  0  0  0  0  0  0  0
   -4.0024    5.2315    0.0477 H   0  0  0  0  0  0  0  0  0  0  0  0
   -3.9605    4.6438   -2.3208 N   0  0  0  0  0  0  0  0  0  0  0  0
   -3.9051    4.3436   -3.2788 H   0  0  0  0  0  0  0  0  0  0  0  0
   -4.4568    5.4860   -2.0953 H   0  0  0  0  0  0  0  0  0  0  0  0
   -1.6547    1.3413    1.4779 C   0  0  0  0  0  0  0  0  0  0  0  0
   -2.5654    1.9858    0.9716 O   0  0  0  0  0  0  0  0  0  0  0  0
   -0.8107    1.8504    2.3808 N   0  0  0  0  0  0  0  0  0  0  0  0
   -0.1136    1.2381    2.7719 H   0  0  0  0  0  0  0  0  0  0  0  0
   -0.8954    3.2155    2.9026 C   0  0  0  0  0  0  0  0  0  0  0  0
   -1.8299    3.3430    3.4532 H   0  0  0  0  0  0  0  0  0  0  0  0
   -0.0581    3.4194    3.5712 H   0  0  0  0  0  0  0  0  0  0  0  0
   -0.8804    3.9320    2.0784 H   0  0  0  0  0  0  0  0  0  0  0  0
  5  6  2  0  0  0  0
  5  7  1  0  0  0  0
  2  3  1  0  0  0  0
  2  4  1  0  0  0  0
  2  5  1  0  0  0  0
  1  2  1  0  0  0  0
 29 30  2  0  0  0  0
 29 31  1  0  0  0  0
 26 27  1  0  0  0  0
 26 28  1  0  0  0  0
 23 24  1  0  0  0  0
 23 25  1  0  0  0  0
 22 23  1  0  0  0  0
 22 26  1  0  0  0  0
 20 21  1  0  0  0  0
 20 22  2  0  0  0  0
 17 18  1  0  0  0  0
 17 19  1  0  0  0  0
 17 20  1  0  0  0  0
 14 15  1  0  0  0  0
 14 16  1  0  0  0  0
 14 17  1  0  0  0  0
 11 12  1  0  0  0  0
 11 13  1  0  0  0  0
 11 14  1  0  0  0  0
  9 10  1  0  0  0  0
  9 11  1  0  0  0  0
  9 29  1  0  0  0  0
  7  8  1  0  0  0  0
  7  9  1  0  0  0  0
 33 34  1  0  0  0  0
 33 35  1  0  0  0  0
 33 36  1  0  0  0  0
 31 32  1  0  0  0  0
 31 33  1  0  0  0  0
M  CHG  1  20   1
M  END
$$$$
default_name
  -OEChem-02102213163D

 36 35  0     1  0  0  0  0  0999 V2000
   -4.2256   -3.6731    1.8584 H   0  0  0  0  0  0  0  0  0  0  0  0
   -4.2396   -2.6781    1.4144 C   0  0  0  0  0  0  0  0  0  0  0  0
   -4.9506   -2.0521    1.9514 H   0  0  0  0  0  0  0  0  0  0  0  0
   -4.5266   -2.7521    0.3674 H   0  0  0  0  0  0  0  0  0  0  0  0
   -2.8576   -2.0761    1.5184 C   0  0  0  0  0  0  0  0  0  0  0  0
   -1.9456   -2.7051    2.0404 O   0  0  0  0  0  0  0  0  0  0  0  0
   -2.6926   -0.8481    1.0174 N   0  0  0  0  0  0  0  0  0  0  0  0
   -3.4926   -0.3971    0.5954 H   0  0  0  0  0  0  0  0  0  0  0  0
   -1.4216   -0.1071    1.0434 C   0  0  1  0  0  0  0  0  0  0  0  0
   -0.7579   -0.5878    1.7640 H   0  0  0  0  0  0  0  0  0  0  0  0
   -0.7791   -0.1912   -0.3557 C   0  0  0  0  0  0  0  0  0  0  0  0
    0.2683    0.1068   -0.2765 H   0  0  0  0  0  0  0  0  0  0  0  0
   -0.8119   -1.2265   -0.7019 H   0  0  0  0  0  0  0  0  0  0  0  0
   -1.4598    0.7102   -1.3960 C   0  0  0  0  0  0  0  0  0  0  0  0
   -0.8173    0.8133   -2.2716 H   0  0  0  0  0  0  0  0  0  0  0  0
   -2.4081    0.2629   -1.6956 H   0  0  0  0  0  0  0  0  0  0  0  0
   -1.7177    2.0989   -0.7955 C   0  0  0  0  0  0  0  0  0  0  0  0
   -2.3392    1.9835    0.0954 H   0  0  0  0  0  0  0  0  0  0  0  0
   -0.7594    2.5345   -0.5028 H   0  0  0  0  0  0  0  0  0  0  0  0
   -2.3944    2.9946   -1.7559 N   0  3  0  0  0  0  0  0  0  0  0  0
   -2.5617    2.6261   -2.6766 H   0  0  0  0  0  0  0  0  0  0  0  0
   -2.7998    4.2310   -1.5194 C   0  0  0  0  0  0  0  0  0  0  0  0
   -2.6327    4.8057   -0.3614 N   0  0  0  0  0  0  0  0  0  0  0  0
   -2.1826    4.2901    0.3741 H   0  0  0  0  0  0  0  0  0  0  0  0
   -2.9459    5.7450   -0.1986 H   0  0  0  0  0  0  0  0  0  0  0  0
   -3.3871    4.9230   -2.4541 N   0  0  0  0  0  0  0  0  0  0  0  0
   -3.5385    4.5224   -3.3637 H   0  0  0  0  0  0  0  0  0  0  0  0
   -3.6931    5.8607   -2.2704 H   0  0  0  0  0  0  0  0  0  0  0  0
   -1.6547    1.3413    1.4779 C   0  0  0  0  0  0  0  0  0  0  0  0
   -2.5654    1.9858    0.9716 O   0  0  0  0  0  0  0  0  0  0  0  0
   -0.8107    1.8504    2.3808 N   0  0  0  0  0  0  0  0  0  0  0  0
   -0.1136    1.2381    2.7719 H   0  0  0  0  0  0  0  0  0  0  0  0
   -0.8954    3.2155    2.9026 C   0  0  0  0  0  0  0  0  0  0  0  0
   -1.8299    3.3430    3.4532 H   0  0  0  0  0  0  0  0  0  0  0  0
   -0.0581    3.4194    3.5712 H   0  0  0  0  0  0  0  0  0  0  0  0
   -0.8804    3.9320    2.0784 H   0  0  0  0  0  0  0  0  0  0  0  0
  5  6  2  0  0  0  0
  5  7  1  0  0  0  0
  2  3  1  0  0  0  0
  2  4  1  0  0  0  0
  2  5  1  0  0  0  0
  1  2  1  0  0  0  0
 29 30  2  0  0  0  0
 29 31  1  0  0  0  0
 26 27  1  0  0  0  0
 26 28  1  0  0  0  0
 23 24  1  0  0  0  0
 23 25  1  0  0  0  0
 22 23  1  0  0  0  0
 22 26  1  0  0  0  0
 20 21  1  0  0  0  0
 20 22  2  0  0  0  0
 17 18  1  0  0  0  0
 17 19  1  0  0  0  0
 17 20  1  0  0  0  0
 14 15  1  0  0  0  0
 14 16  1  0  0  0  0
 14 17  1  0  0  0  0
 11 12  1  0  0  0  0
 11 13  1  0  0  0  0
 11 14  1  0  0  0  0
  9 10  1  0  0  0  0
  9 11  1  0  0  0  0
  9 29  1  0  0  0  0
  7  8  1  0  0  0  0
  7  9  1  0  0  0  0
 33 34  1  0  0  0  0
 33 35  1  0  0  0  0
 33 36  1  0  0  0  0
 31 32  1  0  0  0  0
 31 33  1  0  0  0  0
M  CHG  1  20   1
M  END
$$$$
default_name
  -OEChem-02102213163D

 36 35  0     1  0  0  0  0  0999 V2000
   -4.2256   -3.6731    1.8584 H   0  0  0  0  0  0  0  0  0  0  0  0
   -4.2396   -2.6781    1.4144 C   0  0  0  0  0  0  0  0  0  0  0  0
   -4.9506   -2.0521    1.9514 H   0  0  0  0  0  0  0  0  0  0  0  0
   -4.5266   -2.7521    0.3674 H   0  0  0  0  0  0  0  0  0  0  0  0
   -2.8576   -2.0761    1.5184 C   0  0  0  0  0  0  0  0  0  0  0  0
   -1.9456   -2.7051    2.0404 O   0  0  0  0  0  0  0  0  0  0  0  0
   -2.6926   -0.8481    1.0174 N   0  0  0  0  0  0  0  0  0  0  0  0
   -3.4926   -0.3971    0.5954 H   0  0  0  0  0  0  0  0  0  0  0  0
   -1.4216   -0.1071    1.0434 C   0  0  1  0  0  0  0  0  0  0  0  0
   -0.7579   -0.5878    1.7640 H   0  0  0  0  0  0  0  0  0  0  0  0
   -0.7791   -0.1912   -0.3557 C   0  0  0  0  0  0  0  0  0  0  0  0
    0.2683    0.1068   -0.2765 H   0  0  0  0  0  0  0  0  0  0  0  0
   -0.8119   -1.2265   -0.7019 H   0  0  0  0  0  0  0  0  0  0  0  0
   -1.4598    0.7102   -1.3960 C   0  0  0  0  0  0  0  0  0  0  0  0
   -0.9597    0.6041   -2.3597 H   0  0  0  0  0  0  0  0  0  0  0  0
   -2.5052    0.4173   -1.4984 H   0  0  0  0  0  0  0  0  0  0  0  0
   -1.3820    2.1761   -0.9482 C   0  0  0  0  0  0  0  0  0  0  0  0
   -1.8613    2.2680    0.0292 H   0  0  0  0  0  0  0  0  0  0  0  0
   -0.3300    2.4551   -0.8525 H   0  0  0  0  0  0  0  0  0  0  0  0
   -2.0469    3.0793   -1.9099 N   0  3  0  0  0  0  0  0  0  0  0  0
   -2.4202    2.6568   -2.7426 H   0  0  0  0  0  0  0  0  0  0  0  0
   -2.1969    4.3868   -1.7789 C   0  0  0  0  0  0  0  0  0  0  0  0
   -1.7510    5.0350   -0.7396 N   0  0  0  0  0  0  0  0  0  0  0  0
   -1.2798    4.5224   -0.0153 H   0  0  0  0  0  0  0  0  0  0  0  0
   -1.8729    6.0275   -0.6560 H   0  0  0  0  0  0  0  0  0  0  0  0
   -2.8045    5.0769   -2.7019 N   0  0  0  0  0  0  0  0  0  0  0  0
   -3.1660    4.6211   -3.5219 H   0  0  0  0  0  0  0  0  0  0  0  0
   -2.9163    6.0686   -2.5985 H   0  0  0  0  0  0  0  0  0  0  0  0
   -1.6547    1.3413    1.4779 C   0  0  0  0  0  0  0  0  0  0  0  0
   -2.5654    1.9858    0.9716 O   0  0  0  0  0  0  0  0  0  0  0  0
   -0.8107    1.8504    2.3808 N   0  0  0  0  0  0  0  0  0  0  0  0
   -0.1136    1.2381    2.7719 H   0  0  0  0  0  0  0  0  0  0  0  0
   -0.8954    3.2155    2.9026 C   0  0  0  0  0  0  0  0  0  0  0  0
   -1.8299    3.3430    3.4532 H   0  0  0  0  0  0  0  0  0  0  0  0
   -0.0581    3.4194    3.5712 H   0  0  0  0  0  0  0  0  0  0  0  0
   -0.8804    3.9320    2.0784 H   0  0  0  0  0  0  0  0  0  0  0  0
  5  6  2  0  0  0  0
  5  7  1  0  0  0  0
  2  3  1  0  0  0  0
  2  4  1  0  0  0  0
  2  5  1  0  0  0  0
  1  2  1  0  0  0  0
 29 30  2  0  0  0  0
 29 31  1  0  0  0  0
 26 27  1  0  0  0  0
 26 28  1  0  0  0  0
 23 24  1  0  0  0  0
 23 25  1  0  0  0  0
 22 23  1  0  0  0  0
 22 26  1  0  0  0  0
 20 21  1  0  0  0  0
 20 22  2  0  0  0  0
 17 18  1  0  0  0  0
 17 19  1  0  0  0  0
 17 20  1  0  0  0  0
 14 15  1  0  0  0  0
 14 16  1  0  0  0  0
 14 17  1  0  0  0  0
 11 12  1  0  0  0  0
 11 13  1  0  0  0  0
 11 14  1  0  0  0  0
  9 10  1  0  0  0  0
  9 11  1  0  0  0  0
  9 29  1  0  0  0  0
  7  8  1  0  0  0  0
  7  9  1  0  0  0  0
 33 34  1  0  0  0  0
 33 35  1  0  0  0  0
 33 36  1  0  0  0  0
 31 32  1  0  0  0  0
 31 33  1  0  0  0  0
M  CHG  1  20   1
M  END
$$$$
default_name
  -OEChem-02102213163D

 36 35  0     1  0  0  0  0  0999 V2000
   -4.2256   -3.6731    1.8584 H   0  0  0  0  0  0  0  0  0  0  0  0
   -4.2396   -2.6781    1.4144 C   0  0  0  0  0  0  0  0  0  0  0  0
   -4.9506   -2.0521    1.9514 H   0  0  0  0  0  0  0  0  0  0  0  0
   -4.5266   -2.7521    0.3674 H   0  0  0  0  0  0  0  0  0  0  0  0
   -2.8576   -2.0761    1.5184 C   0  0  0  0  0  0  0  0  0  0  0  0
   -1.9456   -2.7051    2.0404 O   0  0  0  0  0  0  0  0  0  0  0  0
   -2.6926   -0.8481    1.0174 N   0  0  0  0  0  0  0  0  0  0  0  0
   -3.4926   -0.3971    0.5954 H   0  0  0  0  0  0  0  0  0  0  0  0
   -1.4216   -0.1071    1.0434 C   0  0  1  0  0  0  0  0  0  0  0  0
   -0.7579   -0.5878    1.7640 H   0  0  0  0  0  0  0  0  0  0  0  0
   -0.7791   -0.1912   -0.3557 C   0  0  0  0  0  0  0  0  0  0  0  0
    0.2683    0.1068   -0.2765 H   0  0  0  0  0  0  0  0  0  0  0  0
   -0.8119   -1.2265   -0.7019 H   0  0  0  0  0  0  0  0  0  0  0  0
   -1.4598    0.7102   -1.3960 C   0  0  0  0  0  0  0  0  0  0  0  0
   -1.1474    0.4168   -2.3992 H   0  0  0  0  0  0  0  0  0  0  0  0
   -2.5419    0.6061   -1.3108 H   0  0  0  0  0  0  0  0  0  0  0  0
   -1.0675    2.1744   -1.1555 C   0  0  0  0  0  0  0  0  0  0  0  0
   -1.3599    2.4514   -0.1400 H   0  0  0  0  0  0  0  0  0  0  0  0
    0.0177    2.2630   -1.2464 H   0  0  0  0  0  0  0  0  0  0  0  0
   -1.7197    3.0826   -2.1211 N   0  3  0  0  0  0  0  0  0  0  0  0
   -2.2882    2.6540   -2.8314 H   0  0  0  0  0  0  0  0  0  0  0  0
   -1.6268    4.4017   -2.1390 C   0  0  0  0  0  0  0  0  0  0  0  0
   -0.9166    5.0585   -1.2652 N   0  0  0  0  0  0  0  0  0  0  0  0
   -0.4262    4.5438   -0.5553 H   0  0  0  0  0  0  0  0  0  0  0  0
   -0.8563    6.0597   -1.2931 H   0  0  0  0  0  0  0  0  0  0  0  0
   -2.2525    5.0950   -3.0474 N   0  0  0  0  0  0  0  0  0  0  0  0
   -2.8129    4.6330   -3.7427 H   0  0  0  0  0  0  0  0  0  0  0  0
   -2.1793    6.0955   -3.0573 H   0  0  0  0  0  0  0  0  0  0  0  0
   -1.6547    1.3413    1.4779 C   0  0  0  0  0  0  0  0  0  0  0  0
   -2.5654    1.9858    0.9716 O   0  0  0  0  0  0  0  0  0  0  0  0
   -0.8107    1.8504    2.3808 N   0  0  0  0  0  0  0  0  0  0  0  0
   -0.1136    1.2381    2.7719 H   0  0  0  0  0  0  0  0  0  0  0  0
   -0.8954    3.2155    2.9026 C   0  0  0  0  0  0  0  0  0  0  0  0
   -1.8299    3.3430    3.4532 H   0  0  0  0  0  0  0  0  0  0  0  0
   -0.0581    3.4194    3.5712 H   0  0  0  0  0  0  0  0  0  0  0  0
   -0.8804    3.9320    2.0784 H   0  0  0  0  0  0  0  0  0  0  0  0
  5  6  2  0  0  0  0
  5  7  1  0  0  0  0
  2  3  1  0  0  0  0
  2  4  1  0  0  0  0
  2  5  1  0  0  0  0
  1  2  1  0  0  0  0
 29 30  2  0  0  0  0
 29 31  1  0  0  0  0
 26 27  1  0  0  0  0
 26 28  1  0  0  0  0
 23 24  1  0  0  0  0
 23 25  1  0  0  0  0
 22 23  1  0  0  0  0
 22 26  1  0  0  0  0
 20 21  1  0  0  0  0
 20 22  2  0  0  0  0
 17 18  1  0  0  0  0
 17 19  1  0  0  0  0
 17 20  1  0  0  0  0
 14 15  1  0  0  0  0
 14 16  1  0  0  0  0
 14 17  1  0  0  0  0
 11 12  1  0  0  0  0
 11 13  1  0  0  0  0
 11 14  1  0  0  0  0
  9 10  1  0  0  0  0
  9 11  1  0  0  0  0
  9 29  1  0  0  0  0
  7  8  1  0  0  0  0
  7  9  1  0  0  0  0
 33 34  1  0  0  0  0
 33 35  1  0  0  0  0
 33 36  1  0  0  0  0
 31 32  1  0  0  0  0
 31 33  1  0  0  0  0
M  CHG  1  20   1
M  END
$$$$
default_name
  -OEChem-02102213163D

 36 35  0     1  0  0  0  0  0999 V2000
   -4.2256   -3.6731    1.8584 H   0  0  0  0  0  0  0  0  0  0  0  0
   -4.2396   -2.6781    1.4144 C   0  0  0  0  0  0  0  0  0  0  0  0
   -4.9506   -2.0521    1.9514 H   0  0  0  0  0  0  0  0  0  0  0  0
   -4.5266   -2.7521    0.3674 H   0  0  0  0  0  0  0  0  0  0  0  0
   -2.8576   -2.0761    1.5184 C   0  0  0  0  0  0  0  0  0  0  0  0
   -1.9456   -2.7051    2.0404 O   0  0  0  0  0  0  0  0  0  0  0  0
   -2.6926   -0.8481    1.0174 N   0  0  0  0  0  0  0  0  0  0  0  0
   -3.4926   -0.3971    0.5954 H   0  0  0  0  0  0  0  0  0  0  0  0
   -1.4216   -0.1071    1.0434 C   0  0  1  0  0  0  0  0  0  0  0  0
   -0.7579   -0.5878    1.7640 H   0  0  0  0  0  0  0  0  0  0  0  0
   -0.7791   -0.1912   -0.3557 C   0  0  0  0  0  0  0  0  0  0  0  0
    0.2683    0.1068   -0.2765 H   0  0  0  0  0  0  0  0  0  0  0  0
   -0.8119   -1.2265   -0.7019 H   0  0  0  0  0  0  0  0  0  0  0  0
   -1.4598    0.7102   -1.3960 C   0  0  0  0  0  0  0  0  0  0  0  0
   -1.3674    0.2643   -2.3874 H   0  0  0  0  0  0  0  0  0  0  0  0
   -2.5158    0.8164   -1.1457 H   0  0  0  0  0  0  0  0  0  0  0  0
   -0.7955    2.0937   -1.4033 C   0  0  0  0  0  0  0  0  0  0  0  0
   -0.8691    2.5211   -0.4007 H   0  0  0  0  0  0  0  0  0  0  0  0
    0.2600    1.9712   -1.6577 H   0  0  0  0  0  0  0  0  0  0  0  0
   -1.4352    3.0041   -2.3753 N   0  3  0  0  0  0  0  0  0  0  0  0
   -2.1747    2.6179   -2.9369 H   0  0  0  0  0  0  0  0  0  0  0  0
   -1.1281    4.2748   -2.5752 C   0  0  0  0  0  0  0  0  0  0  0  0
   -0.1863    4.8745   -1.9023 N   0  0  0  0  0  0  0  0  0  0  0  0
    0.3201    4.3528   -1.2090 H   0  0  0  0  0  0  0  0  0  0  0  0
    0.0344    5.8394   -2.0667 H   0  0  0  0  0  0  0  0  0  0  0  0
   -1.7685    4.9760   -3.4671 N   0  0  0  0  0  0  0  0  0  0  0  0
   -2.5033    4.5572   -4.0109 H   0  0  0  0  0  0  0  0  0  0  0  0
   -1.5324    5.9397   -3.6156 H   0  0  0  0  0  0  0  0  0  0  0  0
   -1.6547    1.3413    1.4779 C   0  0  0  0  0  0  0  0  0  0  0  0
   -2.5654    1.9858    0.9716 O   0  0  0  0  0  0  0  0  0  0  0  0
   -0.8107    1.8504    2.3808 N   0  0  0  0  0  0  0  0  0  0  0  0
   -0.1136    1.2381    2.7719 H   0  0  0  0  0  0  0  0  0  0  0  0
   -0.8954    3.2155    2.9026 C   0  0  0  0  0  0  0  0  0  0  0  0
   -1.8299    3.3430    3.4532 H   0  0  0  0  0  0  0  0  0  0  0  0
   -0.0581    3.4194    3.5712 H   0  0  0  0  0  0  0  0  0  0  0  0
   -0.8804    3.9320    2.0784 H   0  0  0  0  0  0  0  0  0  0  0  0
  5  6  2  0  0  0  0
  5  7  1  0  0  0  0
  2  3  1  0  0  0  0
  2  4  1  0  0  0  0
  2  5  1  0  0  0  0
  1  2  1  0  0  0  0
 29 30  2  0  0  0  0
 29 31  1  0  0  0  0
 26 27  1  0  0  0  0
 26 28  1  0  0  0  0
 23 24  1  0  0  0  0
 23 25  1  0  0  0  0
 22 23  1  0  0  0  0
 22 26  1  0  0  0  0
 20 21  1  0  0  0  0
 20 22  2  0  0  0  0
 17 18  1  0  0  0  0
 17 19  1  0  0  0  0
 17 20  1  0  0  0  0
 14 15  1  0  0  0  0
 14 16  1  0  0  0  0
 14 17  1  0  0  0  0
 11 12  1  0  0  0  0
 11 13  1  0  0  0  0
 11 14  1  0  0  0  0
  9 10  1  0  0  0  0
  9 11  1  0  0  0  0
  9 29  1  0  0  0  0
  7  8  1  0  0  0  0
  7  9  1  0  0  0  0
 33 34  1  0  0  0  0
 33 35  1  0  0  0  0
 33 36  1  0  0  0  0
 31 32  1  0  0  0  0
 31 33  1  0  0  0  0
M  CHG  1  20   1
M  END
$$$$
default_name
  -OEChem-02102213163D

 36 35  0     1  0  0  0  0  0999 V2000
   -4.2256   -3.6731    1.8584 H   0  0  0  0  0  0  0  0  0  0  0  0
   -4.2396   -2.6781    1.4144 C   0  0  0  0  0  0  0  0  0  0  0  0
   -4.9506   -2.0521    1.9514 H   0  0  0  0  0  0  0  0  0  0  0  0
   -4.5266   -2.7521    0.3674 H   0  0  0  0  0  0  0  0  0  0  0  0
   -2.8576   -2.0761    1.5184 C   0  0  0  0  0  0  0  0  0  0  0  0
   -1.9456   -2.7051    2.0404 O   0  0  0  0  0  0  0  0  0  0  0  0
   -2.6926   -0.8481    1.0174 N   0  0  0  0  0  0  0  0  0  0  0  0
   -3.4926   -0.3971    0.5954 H   0  0  0  0  0  0  0  0  0  0  0  0
   -1.4216   -0.1071    1.0434 C   0  0  1  0  0  0  0  0  0  0  0  0
   -0.7579   -0.5878    1.7640 H   0  0  0  0  0  0  0  0  0  0  0  0
   -0.7791   -0.1912   -0.3557 C   0  0  0  0  0  0  0  0  0  0  0  0
    0.2683    0.1068   -0.2765 H   0  0  0  0  0  0  0  0  0  0  0  0
   -0.8119   -1.2265   -0.7019 H   0  0  0  0  0  0  0  0  0  0  0  0
   -1.4598    0.7102   -1.3960 C   0  0  0  0  0  0  0  0  0  0  0  0
   -1.6049    0.1570   -2.3250 H   0  0  0  0  0  0  0  0  0  0  0  0
   -2.4286    1.0338   -1.0143 H   0  0  0  0  0  0  0  0  0  0  0  0
   -0.5845    1.9397   -1.6748 C   0  0  0  0  0  0  0  0  0  0  0  0
   -0.4224    2.4726   -0.7350 H   0  0  0  0  0  0  0  0  0  0  0  0
    0.3804    1.5998   -2.0583 H   0  0  0  0  0  0  0  0  0  0  0  0
   -1.2128    2.8493   -2.6549 N   0  3  0  0  0  0  0  0  0  0  0  0
   -2.0873    2.5511   -3.0519 H   0  0  0  0  0  0  0  0  0  0  0  0
   -0.7349    4.0148   -3.0577 C   0  0  0  0  0  0  0  0  0  0  0  0
    0.3900    4.4957   -2.6076 N   0  0  0  0  0  0  0  0  0  0  0  0
    0.9081    3.9625   -1.9318 H   0  0  0  0  0  0  0  0  0  0  0  0
    0.7387    5.3818   -2.9240 H   0  0  0  0  0  0  0  0  0  0  0  0
   -1.3857    4.7281   -3.9324 N   0  0  0  0  0  0  0  0  0  0  0  0
   -2.2583    4.3989   -4.3083 H   0  0  0  0  0  0  0  0  0  0  0  0
   -1.0197    5.6118   -4.2352 H   0  0  0  0  0  0  0  0  0  0  0  0
   -1.6547    1.3413    1.4779 C   0  0  0  0  0  0  0  0  0  0  0  0
   -2.5654    1.9858    0.9716 O   0  0  0  0  0  0  0  0  0  0  0  0
   -0.8107    1.8504    2.3808 N   0  0  0  0  0  0  0  0  0  0  0  0
   -0.1136    1.2381    2.7719 H   0  0  0  0  0  0  0  0  0  0  0  0
   -0.8954    3.2155    2.9026 C   0  0  0  0  0  0  0  0  0  0  0  0
   -1.8299    3.3430    3.4532 H   0  0  0  0  0  0  0  0  0  0  0  0
   -0.0581    3.4194    3.5712 H   0  0  0  0  0  0  0  0  0  0  0  0
   -0.8804    3.9320    2.0784 H   0  0  0  0  0  0  0  0  0  0  0  0
  5  6  2  0  0  0  0
  5  7  1  0  0  0  0
  2  3  1  0  0  0  0
  2  4  1  0  0  0  0
  2  5  1  0  0  0  0
  1  2  1  0  0  0  0
 29 30  2  0  0  0  0
 29 31  1  0  0  0  0
 26 27  1  0  0  0  0
 26 28  1  0  0  0  0
 23 24  1  0  0  0  0
 23 25  1  0  0  0  0
 22 23  1  0  0  0  0
 22 26  1  0  0  0  0
 20 21  1  0  0  0  0
 20 22  2  0  0  0  0
 17 18  1  0  0  0  0
 17 19  1  0  0  0  0
 17 20  1  0  0  0  0
 14 15  1  0  0  0  0
 14 16  1  0  0  0  0
 14 17  1  0  0  0  0
 11 12  1  0  0  0  0
 11 13  1  0  0  0  0
 11 14  1  0  0  0  0
  9 10  1  0  0  0  0
  9 11  1  0  0  0  0
  9 29  1  0  0  0  0
  7  8  1  0  0  0  0
  7  9  1  0  0  0  0
 33 34  1  0  0  0  0
 33 35  1  0  0  0  0
 33 36  1  0  0  0  0
 31 32  1  0  0  0  0
 31 33  1  0  0  0  0
M  CHG  1  20   1
M  END
$$$$
default_name
  -OEChem-02102213163D

 36 35  0     1  0  0  0  0  0999 V2000
   -4.2256   -3.6731    1.8584 H   0  0  0  0  0  0  0  0  0  0  0  0
   -4.2396   -2.6781    1.4144 C   0  0  0  0  0  0  0  0  0  0  0  0
   -4.9506   -2.0521    1.9514 H   0  0  0  0  0  0  0  0  0  0  0  0
   -4.5266   -2.7521    0.3674 H   0  0  0  0  0  0  0  0  0  0  0  0
   -2.8576   -2.0761    1.5184 C   0  0  0  0  0  0  0  0  0  0  0  0
   -1.9456   -2.7051    2.0404 O   0  0  0  0  0  0  0  0  0  0  0  0
   -2.6926   -0.8481    1.0174 N   0  0  0  0  0  0  0  0  0  0  0  0
   -3.4926   -0.3971    0.5954 H   0  0  0  0  0  0  0  0  0  0  0  0
   -1.4216   -0.1071    1.0434 C   0  0  1  0  0  0  0  0  0  0  0  0
   -0.7579   -0.5878    1.7640 H   0  0  0  0  0  0  0  0  0  0  0  0
   -0.7791   -0.1912   -0.3557 C   0  0  0  0  0  0  0  0  0  0  0  0
    0.2683    0.1068   -0.2765 H   0  0  0  0  0  0  0  0  0  0  0  0
   -0.8119   -1.2265   -0.7019 H   0  0  0  0  0  0  0  0  0  0  0  0
   -1.4598    0.7102   -1.3960 C   0  0  0  0  0  0  0  0  0  0  0  0
   -1.8437    0.1021   -2.2163 H   0  0  0  0  0  0  0  0  0  0  0  0
   -2.2863    1.2437   -0.9256 H   0  0  0  0  0  0  0  0  0  0  0  0
   -0.4490    1.7228   -1.9514 C   0  0  0  0  0  0  0  0  0  0  0  0
   -0.0502    2.3090   -1.1202 H   0  0  0  0  0  0  0  0  0  0  0  0
    0.3707    1.1739   -2.4209 H   0  0  0  0  0  0  0  0  0  0  0  0
   -1.0676    2.6286   -2.9411 N   0  3  0  0  0  0  0  0  0  0  0  0
   -2.0322    2.4581   -3.1686 H   0  0  0  0  0  0  0  0  0  0  0  0
   -0.4741    3.6394   -3.5537 C   0  0  0  0  0  0  0  0  0  0  0  0
    0.7731    3.9478   -3.3329 N   0  0  0  0  0  0  0  0  0  0  0  0
    1.2979    3.3994   -2.6746 H   0  0  0  0  0  0  0  0  0  0  0  0
    1.2085    4.7179   -3.8066 H   0  0  0  0  0  0  0  0  0  0  0  0
   -1.1301    4.3681   -4.4115 N   0  0  0  0  0  0  0  0  0  0  0  0
   -2.0945    4.1690   -4.6146 H   0  0  0  0  0  0  0  0  0  0  0  0
   -0.6761    5.1340   -4.8739 H   0  0  0  0  0  0  0  0  0  0  0  0
   -1.6547    1.3413    1.4779 C   0  0  0  0  0  0  0  0  0  0  0  0
   -2.5654    1.9858    0.9716 O   0  0  0  0  0  0  0  0  0  0  0  0
   -0.8107    1.8504    2.3808 N   0  0  0  0  0  0  0  0  0  0  0  0
   -0.1136    1.2381    2.7719 H   0  0  0  0  0  0  0  0  0  0  0  0
   -0.8954    3.2155    2.9026 C   0  0  0  0  0  0  0  0  0  0  0  0
   -1.8299    3.3430    3.4532 H   0  0  0  0  0  0  0  0  0  0  0  0
   -0.0581    3.4194    3.5712 H   0  0  0  0  0  0  0  0  0  0  0  0
   -0.8804    3.9320    2.0784 H   0  0  0  0  0  0  0  0  0  0  0  0
  5  6  2  0  0  0  0
  5  7  1  0  0  0  0
  2  3  1  0  0  0  0
  2  4  1  0  0  0  0
  2  5  1  0  0  0  0
  1  2  1  0  0  0  0
 29 30  2  0  0  0  0
 29 31  1  0  0  0  0
 26 27  1  0  0  0  0
 26 28  1  0  0  0  0
 23 24  1  0  0  0  0
 23 25  1  0  0  0  0
 22 23  1  0  0  0  0
 22 26  1  0  0  0  0
 20 21  1  0  0  0  0
 20 22  2  0  0  0  0
 17 18  1  0  0  0  0
 17 19  1  0  0  0  0
 17 20  1  0  0  0  0
 14 15  1  0  0  0  0
 14 16  1  0  0  0  0
 14 17  1  0  0  0  0
 11 12  1  0  0  0  0
 11 13  1  0  0  0  0
 11 14  1  0  0  0  0
  9 10  1  0  0  0  0
  9 11  1  0  0  0  0
  9 29  1  0  0  0  0
  7  8  1  0  0  0  0
  7  9  1  0  0  0  0
 33 34  1  0  0  0  0
 33 35  1  0  0  0  0
 33 36  1  0  0  0  0
 31 32  1  0  0  0  0
 31 33  1  0  0  0  0
M  CHG  1  20   1
M  END
$$$$
default_name
  -OEChem-02102213163D

 36 35  0     1  0  0  0  0  0999 V2000
   -4.2256   -3.6731    1.8584 H   0  0  0  0  0  0  0  0  0  0  0  0
   -4.2396   -2.6781    1.4144 C   0  0  0  0  0  0  0  0  0  0  0  0
   -4.9506   -2.0521    1.9514 H   0  0  0  0  0  0  0  0  0  0  0  0
   -4.5266   -2.7521    0.3674 H   0  0  0  0  0  0  0  0  0  0  0  0
   -2.8576   -2.0761    1.5184 C   0  0  0  0  0  0  0  0  0  0  0  0
   -1.9456   -2.7051    2.0404 O   0  0  0  0  0  0  0  0  0  0  0  0
   -2.6926   -0.8481    1.0174 N   0  0  0  0  0  0  0  0  0  0  0  0
   -3.4926   -0.3971    0.5954 H   0  0  0  0  0  0  0  0  0  0  0  0
   -1.4216   -0.1071    1.0434 C   0  0  1  0  0  0  0  0  0  0  0  0
   -0.7579   -0.5878    1.7640 H   0  0  0  0  0  0  0  0  0  0  0  0
   -0.7791   -0.1912   -0.3557 C   0  0  0  0  0  0  0  0  0  0  0  0
    0.2683    0.1068   -0.2765 H   0  0  0  0  0  0  0  0  0  0  0  0
   -0.8119   -1.2265   -0.7019 H   0  0  0  0  0  0  0  0  0  0  0  0
   -1.4598    0.7102   -1.3960 C   0  0  0  0  0  0  0  0  0  0  0  0
   -2.0674    0.1034   -2.0688 H   0  0  0  0  0  0  0  0  0  0  0  0
   -2.0986    1.4317   -0.8856 H   0  0  0  0  0  0  0  0  0  0  0  0
   -0.3981    1.4578   -2.2142 C   0  0  0  0  0  0  0  0  0  0  0  0
    0.2221    2.0415   -1.5301 H   0  0  0  0  0  0  0  0  0  0  0  0
    0.2316    0.7227   -2.7209 H   0  0  0  0  0  0  0  0  0  0  0  0
   -1.0094    2.3572   -3.2143 N   0  3  0  0  0  0  0  0  0  0  0  0
   -2.0129    2.3452   -3.2790 H   0  0  0  0  0  0  0  0  0  0  0  0
   -0.3633    3.1741   -4.0293 C   0  0  0  0  0  0  0  0  0  0  0  0
    0.9369    3.2682   -4.0289 N   0  0  0  0  0  0  0  0  0  0  0  0
    1.4627    2.7020   -3.3868 H   0  0  0  0  0  0  0  0  0  0  0  0
    1.4117    3.8929   -4.6543 H   0  0  0  0  0  0  0  0  0  0  0  0
   -1.0191    3.9206   -4.8718 N   0  0  0  0  0  0  0  0  0  0  0  0
   -2.0232    3.8830   -4.9090 H   0  0  0  0  0  0  0  0  0  0  0  0
   -0.5250    4.5389   -5.4883 H   0  0  0  0  0  0  0  0  0  0  0  0
   -1.6547    1.3413    1.4779 C   0  0  0  0  0  0  0  0  0  0  0  0
   -2.5654    1.9858    0.9716 O   0  0  0  0  0  0  0  0  0  0  0  0
   -0.8107    1.8504    2.3808 N   0  0  0  0  0  0  0  0  0  0  0  0
   -0.1136    1.2381    2.7719 H   0  0  0  0  0  0  0  0  0  0  0  0
   -0.8954    3.2155    2.9026 C   0  0  0  0  0  0  0  0  0  0  0  0
   -1.8299    3.3430    3.4532 H   0  0  0  0  0  0  0  0  0  0  0  0
   -0.0581    3.4194    3.5712 H   0  0  0  0  0  0  0  0  0  0  0  0
   -0.8804    3.9320    2.0784 H   0  0  0  0  0  0  0  0  0  0  0  0
  5  6  2  0  0  0  0
  5  7  1  0  0  0  0
  2  3  1  0  0  0  0
  2  4  1  0  0  0  0
  2  5  1  0  0  0  0
  1  2  1  0  0  0  0
 29 30  2  0  0  0  0
 29 31  1  0  0  0  0
 26 27  1  0  0  0  0
 26 28  1  0  0  0  0
 23 24  1  0  0  0  0
 23 25  1  0  0  0  0
 22 23  1  0  0  0  0
 22 26  1  0  0  0  0
 20 21  1  0  0  0  0
 20 22  2  0  0  0  0
 17 18  1  0  0  0  0
 17 19  1  0  0  0  0
 17 20  1  0  0  0  0
 14 15  1  0  0  0  0
 14 16  1  0  0  0  0
 14 17  1  0  0  0  0
 11 12  1  0  0  0  0
 11 13  1  0  0  0  0
 11 14  1  0  0  0  0
  9 10  1  0  0  0  0
  9 11  1  0  0  0  0
  9 29  1  0  0  0  0
  7  8  1  0  0  0  0
  7  9  1  0  0  0  0
 33 34  1  0  0  0  0
 33 35  1  0  0  0  0
 33 36  1  0  0  0  0
 31 32  1  0  0  0  0
 31 33  1  0  0  0  0
M  CHG  1  20   1
M  END
$$$$
default_name
  -OEChem-02102213163D

 36 35  0     1  0  0  0  0  0999 V2000
   -4.2256   -3.6731    1.8584 H   0  0  0  0  0  0  0  0  0  0  0  0
   -4.2396   -2.6781    1.4144 C   0  0  0  0  0  0  0  0  0  0  0  0
   -4.9506   -2.0521    1.9514 H   0  0  0  0  0  0  0  0  0  0  0  0
   -4.5266   -2.7521    0.3674 H   0  0  0  0  0  0  0  0  0  0  0  0
   -2.8576   -2.0761    1.5184 C   0  0  0  0  0  0  0  0  0  0  0  0
   -1.9456   -2.7051    2.0404 O   0  0  0  0  0  0  0  0  0  0  0  0
   -2.6926   -0.8481    1.0174 N   0  0  0  0  0  0  0  0  0  0  0  0
   -3.4926   -0.3971    0.5954 H   0  0  0  0  0  0  0  0  0  0  0  0
   -1.4216   -0.1071    1.0434 C   0  0  1  0  0  0  0  0  0  0  0  0
   -0.7579   -0.5878    1.7640 H   0  0  0  0  0  0  0  0  0  0  0  0
   -0.7791   -0.1912   -0.3557 C   0  0  0  0  0  0  0  0  0  0  0  0
    0.2683    0.1068   -0.2765 H   0  0  0  0  0  0  0  0  0  0  0  0
   -0.8119   -1.2265   -0.7019 H   0  0  0  0  0  0  0  0  0  0  0  0
   -1.4598    0.7102   -1.3960 C   0  0  0  0  0  0  0  0  0  0  0  0
   -2.2609    0.1608   -1.8925 H   0  0  0  0  0  0  0  0  0  0  0  0
   -1.8782    1.5849   -0.8970 H   0  0  0  0  0  0  0  0  0  0  0  0
   -0.4354    1.1628   -2.4455 C   0  0  0  0  0  0  0  0  0  0  0  0
    0.3759    1.6884   -1.9367 H   0  0  0  0  0  0  0  0  0  0  0  0
   -0.0274    0.2768   -2.9377 H   0  0  0  0  0  0  0  0  0  0  0  0
   -1.0424    2.0535   -3.4558 N   0  3  0  0  0  0  0  0  0  0  0  0
   -2.0309    2.2200   -3.3757 H   0  0  0  0  0  0  0  0  0  0  0  0
   -0.4101    2.6506   -4.4522 C   0  0  0  0  0  0  0  0  0  0  0  0
    0.8702    2.5032   -4.6480 N   0  0  0  0  0  0  0  0  0  0  0  0
    1.3915    1.9178   -4.0196 H   0  0  0  0  0  0  0  0  0  0  0  0
    1.3347    2.9632   -5.4093 H   0  0  0  0  0  0  0  0  0  0  0  0
   -1.0603    3.4160   -5.2820 N   0  0  0  0  0  0  0  0  0  0  0  0
   -2.0492    3.5605   -5.1714 H   0  0  0  0  0  0  0  0  0  0  0  0
   -0.5767    3.8672   -6.0364 H   0  0  0  0  0  0  0  0  0  0  0  0
   -1.6547    1.3413    1.4779 C   0  0  0  0  0  0  0  0  0  0  0  0
   -2.5654    1.9858    0.9716 O   0  0  0  0  0  0  0  0  0  0  0  0
   -0.8107    1.8504    2.3808 N   0  0  0  0  0  0  0  0  0  0  0  0
   -0.1136    1.2381    2.7719 H   0  0  0  0  0  0  0  0  0  0  0  0
   -0.8954    3.2155    2.9026 C   0  0  0  0  0  0  0  0  0  0  0  0
   -1.8299    3.3430    3.4532 H   0  0  0  0  0  0  0  0  0  0  0  0
   -0.0581    3.4194    3.5712 H   0  0  0  0  0  0  0  0  0  0  0  0
   -0.8804    3.9320    2.0784 H   0  0  0  0  0  0  0  0  0  0  0  0
  5  6  2  0  0  0  0
  5  7  1  0  0  0  0
  2  3  1  0  0  0  0
  2  4  1  0  0  0  0
  2  5  1  0  0  0  0
  1  2  1  0  0  0  0
 29 30  2  0  0  0  0
 29 31  1  0  0  0  0
 26 27  1  0  0  0  0
 26 28  1  0  0  0  0
 23 24  1  0  0  0  0
 23 25  1  0  0  0  0
 22 23  1  0  0  0  0
 22 26  1  0  0  0  0
 20 21  1  0  0  0  0
 20 22  2  0  0  0  0
 17 18  1  0  0  0  0
 17 19  1  0  0  0  0
 17 20  1  0  0  0  0
 14 15  1  0  0  0  0
 14 16  1  0  0  0  0
 14 17  1  0  0  0  0
 11 12  1  0  0  0  0
 11 13  1  0  0  0  0
 11 14  1  0  0  0  0
  9 10  1  0  0  0  0
  9 11  1  0  0  0  0
  9 29  1  0  0  0  0
  7  8  1  0  0  0  0
  7  9  1  0  0  0  0
 33 34  1  0  0  0  0
 33 35  1  0  0  0  0
 33 36  1  0  0  0  0
 31 32  1  0  0  0  0
 31 33  1  0  0  0  0
M  CHG  1  20   1
M  END
$$$$
default_name
  -OEChem-02102213163D

 36 35  0     1  0  0  0  0  0999 V2000
   -4.2256   -3.6731    1.8584 H   0  0  0  0  0  0  0  0  0  0  0  0
   -4.2396   -2.6781    1.4144 C   0  0  0  0  0  0  0  0  0  0  0  0
   -4.9506   -2.0521    1.9514 H   0  0  0  0  0  0  0  0  0  0  0  0
   -4.5266   -2.7521    0.3674 H   0  0  0  0  0  0  0  0  0  0  0  0
   -2.8576   -2.0761    1.5184 C   0  0  0  0  0  0  0  0  0  0  0  0
   -1.9456   -2.7051    2.0404 O   0  0  0  0  0  0  0  0  0  0  0  0
   -2.6926   -0.8481    1.0174 N   0  0  0  0  0  0  0  0  0  0  0  0
   -3.4926   -0.3971    0.5954 H   0  0  0  0  0  0  0  0  0  0  0  0
   -1.4216   -0.1071    1.0434 C   0  0  1  0  0  0  0  0  0  0  0  0
   -0.7579   -0.5878    1.7640 H   0  0  0  0  0  0  0  0  0  0  0  0
   -0.7791   -0.1912   -0.3557 C   0  0  0  0  0  0  0  0  0  0  0  0
    0.2683    0.1068   -0.2765 H   0  0  0  0  0  0  0  0  0  0  0  0
   -0.8119   -1.2265   -0.7019 H   0  0  0  0  0  0  0  0  0  0  0  0
   -1.4598    0.7102   -1.3960 C   0  0  0  0  0  0  0  0  0  0  0  0
   -2.4109    0.2704   -1.6993 H   0  0  0  0  0  0  0  0  0  0  0  0
   -1.6402    1.6929   -0.9591 H   0  0  0  0  0  0  0  0  0  0  0  0
   -0.5583    0.8578   -2.6293 C   0  0  0  0  0  0  0  0  0  0  0  0
    0.4009    1.2737   -2.3123 H   0  0  0  0  0  0  0  0  0  0  0  0
   -0.3888   -0.1334   -3.0566 H   0  0  0  0  0  0  0  0  0  0  0  0
   -1.1642    1.7382   -3.6493 N   0  3  0  0  0  0  0  0  0  0  0  0
   -2.0849    2.0912   -3.4519 H   0  0  0  0  0  0  0  0  0  0  0  0
   -0.6113    2.1047   -4.7934 C   0  0  0  0  0  0  0  0  0  0  0  0
    0.5776    1.7049   -5.1482 N   0  0  0  0  0  0  0  0  0  0  0  0
    1.0891    1.1001   -4.5302 H   0  0  0  0  0  0  0  0  0  0  0  0
    0.9825    1.9921   -6.0203 H   0  0  0  0  0  0  0  0  0  0  0  0
   -1.2509    2.8889   -5.6140 N   0  0  0  0  0  0  0  0  0  0  0  0
   -2.1707    3.2235   -5.3840 H   0  0  0  0  0  0  0  0  0  0  0  0
   -0.8278    3.1645   -6.4809 H   0  0  0  0  0  0  0  0  0  0  0  0
   -1.6547    1.3413    1.4779 C   0  0  0  0  0  0  0  0  0  0  0  0
   -2.5654    1.9858    0.9716 O   0  0  0  0  0  0  0  0  0  0  0  0
   -0.8107    1.8504    2.3808 N   0  0  0  0  0  0  0  0  0  0  0  0
   -0.1136    1.2381    2.7719 H   0  0  0  0  0  0  0  0  0  0  0  0
   -0.8954    3.2155    2.9026 C   0  0  0  0  0  0  0  0  0  0  0  0
   -1.8299    3.3430    3.4532 H   0  0  0  0  0  0  0  0  0  0  0  0
   -0.0581    3.4194    3.5712 H   0  0  0  0  0  0  0  0  0  0  0  0
   -0.8804    3.9320    2.0784 H   0  0  0  0  0  0  0  0  0  0  0  0
  5  6  2  0  0  0  0
  5  7  1  0  0  0  0
  2  3  1  0  0  0  0
  2  4  1  0  0  0  0
  2  5  1  0  0  0  0
  1  2  1  0  0  0  0
 29 30  2  0  0  0  0
 29 31  1  0  0  0  0
 26 27  1  0  0  0  0
 26 28  1  0  0  0  0
 23 24  1  0  0  0  0
 23 25  1  0  0  0  0
 22 23  1  0  0  0  0
 22 26  1  0  0  0  0
 20 21  1  0  0  0  0
 20 22  2  0  0  0  0
 17 18  1  0  0  0  0
 17 19  1  0  0  0  0
 17 20  1  0  0  0  0
 14 15  1  0  0  0  0
 14 16  1  0  0  0  0
 14 17  1  0  0  0  0
 11 12  1  0  0  0  0
 11 13  1  0  0  0  0
 11 14  1  0  0  0  0
  9 10  1  0  0  0  0
  9 11  1  0  0  0  0
  9 29  1  0  0  0  0
  7  8  1  0  0  0  0
  7  9  1  0  0  0  0
 33 34  1  0  0  0  0
 33 35  1  0  0  0  0
 33 36  1  0  0  0  0
 31 32  1  0  0  0  0
 31 33  1  0  0  0  0
M  CHG  1  20   1
M  END
$$$$
default_name
  -OEChem-02102213163D

 36 35  0     1  0  0  0  0  0999 V2000
   -4.2256   -3.6731    1.8584 H   0  0  0  0  0  0  0  0  0  0  0  0
   -4.2396   -2.6781    1.4144 C   0  0  0  0  0  0  0  0  0  0  0  0
   -4.9506   -2.0521    1.9514 H   0  0  0  0  0  0  0  0  0  0  0  0
   -4.5266   -2.7521    0.3674 H   0  0  0  0  0  0  0  0  0  0  0  0
   -2.8576   -2.0761    1.5184 C   0  0  0  0  0  0  0  0  0  0  0  0
   -1.9456   -2.7051    2.0404 O   0  0  0  0  0  0  0  0  0  0  0  0
   -2.6926   -0.8481    1.0174 N   0  0  0  0  0  0  0  0  0  0  0  0
   -3.4926   -0.3971    0.5954 H   0  0  0  0  0  0  0  0  0  0  0  0
   -1.4216   -0.1071    1.0434 C   0  0  1  0  0  0  0  0  0  0  0  0
   -0.7579   -0.5878    1.7640 H   0  0  0  0  0  0  0  0  0  0  0  0
   -0.7791   -0.1912   -0.3557 C   0  0  0  0  0  0  0  0  0  0  0  0
    0.3064   -0.1586   -0.2431 H   0  0  0  0  0  0  0  0  0  0  0  0
   -1.0440   -1.1469   -0.8132 H   0  0  0  0  0  0  0  0  0  0  0  0
   -1.2016    0.9504   -1.2919 C   0  0  0  0  0  0  0  0  0  0  0  0
   -2.2835    0.9328   -1.4303 H   0  0  0  0  0  0  0  0  0  0  0  0
   -0.9101    1.9046   -0.8517 H   0  0  0  0  0  0  0  0  0  0  0  0
   -0.5176    0.7876   -2.6561 C   0  0  0  0  0  0  0  0  0  0  0  0
    0.5643    0.7795   -2.5050 H   0  0  0  0  0  0  0  0  0  0  0  0
   -0.8208   -0.1704   -3.0849 H   0  0  0  0  0  0  0  0  0  0  0  0
   -0.8774    1.8797   -3.5838 N   0  3  0  0  0  0  0  0  0  0  0  0
   -1.5418    2.5563   -3.2489 H   0  0  0  0  0  0  0  0  0  0  0  0
   -0.4092    2.0508   -4.8087 C   0  0  0  0  0  0  0  0  0  0  0  0
    0.4555    1.2332   -5.3408 N   0  0  0  0  0  0  0  0  0  0  0  0
    0.7761    0.4493   -4.8003 H   0  0  0  0  0  0  0  0  0  0  0  0
    0.8005    1.3772   -6.2720 H   0  0  0  0  0  0  0  0  0  0  0  0
   -0.8065    3.0588   -5.5322 N   0  0  0  0  0  0  0  0  0  0  0  0
   -1.4723    3.7166   -5.1649 H   0  0  0  0  0  0  0  0  0  0  0  0
   -0.4488    3.1849   -6.4610 H   0  0  0  0  0  0  0  0  0  0  0  0
   -1.6547    1.3413    1.4779 C   0  0  0  0  0  0  0  0  0  0  0  0
   -2.5654    1.9858    0.9716 O   0  0  0  0  0  0  0  0  0  0  0  0
   -0.8107    1.8504    2.3808 N   0  0  0  0  0  0  0  0  0  0  0  0
   -0.1136    1.2381    2.7719 H   0  0  0  0  0  0  0  0  0  0  0  0
   -0.8954    3.2155    2.9026 C   0  0  0  0  0  0  0  0  0  0  0  0
   -1.8299    3.3430    3.4532 H   0  0  0  0  0  0  0  0  0  0  0  0
   -0.0581    3.4194    3.5712 H   0  0  0  0  0  0  0  0  0  0  0  0
   -0.8804    3.9320    2.0784 H   0  0  0  0  0  0  0  0  0  0  0  0
  5  6  2  0  0  0  0
  5  7  1  0  0  0  0
  2  3  1  0  0  0  0
  2  4  1  0  0  0  0
  2  5  1  0  0  0  0
  1  2  1  0  0  0  0
 29 30  2  0  0  0  0
 29 31  1  0  0  0  0
 26 27  1  0  0  0  0
 26 28  1  0  0  0  0
 23 24  1  0  0  0  0
 23 25  1  0  0  0  0
 22 23  1  0  0  0  0
 22 26  1  0  0  0  0
 20 21  1  0  0  0  0
 20 22  2  0  0  0  0
 17 18  1  0  0  0  0
 17 19  1  0  0  0  0
 17 20  1  0  0  0  0
 14 15  1  0  0  0  0
 14 16  1  0  0  0  0
 14 17  1  0  0  0  0
 11 12  1  0  0  0  0
 11 13  1  0  0  0  0
 11 14  1  0  0  0  0
  9 10  1  0  0  0  0
  9 11  1  0  0  0  0
  9 29  1  0  0  0  0
  7  8  1  0  0  0  0
  7  9  1  0  0  0  0
 33 34  1  0  0  0  0
 33 35  1  0  0  0  0
 33 36  1  0  0  0  0
 31 32  1  0  0  0  0
 31 33  1  0  0  0  0
M  CHG  1  20   1
M  END
$$$$
default_name
  -OEChem-02102213163D

 36 35  0     1  0  0  0  0  0999 V2000
   -4.2256   -3.6731    1.8584 H   0  0  0  0  0  0  0  0  0  0  0  0
   -4.2396   -2.6781    1.4144 C   0  0  0  0  0  0  0  0  0  0  0  0
   -4.9506   -2.0521    1.9514 H   0  0  0  0  0  0  0  0  0  0  0  0
   -4.5266   -2.7521    0.3674 H   0  0  0  0  0  0  0  0  0  0  0  0
   -2.8576   -2.0761    1.5184 C   0  0  0  0  0  0  0  0  0  0  0  0
   -1.9456   -2.7051    2.0404 O   0  0  0  0  0  0  0  0  0  0  0  0
   -2.6926   -0.8481    1.0174 N   0  0  0  0  0  0  0  0  0  0  0  0
   -3.4926   -0.3971    0.5954 H   0  0  0  0  0  0  0  0  0  0  0  0
   -1.4216   -0.1071    1.0434 C   0  0  1  0  0  0  0  0  0  0  0  0
   -0.7579   -0.5878    1.7640 H   0  0  0  0  0  0  0  0  0  0  0  0
   -0.7791   -0.1912   -0.3557 C   0  0  0  0  0  0  0  0  0  0  0  0
    0.3064   -0.1586   -0.2431 H   0  0  0  0  0  0  0  0  0  0  0  0
   -1.0440   -1.1469   -0.8132 H   0  0  0  0  0  0  0  0  0  0  0  0
   -1.2016    0.9504   -1.2919 C   0  0  0  0  0  0  0  0  0  0  0  0
   -2.2795    1.1037   -1.2238 H   0  0  0  0  0  0  0  0  0  0  0  0
   -0.6882    1.8666   -0.9982 H   0  0  0  0  0  0  0  0  0  0  0  0
   -0.8340    0.6013   -2.7405 C   0  0  0  0  0  0  0  0  0  0  0  0
    0.2426    0.4236   -2.7939 H   0  0  0  0  0  0  0  0  0  0  0  0
   -1.3571   -0.3161   -3.0205 H   0  0  0  0  0  0  0  0  0  0  0  0
   -1.2015    1.6844   -3.6757 N   0  3  0  0  0  0  0  0  0  0  0  0
   -1.6766    2.4788   -3.2826 H   0  0  0  0  0  0  0  0  0  0  0  0
   -0.9649    1.7074   -4.9767 C   0  0  0  0  0  0  0  0  0  0  0  0
   -0.3562    0.7301   -5.5880 N   0  0  0  0  0  0  0  0  0  0  0  0
   -0.0568   -0.0646   -5.0510 H   0  0  0  0  0  0  0  0  0  0  0  0
   -0.1849    0.7632   -6.5761 H   0  0  0  0  0  0  0  0  0  0  0  0
   -1.3411    2.7251   -5.6979 N   0  0  0  0  0  0  0  0  0  0  0  0
   -1.8139    3.5031   -5.2711 H   0  0  0  0  0  0  0  0  0  0  0  0
   -1.1595    2.7386   -6.6845 H   0  0  0  0  0  0  0  0  0  0  0  0
   -1.6547    1.3413    1.4779 C   0  0  0  0  0  0  0  0  0  0  0  0
   -2.5654    1.9858    0.9716 O   0  0  0  0  0  0  0  0  0  0  0  0
   -0.8107    1.8504    2.3808 N   0  0  0  0  0  0  0  0  0  0  0  0
   -0.1136    1.2381    2.7719 H   0  0  0  0  0  0  0  0  0  0  0  0
   -0.8954    3.2155    2.9026 C   0  0  0  0  0  0  0  0  0  0  0  0
   -1.8299    3.3430    3.4532 H   0  0  0  0  0  0  0  0  0  0  0  0
   -0.0581    3.4194    3.5712 H   0  0  0  0  0  0  0  0  0  0  0  0
   -0.8804    3.9320    2.0784 H   0  0  0  0  0  0  0  0  0  0  0  0
  5  6  2  0  0  0  0
  5  7  1  0  0  0  0
  2  3  1  0  0  0  0
  2  4  1  0  0  0  0
  2  5  1  0  0  0  0
  1  2  1  0  0  0  0
 29 30  2  0  0  0  0
 29 31  1  0  0  0  0
 26 27  1  0  0  0  0
 26 28  1  0  0  0  0
 23 24  1  0  0  0  0
 23 25  1  0  0  0  0
 22 23  1  0  0  0  0
 22 26  1  0  0  0  0
 20 21  1  0  0  0  0
 20 22  2  0  0  0  0
 17 18  1  0  0  0  0
 17 19  1  0  0  0  0
 17 20  1  0  0  0  0
 14 15  1  0  0  0  0
 14 16  1  0  0  0  0
 14 17  1  0  0  0  0
 11 12  1  0  0  0  0
 11 13  1  0  0  0  0
 11 14  1  0  0  0  0
  9 10  1  0  0  0  0
  9 11  1  0  0  0  0
  9 29  1  0  0  0  0
  7  8  1  0  0  0  0
  7  9  1  0  0  0  0
 33 34  1  0  0  0  0
 33 35  1  0  0  0  0
 33 36  1  0  0  0  0
 31 32  1  0  0  0  0
 31 33  1  0  0  0  0
M  CHG  1  20   1
M  END
$$$$
default_name
  -OEChem-02102213163D

 36 35  0     1  0  0  0  0  0999 V2000
   -4.2256   -3.6731    1.8584 H   0  0  0  0  0  0  0  0  0  0  0  0
   -4.2396   -2.6781    1.4144 C   0  0  0  0  0  0  0  0  0  0  0  0
   -4.9506   -2.0521    1.9514 H   0  0  0  0  0  0  0  0  0  0  0  0
   -4.5266   -2.7521    0.3674 H   0  0  0  0  0  0  0  0  0  0  0  0
   -2.8576   -2.0761    1.5184 C   0  0  0  0  0  0  0  0  0  0  0  0
   -1.9456   -2.7051    2.0404 O   0  0  0  0  0  0  0  0  0  0  0  0
   -2.6926   -0.8481    1.0174 N   0  0  0  0  0  0  0  0  0  0  0  0
   -3.4926   -0.3971    0.5954 H   0  0  0  0  0  0  0  0  0  0  0  0
   -1.4216   -0.1071    1.0434 C   0  0  1  0  0  0  0  0  0  0  0  0
   -0.7579   -0.5878    1.7640 H   0  0  0  0  0  0  0  0  0  0  0  0
   -0.7791   -0.1912   -0.3557 C   0  0  0  0  0  0  0  0  0  0  0  0
    0.3064   -0.1586   -0.2431 H   0  0  0  0  0  0  0  0  0  0  0  0
   -1.0440   -1.1469   -0.8132 H   0  0  0  0  0  0  0  0  0  0  0  0
   -1.2016    0.9504   -1.2919 C   0  0  0  0  0  0  0  0  0  0  0  0
   -2.2090    1.2827   -1.0373 H   0  0  0  0  0  0  0  0  0  0  0  0
   -0.5080    1.7844   -1.1797 H   0  0  0  0  0  0  0  0  0  0  0  0
   -1.1852    0.4653   -2.7479 C   0  0  0  0  0  0  0  0  0  0  0  0
   -0.1799    0.1099   -2.9857 H   0  0  0  0  0  0  0  0  0  0  0  0
   -1.8857   -0.3675   -2.8447 H   0  0  0  0  0  0  0  0  0  0  0  0
   -1.5631    1.5403   -3.6883 N   0  3  0  0  0  0  0  0  0  0  0  0
   -1.8255    2.4228   -3.2837 H   0  0  0  0  0  0  0  0  0  0  0  0
   -1.5882    1.4514   -5.0076 C   0  0  0  0  0  0  0  0  0  0  0  0
   -1.2672    0.3546   -5.6347 N   0  0  0  0  0  0  0  0  0  0  0  0
   -0.9907   -0.4473   -5.0963 H   0  0  0  0  0  0  0  0  0  0  0  0
   -1.2920    0.3039   -6.6365 H   0  0  0  0  0  0  0  0  0  0  0  0
   -1.9419    2.4754   -5.7313 N   0  0  0  0  0  0  0  0  0  0  0  0
   -2.1980    3.3432   -5.2928 H   0  0  0  0  0  0  0  0  0  0  0  0
   -1.9595    2.4037   -6.7318 H   0  0  0  0  0  0  0  0  0  0  0  0
   -1.6547    1.3413    1.4779 C   0  0  0  0  0  0  0  0  0  0  0  0
   -2.5654    1.9858    0.9716 O   0  0  0  0  0  0  0  0  0  0  0  0
   -0.8107    1.8504    2.3808 N   0  0  0  0  0  0  0  0  0  0  0  0
   -0.1136    1.2381    2.7719 H   0  0  0  0  0  0  0  0  0  0  0  0
   -0.8954    3.2155    2.9026 C   0  0  0  0  0  0  0  0  0  0  0  0
   -1.8299    3.3430    3.4532 H   0  0  0  0  0  0  0  0  0  0  0  0
   -0.0581    3.4194    3.5712 H   0  0  0  0  0  0  0  0  0  0  0  0
   -0.8804    3.9320    2.0784 H   0  0  0  0  0  0  0  0  0  0  0  0
  5  6  2  0  0  0  0
  5  7  1  0  0  0  0
  2  3  1  0  0  0  0
  2  4  1  0  0  0  0
  2  5  1  0  0  0  0
  1  2  1  0  0  0  0
 29 30  2  0  0  0  0
 29 31  1  0  0  0  0
 26 27  1  0  0  0  0
 26 28  1  0  0  0  0
 23 24  1  0  0  0  0
 23 25  1  0  0  0  0
 22 23  1  0  0  0  0
 22 26  1  0  0  0  0
 20 21  1  0  0  0  0
 20 22  2  0  0  0  0
 17 18  1  0  0  0  0
 17 19  1  0  0  0  0
 17 20  1  0  0  0  0
 14 15  1  0  0  0  0
 14 16  1  0  0  0  0
 14 17  1  0  0  0  0
 11 12  1  0  0  0  0
 11 13  1  0  0  0  0
 11 14  1  0  0  0  0
  9 10  1  0  0  0  0
  9 11  1  0  0  0  0
  9 29  1  0  0  0  0
  7  8  1  0  0  0  0
  7  9  1  0  0  0  0
 33 34  1  0  0  0  0
 33 35  1  0  0  0  0
 33 36  1  0  0  0  0
 31 32  1  0  0  0  0
 31 33  1  0  0  0  0
M  CHG  1  20   1
M  END
$$$$
default_name
  -OEChem-02102213163D

 36 35  0     1  0  0  0  0  0999 V2000
   -4.2256   -3.6731    1.8584 H   0  0  0  0  0  0  0  0  0  0  0  0
   -4.2396   -2.6781    1.4144 C   0  0  0  0  0  0  0  0  0  0  0  0
   -4.9506   -2.0521    1.9514 H   0  0  0  0  0  0  0  0  0  0  0  0
   -4.5266   -2.7521    0.3674 H   0  0  0  0  0  0  0  0  0  0  0  0
   -2.8576   -2.0761    1.5184 C   0  0  0  0  0  0  0  0  0  0  0  0
   -1.9456   -2.7051    2.0404 O   0  0  0  0  0  0  0  0  0  0  0  0
   -2.6926   -0.8481    1.0174 N   0  0  0  0  0  0  0  0  0  0  0  0
   -3.4926   -0.3971    0.5954 H   0  0  0  0  0  0  0  0  0  0  0  0
   -1.4216   -0.1071    1.0434 C   0  0  1  0  0  0  0  0  0  0  0  0
   -0.7579   -0.5878    1.7640 H   0  0  0  0  0  0  0  0  0  0  0  0
   -0.7791   -0.1912   -0.3557 C   0  0  0  0  0  0  0  0  0  0  0  0
    0.3064   -0.1586   -0.2431 H   0  0  0  0  0  0  0  0  0  0  0  0
   -1.0440   -1.1469   -0.8132 H   0  0  0  0  0  0  0  0  0  0  0  0
   -1.2016    0.9504   -1.2919 C   0  0  0  0  0  0  0  0  0  0  0  0
   -2.0767    1.4578   -0.8835 H   0  0  0  0  0  0  0  0  0  0  0  0
   -0.3818    1.6637   -1.3838 H   0  0  0  0  0  0  0  0  0  0  0  0
   -1.5473    0.3888   -2.6777 C   0  0  0  0  0  0  0  0  0  0  0  0
   -0.6745   -0.1401   -3.0673 H   0  0  0  0  0  0  0  0  0  0  0  0
   -2.3706   -0.3213   -2.5696 H   0  0  0  0  0  0  0  0  0  0  0  0
   -1.9375    1.4572   -3.6206 N   0  3  0  0  0  0  0  0  0  0  0  0
   -1.9785    2.3921   -3.2522 H   0  0  0  0  0  0  0  0  0  0  0  0
   -2.2366    1.3003   -4.8993 C   0  0  0  0  0  0  0  0  0  0  0  0
   -2.2154    0.1324   -5.4779 N   0  0  0  0  0  0  0  0  0  0  0  0
   -1.9619   -0.6728   -4.9331 H   0  0  0  0  0  0  0  0  0  0  0  0
   -2.4455    0.0307   -6.4492 H   0  0  0  0  0  0  0  0  0  0  0  0
   -2.5681    2.3266   -5.6301 N   0  0  0  0  0  0  0  0  0  0  0  0
   -2.5983    3.2479   -5.2284 H   0  0  0  0  0  0  0  0  0  0  0  0
   -2.7942    2.2032   -6.5998 H   0  0  0  0  0  0  0  0  0  0  0  0
   -1.6547    1.3413    1.4779 C   0  0  0  0  0  0  0  0  0  0  0  0
   -2.5654    1.9858    0.9716 O   0  0  0  0  0  0  0  0  0  0  0  0
   -0.8107    1.8504    2.3808 N   0  0  0  0  0  0  0  0  0  0  0  0
   -0.1136    1.2381    2.7719 H   0  0  0  0  0  0  0  0  0  0  0  0
   -0.8954    3.2155    2.9026 C   0  0  0  0  0  0  0  0  0  0  0  0
   -1.8299    3.3430    3.4532 H   0  0  0  0  0  0  0  0  0  0  0  0
   -0.0581    3.4194    3.5712 H   0  0  0  0  0  0  0  0  0  0  0  0
   -0.8804    3.9320    2.0784 H   0  0  0  0  0  0  0  0  0  0  0  0
  5  6  2  0  0  0  0
  5  7  1  0  0  0  0
  2  3  1  0  0  0  0
  2  4  1  0  0  0  0
  2  5  1  0  0  0  0
  1  2  1  0  0  0  0
 29 30  2  0  0  0  0
 29 31  1  0  0  0  0
 26 27  1  0  0  0  0
 26 28  1  0  0  0  0
 23 24  1  0  0  0  0
 23 25  1  0  0  0  0
 22 23  1  0  0  0  0
 22 26  1  0  0  0  0
 20 21  1  0  0  0  0
 20 22  2  0  0  0  0
 17 18  1  0  0  0  0
 17 19  1  0  0  0  0
 17 20  1  0  0  0  0
 14 15  1  0  0  0  0
 14 16  1  0  0  0  0
 14 17  1  0  0  0  0
 11 12  1  0  0  0  0
 11 13  1  0  0  0  0
 11 14  1  0  0  0  0
  9 10  1  0  0  0  0
  9 11  1  0  0  0  0
  9 29  1  0  0  0  0
  7  8  1  0  0  0  0
  7  9  1  0  0  0  0
 33 34  1  0  0  0  0
 33 35  1  0  0  0  0
 33 36  1  0  0  0  0
 31 32  1  0  0  0  0
 31 33  1  0  0  0  0
M  CHG  1  20   1
M  END
$$$$
default_name
  -OEChem-02102213163D

 36 35  0     1  0  0  0  0  0999 V2000
   -4.2256   -3.6731    1.8584 H   0  0  0  0  0  0  0  0  0  0  0  0
   -4.2396   -2.6781    1.4144 C   0  0  0  0  0  0  0  0  0  0  0  0
   -4.9506   -2.0521    1.9514 H   0  0  0  0  0  0  0  0  0  0  0  0
   -4.5266   -2.7521    0.3674 H   0  0  0  0  0  0  0  0  0  0  0  0
   -2.8576   -2.0761    1.5184 C   0  0  0  0  0  0  0  0  0  0  0  0
   -1.9456   -2.7051    2.0404 O   0  0  0  0  0  0  0  0  0  0  0  0
   -2.6926   -0.8481    1.0174 N   0  0  0  0  0  0  0  0  0  0  0  0
   -3.4926   -0.3971    0.5954 H   0  0  0  0  0  0  0  0  0  0  0  0
   -1.4216   -0.1071    1.0434 C   0  0  1  0  0  0  0  0  0  0  0  0
   -0.7579   -0.5878    1.7640 H   0  0  0  0  0  0  0  0  0  0  0  0
   -0.7791   -0.1912   -0.3557 C   0  0  0  0  0  0  0  0  0  0  0  0
    0.3064   -0.1586   -0.2431 H   0  0  0  0  0  0  0  0  0  0  0  0
   -1.0440   -1.1469   -0.8132 H   0  0  0  0  0  0  0  0  0  0  0  0
   -1.2016    0.9504   -1.2919 C   0  0  0  0  0  0  0  0  0  0  0  0
   -1.8917    1.6170   -0.7728 H   0  0  0  0  0  0  0  0  0  0  0  0
   -0.3183    1.5126   -1.5967 H   0  0  0  0  0  0  0  0  0  0  0  0
   -1.8957    0.3771   -2.5348 C   0  0  0  0  0  0  0  0  0  0  0  0
   -1.2073   -0.3093   -3.0332 H   0  0  0  0  0  0  0  0  0  0  0  0
   -2.7787   -0.1805   -2.2138 H   0  0  0  0  0  0  0  0  0  0  0  0
   -2.2992    1.4409   -3.4773 N   0  3  0  0  0  0  0  0  0  0  0  0
   -2.1249    2.3888   -3.1901 H   0  0  0  0  0  0  0  0  0  0  0  0
   -2.8659    1.2644   -4.6591 C   0  0  0  0  0  0  0  0  0  0  0  0
   -3.1362    0.0785   -5.1281 N   0  0  0  0  0  0  0  0  0  0  0  0
   -2.9042   -0.7258   -4.5726 H   0  0  0  0  0  0  0  0  0  0  0  0
   -3.5668   -0.0379   -6.0269 H   0  0  0  0  0  0  0  0  0  0  0  0
   -3.1770    2.2889   -5.4014 N   0  0  0  0  0  0  0  0  0  0  0  0
   -2.9877    3.2235   -5.0824 H   0  0  0  0  0  0  0  0  0  0  0  0
   -3.6067    2.1505   -6.2973 H   0  0  0  0  0  0  0  0  0  0  0  0
   -1.6547    1.3413    1.4779 C   0  0  0  0  0  0  0  0  0  0  0  0
   -2.5654    1.9858    0.9716 O   0  0  0  0  0  0  0  0  0  0  0  0
   -0.8107    1.8504    2.3808 N   0  0  0  0  0  0  0  0  0  0  0  0
   -0.1136    1.2381    2.7719 H   0  0  0  0  0  0  0  0  0  0  0  0
   -0.8954    3.2155    2.9026 C   0  0  0  0  0  0  0  0  0  0  0  0
   -1.8299    3.3430    3.4532 H   0  0  0  0  0  0  0  0  0  0  0  0
   -0.0581    3.4194    3.5712 H   0  0  0  0  0  0  0  0  0  0  0  0
   -0.8804    3.9320    2.0784 H   0  0  0  0  0  0  0  0  0  0  0  0
  5  6  2  0  0  0  0
  5  7  1  0  0  0  0
  2  3  1  0  0  0  0
  2  4  1  0  0  0  0
  2  5  1  0  0  0  0
  1  2  1  0  0  0  0
 29 30  2  0  0  0  0
 29 31  1  0  0  0  0
 26 27  1  0  0  0  0
 26 28  1  0  0  0  0
 23 24  1  0  0  0  0
 23 25  1  0  0  0  0
 22 23  1  0  0  0  0
 22 26  1  0  0  0  0
 20 21  1  0  0  0  0
 20 22  2  0  0  0  0
 17 18  1  0  0  0  0
 17 19  1  0  0  0  0
 17 20  1  0  0  0  0
 14 15  1  0  0  0  0
 14 16  1  0  0  0  0
 14 17  1  0  0  0  0
 11 12  1  0  0  0  0
 11 13  1  0  0  0  0
 11 14  1  0  0  0  0
  9 10  1  0  0  0  0
  9 11  1  0  0  0  0
  9 29  1  0  0  0  0
  7  8  1  0  0  0  0
  7  9  1  0  0  0  0
 33 34  1  0  0  0  0
 33 35  1  0  0  0  0
 33 36  1  0  0  0  0
 31 32  1  0  0  0  0
 31 33  1  0  0  0  0
M  CHG  1  20   1
M  END
$$$$
default_name
  -OEChem-02102213163D

 36 35  0     1  0  0  0  0  0999 V2000
   -4.2256   -3.6731    1.8584 H   0  0  0  0  0  0  0  0  0  0  0  0
   -4.2396   -2.6781    1.4144 C   0  0  0  0  0  0  0  0  0  0  0  0
   -4.9506   -2.0521    1.9514 H   0  0  0  0  0  0  0  0  0  0  0  0
   -4.5266   -2.7521    0.3674 H   0  0  0  0  0  0  0  0  0  0  0  0
   -2.8576   -2.0761    1.5184 C   0  0  0  0  0  0  0  0  0  0  0  0
   -1.9456   -2.7051    2.0404 O   0  0  0  0  0  0  0  0  0  0  0  0
   -2.6926   -0.8481    1.0174 N   0  0  0  0  0  0  0  0  0  0  0  0
   -3.4926   -0.3971    0.5954 H   0  0  0  0  0  0  0  0  0  0  0  0
   -1.4216   -0.1071    1.0434 C   0  0  1  0  0  0  0  0  0  0  0  0
   -0.7579   -0.5878    1.7640 H   0  0  0  0  0  0  0  0  0  0  0  0
   -0.7791   -0.1912   -0.3557 C   0  0  0  0  0  0  0  0  0  0  0  0
    0.3064   -0.1586   -0.2431 H   0  0  0  0  0  0  0  0  0  0  0  0
   -1.0440   -1.1469   -0.8132 H   0  0  0  0  0  0  0  0  0  0  0  0
   -1.2016    0.9504   -1.2919 C   0  0  0  0  0  0  0  0  0  0  0  0
   -1.6666    1.7495   -0.7129 H   0  0  0  0  0  0  0  0  0  0  0  0
   -0.3217    1.3415   -1.8038 H   0  0  0  0  0  0  0  0  0  0  0  0
   -2.2066    0.4309   -2.3290 C   0  0  0  0  0  0  0  0  0  0  0  0
   -1.7421   -0.3862   -2.8857 H   0  0  0  0  0  0  0  0  0  0  0  0
   -3.0822    0.0452   -1.8016 H   0  0  0  0  0  0  0  0  0  0  0  0
   -2.6237    1.4924   -3.2681 N   0  3  0  0  0  0  0  0  0  0  0  0
   -2.2550    2.4132   -3.1017 H   0  0  0  0  0  0  0  0  0  0  0  0
   -3.4333    1.3461   -4.3035 C   0  0  0  0  0  0  0  0  0  0  0  0
   -3.9668    0.1967   -4.6092 N   0  0  0  0  0  0  0  0  0  0  0  0
   -3.7533   -0.6027   -4.0392 H   0  0  0  0  0  0  0  0  0  0  0  0
   -4.5795    0.1029   -5.3983 H   0  0  0  0  0  0  0  0  0  0  0  0
   -3.7271    2.3649   -5.0606 N   0  0  0  0  0  0  0  0  0  0  0  0
   -3.3396    3.2718   -4.8648 H   0  0  0  0  0  0  0  0  0  0  0  0
   -4.3416    2.2494   -5.8451 H   0  0  0  0  0  0  0  0  0  0  0  0
   -1.6547    1.3413    1.4779 C   0  0  0  0  0  0  0  0  0  0  0  0
   -2.5654    1.9858    0.9716 O   0  0  0  0  0  0  0  0  0  0  0  0
   -0.8107    1.8504    2.3808 N   0  0  0  0  0  0  0  0  0  0  0  0
   -0.1136    1.2381    2.7719 H   0  0  0  0  0  0  0  0  0  0  0  0
   -0.8954    3.2155    2.9026 C   0  0  0  0  0  0  0  0  0  0  0  0
   -1.8299    3.3430    3.4532 H   0  0  0  0  0  0  0  0  0  0  0  0
   -0.0581    3.4194    3.5712 H   0  0  0  0  0  0  0  0  0  0  0  0
   -0.8804    3.9320    2.0784 H   0  0  0  0  0  0  0  0  0  0  0  0
  5  6  2  0  0  0  0
  5  7  1  0  0  0  0
  2  3  1  0  0  0  0
  2  4  1  0  0  0  0
  2  5  1  0  0  0  0
  1  2  1  0  0  0  0
 29 30  2  0  0  0  0
 29 31  1  0  0  0  0
 26 27  1  0  0  0  0
 26 28  1  0  0  0  0
 23 24  1  0  0  0  0
 23 25  1  0  0  0  0
 22 23  1  0  0  0  0
 22 26  1  0  0  0  0
 20 21  1  0  0  0  0
 20 22  2  0  0  0  0
 17 18  1  0  0  0  0
 17 19  1  0  0  0  0
 17 20  1  0  0  0  0
 14 15  1  0  0  0  0
 14 16  1  0  0  0  0
 14 17  1  0  0  0  0
 11 12  1  0  0  0  0
 11 13  1  0  0  0  0
 11 14  1  0  0  0  0
  9 10  1  0  0  0  0
  9 11  1  0  0  0  0
  9 29  1  0  0  0  0
  7  8  1  0  0  0  0
  7  9  1  0  0  0  0
 33 34  1  0  0  0  0
 33 35  1  0  0  0  0
 33 36  1  0  0  0  0
 31 32  1  0  0  0  0
 31 33  1  0  0  0  0
M  CHG  1  20   1
M  END
$$$$
default_name
  -OEChem-02102213163D

 36 35  0     1  0  0  0  0  0999 V2000
   -4.2256   -3.6731    1.8584 H   0  0  0  0  0  0  0  0  0  0  0  0
   -4.2396   -2.6781    1.4144 C   0  0  0  0  0  0  0  0  0  0  0  0
   -4.9506   -2.0521    1.9514 H   0  0  0  0  0  0  0  0  0  0  0  0
   -4.5266   -2.7521    0.3674 H   0  0  0  0  0  0  0  0  0  0  0  0
   -2.8576   -2.0761    1.5184 C   0  0  0  0  0  0  0  0  0  0  0  0
   -1.9456   -2.7051    2.0404 O   0  0  0  0  0  0  0  0  0  0  0  0
   -2.6926   -0.8481    1.0174 N   0  0  0  0  0  0  0  0  0  0  0  0
   -3.4926   -0.3971    0.5954 H   0  0  0  0  0  0  0  0  0  0  0  0
   -1.4216   -0.1071    1.0434 C   0  0  1  0  0  0  0  0  0  0  0  0
   -0.7579   -0.5878    1.7640 H   0  0  0  0  0  0  0  0  0  0  0  0
   -0.7791   -0.1912   -0.3557 C   0  0  0  0  0  0  0  0  0  0  0  0
    0.3064   -0.1586   -0.2431 H   0  0  0  0  0  0  0  0  0  0  0  0
   -1.0440   -1.1469   -0.8132 H   0  0  0  0  0  0  0  0  0  0  0  0
   -1.2016    0.9504   -1.2919 C   0  0  0  0  0  0  0  0  0  0  0  0
   -1.4167    1.8462   -0.7077 H   0  0  0  0  0  0  0  0  0  0  0  0
   -0.3919    1.1620   -1.9910 H   0  0  0  0  0  0  0  0  0  0  0  0
   -2.4587    0.5466   -2.0741 C   0  0  0  0  0  0  0  0  0  0  0  0
   -2.2424   -0.3656   -2.6349 H   0  0  0  0  0  0  0  0  0  0  0  0
   -3.2605    0.3404   -1.3612 H   0  0  0  0  0  0  0  0  0  0  0  0
   -2.8886    1.6083   -3.0072 N   0  3  0  0  0  0  0  0  0  0  0  0
   -2.3597    2.4635   -2.9930 H   0  0  0  0  0  0  0  0  0  0  0  0
   -3.9000    1.5398   -3.8567 C   0  0  0  0  0  0  0  0  0  0  0  0
   -4.6506    0.4788   -3.9567 N   0  0  0  0  0  0  0  0  0  0  0  0
   -4.4515   -0.3117   -3.3695 H   0  0  0  0  0  0  0  0  0  0  0  0
   -5.4145    0.4434   -4.6063 H   0  0  0  0  0  0  0  0  0  0  0  0
   -4.1808    2.5493   -4.6309 N   0  0  0  0  0  0  0  0  0  0  0  0
   -3.6300    3.3895   -4.5903 H   0  0  0  0  0  0  0  0  0  0  0  0
   -4.9489    2.4931   -5.2740 H   0  0  0  0  0  0  0  0  0  0  0  0
   -1.6547    1.3413    1.4779 C   0  0  0  0  0  0  0  0  0  0  0  0
   -2.5654    1.9858    0.9716 O   0  0  0  0  0  0  0  0  0  0  0  0
   -0.8107    1.8504    2.3808 N   0  0  0  0  0  0  0  0  0  0  0  0
   -0.1136    1.2381    2.7719 H   0  0  0  0  0  0  0  0  0  0  0  0
   -0.8954    3.2155    2.9026 C   0  0  0  0  0  0  0  0  0  0  0  0
   -1.8299    3.3430    3.4532 H   0  0  0  0  0  0  0  0  0  0  0  0
   -0.0581    3.4194    3.5712 H   0  0  0  0  0  0  0  0  0  0  0  0
   -0.8804    3.9320    2.0784 H   0  0  0  0  0  0  0  0  0  0  0  0
  5  6  2  0  0  0  0
  5  7  1  0  0  0  0
  2  3  1  0  0  0  0
  2  4  1  0  0  0  0
  2  5  1  0  0  0  0
  1  2  1  0  0  0  0
 29 30  2  0  0  0  0
 29 31  1  0  0  0  0
 26 27  1  0  0  0  0
 26 28  1  0  0  0  0
 23 24  1  0  0  0  0
 23 25  1  0  0  0  0
 22 23  1  0  0  0  0
 22 26  1  0  0  0  0
 20 21  1  0  0  0  0
 20 22  2  0  0  0  0
 17 18  1  0  0  0  0
 17 19  1  0  0  0  0
 17 20  1  0  0  0  0
 14 15  1  0  0  0  0
 14 16  1  0  0  0  0
 14 17  1  0  0  0  0
 11 12  1  0  0  0  0
 11 13  1  0  0  0  0
 11 14  1  0  0  0  0
  9 10  1  0  0  0  0
  9 11  1  0  0  0  0
  9 29  1  0  0  0  0
  7  8  1  0  0  0  0
  7  9  1  0  0  0  0
 33 34  1  0  0  0  0
 33 35  1  0  0  0  0
 33 36  1  0  0  0  0
 31 32  1  0  0  0  0
 31 33  1  0  0  0  0
M  CHG  1  20   1
M  END
$$$$
default_name
  -OEChem-02102213163D

 36 35  0     1  0  0  0  0  0999 V2000
   -4.2256   -3.6731    1.8584 H   0  0  0  0  0  0  0  0  0  0  0  0
   -4.2396   -2.6781    1.4144 C   0  0  0  0  0  0  0  0  0  0  0  0
   -4.9506   -2.0521    1.9514 H   0  0  0  0  0  0  0  0  0  0  0  0
   -4.5266   -2.7521    0.3674 H   0  0  0  0  0  0  0  0  0  0  0  0
   -2.8576   -2.0761    1.5184 C   0  0  0  0  0  0  0  0  0  0  0  0
   -1.9456   -2.7051    2.0404 O   0  0  0  0  0  0  0  0  0  0  0  0
   -2.6926   -0.8481    1.0174 N   0  0  0  0  0  0  0  0  0  0  0  0
   -3.4926   -0.3971    0.5954 H   0  0  0  0  0  0  0  0  0  0  0  0
   -1.4216   -0.1071    1.0434 C   0  0  1  0  0  0  0  0  0  0  0  0
   -0.7579   -0.5878    1.7640 H   0  0  0  0  0  0  0  0  0  0  0  0
   -0.7791   -0.1912   -0.3557 C   0  0  0  0  0  0  0  0  0  0  0  0
    0.3064   -0.1586   -0.2431 H   0  0  0  0  0  0  0  0  0  0  0  0
   -1.0440   -1.1469   -0.8132 H   0  0  0  0  0  0  0  0  0  0  0  0
   -1.2016    0.9504   -1.2919 C   0  0  0  0  0  0  0  0  0  0  0  0
   -1.1591    1.9006   -0.7576 H   0  0  0  0  0  0  0  0  0  0  0  0
   -0.5240    0.9864   -2.1455 H   0  0  0  0  0  0  0  0  0  0  0  0
   -2.6350    0.7163   -1.7877 C   0  0  0  0  0  0  0  0  0  0  0  0
   -2.6742   -0.2490   -2.2978 H   0  0  0  0  0  0  0  0  0  0  0  0
   -3.3014    0.6851   -0.9225 H   0  0  0  0  0  0  0  0  0  0  0  0
   -3.0761    1.7806   -2.7125 N   0  3  0  0  0  0  0  0  0  0  0  0
   -2.4321    2.5364   -2.8715 H   0  0  0  0  0  0  0  0  0  0  0  0
   -4.2342    1.8325   -3.3491 C   0  0  0  0  0  0  0  0  0  0  0  0
   -5.1410    0.9057   -3.2149 N   0  0  0  0  0  0  0  0  0  0  0  0
   -4.9511    0.1271   -2.6089 H   0  0  0  0  0  0  0  0  0  0  0  0
   -6.0149    0.9605   -3.7049 H   0  0  0  0  0  0  0  0  0  0  0  0
   -4.5074    2.8296   -4.1418 N   0  0  0  0  0  0  0  0  0  0  0  0
   -3.8391    3.5685   -4.2776 H   0  0  0  0  0  0  0  0  0  0  0  0
   -5.3871    2.8650   -4.6228 H   0  0  0  0  0  0  0  0  0  0  0  0
   -1.6547    1.3413    1.4779 C   0  0  0  0  0  0  0  0  0  0  0  0
   -2.5654    1.9858    0.9716 O   0  0  0  0  0  0  0  0  0  0  0  0
   -0.8107    1.8504    2.3808 N   0  0  0  0  0  0  0  0  0  0  0  0
   -0.1136    1.2381    2.7719 H   0  0  0  0  0  0  0  0  0  0  0  0
   -0.8954    3.2155    2.9026 C   0  0  0  0  0  0  0  0  0  0  0  0
   -1.8299    3.3430    3.4532 H   0  0  0  0  0  0  0  0  0  0  0  0
   -0.0581    3.4194    3.5712 H   0  0  0  0  0  0  0  0  0  0  0  0
   -0.8804    3.9320    2.0784 H   0  0  0  0  0  0  0  0  0  0  0  0
  5  6  2  0  0  0  0
  5  7  1  0  0  0  0
  2  3  1  0  0  0  0
  2  4  1  0  0  0  0
  2  5  1  0  0  0  0
  1  2  1  0  0  0  0
 29 30  2  0  0  0  0
 29 31  1  0  0  0  0
 26 27  1  0  0  0  0
 26 28  1  0  0  0  0
 23 24  1  0  0  0  0
 23 25  1  0  0  0  0
 22 23  1  0  0  0  0
 22 26  1  0  0  0  0
 20 21  1  0  0  0  0
 20 22  2  0  0  0  0
 17 18  1  0  0  0  0
 17 19  1  0  0  0  0
 17 20  1  0  0  0  0
 14 15  1  0  0  0  0
 14 16  1  0  0  0  0
 14 17  1  0  0  0  0
 11 12  1  0  0  0  0
 11 13  1  0  0  0  0
 11 14  1  0  0  0  0
  9 10  1  0  0  0  0
  9 11  1  0  0  0  0
  9 29  1  0  0  0  0
  7  8  1  0  0  0  0
  7  9  1  0  0  0  0
 33 34  1  0  0  0  0
 33 35  1  0  0  0  0
 33 36  1  0  0  0  0
 31 32  1  0  0  0  0
 31 33  1  0  0  0  0
M  CHG  1  20   1
M  END
$$$$
default_name
  -OEChem-02102213163D

 36 35  0     1  0  0  0  0  0999 V2000
   -4.2256   -3.6731    1.8584 H   0  0  0  0  0  0  0  0  0  0  0  0
   -4.2396   -2.6781    1.4144 C   0  0  0  0  0  0  0  0  0  0  0  0
   -4.9506   -2.0521    1.9514 H   0  0  0  0  0  0  0  0  0  0  0  0
   -4.5266   -2.7521    0.3674 H   0  0  0  0  0  0  0  0  0  0  0  0
   -2.8576   -2.0761    1.5184 C   0  0  0  0  0  0  0  0  0  0  0  0
   -1.9456   -2.7051    2.0404 O   0  0  0  0  0  0  0  0  0  0  0  0
   -2.6926   -0.8481    1.0174 N   0  0  0  0  0  0  0  0  0  0  0  0
   -3.4926   -0.3971    0.5954 H   0  0  0  0  0  0  0  0  0  0  0  0
   -1.4216   -0.1071    1.0434 C   0  0  1  0  0  0  0  0  0  0  0  0
   -0.7579   -0.5878    1.7640 H   0  0  0  0  0  0  0  0  0  0  0  0
   -0.7791   -0.1912   -0.3557 C   0  0  0  0  0  0  0  0  0  0  0  0
    0.3064   -0.1586   -0.2431 H   0  0  0  0  0  0  0  0  0  0  0  0
   -1.0440   -1.1469   -0.8132 H   0  0  0  0  0  0  0  0  0  0  0  0
   -1.2016    0.9504   -1.2919 C   0  0  0  0  0  0  0  0  0  0  0  0
   -0.9113    1.9089   -0.8593 H   0  0  0  0  0  0  0  0  0  0  0  0
   -0.7090    0.8266   -2.2568 H   0  0  0  0  0  0  0  0  0  0  0  0
   -2.7234    0.9284   -1.4892 C   0  0  0  0  0  0  0  0  0  0  0  0
   -3.0080   -0.0441   -1.8974 H   0  0  0  0  0  0  0  0  0  0  0  0
   -3.2021    1.0557   -0.5154 H   0  0  0  0  0  0  0  0  0  0  0  0
   -3.1733    1.9976   -2.4041 N   0  3  0  0  0  0  0  0  0  0  0  0
   -2.4670    2.6269   -2.7454 H   0  0  0  0  0  0  0  0  0  0  0  0
   -4.4132    2.2040   -2.8153 C   0  0  0  0  0  0  0  0  0  0  0  0
   -5.4047    1.4482   -2.4344 N   0  0  0  0  0  0  0  0  0  0  0  0
   -5.2181    0.6840   -1.8094 H   0  0  0  0  0  0  0  0  0  0  0  0
   -6.3399    1.6188   -2.7555 H   0  0  0  0  0  0  0  0  0  0  0  0
   -4.6844    3.1867   -3.6264 N   0  0  0  0  0  0  0  0  0  0  0  0
   -3.9527    3.7967   -3.9481 H   0  0  0  0  0  0  0  0  0  0  0  0
   -5.6264    3.3397   -3.9360 H   0  0  0  0  0  0  0  0  0  0  0  0
   -1.6547    1.3413    1.4779 C   0  0  0  0  0  0  0  0  0  0  0  0
   -2.5654    1.9858    0.9716 O   0  0  0  0  0  0  0  0  0  0  0  0
   -0.8107    1.8504    2.3808 N   0  0  0  0  0  0  0  0  0  0  0  0
   -0.1136    1.2381    2.7719 H   0  0  0  0  0  0  0  0  0  0  0  0
   -0.8954    3.2155    2.9026 C   0  0  0  0  0  0  0  0  0  0  0  0
   -1.8299    3.3430    3.4532 H   0  0  0  0  0  0  0  0  0  0  0  0
   -0.0581    3.4194    3.5712 H   0  0  0  0  0  0  0  0  0  0  0  0
   -0.8804    3.9320    2.0784 H   0  0  0  0  0  0  0  0  0  0  0  0
  5  6  2  0  0  0  0
  5  7  1  0  0  0  0
  2  3  1  0  0  0  0
  2  4  1  0  0  0  0
  2  5  1  0  0  0  0
  1  2  1  0  0  0  0
 29 30  2  0  0  0  0
 29 31  1  0  0  0  0
 26 27  1  0  0  0  0
 26 28  1  0  0  0  0
 23 24  1  0  0  0  0
 23 25  1  0  0  0  0
 22 23  1  0  0  0  0
 22 26  1  0  0  0  0
 20 21  1  0  0  0  0
 20 22  2  0  0  0  0
 17 18  1  0  0  0  0
 17 19  1  0  0  0  0
 17 20  1  0  0  0  0
 14 15  1  0  0  0  0
 14 16  1  0  0  0  0
 14 17  1  0  0  0  0
 11 12  1  0  0  0  0
 11 13  1  0  0  0  0
 11 14  1  0  0  0  0
  9 10  1  0  0  0  0
  9 11  1  0  0  0  0
  9 29  1  0  0  0  0
  7  8  1  0  0  0  0
  7  9  1  0  0  0  0
 33 34  1  0  0  0  0
 33 35  1  0  0  0  0
 33 36  1  0  0  0  0
 31 32  1  0  0  0  0
 31 33  1  0  0  0  0
M  CHG  1  20   1
M  END
$$$$
default_name
  -OEChem-02102213163D

 36 35  0     1  0  0  0  0  0999 V2000
   -4.2256   -3.6731    1.8584 H   0  0  0  0  0  0  0  0  0  0  0  0
   -4.2396   -2.6781    1.4144 C   0  0  0  0  0  0  0  0  0  0  0  0
   -4.9506   -2.0521    1.9514 H   0  0  0  0  0  0  0  0  0  0  0  0
   -4.5266   -2.7521    0.3674 H   0  0  0  0  0  0  0  0  0  0  0  0
   -2.8576   -2.0761    1.5184 C   0  0  0  0  0  0  0  0  0  0  0  0
   -1.9456   -2.7051    2.0404 O   0  0  0  0  0  0  0  0  0  0  0  0
   -2.6926   -0.8481    1.0174 N   0  0  0  0  0  0  0  0  0  0  0  0
   -3.4926   -0.3971    0.5954 H   0  0  0  0  0  0  0  0  0  0  0  0
   -1.4216   -0.1071    1.0434 C   0  0  1  0  0  0  0  0  0  0  0  0
   -0.7579   -0.5878    1.7640 H   0  0  0  0  0  0  0  0  0  0  0  0
   -0.7791   -0.1912   -0.3557 C   0  0  0  0  0  0  0  0  0  0  0  0
    0.3064   -0.1586   -0.2431 H   0  0  0  0  0  0  0  0  0  0  0  0
   -1.0440   -1.1469   -0.8132 H   0  0  0  0  0  0  0  0  0  0  0  0
   -1.2016    0.9504   -1.2919 C   0  0  0  0  0  0  0  0  0  0  0  0
   -0.6901    1.8706   -1.0058 H   0  0  0  0  0  0  0  0  0  0  0  0
   -0.9343    0.6936   -2.3174 H   0  0  0  0  0  0  0  0  0  0  0  0
   -2.7179    1.1684   -1.1989 C   0  0  0  0  0  0  0  0  0  0  0  0
   -3.2211    0.2349   -1.4610 H   0  0  0  0  0  0  0  0  0  0  0  0
   -2.9694    1.4270   -0.1676 H   0  0  0  0  0  0  0  0  0  0  0  0
   -3.1736    2.2445   -2.1029 N   0  3  0  0  0  0  0  0  0  0  0  0
   -2.4623    2.7288   -2.6232 H   0  0  0  0  0  0  0  0  0  0  0  0
   -4.4248    2.6291   -2.2917 C   0  0  0  0  0  0  0  0  0  0  0  0
   -5.4236    2.0694   -1.6684 N   0  0  0  0  0  0  0  0  0  0  0  0
   -5.2343    1.3210   -1.0254 H   0  0  0  0  0  0  0  0  0  0  0  0
   -6.3672    2.3736   -1.8229 H   0  0  0  0  0  0  0  0  0  0  0  0
   -4.7000    3.5963   -3.1200 N   0  0  0  0  0  0  0  0  0  0  0  0
   -3.9630    4.0585   -3.6242 H   0  0  0  0  0  0  0  0  0  0  0  0
   -5.6505    3.8849   -3.2603 H   0  0  0  0  0  0  0  0  0  0  0  0
   -1.6547    1.3413    1.4779 C   0  0  0  0  0  0  0  0  0  0  0  0
   -2.5654    1.9858    0.9716 O   0  0  0  0  0  0  0  0  0  0  0  0
   -0.8107    1.8504    2.3808 N   0  0  0  0  0  0  0  0  0  0  0  0
   -0.1136    1.2381    2.7719 H   0  0  0  0  0  0  0  0  0  0  0  0
   -0.8954    3.2155    2.9026 C   0  0  0  0  0  0  0  0  0  0  0  0
   -1.8299    3.3430    3.4532 H   0  0  0  0  0  0  0  0  0  0  0  0
   -0.0581    3.4194    3.5712 H   0  0  0  0  0  0  0  0  0  0  0  0
   -0.8804    3.9320    2.0784 H   0  0  0  0  0  0  0  0  0  0  0  0
  5  6  2  0  0  0  0
  5  7  1  0  0  0  0
  2  3  1  0  0  0  0
  2  4  1  0  0  0  0
  2  5  1  0  0  0  0
  1  2  1  0  0  0  0
 29 30  2  0  0  0  0
 29 31  1  0  0  0  0
 26 27  1  0  0  0  0
 26 28  1  0  0  0  0
 23 24  1  0  0  0  0
 23 25  1  0  0  0  0
 22 23  1  0  0  0  0
 22 26  1  0  0  0  0
 20 21  1  0  0  0  0
 20 22  2  0  0  0  0
 17 18  1  0  0  0  0
 17 19  1  0  0  0  0
 17 20  1  0  0  0  0
 14 15  1  0  0  0  0
 14 16  1  0  0  0  0
 14 17  1  0  0  0  0
 11 12  1  0  0  0  0
 11 13  1  0  0  0  0
 11 14  1  0  0  0  0
  9 10  1  0  0  0  0
  9 11  1  0  0  0  0
  9 29  1  0  0  0  0
  7  8  1  0  0  0  0
  7  9  1  0  0  0  0
 33 34  1  0  0  0  0
 33 35  1  0  0  0  0
 33 36  1  0  0  0  0
 31 32  1  0  0  0  0
 31 33  1  0  0  0  0
M  CHG  1  20   1
M  END
$$$$
default_name
  -OEChem-02102213163D

 36 35  0     1  0  0  0  0  0999 V2000
   -4.2256   -3.6731    1.8584 H   0  0  0  0  0  0  0  0  0  0  0  0
   -4.2396   -2.6781    1.4144 C   0  0  0  0  0  0  0  0  0  0  0  0
   -4.9506   -2.0521    1.9514 H   0  0  0  0  0  0  0  0  0  0  0  0
   -4.5266   -2.7521    0.3674 H   0  0  0  0  0  0  0  0  0  0  0  0
   -2.8576   -2.0761    1.5184 C   0  0  0  0  0  0  0  0  0  0  0  0
   -1.9456   -2.7051    2.0404 O   0  0  0  0  0  0  0  0  0  0  0  0
   -2.6926   -0.8481    1.0174 N   0  0  0  0  0  0  0  0  0  0  0  0
   -3.4926   -0.3971    0.5954 H   0  0  0  0  0  0  0  0  0  0  0  0
   -1.4216   -0.1071    1.0434 C   0  0  1  0  0  0  0  0  0  0  0  0
   -0.7579   -0.5878    1.7640 H   0  0  0  0  0  0  0  0  0  0  0  0
   -0.7791   -0.1912   -0.3557 C   0  0  0  0  0  0  0  0  0  0  0  0
    0.3064   -0.1586   -0.2431 H   0  0  0  0  0  0  0  0  0  0  0  0
   -1.0440   -1.1469   -0.8132 H   0  0  0  0  0  0  0  0  0  0  0  0
   -1.2016    0.9504   -1.2919 C   0  0  0  0  0  0  0  0  0  0  0  0
   -0.5108    1.7882   -1.1872 H   0  0  0  0  0  0  0  0  0  0  0  0
   -1.1847    0.5963   -2.3231 H   0  0  0  0  0  0  0  0  0  0  0  0
   -2.6189    1.4201   -0.9367 C   0  0  0  0  0  0  0  0  0  0  0  0
   -3.2989    0.5691   -1.0184 H   0  0  0  0  0  0  0  0  0  0  0  0
   -2.6191    1.7737    0.0970 H   0  0  0  0  0  0  0  0  0  0  0  0
   -3.0770    2.5045   -1.8295 N   0  3  0  0  0  0  0  0  0  0  0  0
   -2.4181    2.8352   -2.5135 H   0  0  0  0  0  0  0  0  0  0  0  0
   -4.2682    3.0788   -1.8140 C   0  0  0  0  0  0  0  0  0  0  0  0
   -5.1964    2.7270   -0.9691 N   0  0  0  0  0  0  0  0  0  0  0  0
   -4.9986    1.9947   -0.3103 H   0  0  0  0  0  0  0  0  0  0  0  0
   -6.0951    3.1735   -0.9704 H   0  0  0  0  0  0  0  0  0  0  0  0
   -4.5529    4.0305   -2.6570 N   0  0  0  0  0  0  0  0  0  0  0  0
   -3.8693    4.3360   -3.3281 H   0  0  0  0  0  0  0  0  0  0  0  0
   -5.4578    4.4635   -2.6419 H   0  0  0  0  0  0  0  0  0  0  0  0
   -1.6547    1.3413    1.4779 C   0  0  0  0  0  0  0  0  0  0  0  0
   -2.5654    1.9858    0.9716 O   0  0  0  0  0  0  0  0  0  0  0  0
   -0.8107    1.8504    2.3808 N   0  0  0  0  0  0  0  0  0  0  0  0
   -0.1136    1.2381    2.7719 H   0  0  0  0  0  0  0  0  0  0  0  0
   -0.8954    3.2155    2.9026 C   0  0  0  0  0  0  0  0  0  0  0  0
   -1.8299    3.3430    3.4532 H   0  0  0  0  0  0  0  0  0  0  0  0
   -0.0581    3.4194    3.5712 H   0  0  0  0  0  0  0  0  0  0  0  0
   -0.8804    3.9320    2.0784 H   0  0  0  0  0  0  0  0  0  0  0  0
  5  6  2  0  0  0  0
  5  7  1  0  0  0  0
  2  3  1  0  0  0  0
  2  4  1  0  0  0  0
  2  5  1  0  0  0  0
  1  2  1  0  0  0  0
 29 30  2  0  0  0  0
 29 31  1  0  0  0  0
 26 27  1  0  0  0  0
 26 28  1  0  0  0  0
 23 24  1  0  0  0  0
 23 25  1  0  0  0  0
 22 23  1  0  0  0  0
 22 26  1  0  0  0  0
 20 21  1  0  0  0  0
 20 22  2  0  0  0  0
 17 18  1  0  0  0  0
 17 19  1  0  0  0  0
 17 20  1  0  0  0  0
 14 15  1  0  0  0  0
 14 16  1  0  0  0  0
 14 17  1  0  0  0  0
 11 12  1  0  0  0  0
 11 13  1  0  0  0  0
 11 14  1  0  0  0  0
  9 10  1  0  0  0  0
  9 11  1  0  0  0  0
  9 29  1  0  0  0  0
  7  8  1  0  0  0  0
  7  9  1  0  0  0  0
 33 34  1  0  0  0  0
 33 35  1  0  0  0  0
 33 36  1  0  0  0  0
 31 32  1  0  0  0  0
 31 33  1  0  0  0  0
M  CHG  1  20   1
M  END
$$$$
default_name
  -OEChem-02102213163D

 36 35  0     1  0  0  0  0  0999 V2000
   -4.2256   -3.6731    1.8584 H   0  0  0  0  0  0  0  0  0  0  0  0
   -4.2396   -2.6781    1.4144 C   0  0  0  0  0  0  0  0  0  0  0  0
   -4.9506   -2.0521    1.9514 H   0  0  0  0  0  0  0  0  0  0  0  0
   -4.5266   -2.7521    0.3674 H   0  0  0  0  0  0  0  0  0  0  0  0
   -2.8576   -2.0761    1.5184 C   0  0  0  0  0  0  0  0  0  0  0  0
   -1.9456   -2.7051    2.0404 O   0  0  0  0  0  0  0  0  0  0  0  0
   -2.6926   -0.8481    1.0174 N   0  0  0  0  0  0  0  0  0  0  0  0
   -3.4926   -0.3971    0.5954 H   0  0  0  0  0  0  0  0  0  0  0  0
   -1.4216   -0.1071    1.0434 C   0  0  1  0  0  0  0  0  0  0  0  0
   -0.7579   -0.5878    1.7640 H   0  0  0  0  0  0  0  0  0  0  0  0
   -0.7791   -0.1912   -0.3557 C   0  0  0  0  0  0  0  0  0  0  0  0
    0.3064   -0.1586   -0.2431 H   0  0  0  0  0  0  0  0  0  0  0  0
   -1.0440   -1.1469   -0.8132 H   0  0  0  0  0  0  0  0  0  0  0  0
   -1.2016    0.9504   -1.2919 C   0  0  0  0  0  0  0  0  0  0  0  0
   -0.3854    1.6675   -1.3910 H   0  0  0  0  0  0  0  0  0  0  0  0
   -1.4429    0.5414   -2.2735 H   0  0  0  0  0  0  0  0  0  0  0  0
   -2.4330    1.6663   -0.7204 C   0  0  0  0  0  0  0  0  0  0  0  0
   -3.2362    0.9357   -0.5997 H   0  0  0  0  0  0  0  0  0  0  0  0
   -2.1751    2.0721    0.2606 H   0  0  0  0  0  0  0  0  0  0  0  0
   -2.8901    2.7598   -1.6025 N   0  3  0  0  0  0  0  0  0  0  0  0
   -2.3375    2.9388   -2.4235 H   0  0  0  0  0  0  0  0  0  0  0  0
   -3.9540    3.5225   -1.4147 C   0  0  0  0  0  0  0  0  0  0  0  0
   -4.7387    3.3761   -0.3841 N   0  0  0  0  0  0  0  0  0  0  0  0
   -4.5271    2.6591    0.2871 H   0  0  0  0  0  0  0  0  0  0  0  0
   -5.5420    3.9638   -0.2564 H   0  0  0  0  0  0  0  0  0  0  0  0
   -4.2533    4.4596   -2.2690 N   0  0  0  0  0  0  0  0  0  0  0  0
   -3.6781    4.6105   -3.0798 H   0  0  0  0  0  0  0  0  0  0  0  0
   -5.0614    5.0359   -2.1227 H   0  0  0  0  0  0  0  0  0  0  0  0
   -1.6547    1.3413    1.4779 C   0  0  0  0  0  0  0  0  0  0  0  0
   -2.5654    1.9858    0.9716 O   0  0  0  0  0  0  0  0  0  0  0  0
   -0.8107    1.8504    2.3808 N   0  0  0  0  0  0  0  0  0  0  0  0
   -0.1136    1.2381    2.7719 H   0  0  0  0  0  0  0  0  0  0  0  0
   -0.8954    3.2155    2.9026 C   0  0  0  0  0  0  0  0  0  0  0  0
   -1.8299    3.3430    3.4532 H   0  0  0  0  0  0  0  0  0  0  0  0
   -0.0581    3.4194    3.5712 H   0  0  0  0  0  0  0  0  0  0  0  0
   -0.8804    3.9320    2.0784 H   0  0  0  0  0  0  0  0  0  0  0  0
  5  6  2  0  0  0  0
  5  7  1  0  0  0  0
  2  3  1  0  0  0  0
  2  4  1  0  0  0  0
  2  5  1  0  0  0  0
  1  2  1  0  0  0  0
 29 30  2  0  0  0  0
 29 31  1  0  0  0  0
 26 27  1  0  0  0  0
 26 28  1  0  0  0  0
 23 24  1  0  0  0  0
 23 25  1  0  0  0  0
 22 23  1  0  0  0  0
 22 26  1  0  0  0  0
 20 21  1  0  0  0  0
 20 22  2  0  0  0  0
 17 18  1  0  0  0  0
 17 19  1  0  0  0  0
 17 20  1  0  0  0  0
 14 15  1  0  0  0  0
 14 16  1  0  0  0  0
 14 17  1  0  0  0  0
 11 12  1  0  0  0  0
 11 13  1  0  0  0  0
 11 14  1  0  0  0  0
  9 10  1  0  0  0  0
  9 11  1  0  0  0  0
  9 29  1  0  0  0  0
  7  8  1  0  0  0  0
  7  9  1  0  0  0  0
 33 34  1  0  0  0  0
 33 35  1  0  0  0  0
 33 36  1  0  0  0  0
 31 32  1  0  0  0  0
 31 33  1  0  0  0  0
M  CHG  1  20   1
M  END
$$$$
default_name
  -OEChem-02102213163D

 36 35  0     1  0  0  0  0  0999 V2000
   -4.2256   -3.6731    1.8584 H   0  0  0  0  0  0  0  0  0  0  0  0
   -4.2396   -2.6781    1.4144 C   0  0  0  0  0  0  0  0  0  0  0  0
   -4.9506   -2.0521    1.9514 H   0  0  0  0  0  0  0  0  0  0  0  0
   -4.5266   -2.7521    0.3674 H   0  0  0  0  0  0  0  0  0  0  0  0
   -2.8576   -2.0761    1.5184 C   0  0  0  0  0  0  0  0  0  0  0  0
   -1.9456   -2.7051    2.0404 O   0  0  0  0  0  0  0  0  0  0  0  0
   -2.6926   -0.8481    1.0174 N   0  0  0  0  0  0  0  0  0  0  0  0
   -3.4926   -0.3971    0.5954 H   0  0  0  0  0  0  0  0  0  0  0  0
   -1.4216   -0.1071    1.0434 C   0  0  1  0  0  0  0  0  0  0  0  0
   -0.7579   -0.5878    1.7640 H   0  0  0  0  0  0  0  0  0  0  0  0
   -0.7791   -0.1912   -0.3557 C   0  0  0  0  0  0  0  0  0  0  0  0
    0.3064   -0.1586   -0.2431 H   0  0  0  0  0  0  0  0  0  0  0  0
   -1.0440   -1.1469   -0.8132 H   0  0  0  0  0  0  0  0  0  0  0  0
   -1.2016    0.9504   -1.2919 C   0  0  0  0  0  0  0  0  0  0  0  0
   -0.3226    1.5166   -1.6033 H   0  0  0  0  0  0  0  0  0  0  0  0
   -1.6915    0.5327   -2.1720 H   0  0  0  0  0  0  0  0  0  0  0  0
   -2.1730    1.8901   -0.5648 C   0  0  0  0  0  0  0  0  0  0  0  0
   -3.0372    1.3098   -0.2334 H   0  0  0  0  0  0  0  0  0  0  0  0
   -1.6677    2.3020    0.3119 H   0  0  0  0  0  0  0  0  0  0  0  0
   -2.6255    2.9931   -1.4374 N   0  3  0  0  0  0  0  0  0  0  0  0
   -2.2261    3.0326   -2.3595 H   0  0  0  0  0  0  0  0  0  0  0  0
   -3.5037    3.9300   -1.1211 C   0  0  0  0  0  0  0  0  0  0  0  0
   -4.0816    3.9726    0.0466 N   0  0  0  0  0  0  0  0  0  0  0  0
   -3.8518    3.2690    0.7261 H   0  0  0  0  0  0  0  0  0  0  0  0
   -4.7456    4.6907    0.2707 H   0  0  0  0  0  0  0  0  0  0  0  0
   -3.8215    4.8544   -1.9824 N   0  0  0  0  0  0  0  0  0  0  0  0
   -3.4023    4.8630   -2.8963 H   0  0  0  0  0  0  0  0  0  0  0  0
   -4.4882    5.5632   -1.7383 H   0  0  0  0  0  0  0  0  0  0  0  0
   -1.6547    1.3413    1.4779 C   0  0  0  0  0  0  0  0  0  0  0  0
   -2.5654    1.9858    0.9716 O   0  0  0  0  0  0  0  0  0  0  0  0
   -0.8107    1.8504    2.3808 N   0  0  0  0  0  0  0  0  0  0  0  0
   -0.1136    1.2381    2.7719 H   0  0  0  0  0  0  0  0  0  0  0  0
   -0.8954    3.2155    2.9026 C   0  0  0  0  0  0  0  0  0  0  0  0
   -1.8299    3.3430    3.4532 H   0  0  0  0  0  0  0  0  0  0  0  0
   -0.0581    3.4194    3.5712 H   0  0  0  0  0  0  0  0  0  0  0  0
   -0.8804    3.9320    2.0784 H   0  0  0  0  0  0  0  0  0  0  0  0
  5  6  2  0  0  0  0
  5  7  1  0  0  0  0
  2  3  1  0  0  0  0
  2  4  1  0  0  0  0
  2  5  1  0  0  0  0
  1  2  1  0  0  0  0
 29 30  2  0  0  0  0
 29 31  1  0  0  0  0
 26 27  1  0  0  0  0
 26 28  1  0  0  0  0
 23 24  1  0  0  0  0
 23 25  1  0  0  0  0
 22 23  1  0  0  0  0
 22 26  1  0  0  0  0
 20 21  1  0  0  0  0
 20 22  2  0  0  0  0
 17 18  1  0  0  0  0
 17 19  1  0  0  0  0
 17 20  1  0  0  0  0
 14 15  1  0  0  0  0
 14 16  1  0  0  0  0
 14 17  1  0  0  0  0
 11 12  1  0  0  0  0
 11 13  1  0  0  0  0
 11 14  1  0  0  0  0
  9 10  1  0  0  0  0
  9 11  1  0  0  0  0
  9 29  1  0  0  0  0
  7  8  1  0  0  0  0
  7  9  1  0  0  0  0
 33 34  1  0  0  0  0
 33 35  1  0  0  0  0
 33 36  1  0  0  0  0
 31 32  1  0  0  0  0
 31 33  1  0  0  0  0
M  CHG  1  20   1
M  END
$$$$
default_name
  -OEChem-02102213163D

 36 35  0     1  0  0  0  0  0999 V2000
   -4.2256   -3.6731    1.8584 H   0  0  0  0  0  0  0  0  0  0  0  0
   -4.2396   -2.6781    1.4144 C   0  0  0  0  0  0  0  0  0  0  0  0
   -4.9506   -2.0521    1.9514 H   0  0  0  0  0  0  0  0  0  0  0  0
   -4.5266   -2.7521    0.3674 H   0  0  0  0  0  0  0  0  0  0  0  0
   -2.8576   -2.0761    1.5184 C   0  0  0  0  0  0  0  0  0  0  0  0
   -1.9456   -2.7051    2.0404 O   0  0  0  0  0  0  0  0  0  0  0  0
   -2.6926   -0.8481    1.0174 N   0  0  0  0  0  0  0  0  0  0  0  0
   -3.4926   -0.3971    0.5954 H   0  0  0  0  0  0  0  0  0  0  0  0
   -1.4216   -0.1071    1.0434 C   0  0  1  0  0  0  0  0  0  0  0  0
   -0.7579   -0.5878    1.7640 H   0  0  0  0  0  0  0  0  0  0  0  0
   -0.7791   -0.1912   -0.3557 C   0  0  0  0  0  0  0  0  0  0  0  0
    0.3064   -0.1586   -0.2431 H   0  0  0  0  0  0  0  0  0  0  0  0
   -1.0440   -1.1469   -0.8132 H   0  0  0  0  0  0  0  0  0  0  0  0
   -1.2016    0.9504   -1.2919 C   0  0  0  0  0  0  0  0  0  0  0  0
   -0.3266    1.3458   -1.8098 H   0  0  0  0  0  0  0  0  0  0  0  0
   -1.9134    0.5707   -2.0255 H   0  0  0  0  0  0  0  0  0  0  0  0
   -1.8567    2.0764   -0.4804 C   0  0  0  0  0  0  0  0  0  0  0  0
   -2.7155    1.6658    0.0555 H   0  0  0  0  0  0  0  0  0  0  0  0
   -1.1314    2.4476    0.2475 H   0  0  0  0  0  0  0  0  0  0  0  0
   -2.3014    3.1885   -1.3454 N   0  3  0  0  0  0  0  0  0  0  0  0
   -2.0913    3.1101   -2.3257 H   0  0  0  0  0  0  0  0  0  0  0  0
   -2.9480    4.2734   -0.9531 C   0  0  0  0  0  0  0  0  0  0  0  0
   -3.2699    4.4756    0.2938 N   0  0  0  0  0  0  0  0  0  0  0  0
   -3.0188    3.7828    0.9767 H   0  0  0  0  0  0  0  0  0  0  0  0
   -3.7603    5.3047    0.5748 H   0  0  0  0  0  0  0  0  0  0  0  0
   -3.2869    5.1881   -1.8167 N   0  0  0  0  0  0  0  0  0  0  0  0
   -3.0607    5.0765   -2.7901 H   0  0  0  0  0  0  0  0  0  0  0  0
   -3.7774    6.0095   -1.5149 H   0  0  0  0  0  0  0  0  0  0  0  0
   -1.6547    1.3413    1.4779 C   0  0  0  0  0  0  0  0  0  0  0  0
   -2.5654    1.9858    0.9716 O   0  0  0  0  0  0  0  0  0  0  0  0
   -0.8107    1.8504    2.3808 N   0  0  0  0  0  0  0  0  0  0  0  0
   -0.1136    1.2381    2.7719 H   0  0  0  0  0  0  0  0  0  0  0  0
   -0.8954    3.2155    2.9026 C   0  0  0  0  0  0  0  0  0  0  0  0
   -1.8299    3.3430    3.4532 H   0  0  0  0  0  0  0  0  0  0  0  0
   -0.0581    3.4194    3.5712 H   0  0  0  0  0  0  0  0  0  0  0  0
   -0.8804    3.9320    2.0784 H   0  0  0  0  0  0  0  0  0  0  0  0
  5  6  2  0  0  0  0
  5  7  1  0  0  0  0
  2  3  1  0  0  0  0
  2  4  1  0  0  0  0
  2  5  1  0  0  0  0
  1  2  1  0  0  0  0
 29 30  2  0  0  0  0
 29 31  1  0  0  0  0
 26 27  1  0  0  0  0
 26 28  1  0  0  0  0
 23 24  1  0  0  0  0
 23 25  1  0  0  0  0
 22 23  1  0  0  0  0
 22 26  1  0  0  0  0
 20 21  1  0  0  0  0
 20 22  2  0  0  0  0
 17 18  1  0  0  0  0
 17 19  1  0  0  0  0
 17 20  1  0  0  0  0
 14 15  1  0  0  0  0
 14 16  1  0  0  0  0
 14 17  1  0  0  0  0
 11 12  1  0  0  0  0
 11 13  1  0  0  0  0
 11 14  1  0  0  0  0
  9 10  1  0  0  0  0
  9 11  1  0  0  0  0
  9 29  1  0  0  0  0
  7  8  1  0  0  0  0
  7  9  1  0  0  0  0
 33 34  1  0  0  0  0
 33 35  1  0  0  0  0
 33 36  1  0  0  0  0
 31 32  1  0  0  0  0
 31 33  1  0  0  0  0
M  CHG  1  20   1
M  END
$$$$
default_name
  -OEChem-02102213163D

 36 35  0     1  0  0  0  0  0999 V2000
   -4.2256   -3.6731    1.8584 H   0  0  0  0  0  0  0  0  0  0  0  0
   -4.2396   -2.6781    1.4144 C   0  0  0  0  0  0  0  0  0  0  0  0
   -4.9506   -2.0521    1.9514 H   0  0  0  0  0  0  0  0  0  0  0  0
   -4.5266   -2.7521    0.3674 H   0  0  0  0  0  0  0  0  0  0  0  0
   -2.8576   -2.0761    1.5184 C   0  0  0  0  0  0  0  0  0  0  0  0
   -1.9456   -2.7051    2.0404 O   0  0  0  0  0  0  0  0  0  0  0  0
   -2.6926   -0.8481    1.0174 N   0  0  0  0  0  0  0  0  0  0  0  0
   -3.4926   -0.3971    0.5954 H   0  0  0  0  0  0  0  0  0  0  0  0
   -1.4216   -0.1071    1.0434 C   0  0  1  0  0  0  0  0  0  0  0  0
   -0.7579   -0.5878    1.7640 H   0  0  0  0  0  0  0  0  0  0  0  0
   -0.7791   -0.1912   -0.3557 C   0  0  0  0  0  0  0  0  0  0  0  0
    0.3064   -0.1586   -0.2431 H   0  0  0  0  0  0  0  0  0  0  0  0
   -1.0440   -1.1469   -0.8132 H   0  0  0  0  0  0  0  0  0  0  0  0
   -1.2016    0.9504   -1.2919 C   0  0  0  0  0  0  0  0  0  0  0  0
   -0.3972    1.1667   -1.9963 H   0  0  0  0  0  0  0  0  0  0  0  0
   -2.0936    0.6529   -1.8440 H   0  0  0  0  0  0  0  0  0  0  0  0
   -1.5054    2.2124   -0.4730 C   0  0  0  0  0  0  0  0  0  0  0  0
   -2.2929    1.9794    0.2473 H   0  0  0  0  0  0  0  0  0  0  0  0
   -0.6028    2.4991    0.0718 H   0  0  0  0  0  0  0  0  0  0  0  0
   -1.9398    3.3326   -1.3329 N   0  3  0  0  0  0  0  0  0  0  0  0
   -1.9423    3.1661   -2.3246 H   0  0  0  0  0  0  0  0  0  0  0  0
   -2.3247    4.5294   -0.9222 C   0  0  0  0  0  0  0  0  0  0  0  0
   -2.3589    4.8511    0.3405 N   0  0  0  0  0  0  0  0  0  0  0  0
   -2.0849    4.1656    1.0220 H   0  0  0  0  0  0  0  0  0  0  0  0
   -2.6531    5.7640    0.6353 H   0  0  0  0  0  0  0  0  0  0  0  0
   -2.6861    5.4378   -1.7833 N   0  0  0  0  0  0  0  0  0  0  0  0
   -2.6766    5.2364   -2.7684 H   0  0  0  0  0  0  0  0  0  0  0  0
   -2.9774    6.3444   -1.4675 H   0  0  0  0  0  0  0  0  0  0  0  0
   -1.6547    1.3413    1.4779 C   0  0  0  0  0  0  0  0  0  0  0  0
   -2.5654    1.9858    0.9716 O   0  0  0  0  0  0  0  0  0  0  0  0
   -0.8107    1.8504    2.3808 N   0  0  0  0  0  0  0  0  0  0  0  0
   -0.1136    1.2381    2.7719 H   0  0  0  0  0  0  0  0  0  0  0  0
   -0.8954    3.2155    2.9026 C   0  0  0  0  0  0  0  0  0  0  0  0
   -1.8299    3.3430    3.4532 H   0  0  0  0  0  0  0  0  0  0  0  0
   -0.0581    3.4194    3.5712 H   0  0  0  0  0  0  0  0  0  0  0  0
   -0.8804    3.9320    2.0784 H   0  0  0  0  0  0  0  0  0  0  0  0
  5  6  2  0  0  0  0
  5  7  1  0  0  0  0
  2  3  1  0  0  0  0
  2  4  1  0  0  0  0
  2  5  1  0  0  0  0
  1  2  1  0  0  0  0
 29 30  2  0  0  0  0
 29 31  1  0  0  0  0
 26 27  1  0  0  0  0
 26 28  1  0  0  0  0
 23 24  1  0  0  0  0
 23 25  1  0  0  0  0
 22 23  1  0  0  0  0
 22 26  1  0  0  0  0
 20 21  1  0  0  0  0
 20 22  2  0  0  0  0
 17 18  1  0  0  0  0
 17 19  1  0  0  0  0
 17 20  1  0  0  0  0
 14 15  1  0  0  0  0
 14 16  1  0  0  0  0
 14 17  1  0  0  0  0
 11 12  1  0  0  0  0
 11 13  1  0  0  0  0
 11 14  1  0  0  0  0
  9 10  1  0  0  0  0
  9 11  1  0  0  0  0
  9 29  1  0  0  0  0
  7  8  1  0  0  0  0
  7  9  1  0  0  0  0
 33 34  1  0  0  0  0
 33 35  1  0  0  0  0
 33 36  1  0  0  0  0
 31 32  1  0  0  0  0
 31 33  1  0  0  0  0
M  CHG  1  20   1
M  END
$$$$
default_name
  -OEChem-02102213163D

 36 35  0     1  0  0  0  0  0999 V2000
   -4.2256   -3.6731    1.8584 H   0  0  0  0  0  0  0  0  0  0  0  0
   -4.2396   -2.6781    1.4144 C   0  0  0  0  0  0  0  0  0  0  0  0
   -4.9506   -2.0521    1.9514 H   0  0  0  0  0  0  0  0  0  0  0  0
   -4.5266   -2.7521    0.3674 H   0  0  0  0  0  0  0  0  0  0  0  0
   -2.8576   -2.0761    1.5184 C   0  0  0  0  0  0  0  0  0  0  0  0
   -1.9456   -2.7051    2.0404 O   0  0  0  0  0  0  0  0  0  0  0  0
   -2.6926   -0.8481    1.0174 N   0  0  0  0  0  0  0  0  0  0  0  0
   -3.4926   -0.3971    0.5954 H   0  0  0  0  0  0  0  0  0  0  0  0
   -1.4216   -0.1071    1.0434 C   0  0  1  0  0  0  0  0  0  0  0  0
   -0.7579   -0.5878    1.7640 H   0  0  0  0  0  0  0  0  0  0  0  0
   -0.7791   -0.1912   -0.3557 C   0  0  0  0  0  0  0  0  0  0  0  0
    0.3064   -0.1586   -0.2431 H   0  0  0  0  0  0  0  0  0  0  0  0
   -1.0440   -1.1469   -0.8132 H   0  0  0  0  0  0  0  0  0  0  0  0
   -1.2016    0.9504   -1.2919 C   0  0  0  0  0  0  0  0  0  0  0  0
   -0.5294    0.9916   -2.1501 H   0  0  0  0  0  0  0  0  0  0  0  0
   -2.2198    0.7736   -1.6398 H   0  0  0  0  0  0  0  0  0  0  0  0
   -1.1433    2.2889   -0.5432 C   0  0  0  0  0  0  0  0  0  0  0  0
   -1.7984    2.2294    0.3290 H   0  0  0  0  0  0  0  0  0  0  0  0
   -0.1179    2.4528   -0.2034 H   0  0  0  0  0  0  0  0  0  0  0  0
   -1.5654    3.4156   -1.4006 N   0  3  0  0  0  0  0  0  0  0  0  0
   -1.7894    3.1968   -2.3562 H   0  0  0  0  0  0  0  0  0  0  0  0
   -1.6763    4.6805   -1.0305 C   0  0  0  0  0  0  0  0  0  0  0  0
   -1.4107    5.0733    0.1837 N   0  0  0  0  0  0  0  0  0  0  0  0
   -1.1138    4.3911    0.8588 H   0  0  0  0  0  0  0  0  0  0  0  0
   -1.4996    6.0372    0.4480 H   0  0  0  0  0  0  0  0  0  0  0  0
   -2.0599    5.5866   -1.8845 N   0  0  0  0  0  0  0  0  0  0  0  0
   -2.2763    5.3318   -2.8327 H   0  0  0  0  0  0  0  0  0  0  0  0
   -2.1427    6.5450   -1.5996 H   0  0  0  0  0  0  0  0  0  0  0  0
   -1.6547    1.3413    1.4779 C   0  0  0  0  0  0  0  0  0  0  0  0
   -2.5654    1.9858    0.9716 O   0  0  0  0  0  0  0  0  0  0  0  0
   -0.8107    1.8504    2.3808 N   0  0  0  0  0  0  0  0  0  0  0  0
   -0.1136    1.2381    2.7719 H   0  0  0  0  0  0  0  0  0  0  0  0
   -0.8954    3.2155    2.9026 C   0  0  0  0  0  0  0  0  0  0  0  0
   -1.8299    3.3430    3.4532 H   0  0  0  0  0  0  0  0  0  0  0  0
   -0.0581    3.4194    3.5712 H   0  0  0  0  0  0  0  0  0  0  0  0
   -0.8804    3.9320    2.0784 H   0  0  0  0  0  0  0  0  0  0  0  0
  5  6  2  0  0  0  0
  5  7  1  0  0  0  0
  2  3  1  0  0  0  0
  2  4  1  0  0  0  0
  2  5  1  0  0  0  0
  1  2  1  0  0  0  0
 29 30  2  0  0  0  0
 29 31  1  0  0  0  0
 26 27  1  0  0  0  0
 26 28  1  0  0  0  0
 23 24  1  0  0  0  0
 23 25  1  0  0  0  0
 22 23  1  0  0  0  0
 22 26  1  0  0  0  0
 20 21  1  0  0  0  0
 20 22  2  0  0  0  0
 17 18  1  0  0  0  0
 17 19  1  0  0  0  0
 17 20  1  0  0  0  0
 14 15  1  0  0  0  0
 14 16  1  0  0  0  0
 14 17  1  0  0  0  0
 11 12  1  0  0  0  0
 11 13  1  0  0  0  0
 11 14  1  0  0  0  0
  9 10  1  0  0  0  0
  9 11  1  0  0  0  0
  9 29  1  0  0  0  0
  7  8  1  0  0  0  0
  7  9  1  0  0  0  0
 33 34  1  0  0  0  0
 33 35  1  0  0  0  0
 33 36  1  0  0  0  0
 31 32  1  0  0  0  0
 31 33  1  0  0  0  0
M  CHG  1  20   1
M  END
$$$$
default_name
  -OEChem-02102213163D

 36 35  0     1  0  0  0  0  0999 V2000
   -4.2256   -3.6731    1.8584 H   0  0  0  0  0  0  0  0  0  0  0  0
   -4.2396   -2.6781    1.4144 C   0  0  0  0  0  0  0  0  0  0  0  0
   -4.9506   -2.0521    1.9514 H   0  0  0  0  0  0  0  0  0  0  0  0
   -4.5266   -2.7521    0.3674 H   0  0  0  0  0  0  0  0  0  0  0  0
   -2.8576   -2.0761    1.5184 C   0  0  0  0  0  0  0  0  0  0  0  0
   -1.9456   -2.7051    2.0404 O   0  0  0  0  0  0  0  0  0  0  0  0
   -2.6926   -0.8481    1.0174 N   0  0  0  0  0  0  0  0  0  0  0  0
   -3.4926   -0.3971    0.5954 H   0  0  0  0  0  0  0  0  0  0  0  0
   -1.4216   -0.1071    1.0434 C   0  0  1  0  0  0  0  0  0  0  0  0
   -0.7579   -0.5878    1.7640 H   0  0  0  0  0  0  0  0  0  0  0  0
   -0.7791   -0.1912   -0.3557 C   0  0  0  0  0  0  0  0  0  0  0  0
    0.3064   -0.1586   -0.2431 H   0  0  0  0  0  0  0  0  0  0  0  0
   -1.0440   -1.1469   -0.8132 H   0  0  0  0  0  0  0  0  0  0  0  0
   -1.2016    0.9504   -1.2919 C   0  0  0  0  0  0  0  0  0  0  0  0
   -0.7144    0.8324   -2.2608 H   0  0  0  0  0  0  0  0  0  0  0  0
   -2.2833    0.9247   -1.4270 H   0  0  0  0  0  0  0  0  0  0  0  0
   -0.7949    2.3007   -0.6861 C   0  0  0  0  0  0  0  0  0  0  0  0
   -1.2656    2.3986    0.2949 H   0  0  0  0  0  0  0  0  0  0  0  0
    0.2902    2.3121   -0.5592 H   0  0  0  0  0  0  0  0  0  0  0  0
   -1.2037    3.4319   -1.5439 N   0  3  0  0  0  0  0  0  0  0  0  0
   -1.6430    3.2001   -2.4183 H   0  0  0  0  0  0  0  0  0  0  0  0
   -1.0470    4.7164   -1.2707 C   0  0  0  0  0  0  0  0  0  0  0  0
   -0.4899    5.1272   -0.1661 N   0  0  0  0  0  0  0  0  0  0  0  0
   -0.1715    4.4441    0.4983 H   0  0  0  0  0  0  0  0  0  0  0  0
   -0.3783    6.1058    0.0256 H   0  0  0  0  0  0  0  0  0  0  0  0
   -1.4510    5.6243   -2.1132 N   0  0  0  0  0  0  0  0  0  0  0  0
   -1.8869    5.3562   -2.9787 H   0  0  0  0  0  0  0  0  0  0  0  0
   -1.3302    6.5976   -1.9020 H   0  0  0  0  0  0  0  0  0  0  0  0
   -1.6547    1.3413    1.4779 C   0  0  0  0  0  0  0  0  0  0  0  0
   -2.5654    1.9858    0.9716 O   0  0  0  0  0  0  0  0  0  0  0  0
   -0.8107    1.8504    2.3808 N   0  0  0  0  0  0  0  0  0  0  0  0
   -0.1136    1.2381    2.7719 H   0  0  0  0  0  0  0  0  0  0  0  0
   -0.8954    3.2155    2.9026 C   0  0  0  0  0  0  0  0  0  0  0  0
   -1.8299    3.3430    3.4532 H   0  0  0  0  0  0  0  0  0  0  0  0
   -0.0581    3.4194    3.5712 H   0  0  0  0  0  0  0  0  0  0  0  0
   -0.8804    3.9320    2.0784 H   0  0  0  0  0  0  0  0  0  0  0  0
  5  6  2  0  0  0  0
  5  7  1  0  0  0  0
  2  3  1  0  0  0  0
  2  4  1  0  0  0  0
  2  5  1  0  0  0  0
  1  2  1  0  0  0  0
 29 30  2  0  0  0  0
 29 31  1  0  0  0  0
 26 27  1  0  0  0  0
 26 28  1  0  0  0  0
 23 24  1  0  0  0  0
 23 25  1  0  0  0  0
 22 23  1  0  0  0  0
 22 26  1  0  0  0  0
 20 21  1  0  0  0  0
 20 22  2  0  0  0  0
 17 18  1  0  0  0  0
 17 19  1  0  0  0  0
 17 20  1  0  0  0  0
 14 15  1  0  0  0  0
 14 16  1  0  0  0  0
 14 17  1  0  0  0  0
 11 12  1  0  0  0  0
 11 13  1  0  0  0  0
 11 14  1  0  0  0  0
  9 10  1  0  0  0  0
  9 11  1  0  0  0  0
  9 29  1  0  0  0  0
  7  8  1  0  0  0  0
  7  9  1  0  0  0  0
 33 34  1  0  0  0  0
 33 35  1  0  0  0  0
 33 36  1  0  0  0  0
 31 32  1  0  0  0  0
 31 33  1  0  0  0  0
M  CHG  1  20   1
M  END
$$$$
default_name
  -OEChem-02102213163D

 36 35  0     1  0  0  0  0  0999 V2000
   -4.2256   -3.6731    1.8584 H   0  0  0  0  0  0  0  0  0  0  0  0
   -4.2396   -2.6781    1.4144 C   0  0  0  0  0  0  0  0  0  0  0  0
   -4.9506   -2.0521    1.9514 H   0  0  0  0  0  0  0  0  0  0  0  0
   -4.5266   -2.7521    0.3674 H   0  0  0  0  0  0  0  0  0  0  0  0
   -2.8576   -2.0761    1.5184 C   0  0  0  0  0  0  0  0  0  0  0  0
   -1.9456   -2.7051    2.0404 O   0  0  0  0  0  0  0  0  0  0  0  0
   -2.6926   -0.8481    1.0174 N   0  0  0  0  0  0  0  0  0  0  0  0
   -3.4926   -0.3971    0.5954 H   0  0  0  0  0  0  0  0  0  0  0  0
   -1.4216   -0.1071    1.0434 C   0  0  1  0  0  0  0  0  0  0  0  0
   -0.7579   -0.5878    1.7640 H   0  0  0  0  0  0  0  0  0  0  0  0
   -0.7791   -0.1912   -0.3557 C   0  0  0  0  0  0  0  0  0  0  0  0
    0.3064   -0.1586   -0.2431 H   0  0  0  0  0  0  0  0  0  0  0  0
   -1.0440   -1.1469   -0.8132 H   0  0  0  0  0  0  0  0  0  0  0  0
   -1.2016    0.9504   -1.2919 C   0  0  0  0  0  0  0  0  0  0  0  0
   -0.9395    0.6999   -2.3208 H   0  0  0  0  0  0  0  0  0  0  0  0
   -2.2799    1.0957   -1.2199 H   0  0  0  0  0  0  0  0  0  0  0  0
   -0.4841    2.2469   -0.8919 C   0  0  0  0  0  0  0  0  0  0  0  0
   -0.7308    2.4755    0.1474 H   0  0  0  0  0  0  0  0  0  0  0  0
    0.5937    2.0864   -0.9713 H   0  0  0  0  0  0  0  0  0  0  0  0
   -0.8793    3.3804   -1.7531 N   0  3  0  0  0  0  0  0  0  0  0  0
   -1.5129    3.1757   -2.5067 H   0  0  0  0  0  0  0  0  0  0  0  0
   -0.4796    4.6347   -1.6263 C   0  0  0  0  0  0  0  0  0  0  0  0
    0.3407    5.0091   -0.6849 N   0  0  0  0  0  0  0  0  0  0  0  0
    0.6777    4.3209   -0.0350 H   0  0  0  0  0  0  0  0  0  0  0  0
    0.6344    5.9650   -0.6030 H   0  0  0  0  0  0  0  0  0  0  0  0
   -0.9009    5.5483   -2.4540 N   0  0  0  0  0  0  0  0  0  0  0  0
   -1.5350    5.3079   -3.1964 H   0  0  0  0  0  0  0  0  0  0  0  0
   -0.5953    6.4987   -2.3542 H   0  0  0  0  0  0  0  0  0  0  0  0
   -1.6547    1.3413    1.4779 C   0  0  0  0  0  0  0  0  0  0  0  0
   -2.5654    1.9858    0.9716 O   0  0  0  0  0  0  0  0  0  0  0  0
   -0.8107    1.8504    2.3808 N   0  0  0  0  0  0  0  0  0  0  0  0
   -0.1136    1.2381    2.7719 H   0  0  0  0  0  0  0  0  0  0  0  0
   -0.8954    3.2155    2.9026 C   0  0  0  0  0  0  0  0  0  0  0  0
   -1.8299    3.3430    3.4532 H   0  0  0  0  0  0  0  0  0  0  0  0
   -0.0581    3.4194    3.5712 H   0  0  0  0  0  0  0  0  0  0  0  0
   -0.8804    3.9320    2.0784 H   0  0  0  0  0  0  0  0  0  0  0  0
  5  6  2  0  0  0  0
  5  7  1  0  0  0  0
  2  3  1  0  0  0  0
  2  4  1  0  0  0  0
  2  5  1  0  0  0  0
  1  2  1  0  0  0  0
 29 30  2  0  0  0  0
 29 31  1  0  0  0  0
 26 27  1  0  0  0  0
 26 28  1  0  0  0  0
 23 24  1  0  0  0  0
 23 25  1  0  0  0  0
 22 23  1  0  0  0  0
 22 26  1  0  0  0  0
 20 21  1  0  0  0  0
 20 22  2  0  0  0  0
 17 18  1  0  0  0  0
 17 19  1  0  0  0  0
 17 20  1  0  0  0  0
 14 15  1  0  0  0  0
 14 16  1  0  0  0  0
 14 17  1  0  0  0  0
 11 12  1  0  0  0  0
 11 13  1  0  0  0  0
 11 14  1  0  0  0  0
  9 10  1  0  0  0  0
  9 11  1  0  0  0  0
  9 29  1  0  0  0  0
  7  8  1  0  0  0  0
  7  9  1  0  0  0  0
 33 34  1  0  0  0  0
 33 35  1  0  0  0  0
 33 36  1  0  0  0  0
 31 32  1  0  0  0  0
 31 33  1  0  0  0  0
M  CHG  1  20   1
M  END
$$$$
default_name
  -OEChem-02102213163D

 36 35  0     1  0  0  0  0  0999 V2000
   -4.2256   -3.6731    1.8584 H   0  0  0  0  0  0  0  0  0  0  0  0
   -4.2396   -2.6781    1.4144 C   0  0  0  0  0  0  0  0  0  0  0  0
   -4.9506   -2.0521    1.9514 H   0  0  0  0  0  0  0  0  0  0  0  0
   -4.5266   -2.7521    0.3674 H   0  0  0  0  0  0  0  0  0  0  0  0
   -2.8576   -2.0761    1.5184 C   0  0  0  0  0  0  0  0  0  0  0  0
   -1.9456   -2.7051    2.0404 O   0  0  0  0  0  0  0  0  0  0  0  0
   -2.6926   -0.8481    1.0174 N   0  0  0  0  0  0  0  0  0  0  0  0
   -3.4926   -0.3971    0.5954 H   0  0  0  0  0  0  0  0  0  0  0  0
   -1.4216   -0.1071    1.0434 C   0  0  1  0  0  0  0  0  0  0  0  0
   -0.7579   -0.5878    1.7640 H   0  0  0  0  0  0  0  0  0  0  0  0
   -0.7791   -0.1912   -0.3557 C   0  0  0  0  0  0  0  0  0  0  0  0
    0.3064   -0.1586   -0.2431 H   0  0  0  0  0  0  0  0  0  0  0  0
   -1.0440   -1.1469   -0.8132 H   0  0  0  0  0  0  0  0  0  0  0  0
   -1.2016    0.9504   -1.2919 C   0  0  0  0  0  0  0  0  0  0  0  0
   -1.1894    0.6032   -2.3260 H   0  0  0  0  0  0  0  0  0  0  0  0
   -2.2098    1.2752   -1.0327 H   0  0  0  0  0  0  0  0  0  0  0  0
   -0.2319    2.1312   -1.1468 C   0  0  0  0  0  0  0  0  0  0  0  0
   -0.2304    2.4550   -0.1034 H   0  0  0  0  0  0  0  0  0  0  0  0
    0.7720    1.7912   -1.4118 H   0  0  0  0  0  0  0  0  0  0  0  0
   -0.6143    3.2645   -2.0139 N   0  3  0  0  0  0  0  0  0  0  0  0
   -1.4082    3.1254   -2.6154 H   0  0  0  0  0  0  0  0  0  0  0  0
   -0.0130    4.4410   -2.0731 C   0  0  0  0  0  0  0  0  0  0  0  0
    1.0245    4.7269   -1.3375 N   0  0  0  0  0  0  0  0  0  0  0  0
    1.3758    4.0300   -0.7048 H   0  0  0  0  0  0  0  0  0  0  0  0
    1.4694    5.6245   -1.3949 H   0  0  0  0  0  0  0  0  0  0  0  0
   -0.4472    5.3639   -2.8836 N   0  0  0  0  0  0  0  0  0  0  0  0
   -1.2446    5.1902   -3.4709 H   0  0  0  0  0  0  0  0  0  0  0  0
    0.0119    6.2550   -2.9254 H   0  0  0  0  0  0  0  0  0  0  0  0
   -1.6547    1.3413    1.4779 C   0  0  0  0  0  0  0  0  0  0  0  0
   -2.5654    1.9858    0.9716 O   0  0  0  0  0  0  0  0  0  0  0  0
   -0.8107    1.8504    2.3808 N   0  0  0  0  0  0  0  0  0  0  0  0
   -0.1136    1.2381    2.7719 H   0  0  0  0  0  0  0  0  0  0  0  0
   -0.8954    3.2155    2.9026 C   0  0  0  0  0  0  0  0  0  0  0  0
   -1.8299    3.3430    3.4532 H   0  0  0  0  0  0  0  0  0  0  0  0
   -0.0581    3.4194    3.5712 H   0  0  0  0  0  0  0  0  0  0  0  0
   -0.8804    3.9320    2.0784 H   0  0  0  0  0  0  0  0  0  0  0  0
  5  6  2  0  0  0  0
  5  7  1  0  0  0  0
  2  3  1  0  0  0  0
  2  4  1  0  0  0  0
  2  5  1  0  0  0  0
  1  2  1  0  0  0  0
 29 30  2  0  0  0  0
 29 31  1  0  0  0  0
 26 27  1  0  0  0  0
 26 28  1  0  0  0  0
 23 24  1  0  0  0  0
 23 25  1  0  0  0  0
 22 23  1  0  0  0  0
 22 26  1  0  0  0  0
 20 21  1  0  0  0  0
 20 22  2  0  0  0  0
 17 18  1  0  0  0  0
 17 19  1  0  0  0  0
 17 20  1  0  0  0  0
 14 15  1  0  0  0  0
 14 16  1  0  0  0  0
 14 17  1  0  0  0  0
 11 12  1  0  0  0  0
 11 13  1  0  0  0  0
 11 14  1  0  0  0  0
  9 10  1  0  0  0  0
  9 11  1  0  0  0  0
  9 29  1  0  0  0  0
  7  8  1  0  0  0  0
  7  9  1  0  0  0  0
 33 34  1  0  0  0  0
 33 35  1  0  0  0  0
 33 36  1  0  0  0  0
 31 32  1  0  0  0  0
 31 33  1  0  0  0  0
M  CHG  1  20   1
M  END
$$$$
default_name
  -OEChem-02102213163D

 36 35  0     1  0  0  0  0  0999 V2000
   -4.2256   -3.6731    1.8584 H   0  0  0  0  0  0  0  0  0  0  0  0
   -4.2396   -2.6781    1.4144 C   0  0  0  0  0  0  0  0  0  0  0  0
   -4.9506   -2.0521    1.9514 H   0  0  0  0  0  0  0  0  0  0  0  0
   -4.5266   -2.7521    0.3674 H   0  0  0  0  0  0  0  0  0  0  0  0
   -2.8576   -2.0761    1.5184 C   0  0  0  0  0  0  0  0  0  0  0  0
   -1.9456   -2.7051    2.0404 O   0  0  0  0  0  0  0  0  0  0  0  0
   -2.6926   -0.8481    1.0174 N   0  0  0  0  0  0  0  0  0  0  0  0
   -3.4926   -0.3971    0.5954 H   0  0  0  0  0  0  0  0  0  0  0  0
   -1.4216   -0.1071    1.0434 C   0  0  1  0  0  0  0  0  0  0  0  0
   -0.7579   -0.5878    1.7640 H   0  0  0  0  0  0  0  0  0  0  0  0
   -0.7791   -0.1912   -0.3557 C   0  0  0  0  0  0  0  0  0  0  0  0
    0.3064   -0.1586   -0.2431 H   0  0  0  0  0  0  0  0  0  0  0  0
   -1.0440   -1.1469   -0.8132 H   0  0  0  0  0  0  0  0  0  0  0  0
   -1.2016    0.9504   -1.2919 C   0  0  0  0  0  0  0  0  0  0  0  0
   -1.4471    0.5488   -2.2760 H   0  0  0  0  0  0  0  0  0  0  0  0
   -2.0777    1.4508   -0.8782 H   0  0  0  0  0  0  0  0  0  0  0  0
   -0.0556    1.9615   -1.4332 C   0  0  0  0  0  0  0  0  0  0  0  0
    0.2013    2.3383   -0.4405 H   0  0  0  0  0  0  0  0  0  0  0  0
    0.8129    1.4465   -1.8505 H   0  0  0  0  0  0  0  0  0  0  0  0
   -0.4268    3.0923   -2.3086 N   0  3  0  0  0  0  0  0  0  0  0  0
   -1.3358    3.0524   -2.7369 H   0  0  0  0  0  0  0  0  0  0  0  0
    0.3213    4.1483   -2.5807 C   0  0  0  0  0  0  0  0  0  0  0  0
    1.5149    4.3000   -2.0793 N   0  0  0  0  0  0  0  0  0  0  0  0
    1.8755    3.5911   -1.4654 H   0  0  0  0  0  0  0  0  0  0  0  0
    2.0698    5.1075   -2.2963 H   0  0  0  0  0  0  0  0  0  0  0  0
   -0.1206    5.0836   -3.3728 N   0  0  0  0  0  0  0  0  0  0  0  0
   -1.0355    5.0111   -3.7836 H   0  0  0  0  0  0  0  0  0  0  0  0
    0.4502    5.8831   -3.5765 H   0  0  0  0  0  0  0  0  0  0  0  0
   -1.6547    1.3413    1.4779 C   0  0  0  0  0  0  0  0  0  0  0  0
   -2.5654    1.9858    0.9716 O   0  0  0  0  0  0  0  0  0  0  0  0
   -0.8107    1.8504    2.3808 N   0  0  0  0  0  0  0  0  0  0  0  0
   -0.1136    1.2381    2.7719 H   0  0  0  0  0  0  0  0  0  0  0  0
   -0.8954    3.2155    2.9026 C   0  0  0  0  0  0  0  0  0  0  0  0
   -1.8299    3.3430    3.4532 H   0  0  0  0  0  0  0  0  0  0  0  0
   -0.0581    3.4194    3.5712 H   0  0  0  0  0  0  0  0  0  0  0  0
   -0.8804    3.9320    2.0784 H   0  0  0  0  0  0  0  0  0  0  0  0
  5  6  2  0  0  0  0
  5  7  1  0  0  0  0
  2  3  1  0  0  0  0
  2  4  1  0  0  0  0
  2  5  1  0  0  0  0
  1  2  1  0  0  0  0
 29 30  2  0  0  0  0
 29 31  1  0  0  0  0
 26 27  1  0  0  0  0
 26 28  1  0  0  0  0
 23 24  1  0  0  0  0
 23 25  1  0  0  0  0
 22 23  1  0  0  0  0
 22 26  1  0  0  0  0
 20 21  1  0  0  0  0
 20 22  2  0  0  0  0
 17 18  1  0  0  0  0
 17 19  1  0  0  0  0
 17 20  1  0  0  0  0
 14 15  1  0  0  0  0
 14 16  1  0  0  0  0
 14 17  1  0  0  0  0
 11 12  1  0  0  0  0
 11 13  1  0  0  0  0
 11 14  1  0  0  0  0
  9 10  1  0  0  0  0
  9 11  1  0  0  0  0
  9 29  1  0  0  0  0
  7  8  1  0  0  0  0
  7  9  1  0  0  0  0
 33 34  1  0  0  0  0
 33 35  1  0  0  0  0
 33 36  1  0  0  0  0
 31 32  1  0  0  0  0
 31 33  1  0  0  0  0
M  CHG  1  20   1
M  END
$$$$
default_name
  -OEChem-02102213163D

 36 35  0     1  0  0  0  0  0999 V2000
   -4.2256   -3.6731    1.8584 H   0  0  0  0  0  0  0  0  0  0  0  0
   -4.2396   -2.6781    1.4144 C   0  0  0  0  0  0  0  0  0  0  0  0
   -4.9506   -2.0521    1.9514 H   0  0  0  0  0  0  0  0  0  0  0  0
   -4.5266   -2.7521    0.3674 H   0  0  0  0  0  0  0  0  0  0  0  0
   -2.8576   -2.0761    1.5184 C   0  0  0  0  0  0  0  0  0  0  0  0
   -1.9456   -2.7051    2.0404 O   0  0  0  0  0  0  0  0  0  0  0  0
   -2.6926   -0.8481    1.0174 N   0  0  0  0  0  0  0  0  0  0  0  0
   -3.4926   -0.3971    0.5954 H   0  0  0  0  0  0  0  0  0  0  0  0
   -1.4216   -0.1071    1.0434 C   0  0  1  0  0  0  0  0  0  0  0  0
   -0.7579   -0.5878    1.7640 H   0  0  0  0  0  0  0  0  0  0  0  0
   -0.7791   -0.1912   -0.3557 C   0  0  0  0  0  0  0  0  0  0  0  0
    0.3064   -0.1586   -0.2431 H   0  0  0  0  0  0  0  0  0  0  0  0
   -1.0440   -1.1469   -0.8132 H   0  0  0  0  0  0  0  0  0  0  0  0
   -1.2016    0.9504   -1.2919 C   0  0  0  0  0  0  0  0  0  0  0  0
   -1.6949    0.5405   -2.1743 H   0  0  0  0  0  0  0  0  0  0  0  0
   -1.8926    1.6106   -0.7668 H   0  0  0  0  0  0  0  0  0  0  0  0
    0.0328    1.7494   -1.7317 C   0  0  0  0  0  0  0  0  0  0  0  0
    0.5352    2.1335   -0.8409 H   0  0  0  0  0  0  0  0  0  0  0  0
    0.7136    1.0759   -2.2576 H   0  0  0  0  0  0  0  0  0  0  0  0
   -0.3296    2.8753   -2.6171 N   0  3  0  0  0  0  0  0  0  0  0  0
   -1.3008    2.9620   -2.8630 H   0  0  0  0  0  0  0  0  0  0  0  0
    0.5003    3.7768   -3.1145 C   0  0  0  0  0  0  0  0  0  0  0  0
    1.7786    3.7575   -2.8598 N   0  0  0  0  0  0  0  0  0  0  0  0
    2.1425    3.0342   -2.2649 H   0  0  0  0  0  0  0  0  0  0  0  0
    2.3947    4.4491   -3.2457 H   0  0  0  0  0  0  0  0  0  0  0  0
    0.0565    4.7265   -3.8882 N   0  0  0  0  0  0  0  0  0  0  0  0
   -0.9219    4.7829   -4.1131 H   0  0  0  0  0  0  0  0  0  0  0  0
    0.6895    5.4084   -4.2634 H   0  0  0  0  0  0  0  0  0  0  0  0
   -1.6547    1.3413    1.4779 C   0  0  0  0  0  0  0  0  0  0  0  0
   -2.5654    1.9858    0.9716 O   0  0  0  0  0  0  0  0  0  0  0  0
   -0.8107    1.8504    2.3808 N   0  0  0  0  0  0  0  0  0  0  0  0
   -0.1136    1.2381    2.7719 H   0  0  0  0  0  0  0  0  0  0  0  0
   -0.8954    3.2155    2.9026 C   0  0  0  0  0  0  0  0  0  0  0  0
   -1.8299    3.3430    3.4532 H   0  0  0  0  0  0  0  0  0  0  0  0
   -0.0581    3.4194    3.5712 H   0  0  0  0  0  0  0  0  0  0  0  0
   -0.8804    3.9320    2.0784 H   0  0  0  0  0  0  0  0  0  0  0  0
  5  6  2  0  0  0  0
  5  7  1  0  0  0  0
  2  3  1  0  0  0  0
  2  4  1  0  0  0  0
  2  5  1  0  0  0  0
  1  2  1  0  0  0  0
 29 30  2  0  0  0  0
 29 31  1  0  0  0  0
 26 27  1  0  0  0  0
 26 28  1  0  0  0  0
 23 24  1  0  0  0  0
 23 25  1  0  0  0  0
 22 23  1  0  0  0  0
 22 26  1  0  0  0  0
 20 21  1  0  0  0  0
 20 22  2  0  0  0  0
 17 18  1  0  0  0  0
 17 19  1  0  0  0  0
 17 20  1  0  0  0  0
 14 15  1  0  0  0  0
 14 16  1  0  0  0  0
 14 17  1  0  0  0  0
 11 12  1  0  0  0  0
 11 13  1  0  0  0  0
 11 14  1  0  0  0  0
  9 10  1  0  0  0  0
  9 11  1  0  0  0  0
  9 29  1  0  0  0  0
  7  8  1  0  0  0  0
  7  9  1  0  0  0  0
 33 34  1  0  0  0  0
 33 35  1  0  0  0  0
 33 36  1  0  0  0  0
 31 32  1  0  0  0  0
 31 33  1  0  0  0  0
M  CHG  1  20   1
M  END
$$$$
default_name
  -OEChem-02102213163D

 36 35  0     1  0  0  0  0  0999 V2000
   -4.2256   -3.6731    1.8584 H   0  0  0  0  0  0  0  0  0  0  0  0
   -4.2396   -2.6781    1.4144 C   0  0  0  0  0  0  0  0  0  0  0  0
   -4.9506   -2.0521    1.9514 H   0  0  0  0  0  0  0  0  0  0  0  0
   -4.5266   -2.7521    0.3674 H   0  0  0  0  0  0  0  0  0  0  0  0
   -2.8576   -2.0761    1.5184 C   0  0  0  0  0  0  0  0  0  0  0  0
   -1.9456   -2.7051    2.0404 O   0  0  0  0  0  0  0  0  0  0  0  0
   -2.6926   -0.8481    1.0174 N   0  0  0  0  0  0  0  0  0  0  0  0
   -3.4926   -0.3971    0.5954 H   0  0  0  0  0  0  0  0  0  0  0  0
   -1.4216   -0.1071    1.0434 C   0  0  1  0  0  0  0  0  0  0  0  0
   -0.7579   -0.5878    1.7640 H   0  0  0  0  0  0  0  0  0  0  0  0
   -0.7791   -0.1912   -0.3557 C   0  0  0  0  0  0  0  0  0  0  0  0
    0.3064   -0.1586   -0.2431 H   0  0  0  0  0  0  0  0  0  0  0  0
   -1.0440   -1.1469   -0.8132 H   0  0  0  0  0  0  0  0  0  0  0  0
   -1.2016    0.9504   -1.2919 C   0  0  0  0  0  0  0  0  0  0  0  0
   -1.9160    0.5788   -2.0278 H   0  0  0  0  0  0  0  0  0  0  0  0
   -1.6673    1.7437   -0.7062 H   0  0  0  0  0  0  0  0  0  0  0  0
    0.0273    1.5093   -2.0220 C   0  0  0  0  0  0  0  0  0  0  0  0
    0.7482    1.8544   -1.2773 H   0  0  0  0  0  0  0  0  0  0  0  0
    0.4809    0.7046   -2.6053 H   0  0  0  0  0  0  0  0  0  0  0  0
   -0.3293    2.6284   -2.9183 N   0  3  0  0  0  0  0  0  0  0  0  0
   -1.3056    2.8600   -2.9851 H   0  0  0  0  0  0  0  0  0  0  0  0
    0.5119    3.3517   -3.6381 C   0  0  0  0  0  0  0  0  0  0  0  0
    1.7975    3.1363   -3.6258 N   0  0  0  0  0  0  0  0  0  0  0  0
    2.1587    2.3972   -3.0489 H   0  0  0  0  0  0  0  0  0  0  0  0
    2.4221    3.6943   -4.1784 H   0  0  0  0  0  0  0  0  0  0  0  0
    0.0720    4.3169   -4.3946 N   0  0  0  0  0  0  0  0  0  0  0  0
   -0.9116    4.5212   -4.4369 H   0  0  0  0  0  0  0  0  0  0  0  0
    0.7136    4.8632   -4.9390 H   0  0  0  0  0  0  0  0  0  0  0  0
   -1.6547    1.3413    1.4779 C   0  0  0  0  0  0  0  0  0  0  0  0
   -2.5654    1.9858    0.9716 O   0  0  0  0  0  0  0  0  0  0  0  0
   -0.8107    1.8504    2.3808 N   0  0  0  0  0  0  0  0  0  0  0  0
   -0.1136    1.2381    2.7719 H   0  0  0  0  0  0  0  0  0  0  0  0
   -0.8954    3.2155    2.9026 C   0  0  0  0  0  0  0  0  0  0  0  0
   -1.8299    3.3430    3.4532 H   0  0  0  0  0  0  0  0  0  0  0  0
   -0.0581    3.4194    3.5712 H   0  0  0  0  0  0  0  0  0  0  0  0
   -0.8804    3.9320    2.0784 H   0  0  0  0  0  0  0  0  0  0  0  0
  5  6  2  0  0  0  0
  5  7  1  0  0  0  0
  2  3  1  0  0  0  0
  2  4  1  0  0  0  0
  2  5  1  0  0  0  0
  1  2  1  0  0  0  0
 29 30  2  0  0  0  0
 29 31  1  0  0  0  0
 26 27  1  0  0  0  0
 26 28  1  0  0  0  0
 23 24  1  0  0  0  0
 23 25  1  0  0  0  0
 22 23  1  0  0  0  0
 22 26  1  0  0  0  0
 20 21  1  0  0  0  0
 20 22  2  0  0  0  0
 17 18  1  0  0  0  0
 17 19  1  0  0  0  0
 17 20  1  0  0  0  0
 14 15  1  0  0  0  0
 14 16  1  0  0  0  0
 14 17  1  0  0  0  0
 11 12  1  0  0  0  0
 11 13  1  0  0  0  0
 11 14  1  0  0  0  0
  9 10  1  0  0  0  0
  9 11  1  0  0  0  0
  9 29  1  0  0  0  0
  7  8  1  0  0  0  0
  7  9  1  0  0  0  0
 33 34  1  0  0  0  0
 33 35  1  0  0  0  0
 33 36  1  0  0  0  0
 31 32  1  0  0  0  0
 31 33  1  0  0  0  0
M  CHG  1  20   1
M  END
$$$$
default_name
  -OEChem-02102213163D

 36 35  0     1  0  0  0  0  0999 V2000
   -4.2256   -3.6731    1.8584 H   0  0  0  0  0  0  0  0  0  0  0  0
   -4.2396   -2.6781    1.4144 C   0  0  0  0  0  0  0  0  0  0  0  0
   -4.9506   -2.0521    1.9514 H   0  0  0  0  0  0  0  0  0  0  0  0
   -4.5266   -2.7521    0.3674 H   0  0  0  0  0  0  0  0  0  0  0  0
   -2.8576   -2.0761    1.5184 C   0  0  0  0  0  0  0  0  0  0  0  0
   -1.9456   -2.7051    2.0404 O   0  0  0  0  0  0  0  0  0  0  0  0
   -2.6926   -0.8481    1.0174 N   0  0  0  0  0  0  0  0  0  0  0  0
   -3.4926   -0.3971    0.5954 H   0  0  0  0  0  0  0  0  0  0  0  0
   -1.4216   -0.1071    1.0434 C   0  0  1  0  0  0  0  0  0  0  0  0
   -0.7579   -0.5878    1.7640 H   0  0  0  0  0  0  0  0  0  0  0  0
   -0.7791   -0.1912   -0.3557 C   0  0  0  0  0  0  0  0  0  0  0  0
    0.3064   -0.1586   -0.2431 H   0  0  0  0  0  0  0  0  0  0  0  0
   -1.0440   -1.1469   -0.8132 H   0  0  0  0  0  0  0  0  0  0  0  0
   -1.2016    0.9504   -1.2919 C   0  0  0  0  0  0  0  0  0  0  0  0
   -2.0953    0.6612   -1.8465 H   0  0  0  0  0  0  0  0  0  0  0  0
   -1.4169    1.8410   -0.7006 H   0  0  0  0  0  0  0  0  0  0  0  0
   -0.0718    1.2576   -2.2842 C   0  0  0  0  0  0  0  0  0  0  0  0
    0.8261    1.5202   -1.7199 H   0  0  0  0  0  0  0  0  0  0  0  0
    0.1306    0.3579   -2.8700 H   0  0  0  0  0  0  0  0  0  0  0  0
   -0.4259    2.3684   -3.1917 N   0  3  0  0  0  0  0  0  0  0  0  0
   -1.3498    2.7537   -3.0949 H   0  0  0  0  0  0  0  0  0  0  0  0
    0.3553    2.9020   -4.1158 C   0  0  0  0  0  0  0  0  0  0  0  0
    1.5703    2.4787   -4.3251 N   0  0  0  0  0  0  0  0  0  0  0  0
    1.9230    1.7236   -3.7640 H   0  0  0  0  0  0  0  0  0  0  0  0
    2.1499    2.8945   -5.0308 H   0  0  0  0  0  0  0  0  0  0  0  0
   -0.0751    3.8827   -4.8576 N   0  0  0  0  0  0  0  0  0  0  0  0
   -1.0053    4.2436   -4.7331 H   0  0  0  0  0  0  0  0  0  0  0  0
    0.5209    4.2847   -5.5575 H   0  0  0  0  0  0  0  0  0  0  0  0
   -1.6547    1.3413    1.4779 C   0  0  0  0  0  0  0  0  0  0  0  0
   -2.5654    1.9858    0.9716 O   0  0  0  0  0  0  0  0  0  0  0  0
   -0.8107    1.8504    2.3808 N   0  0  0  0  0  0  0  0  0  0  0  0
   -0.1136    1.2381    2.7719 H   0  0  0  0  0  0  0  0  0  0  0  0
   -0.8954    3.2155    2.9026 C   0  0  0  0  0  0  0  0  0  0  0  0
   -1.8299    3.3430    3.4532 H   0  0  0  0  0  0  0  0  0  0  0  0
   -0.0581    3.4194    3.5712 H   0  0  0  0  0  0  0  0  0  0  0  0
   -0.8804    3.9320    2.0784 H   0  0  0  0  0  0  0  0  0  0  0  0
  5  6  2  0  0  0  0
  5  7  1  0  0  0  0
  2  3  1  0  0  0  0
  2  4  1  0  0  0  0
  2  5  1  0  0  0  0
  1  2  1  0  0  0  0
 29 30  2  0  0  0  0
 29 31  1  0  0  0  0
 26 27  1  0  0  0  0
 26 28  1  0  0  0  0
 23 24  1  0  0  0  0
 23 25  1  0  0  0  0
 22 23  1  0  0  0  0
 22 26  1  0  0  0  0
 20 21  1  0  0  0  0
 20 22  2  0  0  0  0
 17 18  1  0  0  0  0
 17 19  1  0  0  0  0
 17 20  1  0  0  0  0
 14 15  1  0  0  0  0
 14 16  1  0  0  0  0
 14 17  1  0  0  0  0
 11 12  1  0  0  0  0
 11 13  1  0  0  0  0
 11 14  1  0  0  0  0
  9 10  1  0  0  0  0
  9 11  1  0  0  0  0
  9 29  1  0  0  0  0
  7  8  1  0  0  0  0
  7  9  1  0  0  0  0
 33 34  1  0  0  0  0
 33 35  1  0  0  0  0
 33 36  1  0  0  0  0
 31 32  1  0  0  0  0
 31 33  1  0  0  0  0
M  CHG  1  20   1
M  END
$$$$
default_name
  -OEChem-02102213163D

 36 35  0     1  0  0  0  0  0999 V2000
   -4.2256   -3.6731    1.8584 H   0  0  0  0  0  0  0  0  0  0  0  0
   -4.2396   -2.6781    1.4144 C   0  0  0  0  0  0  0  0  0  0  0  0
   -4.9506   -2.0521    1.9514 H   0  0  0  0  0  0  0  0  0  0  0  0
   -4.5266   -2.7521    0.3674 H   0  0  0  0  0  0  0  0  0  0  0  0
   -2.8576   -2.0761    1.5184 C   0  0  0  0  0  0  0  0  0  0  0  0
   -1.9456   -2.7051    2.0404 O   0  0  0  0  0  0  0  0  0  0  0  0
   -2.6926   -0.8481    1.0174 N   0  0  0  0  0  0  0  0  0  0  0  0
   -3.4926   -0.3971    0.5954 H   0  0  0  0  0  0  0  0  0  0  0  0
   -1.4216   -0.1071    1.0434 C   0  0  1  0  0  0  0  0  0  0  0  0
   -0.7579   -0.5878    1.7640 H   0  0  0  0  0  0  0  0  0  0  0  0
   -0.7791   -0.1912   -0.3557 C   0  0  0  0  0  0  0  0  0  0  0  0
    0.3064   -0.1586   -0.2431 H   0  0  0  0  0  0  0  0  0  0  0  0
   -1.0440   -1.1469   -0.8132 H   0  0  0  0  0  0  0  0  0  0  0  0
   -1.2016    0.9504   -1.2919 C   0  0  0  0  0  0  0  0  0  0  0  0
   -2.2207    0.7819   -1.6427 H   0  0  0  0  0  0  0  0  0  0  0  0
   -1.1587    1.8959   -0.7502 H   0  0  0  0  0  0  0  0  0  0  0  0
   -0.2576    1.0115   -2.5005 C   0  0  0  0  0  0  0  0  0  0  0  0
    0.7633    1.1536   -2.1387 H   0  0  0  0  0  0  0  0  0  0  0  0
   -0.3134    0.0594   -3.0336 H   0  0  0  0  0  0  0  0  0  0  0  0
   -0.6128    2.1130   -3.4187 N   0  3  0  0  0  0  0  0  0  0  0  0
   -1.4303    2.6501   -3.1849 H   0  0  0  0  0  0  0  0  0  0  0  0
    0.0411    2.4583   -4.5151 C   0  0  0  0  0  0  0  0  0  0  0  0
    1.1126    1.8296   -4.9101 N   0  0  0  0  0  0  0  0  0  0  0  0
    1.4514    1.0592   -4.3613 H   0  0  0  0  0  0  0  0  0  0  0  0
    1.5968    2.1042   -5.7449 H   0  0  0  0  0  0  0  0  0  0  0  0
   -0.3747    3.4536   -5.2456 N   0  0  0  0  0  0  0  0  0  0  0  0
   -1.1965    3.9692   -4.9814 H   0  0  0  0  0  0  0  0  0  0  0  0
    0.1244    3.7122   -6.0766 H   0  0  0  0  0  0  0  0  0  0  0  0
   -1.6547    1.3413    1.4779 C   0  0  0  0  0  0  0  0  0  0  0  0
   -2.5654    1.9858    0.9716 O   0  0  0  0  0  0  0  0  0  0  0  0
   -0.8107    1.8504    2.3808 N   0  0  0  0  0  0  0  0  0  0  0  0
   -0.1136    1.2381    2.7719 H   0  0  0  0  0  0  0  0  0  0  0  0
   -0.8954    3.2155    2.9026 C   0  0  0  0  0  0  0  0  0  0  0  0
   -1.8299    3.3430    3.4532 H   0  0  0  0  0  0  0  0  0  0  0  0
   -0.0581    3.4194    3.5712 H   0  0  0  0  0  0  0  0  0  0  0  0
   -0.8804    3.9320    2.0784 H   0  0  0  0  0  0  0  0  0  0  0  0
  5  6  2  0  0  0  0
  5  7  1  0  0  0  0
  2  3  1  0  0  0  0
  2  4  1  0  0  0  0
  2  5  1  0  0  0  0
  1  2  1  0  0  0  0
 29 30  2  0  0  0  0
 29 31  1  0  0  0  0
 26 27  1  0  0  0  0
 26 28  1  0  0  0  0
 23 24  1  0  0  0  0
 23 25  1  0  0  0  0
 22 23  1  0  0  0  0
 22 26  1  0  0  0  0
 20 21  1  0  0  0  0
 20 22  2  0  0  0  0
 17 18  1  0  0  0  0
 17 19  1  0  0  0  0
 17 20  1  0  0  0  0
 14 15  1  0  0  0  0
 14 16  1  0  0  0  0
 14 17  1  0  0  0  0
 11 12  1  0  0  0  0
 11 13  1  0  0  0  0
 11 14  1  0  0  0  0
  9 10  1  0  0  0  0
  9 11  1  0  0  0  0
  9 29  1  0  0  0  0
  7  8  1  0  0  0  0
  7  9  1  0  0  0  0
 33 34  1  0  0  0  0
 33 35  1  0  0  0  0
 33 36  1  0  0  0  0
 31 32  1  0  0  0  0
 31 33  1  0  0  0  0
M  CHG  1  20   1
M  END
$$$$
default_name
  -OEChem-02102213163D

 36 35  0     1  0  0  0  0  0999 V2000
   -4.2256   -3.6731    1.8584 H   0  0  0  0  0  0  0  0  0  0  0  0
   -4.2396   -2.6781    1.4144 C   0  0  0  0  0  0  0  0  0  0  0  0
   -4.9506   -2.0521    1.9514 H   0  0  0  0  0  0  0  0  0  0  0  0
   -4.5266   -2.7521    0.3674 H   0  0  0  0  0  0  0  0  0  0  0  0
   -2.8576   -2.0761    1.5184 C   0  0  0  0  0  0  0  0  0  0  0  0
   -1.9456   -2.7051    2.0404 O   0  0  0  0  0  0  0  0  0  0  0  0
   -2.6926   -0.8481    1.0174 N   0  0  0  0  0  0  0  0  0  0  0  0
   -3.4926   -0.3971    0.5954 H   0  0  0  0  0  0  0  0  0  0  0  0
   -1.4216   -0.1071    1.0434 C   0  0  1  0  0  0  0  0  0  0  0  0
   -0.7579   -0.5878    1.7640 H   0  0  0  0  0  0  0  0  0  0  0  0
   -0.7791   -0.1912   -0.3557 C   0  0  0  0  0  0  0  0  0  0  0  0
    0.2805   -0.4274   -0.2389 H   0  0  0  0  0  0  0  0  0  0  0  0
   -1.2480   -1.0034   -0.9155 H   0  0  0  0  0  0  0  0  0  0  0  0
   -0.8972    1.1106   -1.1617 C   0  0  0  0  0  0  0  0  0  0  0  0
   -1.9490    1.3632   -1.3026 H   0  0  0  0  0  0  0  0  0  0  0  0
   -0.4025    1.9169   -0.6193 H   0  0  0  0  0  0  0  0  0  0  0  0
   -0.2337    0.9369   -2.5348 C   0  0  0  0  0  0  0  0  0  0  0  0
    0.8117    0.6582   -2.3841 H   0  0  0  0  0  0  0  0  0  0  0  0
   -0.7411    0.1284   -3.0663 H   0  0  0  0  0  0  0  0  0  0  0  0
   -0.3027    2.1752   -3.3376 N   0  3  0  0  0  0  0  0  0  0  0  0
   -0.7991    2.9498   -2.9315 H   0  0  0  0  0  0  0  0  0  0  0  0
    0.2254    2.3602   -4.5359 C   0  0  0  0  0  0  0  0  0  0  0  0
    0.8887    1.4231   -5.1533 N   0  0  0  0  0  0  0  0  0  0  0  0
    1.0022    0.5329   -4.7015 H   0  0  0  0  0  0  0  0  0  0  0  0
    1.2828    1.5798   -6.0627 H   0  0  0  0  0  0  0  0  0  0  0  0
    0.0947    3.5043   -5.1452 N   0  0  0  0  0  0  0  0  0  0  0  0
   -0.4083    4.2577   -4.7088 H   0  0  0  0  0  0  0  0  0  0  0  0
    0.4970    3.6405   -6.0541 H   0  0  0  0  0  0  0  0  0  0  0  0
   -1.6547    1.3413    1.4779 C   0  0  0  0  0  0  0  0  0  0  0  0
   -2.5654    1.9858    0.9716 O   0  0  0  0  0  0  0  0  0  0  0  0
   -0.8107    1.8504    2.3808 N   0  0  0  0  0  0  0  0  0  0  0  0
   -0.1136    1.2381    2.7719 H   0  0  0  0  0  0  0  0  0  0  0  0
   -0.8954    3.2155    2.9026 C   0  0  0  0  0  0  0  0  0  0  0  0
   -1.8299    3.3430    3.4532 H   0  0  0  0  0  0  0  0  0  0  0  0
   -0.0581    3.4194    3.5712 H   0  0  0  0  0  0  0  0  0  0  0  0
   -0.8804    3.9320    2.0784 H   0  0  0  0  0  0  0  0  0  0  0  0
  5  6  2  0  0  0  0
  5  7  1  0  0  0  0
  2  3  1  0  0  0  0
  2  4  1  0  0  0  0
  2  5  1  0  0  0  0
  1  2  1  0  0  0  0
 29 30  2  0  0  0  0
 29 31  1  0  0  0  0
 26 27  1  0  0  0  0
 26 28  1  0  0  0  0
 23 24  1  0  0  0  0
 23 25  1  0  0  0  0
 22 23  1  0  0  0  0
 22 26  1  0  0  0  0
 20 21  1  0  0  0  0
 20 22  2  0  0  0  0
 17 18  1  0  0  0  0
 17 19  1  0  0  0  0
 17 20  1  0  0  0  0
 14 15  1  0  0  0  0
 14 16  1  0  0  0  0
 14 17  1  0  0  0  0
 11 12  1  0  0  0  0
 11 13  1  0  0  0  0
 11 14  1  0  0  0  0
  9 10  1  0  0  0  0
  9 11  1  0  0  0  0
  9 29  1  0  0  0  0
  7  8  1  0  0  0  0
  7  9  1  0  0  0  0
 33 34  1  0  0  0  0
 33 35  1  0  0  0  0
 33 36  1  0  0  0  0
 31 32  1  0  0  0  0
 31 33  1  0  0  0  0
M  CHG  1  20   1
M  END
$$$$
default_name
  -OEChem-02102213163D

 36 35  0     1  0  0  0  0  0999 V2000
   -4.2256   -3.6731    1.8584 H   0  0  0  0  0  0  0  0  0  0  0  0
   -4.2396   -2.6781    1.4144 C   0  0  0  0  0  0  0  0  0  0  0  0
   -4.9506   -2.0521    1.9514 H   0  0  0  0  0  0  0  0  0  0  0  0
   -4.5266   -2.7521    0.3674 H   0  0  0  0  0  0  0  0  0  0  0  0
   -2.8576   -2.0761    1.5184 C   0  0  0  0  0  0  0  0  0  0  0  0
   -1.9456   -2.7051    2.0404 O   0  0  0  0  0  0  0  0  0  0  0  0
   -2.6926   -0.8481    1.0174 N   0  0  0  0  0  0  0  0  0  0  0  0
   -3.4926   -0.3971    0.5954 H   0  0  0  0  0  0  0  0  0  0  0  0
   -1.4216   -0.1071    1.0434 C   0  0  1  0  0  0  0  0  0  0  0  0
   -0.7579   -0.5878    1.7640 H   0  0  0  0  0  0  0  0  0  0  0  0
   -0.7791   -0.1912   -0.3557 C   0  0  0  0  0  0  0  0  0  0  0  0
    0.2805   -0.4274   -0.2389 H   0  0  0  0  0  0  0  0  0  0  0  0
   -1.2480   -1.0034   -0.9155 H   0  0  0  0  0  0  0  0  0  0  0  0
   -0.8972    1.1106   -1.1617 C   0  0  0  0  0  0  0  0  0  0  0  0
   -1.9107    1.5054   -1.0786 H   0  0  0  0  0  0  0  0  0  0  0  0
   -0.1917    1.8434   -0.7689 H   0  0  0  0  0  0  0  0  0  0  0  0
   -0.5825    0.8405   -2.6394 C   0  0  0  0  0  0  0  0  0  0  0  0
    0.4235    0.4208   -2.7106 H   0  0  0  0  0  0  0  0  0  0  0  0
   -1.2981    0.1073   -3.0189 H   0  0  0  0  0  0  0  0  0  0  0  0
   -0.6610    2.0726   -3.4509 N   0  3  0  0  0  0  0  0  0  0  0  0
   -0.9474    2.9103   -2.9737 H   0  0  0  0  0  0  0  0  0  0  0  0
   -0.3905    2.1772   -4.7412 C   0  0  0  0  0  0  0  0  0  0  0  0
   -0.0113    1.1546   -5.4551 N   0  0  0  0  0  0  0  0  0  0  0  0
    0.0792    0.2594   -5.0080 H   0  0  0  0  0  0  0  0  0  0  0  0
    0.1897    1.2511   -6.4334 H   0  0  0  0  0  0  0  0  0  0  0  0
   -0.4984    3.3256   -5.3470 N   0  0  0  0  0  0  0  0  0  0  0  0
   -0.7873    4.1433   -4.8382 H   0  0  0  0  0  0  0  0  0  0  0  0
   -0.2922    3.4005   -6.3260 H   0  0  0  0  0  0  0  0  0  0  0  0
   -1.6547    1.3413    1.4779 C   0  0  0  0  0  0  0  0  0  0  0  0
   -2.5654    1.9858    0.9716 O   0  0  0  0  0  0  0  0  0  0  0  0
   -0.8107    1.8504    2.3808 N   0  0  0  0  0  0  0  0  0  0  0  0
   -0.1136    1.2381    2.7719 H   0  0  0  0  0  0  0  0  0  0  0  0
   -0.8954    3.2155    2.9026 C   0  0  0  0  0  0  0  0  0  0  0  0
   -1.8299    3.3430    3.4532 H   0  0  0  0  0  0  0  0  0  0  0  0
   -0.0581    3.4194    3.5712 H   0  0  0  0  0  0  0  0  0  0  0  0
   -0.8804    3.9320    2.0784 H   0  0  0  0  0  0  0  0  0  0  0  0
  5  6  2  0  0  0  0
  5  7  1  0  0  0  0
  2  3  1  0  0  0  0
  2  4  1  0  0  0  0
  2  5  1  0  0  0  0
  1  2  1  0  0  0  0
 29 30  2  0  0  0  0
 29 31  1  0  0  0  0
 26 27  1  0  0  0  0
 26 28  1  0  0  0  0
 23 24  1  0  0  0  0
 23 25  1  0  0  0  0
 22 23  1  0  0  0  0
 22 26  1  0  0  0  0
 20 21  1  0  0  0  0
 20 22  2  0  0  0  0
 17 18  1  0  0  0  0
 17 19  1  0  0  0  0
 17 20  1  0  0  0  0
 14 15  1  0  0  0  0
 14 16  1  0  0  0  0
 14 17  1  0  0  0  0
 11 12  1  0  0  0  0
 11 13  1  0  0  0  0
 11 14  1  0  0  0  0
  9 10  1  0  0  0  0
  9 11  1  0  0  0  0
  9 29  1  0  0  0  0
  7  8  1  0  0  0  0
  7  9  1  0  0  0  0
 33 34  1  0  0  0  0
 33 35  1  0  0  0  0
 33 36  1  0  0  0  0
 31 32  1  0  0  0  0
 31 33  1  0  0  0  0
M  CHG  1  20   1
M  END
$$$$
default_name
  -OEChem-02102213163D

 36 35  0     1  0  0  0  0  0999 V2000
   -4.2256   -3.6731    1.8584 H   0  0  0  0  0  0  0  0  0  0  0  0
   -4.2396   -2.6781    1.4144 C   0  0  0  0  0  0  0  0  0  0  0  0
   -4.9506   -2.0521    1.9514 H   0  0  0  0  0  0  0  0  0  0  0  0
   -4.5266   -2.7521    0.3674 H   0  0  0  0  0  0  0  0  0  0  0  0
   -2.8576   -2.0761    1.5184 C   0  0  0  0  0  0  0  0  0  0  0  0
   -1.9456   -2.7051    2.0404 O   0  0  0  0  0  0  0  0  0  0  0  0
   -2.6926   -0.8481    1.0174 N   0  0  0  0  0  0  0  0  0  0  0  0
   -3.4926   -0.3971    0.5954 H   0  0  0  0  0  0  0  0  0  0  0  0
   -1.4216   -0.1071    1.0434 C   0  0  1  0  0  0  0  0  0  0  0  0
   -0.7579   -0.5878    1.7640 H   0  0  0  0  0  0  0  0  0  0  0  0
   -0.7791   -0.1912   -0.3557 C   0  0  0  0  0  0  0  0  0  0  0  0
    0.2805   -0.4274   -0.2389 H   0  0  0  0  0  0  0  0  0  0  0  0
   -1.2480   -1.0034   -0.9155 H   0  0  0  0  0  0  0  0  0  0  0  0
   -0.8972    1.1106   -1.1617 C   0  0  0  0  0  0  0  0  0  0  0  0
   -1.8053    1.6419   -0.8736 H   0  0  0  0  0  0  0  0  0  0  0  0
   -0.0309    1.7409   -0.9580 H   0  0  0  0  0  0  0  0  0  0  0  0
   -0.9555    0.7926   -2.6621 C   0  0  0  0  0  0  0  0  0  0  0  0
   -0.0554    0.2377   -2.9361 H   0  0  0  0  0  0  0  0  0  0  0  0
   -1.8286    0.1635   -2.8504 H   0  0  0  0  0  0  0  0  0  0  0  0
   -1.0458    2.0200   -3.4796 N   0  3  0  0  0  0  0  0  0  0  0  0
   -1.1052    2.8914   -2.9811 H   0  0  0  0  0  0  0  0  0  0  0  0
   -1.0554    2.0801   -4.8007 C   0  0  0  0  0  0  0  0  0  0  0  0
   -0.9833    1.0115   -5.5438 N   0  0  0  0  0  0  0  0  0  0  0  0
   -0.9168    0.1145   -5.0961 H   0  0  0  0  0  0  0  0  0  0  0  0
   -0.9922    1.0747   -6.5452 H   0  0  0  0  0  0  0  0  0  0  0  0
   -1.1399    3.2294   -5.4083 N   0  0  0  0  0  0  0  0  0  0  0  0
   -1.1974    4.0816   -4.8777 H   0  0  0  0  0  0  0  0  0  0  0  0
   -1.1468    3.2706   -6.4107 H   0  0  0  0  0  0  0  0  0  0  0  0
   -1.6547    1.3413    1.4779 C   0  0  0  0  0  0  0  0  0  0  0  0
   -2.5654    1.9858    0.9716 O   0  0  0  0  0  0  0  0  0  0  0  0
   -0.8107    1.8504    2.3808 N   0  0  0  0  0  0  0  0  0  0  0  0
   -0.1136    1.2381    2.7719 H   0  0  0  0  0  0  0  0  0  0  0  0
   -0.8954    3.2155    2.9026 C   0  0  0  0  0  0  0  0  0  0  0  0
   -1.8299    3.3430    3.4532 H   0  0  0  0  0  0  0  0  0  0  0  0
   -0.0581    3.4194    3.5712 H   0  0  0  0  0  0  0  0  0  0  0  0
   -0.8804    3.9320    2.0784 H   0  0  0  0  0  0  0  0  0  0  0  0
  5  6  2  0  0  0  0
  5  7  1  0  0  0  0
  2  3  1  0  0  0  0
  2  4  1  0  0  0  0
  2  5  1  0  0  0  0
  1  2  1  0  0  0  0
 29 30  2  0  0  0  0
 29 31  1  0  0  0  0
 26 27  1  0  0  0  0
 26 28  1  0  0  0  0
 23 24  1  0  0  0  0
 23 25  1  0  0  0  0
 22 23  1  0  0  0  0
 22 26  1  0  0  0  0
 20 21  1  0  0  0  0
 20 22  2  0  0  0  0
 17 18  1  0  0  0  0
 17 19  1  0  0  0  0
 17 20  1  0  0  0  0
 14 15  1  0  0  0  0
 14 16  1  0  0  0  0
 14 17  1  0  0  0  0
 11 12  1  0  0  0  0
 11 13  1  0  0  0  0
 11 14  1  0  0  0  0
  9 10  1  0  0  0  0
  9 11  1  0  0  0  0
  9 29  1  0  0  0  0
  7  8  1  0  0  0  0
  7  9  1  0  0  0  0
 33 34  1  0  0  0  0
 33 35  1  0  0  0  0
 33 36  1  0  0  0  0
 31 32  1  0  0  0  0
 31 33  1  0  0  0  0
M  CHG  1  20   1
M  END
$$$$
default_name
  -OEChem-02102213163D

 36 35  0     1  0  0  0  0  0999 V2000
   -4.2256   -3.6731    1.8584 H   0  0  0  0  0  0  0  0  0  0  0  0
   -4.2396   -2.6781    1.4144 C   0  0  0  0  0  0  0  0  0  0  0  0
   -4.9506   -2.0521    1.9514 H   0  0  0  0  0  0  0  0  0  0  0  0
   -4.5266   -2.7521    0.3674 H   0  0  0  0  0  0  0  0  0  0  0  0
   -2.8576   -2.0761    1.5184 C   0  0  0  0  0  0  0  0  0  0  0  0
   -1.9456   -2.7051    2.0404 O   0  0  0  0  0  0  0  0  0  0  0  0
   -2.6926   -0.8481    1.0174 N   0  0  0  0  0  0  0  0  0  0  0  0
   -3.4926   -0.3971    0.5954 H   0  0  0  0  0  0  0  0  0  0  0  0
   -1.4216   -0.1071    1.0434 C   0  0  1  0  0  0  0  0  0  0  0  0
   -0.7579   -0.5878    1.7640 H   0  0  0  0  0  0  0  0  0  0  0  0
   -0.7791   -0.1912   -0.3557 C   0  0  0  0  0  0  0  0  0  0  0  0
    0.2805   -0.4274   -0.2389 H   0  0  0  0  0  0  0  0  0  0  0  0
   -1.2480   -1.0034   -0.9155 H   0  0  0  0  0  0  0  0  0  0  0  0
   -0.8972    1.1106   -1.1617 C   0  0  0  0  0  0  0  0  0  0  0  0
   -1.6399    1.7636   -0.7013 H   0  0  0  0  0  0  0  0  0  0  0  0
    0.0689    1.6162   -1.1740 H   0  0  0  0  0  0  0  0  0  0  0  0
   -1.3273    0.7966   -2.6012 C   0  0  0  0  0  0  0  0  0  0  0  0
   -0.5923    0.1214   -3.0453 H   0  0  0  0  0  0  0  0  0  0  0  0
   -2.2965    0.2932   -2.5724 H   0  0  0  0  0  0  0  0  0  0  0  0
   -1.4309    2.0208   -3.4218 N   0  3  0  0  0  0  0  0  0  0  0  0
   -1.2618    2.8944   -2.9533 H   0  0  0  0  0  0  0  0  0  0  0  0
   -1.7238    2.0754   -4.7103 C   0  0  0  0  0  0  0  0  0  0  0  0
   -1.9610    1.0036   -5.4133 N   0  0  0  0  0  0  0  0  0  0  0  0
   -1.9178    0.1082   -4.9598 H   0  0  0  0  0  0  0  0  0  0  0  0
   -2.1823    1.0627   -6.3903 H   0  0  0  0  0  0  0  0  0  0  0  0
   -1.7860    3.2225   -5.3248 N   0  0  0  0  0  0  0  0  0  0  0  0
   -1.6106    4.0770   -4.8247 H   0  0  0  0  0  0  0  0  0  0  0  0
   -2.0085    3.2595   -6.3024 H   0  0  0  0  0  0  0  0  0  0  0  0
   -1.6547    1.3413    1.4779 C   0  0  0  0  0  0  0  0  0  0  0  0
   -2.5654    1.9858    0.9716 O   0  0  0  0  0  0  0  0  0  0  0  0
   -0.8107    1.8504    2.3808 N   0  0  0  0  0  0  0  0  0  0  0  0
   -0.1136    1.2381    2.7719 H   0  0  0  0  0  0  0  0  0  0  0  0
   -0.8954    3.2155    2.9026 C   0  0  0  0  0  0  0  0  0  0  0  0
   -1.8299    3.3430    3.4532 H   0  0  0  0  0  0  0  0  0  0  0  0
   -0.0581    3.4194    3.5712 H   0  0  0  0  0  0  0  0  0  0  0  0
   -0.8804    3.9320    2.0784 H   0  0  0  0  0  0  0  0  0  0  0  0
  5  6  2  0  0  0  0
  5  7  1  0  0  0  0
  2  3  1  0  0  0  0
  2  4  1  0  0  0  0
  2  5  1  0  0  0  0
  1  2  1  0  0  0  0
 29 30  2  0  0  0  0
 29 31  1  0  0  0  0
 26 27  1  0  0  0  0
 26 28  1  0  0  0  0
 23 24  1  0  0  0  0
 23 25  1  0  0  0  0
 22 23  1  0  0  0  0
 22 26  1  0  0  0  0
 20 21  1  0  0  0  0
 20 22  2  0  0  0  0
 17 18  1  0  0  0  0
 17 19  1  0  0  0  0
 17 20  1  0  0  0  0
 14 15  1  0  0  0  0
 14 16  1  0  0  0  0
 14 17  1  0  0  0  0
 11 12  1  0  0  0  0
 11 13  1  0  0  0  0
 11 14  1  0  0  0  0
  9 10  1  0  0  0  0
  9 11  1  0  0  0  0
  9 29  1  0  0  0  0
  7  8  1  0  0  0  0
  7  9  1  0  0  0  0
 33 34  1  0  0  0  0
 33 35  1  0  0  0  0
 33 36  1  0  0  0  0
 31 32  1  0  0  0  0
 31 33  1  0  0  0  0
M  CHG  1  20   1
M  END
$$$$
default_name
  -OEChem-02102213163D

 36 35  0     1  0  0  0  0  0999 V2000
   -4.2256   -3.6731    1.8584 H   0  0  0  0  0  0  0  0  0  0  0  0
   -4.2396   -2.6781    1.4144 C   0  0  0  0  0  0  0  0  0  0  0  0
   -4.9506   -2.0521    1.9514 H   0  0  0  0  0  0  0  0  0  0  0  0
   -4.5266   -2.7521    0.3674 H   0  0  0  0  0  0  0  0  0  0  0  0
   -2.8576   -2.0761    1.5184 C   0  0  0  0  0  0  0  0  0  0  0  0
   -1.9456   -2.7051    2.0404 O   0  0  0  0  0  0  0  0  0  0  0  0
   -2.6926   -0.8481    1.0174 N   0  0  0  0  0  0  0  0  0  0  0  0
   -3.4926   -0.3971    0.5954 H   0  0  0  0  0  0  0  0  0  0  0  0
   -1.4216   -0.1071    1.0434 C   0  0  1  0  0  0  0  0  0  0  0  0
   -0.7579   -0.5878    1.7640 H   0  0  0  0  0  0  0  0  0  0  0  0
   -0.7791   -0.1912   -0.3557 C   0  0  0  0  0  0  0  0  0  0  0  0
    0.2805   -0.4274   -0.2389 H   0  0  0  0  0  0  0  0  0  0  0  0
   -1.2480   -1.0034   -0.9155 H   0  0  0  0  0  0  0  0  0  0  0  0
   -0.8972    1.1106   -1.1617 C   0  0  0  0  0  0  0  0  0  0  0  0
   -1.4258    1.8621   -0.5736 H   0  0  0  0  0  0  0  0  0  0  0  0
    0.1010    1.4779   -1.4021 H   0  0  0  0  0  0  0  0  0  0  0  0
   -1.6724    0.8522   -2.4609 C   0  0  0  0  0  0  0  0  0  0  0  0
   -1.1506    0.0799   -3.0306 H   0  0  0  0  0  0  0  0  0  0  0  0
   -2.6697    0.4875   -2.2039 H   0  0  0  0  0  0  0  0  0  0  0  0
   -1.7902    2.0750   -3.2816 N   0  3  0  0  0  0  0  0  0  0  0  0
   -1.4066    2.9191   -2.8921 H   0  0  0  0  0  0  0  0  0  0  0  0
   -2.3503    2.1635   -4.4763 C   0  0  0  0  0  0  0  0  0  0  0  0
   -2.8779    1.1314   -5.0727 N   0  0  0  0  0  0  0  0  0  0  0  0
   -2.8557    0.2407   -4.6083 H   0  0  0  0  0  0  0  0  0  0  0  0
   -3.2994    1.2158   -5.9794 H   0  0  0  0  0  0  0  0  0  0  0  0
   -2.3928    3.3053   -5.1023 N   0  0  0  0  0  0  0  0  0  0  0  0
   -1.9987    4.1297   -4.6827 H   0  0  0  0  0  0  0  0  0  0  0  0
   -2.8186    3.3680   -6.0085 H   0  0  0  0  0  0  0  0  0  0  0  0
   -1.6547    1.3413    1.4779 C   0  0  0  0  0  0  0  0  0  0  0  0
   -2.5654    1.9858    0.9716 O   0  0  0  0  0  0  0  0  0  0  0  0
   -0.8107    1.8504    2.3808 N   0  0  0  0  0  0  0  0  0  0  0  0
   -0.1136    1.2381    2.7719 H   0  0  0  0  0  0  0  0  0  0  0  0
   -0.8954    3.2155    2.9026 C   0  0  0  0  0  0  0  0  0  0  0  0
   -1.8299    3.3430    3.4532 H   0  0  0  0  0  0  0  0  0  0  0  0
   -0.0581    3.4194    3.5712 H   0  0  0  0  0  0  0  0  0  0  0  0
   -0.8804    3.9320    2.0784 H   0  0  0  0  0  0  0  0  0  0  0  0
  5  6  2  0  0  0  0
  5  7  1  0  0  0  0
  2  3  1  0  0  0  0
  2  4  1  0  0  0  0
  2  5  1  0  0  0  0
  1  2  1  0  0  0  0
 29 30  2  0  0  0  0
 29 31  1  0  0  0  0
 26 27  1  0  0  0  0
 26 28  1  0  0  0  0
 23 24  1  0  0  0  0
 23 25  1  0  0  0  0
 22 23  1  0  0  0  0
 22 26  1  0  0  0  0
 20 21  1  0  0  0  0
 20 22  2  0  0  0  0
 17 18  1  0  0  0  0
 17 19  1  0  0  0  0
 17 20  1  0  0  0  0
 14 15  1  0  0  0  0
 14 16  1  0  0  0  0
 14 17  1  0  0  0  0
 11 12  1  0  0  0  0
 11 13  1  0  0  0  0
 11 14  1  0  0  0  0
  9 10  1  0  0  0  0
  9 11  1  0  0  0  0
  9 29  1  0  0  0  0
  7  8  1  0  0  0  0
  7  9  1  0  0  0  0
 33 34  1  0  0  0  0
 33 35  1  0  0  0  0
 33 36  1  0  0  0  0
 31 32  1  0  0  0  0
 31 33  1  0  0  0  0
M  CHG  1  20   1
M  END
$$$$
default_name
  -OEChem-02102213163D

 36 35  0     1  0  0  0  0  0999 V2000
   -4.2256   -3.6731    1.8584 H   0  0  0  0  0  0  0  0  0  0  0  0
   -4.2396   -2.6781    1.4144 C   0  0  0  0  0  0  0  0  0  0  0  0
   -4.9506   -2.0521    1.9514 H   0  0  0  0  0  0  0  0  0  0  0  0
   -4.5266   -2.7521    0.3674 H   0  0  0  0  0  0  0  0  0  0  0  0
   -2.8576   -2.0761    1.5184 C   0  0  0  0  0  0  0  0  0  0  0  0
   -1.9456   -2.7051    2.0404 O   0  0  0  0  0  0  0  0  0  0  0  0
   -2.6926   -0.8481    1.0174 N   0  0  0  0  0  0  0  0  0  0  0  0
   -3.4926   -0.3971    0.5954 H   0  0  0  0  0  0  0  0  0  0  0  0
   -1.4216   -0.1071    1.0434 C   0  0  1  0  0  0  0  0  0  0  0  0
   -0.7579   -0.5878    1.7640 H   0  0  0  0  0  0  0  0  0  0  0  0
   -0.7791   -0.1912   -0.3557 C   0  0  0  0  0  0  0  0  0  0  0  0
    0.2805   -0.4274   -0.2389 H   0  0  0  0  0  0  0  0  0  0  0  0
   -1.2480   -1.0034   -0.9155 H   0  0  0  0  0  0  0  0  0  0  0  0
   -0.8972    1.1106   -1.1617 C   0  0  0  0  0  0  0  0  0  0  0  0
   -1.1777    1.9306   -0.4992 H   0  0  0  0  0  0  0  0  0  0  0  0
    0.0633    1.3354   -1.6267 H   0  0  0  0  0  0  0  0  0  0  0  0
   -1.9675    0.9556   -2.2507 C   0  0  0  0  0  0  0  0  0  0  0  0
   -1.6924    0.1159   -2.8931 H   0  0  0  0  0  0  0  0  0  0  0  0
   -2.9230    0.7333   -1.7699 H   0  0  0  0  0  0  0  0  0  0  0  0
   -2.0990    2.1791   -3.0684 N   0  3  0  0  0  0  0  0  0  0  0  0
   -1.5297    2.9640   -2.8017 H   0  0  0  0  0  0  0  0  0  0  0  0
   -2.8921    2.3384   -4.1146 C   0  0  0  0  0  0  0  0  0  0  0  0
   -3.6714    1.3862   -4.5451 N   0  0  0  0  0  0  0  0  0  0  0  0
   -3.6665    0.5032   -4.0658 H   0  0  0  0  0  0  0  0  0  0  0  0
   -4.2676    1.5237   -5.3404 H   0  0  0  0  0  0  0  0  0  0  0  0
   -2.9188    3.4721   -4.7559 N   0  0  0  0  0  0  0  0  0  0  0  0
   -2.3352    4.2361   -4.4615 H   0  0  0  0  0  0  0  0  0  0  0  0
   -3.5219    3.5887   -5.5491 H   0  0  0  0  0  0  0  0  0  0  0  0
   -1.6547    1.3413    1.4779 C   0  0  0  0  0  0  0  0  0  0  0  0
   -2.5654    1.9858    0.9716 O   0  0  0  0  0  0  0  0  0  0  0  0
   -0.8107    1.8504    2.3808 N   0  0  0  0  0  0  0  0  0  0  0  0
   -0.1136    1.2381    2.7719 H   0  0  0  0  0  0  0  0  0  0  0  0
   -0.8954    3.2155    2.9026 C   0  0  0  0  0  0  0  0  0  0  0  0
   -1.8299    3.3430    3.4532 H   0  0  0  0  0  0  0  0  0  0  0  0
   -0.0581    3.4194    3.5712 H   0  0  0  0  0  0  0  0  0  0  0  0
   -0.8804    3.9320    2.0784 H   0  0  0  0  0  0  0  0  0  0  0  0
  5  6  2  0  0  0  0
  5  7  1  0  0  0  0
  2  3  1  0  0  0  0
  2  4  1  0  0  0  0
  2  5  1  0  0  0  0
  1  2  1  0  0  0  0
 29 30  2  0  0  0  0
 29 31  1  0  0  0  0
 26 27  1  0  0  0  0
 26 28  1  0  0  0  0
 23 24  1  0  0  0  0
 23 25  1  0  0  0  0
 22 23  1  0  0  0  0
 22 26  1  0  0  0  0
 20 21  1  0  0  0  0
 20 22  2  0  0  0  0
 17 18  1  0  0  0  0
 17 19  1  0  0  0  0
 17 20  1  0  0  0  0
 14 15  1  0  0  0  0
 14 16  1  0  0  0  0
 14 17  1  0  0  0  0
 11 12  1  0  0  0  0
 11 13  1  0  0  0  0
 11 14  1  0  0  0  0
  9 10  1  0  0  0  0
  9 11  1  0  0  0  0
  9 29  1  0  0  0  0
  7  8  1  0  0  0  0
  7  9  1  0  0  0  0
 33 34  1  0  0  0  0
 33 35  1  0  0  0  0
 33 36  1  0  0  0  0
 31 32  1  0  0  0  0
 31 33  1  0  0  0  0
M  CHG  1  20   1
M  END
$$$$
default_name
  -OEChem-02102213163D

 36 35  0     1  0  0  0  0  0999 V2000
   -4.2256   -3.6731    1.8584 H   0  0  0  0  0  0  0  0  0  0  0  0
   -4.2396   -2.6781    1.4144 C   0  0  0  0  0  0  0  0  0  0  0  0
   -4.9506   -2.0521    1.9514 H   0  0  0  0  0  0  0  0  0  0  0  0
   -4.5266   -2.7521    0.3674 H   0  0  0  0  0  0  0  0  0  0  0  0
   -2.8576   -2.0761    1.5184 C   0  0  0  0  0  0  0  0  0  0  0  0
   -1.9456   -2.7051    2.0404 O   0  0  0  0  0  0  0  0  0  0  0  0
   -2.6926   -0.8481    1.0174 N   0  0  0  0  0  0  0  0  0  0  0  0
   -3.4926   -0.3971    0.5954 H   0  0  0  0  0  0  0  0  0  0  0  0
   -1.4216   -0.1071    1.0434 C   0  0  1  0  0  0  0  0  0  0  0  0
   -0.7579   -0.5878    1.7640 H   0  0  0  0  0  0  0  0  0  0  0  0
   -0.7791   -0.1912   -0.3557 C   0  0  0  0  0  0  0  0  0  0  0  0
    0.2805   -0.4274   -0.2389 H   0  0  0  0  0  0  0  0  0  0  0  0
   -1.2480   -1.0034   -0.9155 H   0  0  0  0  0  0  0  0  0  0  0  0
   -0.8972    1.1106   -1.1617 C   0  0  0  0  0  0  0  0  0  0  0  0
   -0.9123    1.9646   -0.4832 H   0  0  0  0  0  0  0  0  0  0  0  0
   -0.0419    1.1984   -1.8325 H   0  0  0  0  0  0  0  0  0  0  0  0
   -2.1924    1.0997   -1.9850 C   0  0  0  0  0  0  0  0  0  0  0  0
   -2.1806    0.2270   -2.6421 H   0  0  0  0  0  0  0  0  0  0  0  0
   -3.0391    1.0138   -1.3000 H   0  0  0  0  0  0  0  0  0  0  0  0
   -2.3365    2.3257   -2.7968 N   0  3  0  0  0  0  0  0  0  0  0  0
   -1.6226    3.0257   -2.6883 H   0  0  0  0  0  0  0  0  0  0  0  0
   -3.3124    2.5881   -3.6498 C   0  0  0  0  0  0  0  0  0  0  0  0
   -4.2876    1.7506   -3.8664 N   0  0  0  0  0  0  0  0  0  0  0  0
   -4.2950    0.8776   -3.3690 H   0  0  0  0  0  0  0  0  0  0  0  0
   -5.0207    1.9653   -4.5169 H   0  0  0  0  0  0  0  0  0  0  0  0
   -3.3282    3.7116   -4.3092 N   0  0  0  0  0  0  0  0  0  0  0  0
   -2.5973    4.3891   -4.1761 H   0  0  0  0  0  0  0  0  0  0  0  0
   -4.0704    3.9066   -4.9555 H   0  0  0  0  0  0  0  0  0  0  0  0
   -1.6547    1.3413    1.4779 C   0  0  0  0  0  0  0  0  0  0  0  0
   -2.5654    1.9858    0.9716 O   0  0  0  0  0  0  0  0  0  0  0  0
   -0.8107    1.8504    2.3808 N   0  0  0  0  0  0  0  0  0  0  0  0
   -0.1136    1.2381    2.7719 H   0  0  0  0  0  0  0  0  0  0  0  0
   -0.8954    3.2155    2.9026 C   0  0  0  0  0  0  0  0  0  0  0  0
   -1.8299    3.3430    3.4532 H   0  0  0  0  0  0  0  0  0  0  0  0
   -0.0581    3.4194    3.5712 H   0  0  0  0  0  0  0  0  0  0  0  0
   -0.8804    3.9320    2.0784 H   0  0  0  0  0  0  0  0  0  0  0  0
  5  6  2  0  0  0  0
  5  7  1  0  0  0  0
  2  3  1  0  0  0  0
  2  4  1  0  0  0  0
  2  5  1  0  0  0  0
  1  2  1  0  0  0  0
 29 30  2  0  0  0  0
 29 31  1  0  0  0  0
 26 27  1  0  0  0  0
 26 28  1  0  0  0  0
 23 24  1  0  0  0  0
 23 25  1  0  0  0  0
 22 23  1  0  0  0  0
 22 26  1  0  0  0  0
 20 21  1  0  0  0  0
 20 22  2  0  0  0  0
 17 18  1  0  0  0  0
 17 19  1  0  0  0  0
 17 20  1  0  0  0  0
 14 15  1  0  0  0  0
 14 16  1  0  0  0  0
 14 17  1  0  0  0  0
 11 12  1  0  0  0  0
 11 13  1  0  0  0  0
 11 14  1  0  0  0  0
  9 10  1  0  0  0  0
  9 11  1  0  0  0  0
  9 29  1  0  0  0  0
  7  8  1  0  0  0  0
  7  9  1  0  0  0  0
 33 34  1  0  0  0  0
 33 35  1  0  0  0  0
 33 36  1  0  0  0  0
 31 32  1  0  0  0  0
 31 33  1  0  0  0  0
M  CHG  1  20   1
M  END
$$$$
default_name
  -OEChem-02102213163D

 36 35  0     1  0  0  0  0  0999 V2000
   -4.2256   -3.6731    1.8584 H   0  0  0  0  0  0  0  0  0  0  0  0
   -4.2396   -2.6781    1.4144 C   0  0  0  0  0  0  0  0  0  0  0  0
   -4.9506   -2.0521    1.9514 H   0  0  0  0  0  0  0  0  0  0  0  0
   -4.5266   -2.7521    0.3674 H   0  0  0  0  0  0  0  0  0  0  0  0
   -2.8576   -2.0761    1.5184 C   0  0  0  0  0  0  0  0  0  0  0  0
   -1.9456   -2.7051    2.0404 O   0  0  0  0  0  0  0  0  0  0  0  0
   -2.6926   -0.8481    1.0174 N   0  0  0  0  0  0  0  0  0  0  0  0
   -3.4926   -0.3971    0.5954 H   0  0  0  0  0  0  0  0  0  0  0  0
   -1.4216   -0.1071    1.0434 C   0  0  1  0  0  0  0  0  0  0  0  0
   -0.7579   -0.5878    1.7640 H   0  0  0  0  0  0  0  0  0  0  0  0
   -0.7791   -0.1912   -0.3557 C   0  0  0  0  0  0  0  0  0  0  0  0
    0.2805   -0.4274   -0.2389 H   0  0  0  0  0  0  0  0  0  0  0  0
   -1.2480   -1.0034   -0.9155 H   0  0  0  0  0  0  0  0  0  0  0  0
   -0.8972    1.1106   -1.1617 C   0  0  0  0  0  0  0  0  0  0  0  0
   -0.6479    1.9617   -0.5266 H   0  0  0  0  0  0  0  0  0  0  0  0
   -0.2072    1.0763   -2.0054 H   0  0  0  0  0  0  0  0  0  0  0  0
   -2.3317    1.2748   -1.6820 C   0  0  0  0  0  0  0  0  0  0  0  0
   -2.5820    0.4057   -2.2948 H   0  0  0  0  0  0  0  0  0  0  0  0
   -3.0100    1.3098   -0.8262 H   0  0  0  0  0  0  0  0  0  0  0  0
   -2.4863    2.5051   -2.4852 N   0  3  0  0  0  0  0  0  0  0  0  0
   -1.6791    3.1003   -2.5596 H   0  0  0  0  0  0  0  0  0  0  0  0
   -3.5824    2.8956   -3.1136 C   0  0  0  0  0  0  0  0  0  0  0  0
   -4.6843    2.1998   -3.0829 N   0  0  0  0  0  0  0  0  0  0  0  0
   -4.6983    1.3386   -2.5656 H   0  0  0  0  0  0  0  0  0  0  0  0
   -5.5075    2.5106   -3.5650 H   0  0  0  0  0  0  0  0  0  0  0  0
   -3.5931    4.0074   -3.7927 N   0  0  0  0  0  0  0  0  0  0  0  0
   -2.7670    4.5781   -3.8459 H   0  0  0  0  0  0  0  0  0  0  0  0
   -4.4268    4.2999   -4.2680 H   0  0  0  0  0  0  0  0  0  0  0  0
   -1.6547    1.3413    1.4779 C   0  0  0  0  0  0  0  0  0  0  0  0
   -2.5654    1.9858    0.9716 O   0  0  0  0  0  0  0  0  0  0  0  0
   -0.8107    1.8504    2.3808 N   0  0  0  0  0  0  0  0  0  0  0  0
   -0.1136    1.2381    2.7719 H   0  0  0  0  0  0  0  0  0  0  0  0
   -0.8954    3.2155    2.9026 C   0  0  0  0  0  0  0  0  0  0  0  0
   -1.8299    3.3430    3.4532 H   0  0  0  0  0  0  0  0  0  0  0  0
   -0.0581    3.4194    3.5712 H   0  0  0  0  0  0  0  0  0  0  0  0
   -0.8804    3.9320    2.0784 H   0  0  0  0  0  0  0  0  0  0  0  0
  5  6  2  0  0  0  0
  5  7  1  0  0  0  0
  2  3  1  0  0  0  0
  2  4  1  0  0  0  0
  2  5  1  0  0  0  0
  1  2  1  0  0  0  0
 29 30  2  0  0  0  0
 29 31  1  0  0  0  0
 26 27  1  0  0  0  0
 26 28  1  0  0  0  0
 23 24  1  0  0  0  0
 23 25  1  0  0  0  0
 22 23  1  0  0  0  0
 22 26  1  0  0  0  0
 20 21  1  0  0  0  0
 20 22  2  0  0  0  0
 17 18  1  0  0  0  0
 17 19  1  0  0  0  0
 17 20  1  0  0  0  0
 14 15  1  0  0  0  0
 14 16  1  0  0  0  0
 14 17  1  0  0  0  0
 11 12  1  0  0  0  0
 11 13  1  0  0  0  0
 11 14  1  0  0  0  0
  9 10  1  0  0  0  0
  9 11  1  0  0  0  0
  9 29  1  0  0  0  0
  7  8  1  0  0  0  0
  7  9  1  0  0  0  0
 33 34  1  0  0  0  0
 33 35  1  0  0  0  0
 33 36  1  0  0  0  0
 31 32  1  0  0  0  0
 31 33  1  0  0  0  0
M  CHG  1  20   1
M  END
$$$$
default_name
  -OEChem-02102213163D

 36 35  0     1  0  0  0  0  0999 V2000
   -4.2256   -3.6731    1.8584 H   0  0  0  0  0  0  0  0  0  0  0  0
   -4.2396   -2.6781    1.4144 C   0  0  0  0  0  0  0  0  0  0  0  0
   -4.9506   -2.0521    1.9514 H   0  0  0  0  0  0  0  0  0  0  0  0
   -4.5266   -2.7521    0.3674 H   0  0  0  0  0  0  0  0  0  0  0  0
   -2.8576   -2.0761    1.5184 C   0  0  0  0  0  0  0  0  0  0  0  0
   -1.9456   -2.7051    2.0404 O   0  0  0  0  0  0  0  0  0  0  0  0
   -2.6926   -0.8481    1.0174 N   0  0  0  0  0  0  0  0  0  0  0  0
   -3.4926   -0.3971    0.5954 H   0  0  0  0  0  0  0  0  0  0  0  0
   -1.4216   -0.1071    1.0434 C   0  0  1  0  0  0  0  0  0  0  0  0
   -0.7579   -0.5878    1.7640 H   0  0  0  0  0  0  0  0  0  0  0  0
   -0.7791   -0.1912   -0.3557 C   0  0  0  0  0  0  0  0  0  0  0  0
    0.2805   -0.4274   -0.2389 H   0  0  0  0  0  0  0  0  0  0  0  0
   -1.2480   -1.0034   -0.9155 H   0  0  0  0  0  0  0  0  0  0  0  0
   -0.8972    1.1106   -1.1617 C   0  0  0  0  0  0  0  0  0  0  0  0
   -0.4023    1.9222   -0.6265 H   0  0  0  0  0  0  0  0  0  0  0  0
   -0.4214    0.9773   -2.1338 H   0  0  0  0  0  0  0  0  0  0  0  0
   -2.3760    1.4688   -1.3621 C   0  0  0  0  0  0  0  0  0  0  0  0
   -2.8692    0.6397   -1.8748 H   0  0  0  0  0  0  0  0  0  0  0  0
   -2.8377    1.6012   -0.3808 H   0  0  0  0  0  0  0  0  0  0  0  0
   -2.5383    2.7048   -2.1550 N   0  3  0  0  0  0  0  0  0  0  0  0
   -1.6954    3.1826   -2.4244 H   0  0  0  0  0  0  0  0  0  0  0  0
   -3.6839    3.2400   -2.5426 C   0  0  0  0  0  0  0  0  0  0  0  0
   -4.8346    2.7031   -2.2480 N   0  0  0  0  0  0  0  0  0  0  0  0
   -4.8490    1.8546   -1.7102 H   0  0  0  0  0  0  0  0  0  0  0  0
   -5.6949    3.1224   -2.5496 H   0  0  0  0  0  0  0  0  0  0  0  0
   -3.6955    4.3394   -3.2416 N   0  0  0  0  0  0  0  0  0  0  0  0
   -2.8329    4.7904   -3.4936 H   0  0  0  0  0  0  0  0  0  0  0  0
   -4.5668    4.7420   -3.5336 H   0  0  0  0  0  0  0  0  0  0  0  0
   -1.6547    1.3413    1.4779 C   0  0  0  0  0  0  0  0  0  0  0  0
   -2.5654    1.9858    0.9716 O   0  0  0  0  0  0  0  0  0  0  0  0
   -0.8107    1.8504    2.3808 N   0  0  0  0  0  0  0  0  0  0  0  0
   -0.1136    1.2381    2.7719 H   0  0  0  0  0  0  0  0  0  0  0  0
   -0.8954    3.2155    2.9026 C   0  0  0  0  0  0  0  0  0  0  0  0
   -1.8299    3.3430    3.4532 H   0  0  0  0  0  0  0  0  0  0  0  0
   -0.0581    3.4194    3.5712 H   0  0  0  0  0  0  0  0  0  0  0  0
   -0.8804    3.9320    2.0784 H   0  0  0  0  0  0  0  0  0  0  0  0
  5  6  2  0  0  0  0
  5  7  1  0  0  0  0
  2  3  1  0  0  0  0
  2  4  1  0  0  0  0
  2  5  1  0  0  0  0
  1  2  1  0  0  0  0
 29 30  2  0  0  0  0
 29 31  1  0  0  0  0
 26 27  1  0  0  0  0
 26 28  1  0  0  0  0
 23 24  1  0  0  0  0
 23 25  1  0  0  0  0
 22 23  1  0  0  0  0
 22 26  1  0  0  0  0
 20 21  1  0  0  0  0
 20 22  2  0  0  0  0
 17 18  1  0  0  0  0
 17 19  1  0  0  0  0
 17 20  1  0  0  0  0
 14 15  1  0  0  0  0
 14 16  1  0  0  0  0
 14 17  1  0  0  0  0
 11 12  1  0  0  0  0
 11 13  1  0  0  0  0
 11 14  1  0  0  0  0
  9 10  1  0  0  0  0
  9 11  1  0  0  0  0
  9 29  1  0  0  0  0
  7  8  1  0  0  0  0
  7  9  1  0  0  0  0
 33 34  1  0  0  0  0
 33 35  1  0  0  0  0
 33 36  1  0  0  0  0
 31 32  1  0  0  0  0
 31 33  1  0  0  0  0
M  CHG  1  20   1
M  END
$$$$
default_name
  -OEChem-02102213163D

 36 35  0     1  0  0  0  0  0999 V2000
   -4.2256   -3.6731    1.8584 H   0  0  0  0  0  0  0  0  0  0  0  0
   -4.2396   -2.6781    1.4144 C   0  0  0  0  0  0  0  0  0  0  0  0
   -4.9506   -2.0521    1.9514 H   0  0  0  0  0  0  0  0  0  0  0  0
   -4.5266   -2.7521    0.3674 H   0  0  0  0  0  0  0  0  0  0  0  0
   -2.8576   -2.0761    1.5184 C   0  0  0  0  0  0  0  0  0  0  0  0
   -1.9456   -2.7051    2.0404 O   0  0  0  0  0  0  0  0  0  0  0  0
   -2.6926   -0.8481    1.0174 N   0  0  0  0  0  0  0  0  0  0  0  0
   -3.4926   -0.3971    0.5954 H   0  0  0  0  0  0  0  0  0  0  0  0
   -1.4216   -0.1071    1.0434 C   0  0  1  0  0  0  0  0  0  0  0  0
   -0.7579   -0.5878    1.7640 H   0  0  0  0  0  0  0  0  0  0  0  0
   -0.7791   -0.1912   -0.3557 C   0  0  0  0  0  0  0  0  0  0  0  0
    0.2805   -0.4274   -0.2389 H   0  0  0  0  0  0  0  0  0  0  0  0
   -1.2480   -1.0034   -0.9155 H   0  0  0  0  0  0  0  0  0  0  0  0
   -0.8972    1.1106   -1.1617 C   0  0  0  0  0  0  0  0  0  0  0  0
   -0.1925    1.8486   -0.7760 H   0  0  0  0  0  0  0  0  0  0  0  0
   -0.6699    0.9083   -2.2089 H   0  0  0  0  0  0  0  0  0  0  0  0
   -2.3223    1.6686   -1.0473 C   0  0  0  0  0  0  0  0  0  0  0  0
   -3.0228    0.9132   -1.4107 H   0  0  0  0  0  0  0  0  0  0  0  0
   -2.5340    1.8682    0.0058 H   0  0  0  0  0  0  0  0  0  0  0  0
   -2.4889    2.9115   -1.8286 N   0  3  0  0  0  0  0  0  0  0  0  0
   -1.6702    3.2670   -2.2918 H   0  0  0  0  0  0  0  0  0  0  0  0
   -3.6097    3.5978   -1.9756 C   0  0  0  0  0  0  0  0  0  0  0  0
   -4.7282    3.2264   -1.4185 N   0  0  0  0  0  0  0  0  0  0  0  0
   -4.7368    2.3905   -0.8611 H   0  0  0  0  0  0  0  0  0  0  0  0
   -5.5699    3.7590   -1.5399 H   0  0  0  0  0  0  0  0  0  0  0  0
   -3.6284    4.6850   -2.6933 N   0  0  0  0  0  0  0  0  0  0  0  0
   -2.7904    5.0113   -3.1430 H   0  0  0  0  0  0  0  0  0  0  0  0
   -4.4808    5.2026   -2.8023 H   0  0  0  0  0  0  0  0  0  0  0  0
   -1.6547    1.3413    1.4779 C   0  0  0  0  0  0  0  0  0  0  0  0
   -2.5654    1.9858    0.9716 O   0  0  0  0  0  0  0  0  0  0  0  0
   -0.8107    1.8504    2.3808 N   0  0  0  0  0  0  0  0  0  0  0  0
   -0.1136    1.2381    2.7719 H   0  0  0  0  0  0  0  0  0  0  0  0
   -0.8954    3.2155    2.9026 C   0  0  0  0  0  0  0  0  0  0  0  0
   -1.8299    3.3430    3.4532 H   0  0  0  0  0  0  0  0  0  0  0  0
   -0.0581    3.4194    3.5712 H   0  0  0  0  0  0  0  0  0  0  0  0
   -0.8804    3.9320    2.0784 H   0  0  0  0  0  0  0  0  0  0  0  0
  5  6  2  0  0  0  0
  5  7  1  0  0  0  0
  2  3  1  0  0  0  0
  2  4  1  0  0  0  0
  2  5  1  0  0  0  0
  1  2  1  0  0  0  0
 29 30  2  0  0  0  0
 29 31  1  0  0  0  0
 26 27  1  0  0  0  0
 26 28  1  0  0  0  0
 23 24  1  0  0  0  0
 23 25  1  0  0  0  0
 22 23  1  0  0  0  0
 22 26  1  0  0  0  0
 20 21  1  0  0  0  0
 20 22  2  0  0  0  0
 17 18  1  0  0  0  0
 17 19  1  0  0  0  0
 17 20  1  0  0  0  0
 14 15  1  0  0  0  0
 14 16  1  0  0  0  0
 14 17  1  0  0  0  0
 11 12  1  0  0  0  0
 11 13  1  0  0  0  0
 11 14  1  0  0  0  0
  9 10  1  0  0  0  0
  9 11  1  0  0  0  0
  9 29  1  0  0  0  0
  7  8  1  0  0  0  0
  7  9  1  0  0  0  0
 33 34  1  0  0  0  0
 33 35  1  0  0  0  0
 33 36  1  0  0  0  0
 31 32  1  0  0  0  0
 31 33  1  0  0  0  0
M  CHG  1  20   1
M  END
$$$$
default_name
  -OEChem-02102213163D

 36 35  0     1  0  0  0  0  0999 V2000
   -4.2256   -3.6731    1.8584 H   0  0  0  0  0  0  0  0  0  0  0  0
   -4.2396   -2.6781    1.4144 C   0  0  0  0  0  0  0  0  0  0  0  0
   -4.9506   -2.0521    1.9514 H   0  0  0  0  0  0  0  0  0  0  0  0
   -4.5266   -2.7521    0.3674 H   0  0  0  0  0  0  0  0  0  0  0  0
   -2.8576   -2.0761    1.5184 C   0  0  0  0  0  0  0  0  0  0  0  0
   -1.9456   -2.7051    2.0404 O   0  0  0  0  0  0  0  0  0  0  0  0
   -2.6926   -0.8481    1.0174 N   0  0  0  0  0  0  0  0  0  0  0  0
   -3.4926   -0.3971    0.5954 H   0  0  0  0  0  0  0  0  0  0  0  0
   -1.4216   -0.1071    1.0434 C   0  0  1  0  0  0  0  0  0  0  0  0
   -0.7579   -0.5878    1.7640 H   0  0  0  0  0  0  0  0  0  0  0  0
   -0.7791   -0.1912   -0.3557 C   0  0  0  0  0  0  0  0  0  0  0  0
    0.2805   -0.4274   -0.2389 H   0  0  0  0  0  0  0  0  0  0  0  0
   -1.2480   -1.0034   -0.9155 H   0  0  0  0  0  0  0  0  0  0  0  0
   -0.8972    1.1106   -1.1617 C   0  0  0  0  0  0  0  0  0  0  0  0
   -0.0326    1.7460   -0.9650 H   0  0  0  0  0  0  0  0  0  0  0  0
   -0.9358    0.8739   -2.2255 H   0  0  0  0  0  0  0  0  0  0  0  0
   -2.1742    1.8606   -0.7590 C   0  0  0  0  0  0  0  0  0  0  0  0
   -3.0321    1.2074   -0.9342 H   0  0  0  0  0  0  0  0  0  0  0  0
   -2.1196    2.0924    0.3073 H   0  0  0  0  0  0  0  0  0  0  0  0
   -2.3415    3.1108   -1.5282 N   0  3  0  0  0  0  0  0  0  0  0  0
   -1.6053    3.3477   -2.1710 H   0  0  0  0  0  0  0  0  0  0  0  0
   -3.3651    3.9447   -1.4513 C   0  0  0  0  0  0  0  0  0  0  0  0
   -4.3724    3.7339   -0.6511 N   0  0  0  0  0  0  0  0  0  0  0  0
   -4.3694    2.9099   -0.0763 H   0  0  0  0  0  0  0  0  0  0  0  0
   -5.1412    4.3770   -0.6047 H   0  0  0  0  0  0  0  0  0  0  0  0
   -3.3963    5.0206   -2.1854 N   0  0  0  0  0  0  0  0  0  0  0  0
   -2.6424    5.2259   -2.8181 H   0  0  0  0  0  0  0  0  0  0  0  0
   -4.1748    5.6505   -2.1240 H   0  0  0  0  0  0  0  0  0  0  0  0
   -1.6547    1.3413    1.4779 C   0  0  0  0  0  0  0  0  0  0  0  0
   -2.5654    1.9858    0.9716 O   0  0  0  0  0  0  0  0  0  0  0  0
   -0.8107    1.8504    2.3808 N   0  0  0  0  0  0  0  0  0  0  0  0
   -0.1136    1.2381    2.7719 H   0  0  0  0  0  0  0  0  0  0  0  0
   -0.8954    3.2155    2.9026 C   0  0  0  0  0  0  0  0  0  0  0  0
   -1.8299    3.3430    3.4532 H   0  0  0  0  0  0  0  0  0  0  0  0
   -0.0581    3.4194    3.5712 H   0  0  0  0  0  0  0  0  0  0  0  0
   -0.8804    3.9320    2.0784 H   0  0  0  0  0  0  0  0  0  0  0  0
  5  6  2  0  0  0  0
  5  7  1  0  0  0  0
  2  3  1  0  0  0  0
  2  4  1  0  0  0  0
  2  5  1  0  0  0  0
  1  2  1  0  0  0  0
 29 30  2  0  0  0  0
 29 31  1  0  0  0  0
 26 27  1  0  0  0  0
 26 28  1  0  0  0  0
 23 24  1  0  0  0  0
 23 25  1  0  0  0  0
 22 23  1  0  0  0  0
 22 26  1  0  0  0  0
 20 21  1  0  0  0  0
 20 22  2  0  0  0  0
 17 18  1  0  0  0  0
 17 19  1  0  0  0  0
 17 20  1  0  0  0  0
 14 15  1  0  0  0  0
 14 16  1  0  0  0  0
 14 17  1  0  0  0  0
 11 12  1  0  0  0  0
 11 13  1  0  0  0  0
 11 14  1  0  0  0  0
  9 10  1  0  0  0  0
  9 11  1  0  0  0  0
  9 29  1  0  0  0  0
  7  8  1  0  0  0  0
  7  9  1  0  0  0  0
 33 34  1  0  0  0  0
 33 35  1  0  0  0  0
 33 36  1  0  0  0  0
 31 32  1  0  0  0  0
 31 33  1  0  0  0  0
M  CHG  1  20   1
M  END
$$$$
default_name
  -OEChem-02102213163D

 36 35  0     1  0  0  0  0  0999 V2000
   -4.2256   -3.6731    1.8584 H   0  0  0  0  0  0  0  0  0  0  0  0
   -4.2396   -2.6781    1.4144 C   0  0  0  0  0  0  0  0  0  0  0  0
   -4.9506   -2.0521    1.9514 H   0  0  0  0  0  0  0  0  0  0  0  0
   -4.5266   -2.7521    0.3674 H   0  0  0  0  0  0  0  0  0  0  0  0
   -2.8576   -2.0761    1.5184 C   0  0  0  0  0  0  0  0  0  0  0  0
   -1.9456   -2.7051    2.0404 O   0  0  0  0  0  0  0  0  0  0  0  0
   -2.6926   -0.8481    1.0174 N   0  0  0  0  0  0  0  0  0  0  0  0
   -3.4926   -0.3971    0.5954 H   0  0  0  0  0  0  0  0  0  0  0  0
   -1.4216   -0.1071    1.0434 C   0  0  1  0  0  0  0  0  0  0  0  0
   -0.7579   -0.5878    1.7640 H   0  0  0  0  0  0  0  0  0  0  0  0
   -0.7791   -0.1912   -0.3557 C   0  0  0  0  0  0  0  0  0  0  0  0
    0.2805   -0.4274   -0.2389 H   0  0  0  0  0  0  0  0  0  0  0  0
   -1.2480   -1.0034   -0.9155 H   0  0  0  0  0  0  0  0  0  0  0  0
   -0.8972    1.1106   -1.1617 C   0  0  0  0  0  0  0  0  0  0  0  0
    0.0665    1.6215   -1.1807 H   0  0  0  0  0  0  0  0  0  0  0  0
   -1.2010    0.8765   -2.1825 H   0  0  0  0  0  0  0  0  0  0  0  0
   -1.9418    2.0316   -0.5168 C   0  0  0  0  0  0  0  0  0  0  0  0
   -2.8966    1.5023   -0.4778 H   0  0  0  0  0  0  0  0  0  0  0  0
   -1.6226    2.2588    0.5031 H   0  0  0  0  0  0  0  0  0  0  0  0
   -2.1062    3.2893   -1.2744 N   0  3  0  0  0  0  0  0  0  0  0  0
   -1.5052    3.4192   -2.0701 H   0  0  0  0  0  0  0  0  0  0  0  0
   -2.9667    4.2569   -1.0055 C   0  0  0  0  0  0  0  0  0  0  0  0
   -3.7914    4.1910    0.0019 N   0  0  0  0  0  0  0  0  0  0  0  0
   -3.7717    3.3772    0.5908 H   0  0  0  0  0  0  0  0  0  0  0  0
   -4.4379    4.9343    0.1923 H   0  0  0  0  0  0  0  0  0  0  0  0
   -3.0151    5.3233   -1.7523 N   0  0  0  0  0  0  0  0  0  0  0  0
   -2.3990    5.4196   -2.5410 H   0  0  0  0  0  0  0  0  0  0  0  0
   -3.6695    6.0549   -1.5448 H   0  0  0  0  0  0  0  0  0  0  0  0
   -1.6547    1.3413    1.4779 C   0  0  0  0  0  0  0  0  0  0  0  0
   -2.5654    1.9858    0.9716 O   0  0  0  0  0  0  0  0  0  0  0  0
   -0.8107    1.8504    2.3808 N   0  0  0  0  0  0  0  0  0  0  0  0
   -0.1136    1.2381    2.7719 H   0  0  0  0  0  0  0  0  0  0  0  0
   -0.8954    3.2155    2.9026 C   0  0  0  0  0  0  0  0  0  0  0  0
   -1.8299    3.3430    3.4532 H   0  0  0  0  0  0  0  0  0  0  0  0
   -0.0581    3.4194    3.5712 H   0  0  0  0  0  0  0  0  0  0  0  0
   -0.8804    3.9320    2.0784 H   0  0  0  0  0  0  0  0  0  0  0  0
  5  6  2  0  0  0  0
  5  7  1  0  0  0  0
  2  3  1  0  0  0  0
  2  4  1  0  0  0  0
  2  5  1  0  0  0  0
  1  2  1  0  0  0  0
 29 30  2  0  0  0  0
 29 31  1  0  0  0  0
 26 27  1  0  0  0  0
 26 28  1  0  0  0  0
 23 24  1  0  0  0  0
 23 25  1  0  0  0  0
 22 23  1  0  0  0  0
 22 26  1  0  0  0  0
 20 21  1  0  0  0  0
 20 22  2  0  0  0  0
 17 18  1  0  0  0  0
 17 19  1  0  0  0  0
 17 20  1  0  0  0  0
 14 15  1  0  0  0  0
 14 16  1  0  0  0  0
 14 17  1  0  0  0  0
 11 12  1  0  0  0  0
 11 13  1  0  0  0  0
 11 14  1  0  0  0  0
  9 10  1  0  0  0  0
  9 11  1  0  0  0  0
  9 29  1  0  0  0  0
  7  8  1  0  0  0  0
  7  9  1  0  0  0  0
 33 34  1  0  0  0  0
 33 35  1  0  0  0  0
 33 36  1  0  0  0  0
 31 32  1  0  0  0  0
 31 33  1  0  0  0  0
M  CHG  1  20   1
M  END
$$$$
default_name
  -OEChem-02102213163D

 36 35  0     1  0  0  0  0  0999 V2000
   -4.2256   -3.6731    1.8584 H   0  0  0  0  0  0  0  0  0  0  0  0
   -4.2396   -2.6781    1.4144 C   0  0  0  0  0  0  0  0  0  0  0  0
   -4.9506   -2.0521    1.9514 H   0  0  0  0  0  0  0  0  0  0  0  0
   -4.5266   -2.7521    0.3674 H   0  0  0  0  0  0  0  0  0  0  0  0
   -2.8576   -2.0761    1.5184 C   0  0  0  0  0  0  0  0  0  0  0  0
   -1.9456   -2.7051    2.0404 O   0  0  0  0  0  0  0  0  0  0  0  0
   -2.6926   -0.8481    1.0174 N   0  0  0  0  0  0  0  0  0  0  0  0
   -3.4926   -0.3971    0.5954 H   0  0  0  0  0  0  0  0  0  0  0  0
   -1.4216   -0.1071    1.0434 C   0  0  1  0  0  0  0  0  0  0  0  0
   -0.7579   -0.5878    1.7640 H   0  0  0  0  0  0  0  0  0  0  0  0
   -0.7791   -0.1912   -0.3557 C   0  0  0  0  0  0  0  0  0  0  0  0
    0.2805   -0.4274   -0.2389 H   0  0  0  0  0  0  0  0  0  0  0  0
   -1.2480   -1.0034   -0.9155 H   0  0  0  0  0  0  0  0  0  0  0  0
   -0.8972    1.1106   -1.1617 C   0  0  0  0  0  0  0  0  0  0  0  0
    0.0979    1.4834   -1.4082 H   0  0  0  0  0  0  0  0  0  0  0  0
   -1.4474    0.9159   -2.0829 H   0  0  0  0  0  0  0  0  0  0  0  0
   -1.6410    2.1701   -0.3373 C   0  0  0  0  0  0  0  0  0  0  0  0
   -2.6256    1.7779   -0.0725 H   0  0  0  0  0  0  0  0  0  0  0  0
   -1.0771    2.3558    0.5799 H   0  0  0  0  0  0  0  0  0  0  0  0
   -1.7990    3.4348   -1.0844 N   0  3  0  0  0  0  0  0  0  0  0  0
   -1.3766    3.4767   -1.9961 H   0  0  0  0  0  0  0  0  0  0  0  0
   -2.4417    4.5132   -0.6684 C   0  0  0  0  0  0  0  0  0  0  0  0
   -3.0248    4.5666    0.4962 N   0  0  0  0  0  0  0  0  0  0  0  0
   -2.9845    3.7606    1.0948 H   0  0  0  0  0  0  0  0  0  0  0  0
   -3.5081    5.3930    0.7968 H   0  0  0  0  0  0  0  0  0  0  0  0
   -2.5108    5.5726   -1.4237 N   0  0  0  0  0  0  0  0  0  0  0  0
   -2.0767    5.5791   -2.3306 H   0  0  0  0  0  0  0  0  0  0  0  0
   -2.9994    6.3885   -1.1043 H   0  0  0  0  0  0  0  0  0  0  0  0
   -1.6547    1.3413    1.4779 C   0  0  0  0  0  0  0  0  0  0  0  0
   -2.5654    1.9858    0.9716 O   0  0  0  0  0  0  0  0  0  0  0  0
   -0.8107    1.8504    2.3808 N   0  0  0  0  0  0  0  0  0  0  0  0
   -0.1136    1.2381    2.7719 H   0  0  0  0  0  0  0  0  0  0  0  0
   -0.8954    3.2155    2.9026 C   0  0  0  0  0  0  0  0  0  0  0  0
   -1.8299    3.3430    3.4532 H   0  0  0  0  0  0  0  0  0  0  0  0
   -0.0581    3.4194    3.5712 H   0  0  0  0  0  0  0  0  0  0  0  0
   -0.8804    3.9320    2.0784 H   0  0  0  0  0  0  0  0  0  0  0  0
  5  6  2  0  0  0  0
  5  7  1  0  0  0  0
  2  3  1  0  0  0  0
  2  4  1  0  0  0  0
  2  5  1  0  0  0  0
  1  2  1  0  0  0  0
 29 30  2  0  0  0  0
 29 31  1  0  0  0  0
 26 27  1  0  0  0  0
 26 28  1  0  0  0  0
 23 24  1  0  0  0  0
 23 25  1  0  0  0  0
 22 23  1  0  0  0  0
 22 26  1  0  0  0  0
 20 21  1  0  0  0  0
 20 22  2  0  0  0  0
 17 18  1  0  0  0  0
 17 19  1  0  0  0  0
 17 20  1  0  0  0  0
 14 15  1  0  0  0  0
 14 16  1  0  0  0  0
 14 17  1  0  0  0  0
 11 12  1  0  0  0  0
 11 13  1  0  0  0  0
 11 14  1  0  0  0  0
  9 10  1  0  0  0  0
  9 11  1  0  0  0  0
  9 29  1  0  0  0  0
  7  8  1  0  0  0  0
  7  9  1  0  0  0  0
 33 34  1  0  0  0  0
 33 35  1  0  0  0  0
 33 36  1  0  0  0  0
 31 32  1  0  0  0  0
 31 33  1  0  0  0  0
M  CHG  1  20   1
M  END
$$$$
default_name
  -OEChem-02102213163D

 36 35  0     1  0  0  0  0  0999 V2000
   -4.2256   -3.6731    1.8584 H   0  0  0  0  0  0  0  0  0  0  0  0
   -4.2396   -2.6781    1.4144 C   0  0  0  0  0  0  0  0  0  0  0  0
   -4.9506   -2.0521    1.9514 H   0  0  0  0  0  0  0  0  0  0  0  0
   -4.5266   -2.7521    0.3674 H   0  0  0  0  0  0  0  0  0  0  0  0
   -2.8576   -2.0761    1.5184 C   0  0  0  0  0  0  0  0  0  0  0  0
   -1.9456   -2.7051    2.0404 O   0  0  0  0  0  0  0  0  0  0  0  0
   -2.6926   -0.8481    1.0174 N   0  0  0  0  0  0  0  0  0  0  0  0
   -3.4926   -0.3971    0.5954 H   0  0  0  0  0  0  0  0  0  0  0  0
   -1.4216   -0.1071    1.0434 C   0  0  1  0  0  0  0  0  0  0  0  0
   -0.7579   -0.5878    1.7640 H   0  0  0  0  0  0  0  0  0  0  0  0
   -0.7791   -0.1912   -0.3557 C   0  0  0  0  0  0  0  0  0  0  0  0
    0.2805   -0.4274   -0.2389 H   0  0  0  0  0  0  0  0  0  0  0  0
   -1.2480   -1.0034   -0.9155 H   0  0  0  0  0  0  0  0  0  0  0  0
   -0.8972    1.1106   -1.1617 C   0  0  0  0  0  0  0  0  0  0  0  0
    0.0597    1.3413   -1.6322 H   0  0  0  0  0  0  0  0  0  0  0  0
   -1.6581    0.9893   -1.9334 H   0  0  0  0  0  0  0  0  0  0  0  0
   -1.2922    2.2665   -0.2326 C   0  0  0  0  0  0  0  0  0  0  0  0
   -2.2374    2.0153    0.2541 H   0  0  0  0  0  0  0  0  0  0  0  0
   -0.5201    2.3770    0.5325 H   0  0  0  0  0  0  0  0  0  0  0  0
   -1.4407    3.5374   -0.9712 N   0  3  0  0  0  0  0  0  0  0  0  0
   -1.2284    3.5163   -1.9539 H   0  0  0  0  0  0  0  0  0  0  0  0
   -1.8257    4.6962   -0.4632 C   0  0  0  0  0  0  0  0  0  0  0  0
   -2.1248    4.8351    0.7980 N   0  0  0  0  0  0  0  0  0  0  0  0
   -2.0615    4.0341    1.4012 H   0  0  0  0  0  0  0  0  0  0  0  0
   -2.4150    5.7217    1.1675 H   0  0  0  0  0  0  0  0  0  0  0  0
   -1.9177    5.7513   -1.2218 N   0  0  0  0  0  0  0  0  0  0  0  0
   -1.6977    5.6936   -2.2012 H   0  0  0  0  0  0  0  0  0  0  0  0
   -2.2102    6.6284   -0.8324 H   0  0  0  0  0  0  0  0  0  0  0  0
   -1.6547    1.3413    1.4779 C   0  0  0  0  0  0  0  0  0  0  0  0
   -2.5654    1.9858    0.9716 O   0  0  0  0  0  0  0  0  0  0  0  0
   -0.8107    1.8504    2.3808 N   0  0  0  0  0  0  0  0  0  0  0  0
   -0.1136    1.2381    2.7719 H   0  0  0  0  0  0  0  0  0  0  0  0
   -0.8954    3.2155    2.9026 C   0  0  0  0  0  0  0  0  0  0  0  0
   -1.8299    3.3430    3.4532 H   0  0  0  0  0  0  0  0  0  0  0  0
   -0.0581    3.4194    3.5712 H   0  0  0  0  0  0  0  0  0  0  0  0
   -0.8804    3.9320    2.0784 H   0  0  0  0  0  0  0  0  0  0  0  0
  5  6  2  0  0  0  0
  5  7  1  0  0  0  0
  2  3  1  0  0  0  0
  2  4  1  0  0  0  0
  2  5  1  0  0  0  0
  1  2  1  0  0  0  0
 29 30  2  0  0  0  0
 29 31  1  0  0  0  0
 26 27  1  0  0  0  0
 26 28  1  0  0  0  0
 23 24  1  0  0  0  0
 23 25  1  0  0  0  0
 22 23  1  0  0  0  0
 22 26  1  0  0  0  0
 20 21  1  0  0  0  0
 20 22  2  0  0  0  0
 17 18  1  0  0  0  0
 17 19  1  0  0  0  0
 17 20  1  0  0  0  0
 14 15  1  0  0  0  0
 14 16  1  0  0  0  0
 14 17  1  0  0  0  0
 11 12  1  0  0  0  0
 11 13  1  0  0  0  0
 11 14  1  0  0  0  0
  9 10  1  0  0  0  0
  9 11  1  0  0  0  0
  9 29  1  0  0  0  0
  7  8  1  0  0  0  0
  7  9  1  0  0  0  0
 33 34  1  0  0  0  0
 33 35  1  0  0  0  0
 33 36  1  0  0  0  0
 31 32  1  0  0  0  0
 31 33  1  0  0  0  0
M  CHG  1  20   1
M  END
$$$$
default_name
  -OEChem-02102213163D

 36 35  0     1  0  0  0  0  0999 V2000
   -4.2256   -3.6731    1.8584 H   0  0  0  0  0  0  0  0  0  0  0  0
   -4.2396   -2.6781    1.4144 C   0  0  0  0  0  0  0  0  0  0  0  0
   -4.9506   -2.0521    1.9514 H   0  0  0  0  0  0  0  0  0  0  0  0
   -4.5266   -2.7521    0.3674 H   0  0  0  0  0  0  0  0  0  0  0  0
   -2.8576   -2.0761    1.5184 C   0  0  0  0  0  0  0  0  0  0  0  0
   -1.9456   -2.7051    2.0404 O   0  0  0  0  0  0  0  0  0  0  0  0
   -2.6926   -0.8481    1.0174 N   0  0  0  0  0  0  0  0  0  0  0  0
   -3.4926   -0.3971    0.5954 H   0  0  0  0  0  0  0  0  0  0  0  0
   -1.4216   -0.1071    1.0434 C   0  0  1  0  0  0  0  0  0  0  0  0
   -0.7579   -0.5878    1.7640 H   0  0  0  0  0  0  0  0  0  0  0  0
   -0.7791   -0.1912   -0.3557 C   0  0  0  0  0  0  0  0  0  0  0  0
    0.2805   -0.4274   -0.2389 H   0  0  0  0  0  0  0  0  0  0  0  0
   -1.2480   -1.0034   -0.9155 H   0  0  0  0  0  0  0  0  0  0  0  0
   -0.8972    1.1106   -1.1617 C   0  0  0  0  0  0  0  0  0  0  0  0
   -0.0458    1.2047   -1.8373 H   0  0  0  0  0  0  0  0  0  0  0  0
   -1.8189    1.0919   -1.7442 H   0  0  0  0  0  0  0  0  0  0  0  0
   -0.9192    2.3144   -0.2100 C   0  0  0  0  0  0  0  0  0  0  0  0
   -1.7585    2.1984    0.4796 H   0  0  0  0  0  0  0  0  0  0  0  0
    0.0104    2.3208    0.3640 H   0  0  0  0  0  0  0  0  0  0  0  0
   -1.0559    3.5901   -0.9425 N   0  3  0  0  0  0  0  0  0  0  0  0
   -1.0706    3.5352   -1.9465 H   0  0  0  0  0  0  0  0  0  0  0  0
   -1.1609    4.7933   -0.4037 C   0  0  0  0  0  0  0  0  0  0  0  0
   -1.1529    4.9781    0.8867 N   0  0  0  0  0  0  0  0  0  0  0  0
   -1.0655    4.1790    1.4893 H   0  0  0  0  0  0  0  0  0  0  0  0
   -1.2331    5.8981    1.2793 H   0  0  0  0  0  0  0  0  0  0  0  0
   -1.2762    5.8474   -1.1606 N   0  0  0  0  0  0  0  0  0  0  0  0
   -1.2876    5.7553   -2.1617 H   0  0  0  0  0  0  0  0  0  0  0  0
   -1.3556    6.7584   -0.7477 H   0  0  0  0  0  0  0  0  0  0  0  0
   -1.6547    1.3413    1.4779 C   0  0  0  0  0  0  0  0  0  0  0  0
   -2.5654    1.9858    0.9716 O   0  0  0  0  0  0  0  0  0  0  0  0
   -0.8107    1.8504    2.3808 N   0  0  0  0  0  0  0  0  0  0  0  0
   -0.1136    1.2381    2.7719 H   0  0  0  0  0  0  0  0  0  0  0  0
   -0.8954    3.2155    2.9026 C   0  0  0  0  0  0  0  0  0  0  0  0
   -1.8299    3.3430    3.4532 H   0  0  0  0  0  0  0  0  0  0  0  0
   -0.0581    3.4194    3.5712 H   0  0  0  0  0  0  0  0  0  0  0  0
   -0.8804    3.9320    2.0784 H   0  0  0  0  0  0  0  0  0  0  0  0
  5  6  2  0  0  0  0
  5  7  1  0  0  0  0
  2  3  1  0  0  0  0
  2  4  1  0  0  0  0
  2  5  1  0  0  0  0
  1  2  1  0  0  0  0
 29 30  2  0  0  0  0
 29 31  1  0  0  0  0
 26 27  1  0  0  0  0
 26 28  1  0  0  0  0
 23 24  1  0  0  0  0
 23 25  1  0  0  0  0
 22 23  1  0  0  0  0
 22 26  1  0  0  0  0
 20 21  1  0  0  0  0
 20 22  2  0  0  0  0
 17 18  1  0  0  0  0
 17 19  1  0  0  0  0
 17 20  1  0  0  0  0
 14 15  1  0  0  0  0
 14 16  1  0  0  0  0
 14 17  1  0  0  0  0
 11 12  1  0  0  0  0
 11 13  1  0  0  0  0
 11 14  1  0  0  0  0
  9 10  1  0  0  0  0
  9 11  1  0  0  0  0
  9 29  1  0  0  0  0
  7  8  1  0  0  0  0
  7  9  1  0  0  0  0
 33 34  1  0  0  0  0
 33 35  1  0  0  0  0
 33 36  1  0  0  0  0
 31 32  1  0  0  0  0
 31 33  1  0  0  0  0
M  CHG  1  20   1
M  END
$$$$
default_name
  -OEChem-02102213163D

 36 35  0     1  0  0  0  0  0999 V2000
   -4.2256   -3.6731    1.8584 H   0  0  0  0  0  0  0  0  0  0  0  0
   -4.2396   -2.6781    1.4144 C   0  0  0  0  0  0  0  0  0  0  0  0
   -4.9506   -2.0521    1.9514 H   0  0  0  0  0  0  0  0  0  0  0  0
   -4.5266   -2.7521    0.3674 H   0  0  0  0  0  0  0  0  0  0  0  0
   -2.8576   -2.0761    1.5184 C   0  0  0  0  0  0  0  0  0  0  0  0
   -1.9456   -2.7051    2.0404 O   0  0  0  0  0  0  0  0  0  0  0  0
   -2.6926   -0.8481    1.0174 N   0  0  0  0  0  0  0  0  0  0  0  0
   -3.4926   -0.3971    0.5954 H   0  0  0  0  0  0  0  0  0  0  0  0
   -1.4216   -0.1071    1.0434 C   0  0  1  0  0  0  0  0  0  0  0  0
   -0.7579   -0.5878    1.7640 H   0  0  0  0  0  0  0  0  0  0  0  0
   -0.7791   -0.1912   -0.3557 C   0  0  0  0  0  0  0  0  0  0  0  0
    0.2805   -0.4274   -0.2389 H   0  0  0  0  0  0  0  0  0  0  0  0
   -1.2480   -1.0034   -0.9155 H   0  0  0  0  0  0  0  0  0  0  0  0
   -0.8972    1.1106   -1.1617 C   0  0  0  0  0  0  0  0  0  0  0  0
   -0.2112    1.0831   -2.0095 H   0  0  0  0  0  0  0  0  0  0  0  0
   -1.9187    1.2166   -1.5282 H   0  0  0  0  0  0  0  0  0  0  0  0
   -0.5474    2.3104   -0.2709 C   0  0  0  0  0  0  0  0  0  0  0  0
   -1.2216    2.3147    0.5887 H   0  0  0  0  0  0  0  0  0  0  0  0
    0.4782    2.1911    0.0861 H   0  0  0  0  0  0  0  0  0  0  0  0
   -0.6708    3.5893   -1.0002 N   0  3  0  0  0  0  0  0  0  0  0  0
   -0.9139    3.5321   -1.9743 H   0  0  0  0  0  0  0  0  0  0  0  0
   -0.4924    4.7980   -0.4940 C   0  0  0  0  0  0  0  0  0  0  0  0
   -0.1751    4.9860    0.7563 N   0  0  0  0  0  0  0  0  0  0  0  0
   -0.0645    4.1854    1.3530 H   0  0  0  0  0  0  0  0  0  0  0  0
   -0.0430    5.9101    1.1244 H   0  0  0  0  0  0  0  0  0  0  0  0
   -0.6301    5.8544   -1.2440 N   0  0  0  0  0  0  0  0  0  0  0  0
   -0.8744    5.7599   -2.2148 H   0  0  0  0  0  0  0  0  0  0  0  0
   -0.4939    6.7695   -0.8560 H   0  0  0  0  0  0  0  0  0  0  0  0
   -1.6547    1.3413    1.4779 C   0  0  0  0  0  0  0  0  0  0  0  0
   -2.5654    1.9858    0.9716 O   0  0  0  0  0  0  0  0  0  0  0  0
   -0.8107    1.8504    2.3808 N   0  0  0  0  0  0  0  0  0  0  0  0
   -0.1136    1.2381    2.7719 H   0  0  0  0  0  0  0  0  0  0  0  0
   -0.8954    3.2155    2.9026 C   0  0  0  0  0  0  0  0  0  0  0  0
   -1.8299    3.3430    3.4532 H   0  0  0  0  0  0  0  0  0  0  0  0
   -0.0581    3.4194    3.5712 H   0  0  0  0  0  0  0  0  0  0  0  0
   -0.8804    3.9320    2.0784 H   0  0  0  0  0  0  0  0  0  0  0  0
  5  6  2  0  0  0  0
  5  7  1  0  0  0  0
  2  3  1  0  0  0  0
  2  4  1  0  0  0  0
  2  5  1  0  0  0  0
  1  2  1  0  0  0  0
 29 30  2  0  0  0  0
 29 31  1  0  0  0  0
 26 27  1  0  0  0  0
 26 28  1  0  0  0  0
 23 24  1  0  0  0  0
 23 25  1  0  0  0  0
 22 23  1  0  0  0  0
 22 26  1  0  0  0  0
 20 21  1  0  0  0  0
 20 22  2  0  0  0  0
 17 18  1  0  0  0  0
 17 19  1  0  0  0  0
 17 20  1  0  0  0  0
 14 15  1  0  0  0  0
 14 16  1  0  0  0  0
 14 17  1  0  0  0  0
 11 12  1  0  0  0  0
 11 13  1  0  0  0  0
 11 14  1  0  0  0  0
  9 10  1  0  0  0  0
  9 11  1  0  0  0  0
  9 29  1  0  0  0  0
  7  8  1  0  0  0  0
  7  9  1  0  0  0  0
 33 34  1  0  0  0  0
 33 35  1  0  0  0  0
 33 36  1  0  0  0  0
 31 32  1  0  0  0  0
 31 33  1  0  0  0  0
M  CHG  1  20   1
M  END
$$$$
default_name
  -OEChem-02102213163D

 36 35  0     1  0  0  0  0  0999 V2000
   -4.2256   -3.6731    1.8584 H   0  0  0  0  0  0  0  0  0  0  0  0
   -4.2396   -2.6781    1.4144 C   0  0  0  0  0  0  0  0  0  0  0  0
   -4.9506   -2.0521    1.9514 H   0  0  0  0  0  0  0  0  0  0  0  0
   -4.5266   -2.7521    0.3674 H   0  0  0  0  0  0  0  0  0  0  0  0
   -2.8576   -2.0761    1.5184 C   0  0  0  0  0  0  0  0  0  0  0  0
   -1.9456   -2.7051    2.0404 O   0  0  0  0  0  0  0  0  0  0  0  0
   -2.6926   -0.8481    1.0174 N   0  0  0  0  0  0  0  0  0  0  0  0
   -3.4926   -0.3971    0.5954 H   0  0  0  0  0  0  0  0  0  0  0  0
   -1.4216   -0.1071    1.0434 C   0  0  1  0  0  0  0  0  0  0  0  0
   -0.7579   -0.5878    1.7640 H   0  0  0  0  0  0  0  0  0  0  0  0
   -0.7791   -0.1912   -0.3557 C   0  0  0  0  0  0  0  0  0  0  0  0
    0.2805   -0.4274   -0.2389 H   0  0  0  0  0  0  0  0  0  0  0  0
   -1.2480   -1.0034   -0.9155 H   0  0  0  0  0  0  0  0  0  0  0  0
   -0.8972    1.1106   -1.1617 C   0  0  0  0  0  0  0  0  0  0  0  0
   -0.4252    0.9846   -2.1372 H   0  0  0  0  0  0  0  0  0  0  0  0
   -1.9509    1.3549   -1.3001 H   0  0  0  0  0  0  0  0  0  0  0  0
   -0.2023    2.2548   -0.4112 C   0  0  0  0  0  0  0  0  0  0  0  0
   -0.6632    2.3562    0.5740 H   0  0  0  0  0  0  0  0  0  0  0  0
    0.8515    1.9967   -0.2825 H   0  0  0  0  0  0  0  0  0  0  0  0
   -0.3115    3.5350   -1.1404 N   0  3  0  0  0  0  0  0  0  0  0  0
   -0.7691    3.5074   -2.0355 H   0  0  0  0  0  0  0  0  0  0  0  0
    0.1340    4.7099   -0.7280 C   0  0  0  0  0  0  0  0  0  0  0  0
    0.7418    4.8583    0.4156 N   0  0  0  0  0  0  0  0  0  0  0  0
    0.8734    4.0528    1.0016 H   0  0  0  0  0  0  0  0  0  0  0  0
    1.0741    5.7570    0.7135 H   0  0  0  0  0  0  0  0  0  0  0  0
   -0.0233    5.7716   -1.4665 N   0  0  0  0  0  0  0  0  0  0  0  0
   -0.4863    5.7072   -2.3567 H   0  0  0  0  0  0  0  0  0  0  0  0
    0.3161    6.6610   -1.1498 H   0  0  0  0  0  0  0  0  0  0  0  0
   -1.6547    1.3413    1.4779 C   0  0  0  0  0  0  0  0  0  0  0  0
   -2.5654    1.9858    0.9716 O   0  0  0  0  0  0  0  0  0  0  0  0
   -0.8107    1.8504    2.3808 N   0  0  0  0  0  0  0  0  0  0  0  0
   -0.1136    1.2381    2.7719 H   0  0  0  0  0  0  0  0  0  0  0  0
   -0.8954    3.2155    2.9026 C   0  0  0  0  0  0  0  0  0  0  0  0
   -1.8299    3.3430    3.4532 H   0  0  0  0  0  0  0  0  0  0  0  0
   -0.0581    3.4194    3.5712 H   0  0  0  0  0  0  0  0  0  0  0  0
   -0.8804    3.9320    2.0784 H   0  0  0  0  0  0  0  0  0  0  0  0
  5  6  2  0  0  0  0
  5  7  1  0  0  0  0
  2  3  1  0  0  0  0
  2  4  1  0  0  0  0
  2  5  1  0  0  0  0
  1  2  1  0  0  0  0
 29 30  2  0  0  0  0
 29 31  1  0  0  0  0
 26 27  1  0  0  0  0
 26 28  1  0  0  0  0
 23 24  1  0  0  0  0
 23 25  1  0  0  0  0
 22 23  1  0  0  0  0
 22 26  1  0  0  0  0
 20 21  1  0  0  0  0
 20 22  2  0  0  0  0
 17 18  1  0  0  0  0
 17 19  1  0  0  0  0
 17 20  1  0  0  0  0
 14 15  1  0  0  0  0
 14 16  1  0  0  0  0
 14 17  1  0  0  0  0
 11 12  1  0  0  0  0
 11 13  1  0  0  0  0
 11 14  1  0  0  0  0
  9 10  1  0  0  0  0
  9 11  1  0  0  0  0
  9 29  1  0  0  0  0
  7  8  1  0  0  0  0
  7  9  1  0  0  0  0
 33 34  1  0  0  0  0
 33 35  1  0  0  0  0
 33 36  1  0  0  0  0
 31 32  1  0  0  0  0
 31 33  1  0  0  0  0
M  CHG  1  20   1
M  END
$$$$
default_name
  -OEChem-02102213163D

 36 35  0     1  0  0  0  0  0999 V2000
   -4.2256   -3.6731    1.8584 H   0  0  0  0  0  0  0  0  0  0  0  0
   -4.2396   -2.6781    1.4144 C   0  0  0  0  0  0  0  0  0  0  0  0
   -4.9506   -2.0521    1.9514 H   0  0  0  0  0  0  0  0  0  0  0  0
   -4.5266   -2.7521    0.3674 H   0  0  0  0  0  0  0  0  0  0  0  0
   -2.8576   -2.0761    1.5184 C   0  0  0  0  0  0  0  0  0  0  0  0
   -1.9456   -2.7051    2.0404 O   0  0  0  0  0  0  0  0  0  0  0  0
   -2.6926   -0.8481    1.0174 N   0  0  0  0  0  0  0  0  0  0  0  0
   -3.4926   -0.3971    0.5954 H   0  0  0  0  0  0  0  0  0  0  0  0
   -1.4216   -0.1071    1.0434 C   0  0  1  0  0  0  0  0  0  0  0  0
   -0.7579   -0.5878    1.7640 H   0  0  0  0  0  0  0  0  0  0  0  0
   -0.7791   -0.1912   -0.3557 C   0  0  0  0  0  0  0  0  0  0  0  0
    0.2805   -0.4274   -0.2389 H   0  0  0  0  0  0  0  0  0  0  0  0
   -1.2480   -1.0034   -0.9155 H   0  0  0  0  0  0  0  0  0  0  0  0
   -0.8972    1.1106   -1.1617 C   0  0  0  0  0  0  0  0  0  0  0  0
   -0.6734    0.9160   -2.2116 H   0  0  0  0  0  0  0  0  0  0  0  0
   -1.9131    1.4974   -1.0756 H   0  0  0  0  0  0  0  0  0  0  0  0
    0.0928    2.1514   -0.6213 C   0  0  0  0  0  0  0  0  0  0  0  0
   -0.1215    2.3202    0.4365 H   0  0  0  0  0  0  0  0  0  0  0  0
    1.1048    1.7509   -0.7165 H   0  0  0  0  0  0  0  0  0  0  0  0
   -0.0027    3.4310   -1.3536 N   0  3  0  0  0  0  0  0  0  0  0  0
   -0.6461    3.4626   -2.1259 H   0  0  0  0  0  0  0  0  0  0  0  0
    0.6759    4.5351   -1.0897 C   0  0  0  0  0  0  0  0  0  0  0  0
    1.5353    4.6035   -0.1120 N   0  0  0  0  0  0  0  0  0  0  0  0
    1.6842    3.7903    0.4590 H   0  0  0  0  0  0  0  0  0  0  0  0
    2.0423    5.4491    0.0745 H   0  0  0  0  0  0  0  0  0  0  0  0
    0.5027    5.6048   -1.8129 N   0  0  0  0  0  0  0  0  0  0  0  0
   -0.1498    5.6007   -2.5779 H   0  0  0  0  0  0  0  0  0  0  0  0
    1.0194    6.4403   -1.6093 H   0  0  0  0  0  0  0  0  0  0  0  0
   -1.6547    1.3413    1.4779 C   0  0  0  0  0  0  0  0  0  0  0  0
   -2.5654    1.9858    0.9716 O   0  0  0  0  0  0  0  0  0  0  0  0
   -0.8107    1.8504    2.3808 N   0  0  0  0  0  0  0  0  0  0  0  0
   -0.1136    1.2381    2.7719 H   0  0  0  0  0  0  0  0  0  0  0  0
   -0.8954    3.2155    2.9026 C   0  0  0  0  0  0  0  0  0  0  0  0
   -1.8299    3.3430    3.4532 H   0  0  0  0  0  0  0  0  0  0  0  0
   -0.0581    3.4194    3.5712 H   0  0  0  0  0  0  0  0  0  0  0  0
   -0.8804    3.9320    2.0784 H   0  0  0  0  0  0  0  0  0  0  0  0
  5  6  2  0  0  0  0
  5  7  1  0  0  0  0
  2  3  1  0  0  0  0
  2  4  1  0  0  0  0
  2  5  1  0  0  0  0
  1  2  1  0  0  0  0
 29 30  2  0  0  0  0
 29 31  1  0  0  0  0
 26 27  1  0  0  0  0
 26 28  1  0  0  0  0
 23 24  1  0  0  0  0
 23 25  1  0  0  0  0
 22 23  1  0  0  0  0
 22 26  1  0  0  0  0
 20 21  1  0  0  0  0
 20 22  2  0  0  0  0
 17 18  1  0  0  0  0
 17 19  1  0  0  0  0
 17 20  1  0  0  0  0
 14 15  1  0  0  0  0
 14 16  1  0  0  0  0
 14 17  1  0  0  0  0
 11 12  1  0  0  0  0
 11 13  1  0  0  0  0
 11 14  1  0  0  0  0
  9 10  1  0  0  0  0
  9 11  1  0  0  0  0
  9 29  1  0  0  0  0
  7  8  1  0  0  0  0
  7  9  1  0  0  0  0
 33 34  1  0  0  0  0
 33 35  1  0  0  0  0
 33 36  1  0  0  0  0
 31 32  1  0  0  0  0
 31 33  1  0  0  0  0
M  CHG  1  20   1
M  END
$$$$
default_name
  -OEChem-02102213163D

 36 35  0     1  0  0  0  0  0999 V2000
   -4.2256   -3.6731    1.8584 H   0  0  0  0  0  0  0  0  0  0  0  0
   -4.2396   -2.6781    1.4144 C   0  0  0  0  0  0  0  0  0  0  0  0
   -4.9506   -2.0521    1.9514 H   0  0  0  0  0  0  0  0  0  0  0  0
   -4.5266   -2.7521    0.3674 H   0  0  0  0  0  0  0  0  0  0  0  0
   -2.8576   -2.0761    1.5184 C   0  0  0  0  0  0  0  0  0  0  0  0
   -1.9456   -2.7051    2.0404 O   0  0  0  0  0  0  0  0  0  0  0  0
   -2.6926   -0.8481    1.0174 N   0  0  0  0  0  0  0  0  0  0  0  0
   -3.4926   -0.3971    0.5954 H   0  0  0  0  0  0  0  0  0  0  0  0
   -1.4216   -0.1071    1.0434 C   0  0  1  0  0  0  0  0  0  0  0  0
   -0.7579   -0.5878    1.7640 H   0  0  0  0  0  0  0  0  0  0  0  0
   -0.7791   -0.1912   -0.3557 C   0  0  0  0  0  0  0  0  0  0  0  0
    0.2805   -0.4274   -0.2389 H   0  0  0  0  0  0  0  0  0  0  0  0
   -1.2480   -1.0034   -0.9155 H   0  0  0  0  0  0  0  0  0  0  0  0
   -0.8972    1.1106   -1.1617 C   0  0  0  0  0  0  0  0  0  0  0  0
   -0.9388    0.8820   -2.2276 H   0  0  0  0  0  0  0  0  0  0  0  0
   -1.8079    1.6344   -0.8698 H   0  0  0  0  0  0  0  0  0  0  0  0
    0.3177    2.0073   -0.8870 C   0  0  0  0  0  0  0  0  0  0  0  0
    0.3667    2.2090    0.1855 H   0  0  0  0  0  0  0  0  0  0  0  0
    1.2209    1.4704   -1.1864 H   0  0  0  0  0  0  0  0  0  0  0  0
    0.2348    3.2843   -1.6253 N   0  3  0  0  0  0  0  0  0  0  0  0
   -0.5531    3.4008   -2.2393 H   0  0  0  0  0  0  0  0  0  0  0  0
    1.0961    4.2854   -1.5545 C   0  0  0  0  0  0  0  0  0  0  0  0
    2.1515    4.2391   -0.7907 N   0  0  0  0  0  0  0  0  0  0  0  0
    2.3127    3.4159   -0.2377 H   0  0  0  0  0  0  0  0  0  0  0  0
    2.7954    5.0075   -0.7490 H   0  0  0  0  0  0  0  0  0  0  0  0
    0.9121    5.3653   -2.2596 N   0  0  0  0  0  0  0  0  0  0  0  0
    0.1123    5.4477   -2.8633 H   0  0  0  0  0  0  0  0  0  0  0  0
    1.5679    6.1224   -2.2029 H   0  0  0  0  0  0  0  0  0  0  0  0
   -1.6547    1.3413    1.4779 C   0  0  0  0  0  0  0  0  0  0  0  0
   -2.5654    1.9858    0.9716 O   0  0  0  0  0  0  0  0  0  0  0  0
   -0.8107    1.8504    2.3808 N   0  0  0  0  0  0  0  0  0  0  0  0
   -0.1136    1.2381    2.7719 H   0  0  0  0  0  0  0  0  0  0  0  0
   -0.8954    3.2155    2.9026 C   0  0  0  0  0  0  0  0  0  0  0  0
   -1.8299    3.3430    3.4532 H   0  0  0  0  0  0  0  0  0  0  0  0
   -0.0581    3.4194    3.5712 H   0  0  0  0  0  0  0  0  0  0  0  0
   -0.8804    3.9320    2.0784 H   0  0  0  0  0  0  0  0  0  0  0  0
  5  6  2  0  0  0  0
  5  7  1  0  0  0  0
  2  3  1  0  0  0  0
  2  4  1  0  0  0  0
  2  5  1  0  0  0  0
  1  2  1  0  0  0  0
 29 30  2  0  0  0  0
 29 31  1  0  0  0  0
 26 27  1  0  0  0  0
 26 28  1  0  0  0  0
 23 24  1  0  0  0  0
 23 25  1  0  0  0  0
 22 23  1  0  0  0  0
 22 26  1  0  0  0  0
 20 21  1  0  0  0  0
 20 22  2  0  0  0  0
 17 18  1  0  0  0  0
 17 19  1  0  0  0  0
 17 20  1  0  0  0  0
 14 15  1  0  0  0  0
 14 16  1  0  0  0  0
 14 17  1  0  0  0  0
 11 12  1  0  0  0  0
 11 13  1  0  0  0  0
 11 14  1  0  0  0  0
  9 10  1  0  0  0  0
  9 11  1  0  0  0  0
  9 29  1  0  0  0  0
  7  8  1  0  0  0  0
  7  9  1  0  0  0  0
 33 34  1  0  0  0  0
 33 35  1  0  0  0  0
 33 36  1  0  0  0  0
 31 32  1  0  0  0  0
 31 33  1  0  0  0  0
M  CHG  1  20   1
M  END
$$$$
default_name
  -OEChem-02102213163D

 36 35  0     1  0  0  0  0  0999 V2000
   -4.2256   -3.6731    1.8584 H   0  0  0  0  0  0  0  0  0  0  0  0
   -4.2396   -2.6781    1.4144 C   0  0  0  0  0  0  0  0  0  0  0  0
   -4.9506   -2.0521    1.9514 H   0  0  0  0  0  0  0  0  0  0  0  0
   -4.5266   -2.7521    0.3674 H   0  0  0  0  0  0  0  0  0  0  0  0
   -2.8576   -2.0761    1.5184 C   0  0  0  0  0  0  0  0  0  0  0  0
   -1.9456   -2.7051    2.0404 O   0  0  0  0  0  0  0  0  0  0  0  0
   -2.6926   -0.8481    1.0174 N   0  0  0  0  0  0  0  0  0  0  0  0
   -3.4926   -0.3971    0.5954 H   0  0  0  0  0  0  0  0  0  0  0  0
   -1.4216   -0.1071    1.0434 C   0  0  1  0  0  0  0  0  0  0  0  0
   -0.7579   -0.5878    1.7640 H   0  0  0  0  0  0  0  0  0  0  0  0
   -0.7791   -0.1912   -0.3557 C   0  0  0  0  0  0  0  0  0  0  0  0
    0.2805   -0.4274   -0.2389 H   0  0  0  0  0  0  0  0  0  0  0  0
   -1.2480   -1.0034   -0.9155 H   0  0  0  0  0  0  0  0  0  0  0  0
   -0.8972    1.1106   -1.1617 C   0  0  0  0  0  0  0  0  0  0  0  0
   -1.2032    0.8849   -2.1842 H   0  0  0  0  0  0  0  0  0  0  0  0
   -1.6426    1.7565   -0.6968 H   0  0  0  0  0  0  0  0  0  0  0  0
    0.4570    1.8323   -1.1901 C   0  0  0  0  0  0  0  0  0  0  0  0
    0.7681    2.0304   -0.1618 H   0  0  0  0  0  0  0  0  0  0  0  0
    1.1918    1.1744   -1.6602 H   0  0  0  0  0  0  0  0  0  0  0  0
    0.3846    3.1050   -1.9368 N   0  3  0  0  0  0  0  0  0  0  0  0
   -0.4966    3.3262   -2.3680 H   0  0  0  0  0  0  0  0  0  0  0  0
    1.3662    3.9778   -2.0907 C   0  0  0  0  0  0  0  0  0  0  0  0
    2.5482    3.7899   -1.5742 N   0  0  0  0  0  0  0  0  0  0  0  0
    2.7160    2.9549   -1.0412 H   0  0  0  0  0  0  0  0  0  0  0  0
    3.2823    4.4622   -1.7008 H   0  0  0  0  0  0  0  0  0  0  0  0
    1.1770    5.0695   -2.7761 N   0  0  0  0  0  0  0  0  0  0  0  0
    0.2820    5.2587   -3.1935 H   0  0  0  0  0  0  0  0  0  0  0  0
    1.9244    5.7290   -2.8904 H   0  0  0  0  0  0  0  0  0  0  0  0
   -1.6547    1.3413    1.4779 C   0  0  0  0  0  0  0  0  0  0  0  0
   -2.5654    1.9858    0.9716 O   0  0  0  0  0  0  0  0  0  0  0  0
   -0.8107    1.8504    2.3808 N   0  0  0  0  0  0  0  0  0  0  0  0
   -0.1136    1.2381    2.7719 H   0  0  0  0  0  0  0  0  0  0  0  0
   -0.8954    3.2155    2.9026 C   0  0  0  0  0  0  0  0  0  0  0  0
   -1.8299    3.3430    3.4532 H   0  0  0  0  0  0  0  0  0  0  0  0
   -0.0581    3.4194    3.5712 H   0  0  0  0  0  0  0  0  0  0  0  0
   -0.8804    3.9320    2.0784 H   0  0  0  0  0  0  0  0  0  0  0  0
  5  6  2  0  0  0  0
  5  7  1  0  0  0  0
  2  3  1  0  0  0  0
  2  4  1  0  0  0  0
  2  5  1  0  0  0  0
  1  2  1  0  0  0  0
 29 30  2  0  0  0  0
 29 31  1  0  0  0  0
 26 27  1  0  0  0  0
 26 28  1  0  0  0  0
 23 24  1  0  0  0  0
 23 25  1  0  0  0  0
 22 23  1  0  0  0  0
 22 26  1  0  0  0  0
 20 21  1  0  0  0  0
 20 22  2  0  0  0  0
 17 18  1  0  0  0  0
 17 19  1  0  0  0  0
 17 20  1  0  0  0  0
 14 15  1  0  0  0  0
 14 16  1  0  0  0  0
 14 17  1  0  0  0  0
 11 12  1  0  0  0  0
 11 13  1  0  0  0  0
 11 14  1  0  0  0  0
  9 10  1  0  0  0  0
  9 11  1  0  0  0  0
  9 29  1  0  0  0  0
  7  8  1  0  0  0  0
  7  9  1  0  0  0  0
 33 34  1  0  0  0  0
 33 35  1  0  0  0  0
 33 36  1  0  0  0  0
 31 32  1  0  0  0  0
 31 33  1  0  0  0  0
M  CHG  1  20   1
M  END
$$$$
default_name
  -OEChem-02102213163D

 36 35  0     1  0  0  0  0  0999 V2000
   -4.2256   -3.6731    1.8584 H   0  0  0  0  0  0  0  0  0  0  0  0
   -4.2396   -2.6781    1.4144 C   0  0  0  0  0  0  0  0  0  0  0  0
   -4.9506   -2.0521    1.9514 H   0  0  0  0  0  0  0  0  0  0  0  0
   -4.5266   -2.7521    0.3674 H   0  0  0  0  0  0  0  0  0  0  0  0
   -2.8576   -2.0761    1.5184 C   0  0  0  0  0  0  0  0  0  0  0  0
   -1.9456   -2.7051    2.0404 O   0  0  0  0  0  0  0  0  0  0  0  0
   -2.6926   -0.8481    1.0174 N   0  0  0  0  0  0  0  0  0  0  0  0
   -3.4926   -0.3971    0.5954 H   0  0  0  0  0  0  0  0  0  0  0  0
   -1.4216   -0.1071    1.0434 C   0  0  1  0  0  0  0  0  0  0  0  0
   -0.7579   -0.5878    1.7640 H   0  0  0  0  0  0  0  0  0  0  0  0
   -0.7791   -0.1912   -0.3557 C   0  0  0  0  0  0  0  0  0  0  0  0
    0.2805   -0.4274   -0.2389 H   0  0  0  0  0  0  0  0  0  0  0  0
   -1.2480   -1.0034   -0.9155 H   0  0  0  0  0  0  0  0  0  0  0  0
   -0.8972    1.1106   -1.1617 C   0  0  0  0  0  0  0  0  0  0  0  0
   -1.4487    0.9245   -2.0843 H   0  0  0  0  0  0  0  0  0  0  0  0
   -1.4284    1.8554   -0.5684 H   0  0  0  0  0  0  0  0  0  0  0  0
    0.5013    1.6382   -1.5099 C   0  0  0  0  0  0  0  0  0  0  0  0
    1.0554    1.7963   -0.5818 H   0  0  0  0  0  0  0  0  0  0  0  0
    1.0195    0.8830   -2.1056 H   0  0  0  0  0  0  0  0  0  0  0  0
    0.4366    2.9052   -2.2671 N   0  3  0  0  0  0  0  0  0  0  0  0
   -0.4804    3.2439   -2.5032 H   0  0  0  0  0  0  0  0  0  0  0  0
    1.4676    3.6334   -2.6618 C   0  0  0  0  0  0  0  0  0  0  0  0
    2.6985    3.2865   -2.4091 N   0  0  0  0  0  0  0  0  0  0  0  0
    2.8667    2.4389   -1.8966 H   0  0  0  0  0  0  0  0  0  0  0  0
    3.4696    3.8504   -2.7162 H   0  0  0  0  0  0  0  0  0  0  0  0
    1.2794    4.7375   -3.3273 N   0  0  0  0  0  0  0  0  0  0  0  0
    0.3479    5.0465   -3.5458 H   0  0  0  0  0  0  0  0  0  0  0  0
    2.0644    5.2870   -3.6248 H   0  0  0  0  0  0  0  0  0  0  0  0
   -1.6547    1.3413    1.4779 C   0  0  0  0  0  0  0  0  0  0  0  0
   -2.5654    1.9858    0.9716 O   0  0  0  0  0  0  0  0  0  0  0  0
   -0.8107    1.8504    2.3808 N   0  0  0  0  0  0  0  0  0  0  0  0
   -0.1136    1.2381    2.7719 H   0  0  0  0  0  0  0  0  0  0  0  0
   -0.8954    3.2155    2.9026 C   0  0  0  0  0  0  0  0  0  0  0  0
   -1.8299    3.3430    3.4532 H   0  0  0  0  0  0  0  0  0  0  0  0
   -0.0581    3.4194    3.5712 H   0  0  0  0  0  0  0  0  0  0  0  0
   -0.8804    3.9320    2.0784 H   0  0  0  0  0  0  0  0  0  0  0  0
  5  6  2  0  0  0  0
  5  7  1  0  0  0  0
  2  3  1  0  0  0  0
  2  4  1  0  0  0  0
  2  5  1  0  0  0  0
  1  2  1  0  0  0  0
 29 30  2  0  0  0  0
 29 31  1  0  0  0  0
 26 27  1  0  0  0  0
 26 28  1  0  0  0  0
 23 24  1  0  0  0  0
 23 25  1  0  0  0  0
 22 23  1  0  0  0  0
 22 26  1  0  0  0  0
 20 21  1  0  0  0  0
 20 22  2  0  0  0  0
 17 18  1  0  0  0  0
 17 19  1  0  0  0  0
 17 20  1  0  0  0  0
 14 15  1  0  0  0  0
 14 16  1  0  0  0  0
 14 17  1  0  0  0  0
 11 12  1  0  0  0  0
 11 13  1  0  0  0  0
 11 14  1  0  0  0  0
  9 10  1  0  0  0  0
  9 11  1  0  0  0  0
  9 29  1  0  0  0  0
  7  8  1  0  0  0  0
  7  9  1  0  0  0  0
 33 34  1  0  0  0  0
 33 35  1  0  0  0  0
 33 36  1  0  0  0  0
 31 32  1  0  0  0  0
 31 33  1  0  0  0  0
M  CHG  1  20   1
M  END
$$$$
default_name
  -OEChem-02102213163D

 36 35  0     1  0  0  0  0  0999 V2000
   -4.2256   -3.6731    1.8584 H   0  0  0  0  0  0  0  0  0  0  0  0
   -4.2396   -2.6781    1.4144 C   0  0  0  0  0  0  0  0  0  0  0  0
   -4.9506   -2.0521    1.9514 H   0  0  0  0  0  0  0  0  0  0  0  0
   -4.5266   -2.7521    0.3674 H   0  0  0  0  0  0  0  0  0  0  0  0
   -2.8576   -2.0761    1.5184 C   0  0  0  0  0  0  0  0  0  0  0  0
   -1.9456   -2.7051    2.0404 O   0  0  0  0  0  0  0  0  0  0  0  0
   -2.6926   -0.8481    1.0174 N   0  0  0  0  0  0  0  0  0  0  0  0
   -3.4926   -0.3971    0.5954 H   0  0  0  0  0  0  0  0  0  0  0  0
   -1.4216   -0.1071    1.0434 C   0  0  1  0  0  0  0  0  0  0  0  0
   -0.7579   -0.5878    1.7640 H   0  0  0  0  0  0  0  0  0  0  0  0
   -0.7791   -0.1912   -0.3557 C   0  0  0  0  0  0  0  0  0  0  0  0
    0.2805   -0.4274   -0.2389 H   0  0  0  0  0  0  0  0  0  0  0  0
   -1.2480   -1.0034   -0.9155 H   0  0  0  0  0  0  0  0  0  0  0  0
   -0.8972    1.1106   -1.1617 C   0  0  0  0  0  0  0  0  0  0  0  0
   -1.6586    0.9981   -1.9348 H   0  0  0  0  0  0  0  0  0  0  0  0
   -1.1799    1.9245   -0.4933 H   0  0  0  0  0  0  0  0  0  0  0  0
    0.4476    1.4384   -1.8247 C   0  0  0  0  0  0  0  0  0  0  0  0
    1.2089    1.5229   -1.0458 H   0  0  0  0  0  0  0  0  0  0  0  0
    0.7158    0.6161   -2.4922 H   0  0  0  0  0  0  0  0  0  0  0  0
    0.3872    2.6986   -2.5935 N   0  3  0  0  0  0  0  0  0  0  0  0
   -0.5056    3.1596   -2.6358 H   0  0  0  0  0  0  0  0  0  0  0  0
    1.3935    3.2756   -3.2287 C   0  0  0  0  0  0  0  0  0  0  0  0
    2.5921    2.7633   -3.2385 N   0  0  0  0  0  0  0  0  0  0  0  0
    2.7545    1.9030   -2.7456 H   0  0  0  0  0  0  0  0  0  0  0  0
    3.3446    3.2138   -3.7259 H   0  0  0  0  0  0  0  0  0  0  0  0
    1.2123    4.3919   -3.8755 N   0  0  0  0  0  0  0  0  0  0  0  0
    0.3054    4.8255   -3.8964 H   0  0  0  0  0  0  0  0  0  0  0  0
    1.9784    4.8263   -4.3560 H   0  0  0  0  0  0  0  0  0  0  0  0
   -1.6547    1.3413    1.4779 C   0  0  0  0  0  0  0  0  0  0  0  0
   -2.5654    1.9858    0.9716 O   0  0  0  0  0  0  0  0  0  0  0  0
   -0.8107    1.8504    2.3808 N   0  0  0  0  0  0  0  0  0  0  0  0
   -0.1136    1.2381    2.7719 H   0  0  0  0  0  0  0  0  0  0  0  0
   -0.8954    3.2155    2.9026 C   0  0  0  0  0  0  0  0  0  0  0  0
   -1.8299    3.3430    3.4532 H   0  0  0  0  0  0  0  0  0  0  0  0
   -0.0581    3.4194    3.5712 H   0  0  0  0  0  0  0  0  0  0  0  0
   -0.8804    3.9320    2.0784 H   0  0  0  0  0  0  0  0  0  0  0  0
  5  6  2  0  0  0  0
  5  7  1  0  0  0  0
  2  3  1  0  0  0  0
  2  4  1  0  0  0  0
  2  5  1  0  0  0  0
  1  2  1  0  0  0  0
 29 30  2  0  0  0  0
 29 31  1  0  0  0  0
 26 27  1  0  0  0  0
 26 28  1  0  0  0  0
 23 24  1  0  0  0  0
 23 25  1  0  0  0  0
 22 23  1  0  0  0  0
 22 26  1  0  0  0  0
 20 21  1  0  0  0  0
 20 22  2  0  0  0  0
 17 18  1  0  0  0  0
 17 19  1  0  0  0  0
 17 20  1  0  0  0  0
 14 15  1  0  0  0  0
 14 16  1  0  0  0  0
 14 17  1  0  0  0  0
 11 12  1  0  0  0  0
 11 13  1  0  0  0  0
 11 14  1  0  0  0  0
  9 10  1  0  0  0  0
  9 11  1  0  0  0  0
  9 29  1  0  0  0  0
  7  8  1  0  0  0  0
  7  9  1  0  0  0  0
 33 34  1  0  0  0  0
 33 35  1  0  0  0  0
 33 36  1  0  0  0  0
 31 32  1  0  0  0  0
 31 33  1  0  0  0  0
M  CHG  1  20   1
M  END
$$$$
default_name
  -OEChem-02102213163D

 36 35  0     1  0  0  0  0  0999 V2000
   -4.2256   -3.6731    1.8584 H   0  0  0  0  0  0  0  0  0  0  0  0
   -4.2396   -2.6781    1.4144 C   0  0  0  0  0  0  0  0  0  0  0  0
   -4.9506   -2.0521    1.9514 H   0  0  0  0  0  0  0  0  0  0  0  0
   -4.5266   -2.7521    0.3674 H   0  0  0  0  0  0  0  0  0  0  0  0
   -2.8576   -2.0761    1.5184 C   0  0  0  0  0  0  0  0  0  0  0  0
   -1.9456   -2.7051    2.0404 O   0  0  0  0  0  0  0  0  0  0  0  0
   -2.6926   -0.8481    1.0174 N   0  0  0  0  0  0  0  0  0  0  0  0
   -3.4926   -0.3971    0.5954 H   0  0  0  0  0  0  0  0  0  0  0  0
   -1.4216   -0.1071    1.0434 C   0  0  1  0  0  0  0  0  0  0  0  0
   -0.7579   -0.5878    1.7640 H   0  0  0  0  0  0  0  0  0  0  0  0
   -0.7791   -0.1912   -0.3557 C   0  0  0  0  0  0  0  0  0  0  0  0
    0.2805   -0.4274   -0.2389 H   0  0  0  0  0  0  0  0  0  0  0  0
   -1.2480   -1.0034   -0.9155 H   0  0  0  0  0  0  0  0  0  0  0  0
   -0.8972    1.1106   -1.1617 C   0  0  0  0  0  0  0  0  0  0  0  0
   -1.8185    1.1006   -1.7458 H   0  0  0  0  0  0  0  0  0  0  0  0
   -0.9140    1.9588   -0.4767 H   0  0  0  0  0  0  0  0  0  0  0  0
    0.2995    1.2464   -2.1130 C   0  0  0  0  0  0  0  0  0  0  0  0
    1.2183    1.2287   -1.5223 H   0  0  0  0  0  0  0  0  0  0  0  0
    0.3014    0.3918   -2.7936 H   0  0  0  0  0  0  0  0  0  0  0  0
    0.2398    2.4993   -2.8938 N   0  3  0  0  0  0  0  0  0  0  0  0
   -0.5704    3.0789   -2.7566 H   0  0  0  0  0  0  0  0  0  0  0  0
    1.1489    2.9288   -3.7530 C   0  0  0  0  0  0  0  0  0  0  0  0
    2.2363    2.2558   -4.0059 N   0  0  0  0  0  0  0  0  0  0  0  0
    2.3871    1.3837   -3.5304 H   0  0  0  0  0  0  0  0  0  0  0  0
    2.9159    2.5958   -4.6612 H   0  0  0  0  0  0  0  0  0  0  0  0
    0.9802    4.0563   -4.3835 N   0  0  0  0  0  0  0  0  0  0  0  0
    0.1573    4.6109   -4.2213 H   0  0  0  0  0  0  0  0  0  0  0  0
    1.6724    4.3785   -5.0344 H   0  0  0  0  0  0  0  0  0  0  0  0
   -1.6547    1.3413    1.4779 C   0  0  0  0  0  0  0  0  0  0  0  0
   -2.5654    1.9858    0.9716 O   0  0  0  0  0  0  0  0  0  0  0  0
   -0.8107    1.8504    2.3808 N   0  0  0  0  0  0  0  0  0  0  0  0
   -0.1136    1.2381    2.7719 H   0  0  0  0  0  0  0  0  0  0  0  0
   -0.8954    3.2155    2.9026 C   0  0  0  0  0  0  0  0  0  0  0  0
   -1.8299    3.3430    3.4532 H   0  0  0  0  0  0  0  0  0  0  0  0
   -0.0581    3.4194    3.5712 H   0  0  0  0  0  0  0  0  0  0  0  0
   -0.8804    3.9320    2.0784 H   0  0  0  0  0  0  0  0  0  0  0  0
  5  6  2  0  0  0  0
  5  7  1  0  0  0  0
  2  3  1  0  0  0  0
  2  4  1  0  0  0  0
  2  5  1  0  0  0  0
  1  2  1  0  0  0  0
 29 30  2  0  0  0  0
 29 31  1  0  0  0  0
 26 27  1  0  0  0  0
 26 28  1  0  0  0  0
 23 24  1  0  0  0  0
 23 25  1  0  0  0  0
 22 23  1  0  0  0  0
 22 26  1  0  0  0  0
 20 21  1  0  0  0  0
 20 22  2  0  0  0  0
 17 18  1  0  0  0  0
 17 19  1  0  0  0  0
 17 20  1  0  0  0  0
 14 15  1  0  0  0  0
 14 16  1  0  0  0  0
 14 17  1  0  0  0  0
 11 12  1  0  0  0  0
 11 13  1  0  0  0  0
 11 14  1  0  0  0  0
  9 10  1  0  0  0  0
  9 11  1  0  0  0  0
  9 29  1  0  0  0  0
  7  8  1  0  0  0  0
  7  9  1  0  0  0  0
 33 34  1  0  0  0  0
 33 35  1  0  0  0  0
 33 36  1  0  0  0  0
 31 32  1  0  0  0  0
 31 33  1  0  0  0  0
M  CHG  1  20   1
M  END
$$$$
default_name
  -OEChem-02102213163D

 36 35  0     1  0  0  0  0  0999 V2000
   -4.2256   -3.6731    1.8584 H   0  0  0  0  0  0  0  0  0  0  0  0
   -4.2396   -2.6781    1.4144 C   0  0  0  0  0  0  0  0  0  0  0  0
   -4.9506   -2.0521    1.9514 H   0  0  0  0  0  0  0  0  0  0  0  0
   -4.5266   -2.7521    0.3674 H   0  0  0  0  0  0  0  0  0  0  0  0
   -2.8576   -2.0761    1.5184 C   0  0  0  0  0  0  0  0  0  0  0  0
   -1.9456   -2.7051    2.0404 O   0  0  0  0  0  0  0  0  0  0  0  0
   -2.6926   -0.8481    1.0174 N   0  0  0  0  0  0  0  0  0  0  0  0
   -3.4926   -0.3971    0.5954 H   0  0  0  0  0  0  0  0  0  0  0  0
   -1.4216   -0.1071    1.0434 C   0  0  1  0  0  0  0  0  0  0  0  0
   -0.7579   -0.5878    1.7640 H   0  0  0  0  0  0  0  0  0  0  0  0
   -0.7791   -0.1912   -0.3557 C   0  0  0  0  0  0  0  0  0  0  0  0
    0.2805   -0.4274   -0.2389 H   0  0  0  0  0  0  0  0  0  0  0  0
   -1.2480   -1.0034   -0.9155 H   0  0  0  0  0  0  0  0  0  0  0  0
   -0.8972    1.1106   -1.1617 C   0  0  0  0  0  0  0  0  0  0  0  0
   -1.9176    1.2252   -1.5301 H   0  0  0  0  0  0  0  0  0  0  0  0
   -0.6488    1.9563   -0.5197 H   0  0  0  0  0  0  0  0  0  0  0  0
    0.0671    1.0754   -2.3552 C   0  0  0  0  0  0  0  0  0  0  0  0
    1.0828    0.9337   -1.9788 H   0  0  0  0  0  0  0  0  0  0  0  0
   -0.1956    0.2254   -2.9895 H   0  0  0  0  0  0  0  0  0  0  0  0
    0.0045    2.3207   -3.1476 N   0  3  0  0  0  0  0  0  0  0  0  0
   -0.6706    3.0073   -2.8575 H   0  0  0  0  0  0  0  0  0  0  0  0
    0.7505    2.6165   -4.1989 C   0  0  0  0  0  0  0  0  0  0  0  0
    1.6553    1.7987   -4.6590 N   0  0  0  0  0  0  0  0  0  0  0  0
    1.7894    0.9163   -4.1976 H   0  0  0  0  0  0  0  0  0  0  0  0
    2.2127    2.0385   -5.4582 H   0  0  0  0  0  0  0  0  0  0  0  0
    0.5990    3.7536   -4.8165 N   0  0  0  0  0  0  0  0  0  0  0  0
   -0.0861    4.4172   -4.4984 H   0  0  0  0  0  0  0  0  0  0  0  0
    1.1671    3.9740   -5.6136 H   0  0  0  0  0  0  0  0  0  0  0  0
   -1.6547    1.3413    1.4779 C   0  0  0  0  0  0  0  0  0  0  0  0
   -2.5654    1.9858    0.9716 O   0  0  0  0  0  0  0  0  0  0  0  0
   -0.8107    1.8504    2.3808 N   0  0  0  0  0  0  0  0  0  0  0  0
   -0.1136    1.2381    2.7719 H   0  0  0  0  0  0  0  0  0  0  0  0
   -0.8954    3.2155    2.9026 C   0  0  0  0  0  0  0  0  0  0  0  0
   -1.8299    3.3430    3.4532 H   0  0  0  0  0  0  0  0  0  0  0  0
   -0.0581    3.4194    3.5712 H   0  0  0  0  0  0  0  0  0  0  0  0
   -0.8804    3.9320    2.0784 H   0  0  0  0  0  0  0  0  0  0  0  0
  5  6  2  0  0  0  0
  5  7  1  0  0  0  0
  2  3  1  0  0  0  0
  2  4  1  0  0  0  0
  2  5  1  0  0  0  0
  1  2  1  0  0  0  0
 29 30  2  0  0  0  0
 29 31  1  0  0  0  0
 26 27  1  0  0  0  0
 26 28  1  0  0  0  0
 23 24  1  0  0  0  0
 23 25  1  0  0  0  0
 22 23  1  0  0  0  0
 22 26  1  0  0  0  0
 20 21  1  0  0  0  0
 20 22  2  0  0  0  0
 17 18  1  0  0  0  0
 17 19  1  0  0  0  0
 17 20  1  0  0  0  0
 14 15  1  0  0  0  0
 14 16  1  0  0  0  0
 14 17  1  0  0  0  0
 11 12  1  0  0  0  0
 11 13  1  0  0  0  0
 11 14  1  0  0  0  0
  9 10  1  0  0  0  0
  9 11  1  0  0  0  0
  9 29  1  0  0  0  0
  7  8  1  0  0  0  0
  7  9  1  0  0  0  0
 33 34  1  0  0  0  0
 33 35  1  0  0  0  0
 33 36  1  0  0  0  0
 31 32  1  0  0  0  0
 31 33  1  0  0  0  0
M  CHG  1  20   1
M  END
$$$$
default_name
  -OEChem-02102213163D

 36 35  0     1  0  0  0  0  0999 V2000
   -4.2256   -3.6731    1.8584 H   0  0  0  0  0  0  0  0  0  0  0  0
   -4.2396   -2.6781    1.4144 C   0  0  0  0  0  0  0  0  0  0  0  0
   -4.9506   -2.0521    1.9514 H   0  0  0  0  0  0  0  0  0  0  0  0
   -4.5266   -2.7521    0.3674 H   0  0  0  0  0  0  0  0  0  0  0  0
   -2.8576   -2.0761    1.5184 C   0  0  0  0  0  0  0  0  0  0  0  0
   -1.9456   -2.7051    2.0404 O   0  0  0  0  0  0  0  0  0  0  0  0
   -2.6926   -0.8481    1.0174 N   0  0  0  0  0  0  0  0  0  0  0  0
   -3.4926   -0.3971    0.5954 H   0  0  0  0  0  0  0  0  0  0  0  0
   -1.4216   -0.1071    1.0434 C   0  0  1  0  0  0  0  0  0  0  0  0
   -0.7579   -0.5878    1.7640 H   0  0  0  0  0  0  0  0  0  0  0  0
   -0.7791   -0.1912   -0.3557 C   0  0  0  0  0  0  0  0  0  0  0  0
    0.1922   -0.6815   -0.2642 H   0  0  0  0  0  0  0  0  0  0  0  0
   -1.4098   -0.8059   -1.0016 H   0  0  0  0  0  0  0  0  0  0  0  0
   -0.5674    1.1798   -1.0145 C   0  0  0  0  0  0  0  0  0  0  0  0
   -1.5267    1.6866   -1.1281 H   0  0  0  0  0  0  0  0  0  0  0  0
    0.0875    1.7845   -0.3864 H   0  0  0  0  0  0  0  0  0  0  0  0
    0.0738    1.0014   -2.3974 C   0  0  0  0  0  0  0  0  0  0  0  0
    1.0205    0.4698   -2.2769 H   0  0  0  0  0  0  0  0  0  0  0  0
   -0.5942    0.3963   -3.0149 H   0  0  0  0  0  0  0  0  0  0  0  0
    0.3183    2.2991   -3.0599 N   0  3  0  0  0  0  0  0  0  0  0  0
    0.0062    3.1213   -2.5720 H   0  0  0  0  0  0  0  0  0  0  0  0
    0.9072    2.4806   -4.2301 C   0  0  0  0  0  0  0  0  0  0  0  0
    1.3490    1.4845   -4.9456 N   0  0  0  0  0  0  0  0  0  0  0  0
    1.2388    0.5499   -4.5939 H   0  0  0  0  0  0  0  0  0  0  0  0
    1.7933    1.6396   -5.8318 H   0  0  0  0  0  0  0  0  0  0  0  0
    1.0644    3.6813   -4.7105 N   0  0  0  0  0  0  0  0  0  0  0  0
    0.7402    4.4813   -4.1949 H   0  0  0  0  0  0  0  0  0  0  0  0
    1.5118    3.8145   -5.5986 H   0  0  0  0  0  0  0  0  0  0  0  0
   -1.6547    1.3413    1.4779 C   0  0  0  0  0  0  0  0  0  0  0  0
   -2.5654    1.9858    0.9716 O   0  0  0  0  0  0  0  0  0  0  0  0
   -0.8107    1.8504    2.3808 N   0  0  0  0  0  0  0  0  0  0  0  0
   -0.1136    1.2381    2.7719 H   0  0  0  0  0  0  0  0  0  0  0  0
   -0.8954    3.2155    2.9026 C   0  0  0  0  0  0  0  0  0  0  0  0
   -1.8299    3.3430    3.4532 H   0  0  0  0  0  0  0  0  0  0  0  0
   -0.0581    3.4194    3.5712 H   0  0  0  0  0  0  0  0  0  0  0  0
   -0.8804    3.9320    2.0784 H   0  0  0  0  0  0  0  0  0  0  0  0
  5  6  2  0  0  0  0
  5  7  1  0  0  0  0
  2  3  1  0  0  0  0
  2  4  1  0  0  0  0
  2  5  1  0  0  0  0
  1  2  1  0  0  0  0
 29 30  2  0  0  0  0
 29 31  1  0  0  0  0
 26 27  1  0  0  0  0
 26 28  1  0  0  0  0
 23 24  1  0  0  0  0
 23 25  1  0  0  0  0
 22 23  1  0  0  0  0
 22 26  1  0  0  0  0
 20 21  1  0  0  0  0
 20 22  2  0  0  0  0
 17 18  1  0  0  0  0
 17 19  1  0  0  0  0
 17 20  1  0  0  0  0
 14 15  1  0  0  0  0
 14 16  1  0  0  0  0
 14 17  1  0  0  0  0
 11 12  1  0  0  0  0
 11 13  1  0  0  0  0
 11 14  1  0  0  0  0
  9 10  1  0  0  0  0
  9 11  1  0  0  0  0
  9 29  1  0  0  0  0
  7  8  1  0  0  0  0
  7  9  1  0  0  0  0
 33 34  1  0  0  0  0
 33 35  1  0  0  0  0
 33 36  1  0  0  0  0
 31 32  1  0  0  0  0
 31 33  1  0  0  0  0
M  CHG  1  20   1
M  END
$$$$
default_name
  -OEChem-02102213163D

 36 35  0     1  0  0  0  0  0999 V2000
   -4.2256   -3.6731    1.8584 H   0  0  0  0  0  0  0  0  0  0  0  0
   -4.2396   -2.6781    1.4144 C   0  0  0  0  0  0  0  0  0  0  0  0
   -4.9506   -2.0521    1.9514 H   0  0  0  0  0  0  0  0  0  0  0  0
   -4.5266   -2.7521    0.3674 H   0  0  0  0  0  0  0  0  0  0  0  0
   -2.8576   -2.0761    1.5184 C   0  0  0  0  0  0  0  0  0  0  0  0
   -1.9456   -2.7051    2.0404 O   0  0  0  0  0  0  0  0  0  0  0  0
   -2.6926   -0.8481    1.0174 N   0  0  0  0  0  0  0  0  0  0  0  0
   -3.4926   -0.3971    0.5954 H   0  0  0  0  0  0  0  0  0  0  0  0
   -1.4216   -0.1071    1.0434 C   0  0  1  0  0  0  0  0  0  0  0  0
   -0.7579   -0.5878    1.7640 H   0  0  0  0  0  0  0  0  0  0  0  0
   -0.7791   -0.1912   -0.3557 C   0  0  0  0  0  0  0  0  0  0  0  0
    0.1922   -0.6815   -0.2642 H   0  0  0  0  0  0  0  0  0  0  0  0
   -1.4098   -0.8059   -1.0016 H   0  0  0  0  0  0  0  0  0  0  0  0
   -0.5674    1.1798   -1.0145 C   0  0  0  0  0  0  0  0  0  0  0  0
   -1.4622    1.7911   -0.8899 H   0  0  0  0  0  0  0  0  0  0  0  0
    0.2792    1.6798   -0.5428 H   0  0  0  0  0  0  0  0  0  0  0  0
   -0.2850    1.0016   -2.5124 C   0  0  0  0  0  0  0  0  0  0  0  0
    0.5964    0.3666   -2.6280 H   0  0  0  0  0  0  0  0  0  0  0  0
   -1.1418    0.5021   -2.9708 H   0  0  0  0  0  0  0  0  0  0  0  0
   -0.0508    2.2965   -3.1841 N   0  3  0  0  0  0  0  0  0  0  0  0
   -0.1460    3.1225   -2.6185 H   0  0  0  0  0  0  0  0  0  0  0  0
    0.2713    2.4708   -4.4549 C   0  0  0  0  0  0  0  0  0  0  0  0
    0.4197    1.4693   -5.2760 N   0  0  0  0  0  0  0  0  0  0  0  0
    0.2860    0.5357   -4.9296 H   0  0  0  0  0  0  0  0  0  0  0  0
    0.6640    1.6190   -6.2377 H   0  0  0  0  0  0  0  0  0  0  0  0
    0.4516    3.6698   -4.9314 N   0  0  0  0  0  0  0  0  0  0  0  0
    0.3485    4.4738   -4.3365 H   0  0  0  0  0  0  0  0  0  0  0  0
    0.6959    3.7976   -5.8961 H   0  0  0  0  0  0  0  0  0  0  0  0
   -1.6547    1.3413    1.4779 C   0  0  0  0  0  0  0  0  0  0  0  0
   -2.5654    1.9858    0.9716 O   0  0  0  0  0  0  0  0  0  0  0  0
   -0.8107    1.8504    2.3808 N   0  0  0  0  0  0  0  0  0  0  0  0
   -0.1136    1.2381    2.7719 H   0  0  0  0  0  0  0  0  0  0  0  0
   -0.8954    3.2155    2.9026 C   0  0  0  0  0  0  0  0  0  0  0  0
   -1.8299    3.3430    3.4532 H   0  0  0  0  0  0  0  0  0  0  0  0
   -0.0581    3.4194    3.5712 H   0  0  0  0  0  0  0  0  0  0  0  0
   -0.8804    3.9320    2.0784 H   0  0  0  0  0  0  0  0  0  0  0  0
  5  6  2  0  0  0  0
  5  7  1  0  0  0  0
  2  3  1  0  0  0  0
  2  4  1  0  0  0  0
  2  5  1  0  0  0  0
  1  2  1  0  0  0  0
 29 30  2  0  0  0  0
 29 31  1  0  0  0  0
 26 27  1  0  0  0  0
 26 28  1  0  0  0  0
 23 24  1  0  0  0  0
 23 25  1  0  0  0  0
 22 23  1  0  0  0  0
 22 26  1  0  0  0  0
 20 21  1  0  0  0  0
 20 22  2  0  0  0  0
 17 18  1  0  0  0  0
 17 19  1  0  0  0  0
 17 20  1  0  0  0  0
 14 15  1  0  0  0  0
 14 16  1  0  0  0  0
 14 17  1  0  0  0  0
 11 12  1  0  0  0  0
 11 13  1  0  0  0  0
 11 14  1  0  0  0  0
  9 10  1  0  0  0  0
  9 11  1  0  0  0  0
  9 29  1  0  0  0  0
  7  8  1  0  0  0  0
  7  9  1  0  0  0  0
 33 34  1  0  0  0  0
 33 35  1  0  0  0  0
 33 36  1  0  0  0  0
 31 32  1  0  0  0  0
 31 33  1  0  0  0  0
M  CHG  1  20   1
M  END
$$$$
default_name
  -OEChem-02102213163D

 36 35  0     1  0  0  0  0  0999 V2000
   -4.2256   -3.6731    1.8584 H   0  0  0  0  0  0  0  0  0  0  0  0
   -4.2396   -2.6781    1.4144 C   0  0  0  0  0  0  0  0  0  0  0  0
   -4.9506   -2.0521    1.9514 H   0  0  0  0  0  0  0  0  0  0  0  0
   -4.5266   -2.7521    0.3674 H   0  0  0  0  0  0  0  0  0  0  0  0
   -2.8576   -2.0761    1.5184 C   0  0  0  0  0  0  0  0  0  0  0  0
   -1.9456   -2.7051    2.0404 O   0  0  0  0  0  0  0  0  0  0  0  0
   -2.6926   -0.8481    1.0174 N   0  0  0  0  0  0  0  0  0  0  0  0
   -3.4926   -0.3971    0.5954 H   0  0  0  0  0  0  0  0  0  0  0  0
   -1.4216   -0.1071    1.0434 C   0  0  1  0  0  0  0  0  0  0  0  0
   -0.7579   -0.5878    1.7640 H   0  0  0  0  0  0  0  0  0  0  0  0
   -0.7791   -0.1912   -0.3557 C   0  0  0  0  0  0  0  0  0  0  0  0
    0.1922   -0.6815   -0.2642 H   0  0  0  0  0  0  0  0  0  0  0  0
   -1.4098   -0.8059   -1.0016 H   0  0  0  0  0  0  0  0  0  0  0  0
   -0.5674    1.1798   -1.0145 C   0  0  0  0  0  0  0  0  0  0  0  0
   -1.3333    1.8764   -0.6709 H   0  0  0  0  0  0  0  0  0  0  0  0
    0.4165    1.5629   -0.7419 H   0  0  0  0  0  0  0  0  0  0  0  0
   -0.6580    1.0456   -2.5407 C   0  0  0  0  0  0  0  0  0  0  0  0
    0.0943    0.3265   -2.8728 H   0  0  0  0  0  0  0  0  0  0  0  0
   -1.6487    0.6635   -2.7978 H   0  0  0  0  0  0  0  0  0  0  0  0
   -0.4364    2.3393   -3.2189 N   0  3  0  0  0  0  0  0  0  0  0  0
   -0.3036    3.1422   -2.6281 H   0  0  0  0  0  0  0  0  0  0  0  0
   -0.3960    2.5399   -4.5255 C   0  0  0  0  0  0  0  0  0  0  0  0
   -0.5560    1.5695   -5.3811 N   0  0  0  0  0  0  0  0  0  0  0  0
   -0.7134    0.6398   -5.0342 H   0  0  0  0  0  0  0  0  0  0  0  0
   -0.5228    1.7390   -6.3695 H   0  0  0  0  0  0  0  0  0  0  0  0
   -0.1927    3.7346   -5.0037 N   0  0  0  0  0  0  0  0  0  0  0  0
   -0.0634    4.5150   -4.3830 H   0  0  0  0  0  0  0  0  0  0  0  0
   -0.1627    3.8824   -5.9955 H   0  0  0  0  0  0  0  0  0  0  0  0
   -1.6547    1.3413    1.4779 C   0  0  0  0  0  0  0  0  0  0  0  0
   -2.5654    1.9858    0.9716 O   0  0  0  0  0  0  0  0  0  0  0  0
   -0.8107    1.8504    2.3808 N   0  0  0  0  0  0  0  0  0  0  0  0
   -0.1136    1.2381    2.7719 H   0  0  0  0  0  0  0  0  0  0  0  0
   -0.8954    3.2155    2.9026 C   0  0  0  0  0  0  0  0  0  0  0  0
   -1.8299    3.3430    3.4532 H   0  0  0  0  0  0  0  0  0  0  0  0
   -0.0581    3.4194    3.5712 H   0  0  0  0  0  0  0  0  0  0  0  0
   -0.8804    3.9320    2.0784 H   0  0  0  0  0  0  0  0  0  0  0  0
  5  6  2  0  0  0  0
  5  7  1  0  0  0  0
  2  3  1  0  0  0  0
  2  4  1  0  0  0  0
  2  5  1  0  0  0  0
  1  2  1  0  0  0  0
 29 30  2  0  0  0  0
 29 31  1  0  0  0  0
 26 27  1  0  0  0  0
 26 28  1  0  0  0  0
 23 24  1  0  0  0  0
 23 25  1  0  0  0  0
 22 23  1  0  0  0  0
 22 26  1  0  0  0  0
 20 21  1  0  0  0  0
 20 22  2  0  0  0  0
 17 18  1  0  0  0  0
 17 19  1  0  0  0  0
 17 20  1  0  0  0  0
 14 15  1  0  0  0  0
 14 16  1  0  0  0  0
 14 17  1  0  0  0  0
 11 12  1  0  0  0  0
 11 13  1  0  0  0  0
 11 14  1  0  0  0  0
  9 10  1  0  0  0  0
  9 11  1  0  0  0  0
  9 29  1  0  0  0  0
  7  8  1  0  0  0  0
  7  9  1  0  0  0  0
 33 34  1  0  0  0  0
 33 35  1  0  0  0  0
 33 36  1  0  0  0  0
 31 32  1  0  0  0  0
 31 33  1  0  0  0  0
M  CHG  1  20   1
M  END
$$$$
default_name
  -OEChem-02102213163D

 36 35  0     1  0  0  0  0  0999 V2000
   -4.2256   -3.6731    1.8584 H   0  0  0  0  0  0  0  0  0  0  0  0
   -4.2396   -2.6781    1.4144 C   0  0  0  0  0  0  0  0  0  0  0  0
   -4.9506   -2.0521    1.9514 H   0  0  0  0  0  0  0  0  0  0  0  0
   -4.5266   -2.7521    0.3674 H   0  0  0  0  0  0  0  0  0  0  0  0
   -2.8576   -2.0761    1.5184 C   0  0  0  0  0  0  0  0  0  0  0  0
   -1.9456   -2.7051    2.0404 O   0  0  0  0  0  0  0  0  0  0  0  0
   -2.6926   -0.8481    1.0174 N   0  0  0  0  0  0  0  0  0  0  0  0
   -3.4926   -0.3971    0.5954 H   0  0  0  0  0  0  0  0  0  0  0  0
   -1.4216   -0.1071    1.0434 C   0  0  1  0  0  0  0  0  0  0  0  0
   -0.7579   -0.5878    1.7640 H   0  0  0  0  0  0  0  0  0  0  0  0
   -0.7791   -0.1912   -0.3557 C   0  0  0  0  0  0  0  0  0  0  0  0
    0.1922   -0.6815   -0.2642 H   0  0  0  0  0  0  0  0  0  0  0  0
   -1.4098   -0.8059   -1.0016 H   0  0  0  0  0  0  0  0  0  0  0  0
   -0.5674    1.1798   -1.0145 C   0  0  0  0  0  0  0  0  0  0  0  0
   -1.1488    1.9367   -0.4862 H   0  0  0  0  0  0  0  0  0  0  0  0
    0.4902    1.4418   -0.9701 H   0  0  0  0  0  0  0  0  0  0  0  0
   -1.0200    1.1306   -2.4801 C   0  0  0  0  0  0  0  0  0  0  0  0
   -0.4518    0.3523   -2.9946 H   0  0  0  0  0  0  0  0  0  0  0  0
   -2.0805    0.8696   -2.5079 H   0  0  0  0  0  0  0  0  0  0  0  0
   -0.8120    2.4247   -3.1619 N   0  3  0  0  0  0  0  0  0  0  0  0
   -0.4559    3.1791   -2.6003 H   0  0  0  0  0  0  0  0  0  0  0  0
   -1.0491    2.6833   -4.4370 C   0  0  0  0  0  0  0  0  0  0  0  0
   -1.5116    1.7784   -5.2535 N   0  0  0  0  0  0  0  0  0  0  0  0
   -1.6914    0.8551   -4.9007 H   0  0  0  0  0  0  0  0  0  0  0  0
   -1.6864    1.9913   -6.2184 H   0  0  0  0  0  0  0  0  0  0  0  0
   -0.8245    3.8713   -4.9222 N   0  0  0  0  0  0  0  0  0  0  0  0
   -0.4675    4.6023   -4.3313 H   0  0  0  0  0  0  0  0  0  0  0  0
   -1.0057    4.0632   -5.8902 H   0  0  0  0  0  0  0  0  0  0  0  0
   -1.6547    1.3413    1.4779 C   0  0  0  0  0  0  0  0  0  0  0  0
   -2.5654    1.9858    0.9716 O   0  0  0  0  0  0  0  0  0  0  0  0
   -0.8107    1.8504    2.3808 N   0  0  0  0  0  0  0  0  0  0  0  0
   -0.1136    1.2381    2.7719 H   0  0  0  0  0  0  0  0  0  0  0  0
   -0.8954    3.2155    2.9026 C   0  0  0  0  0  0  0  0  0  0  0  0
   -1.8299    3.3430    3.4532 H   0  0  0  0  0  0  0  0  0  0  0  0
   -0.0581    3.4194    3.5712 H   0  0  0  0  0  0  0  0  0  0  0  0
   -0.8804    3.9320    2.0784 H   0  0  0  0  0  0  0  0  0  0  0  0
  5  6  2  0  0  0  0
  5  7  1  0  0  0  0
  2  3  1  0  0  0  0
  2  4  1  0  0  0  0
  2  5  1  0  0  0  0
  1  2  1  0  0  0  0
 29 30  2  0  0  0  0
 29 31  1  0  0  0  0
 26 27  1  0  0  0  0
 26 28  1  0  0  0  0
 23 24  1  0  0  0  0
 23 25  1  0  0  0  0
 22 23  1  0  0  0  0
 22 26  1  0  0  0  0
 20 21  1  0  0  0  0
 20 22  2  0  0  0  0
 17 18  1  0  0  0  0
 17 19  1  0  0  0  0
 17 20  1  0  0  0  0
 14 15  1  0  0  0  0
 14 16  1  0  0  0  0
 14 17  1  0  0  0  0
 11 12  1  0  0  0  0
 11 13  1  0  0  0  0
 11 14  1  0  0  0  0
  9 10  1  0  0  0  0
  9 11  1  0  0  0  0
  9 29  1  0  0  0  0
  7  8  1  0  0  0  0
  7  9  1  0  0  0  0
 33 34  1  0  0  0  0
 33 35  1  0  0  0  0
 33 36  1  0  0  0  0
 31 32  1  0  0  0  0
 31 33  1  0  0  0  0
M  CHG  1  20   1
M  END
$$$$
default_name
  -OEChem-02102213163D

 36 35  0     1  0  0  0  0  0999 V2000
   -4.2256   -3.6731    1.8584 H   0  0  0  0  0  0  0  0  0  0  0  0
   -4.2396   -2.6781    1.4144 C   0  0  0  0  0  0  0  0  0  0  0  0
   -4.9506   -2.0521    1.9514 H   0  0  0  0  0  0  0  0  0  0  0  0
   -4.5266   -2.7521    0.3674 H   0  0  0  0  0  0  0  0  0  0  0  0
   -2.8576   -2.0761    1.5184 C   0  0  0  0  0  0  0  0  0  0  0  0
   -1.9456   -2.7051    2.0404 O   0  0  0  0  0  0  0  0  0  0  0  0
   -2.6926   -0.8481    1.0174 N   0  0  0  0  0  0  0  0  0  0  0  0
   -3.4926   -0.3971    0.5954 H   0  0  0  0  0  0  0  0  0  0  0  0
   -1.4216   -0.1071    1.0434 C   0  0  1  0  0  0  0  0  0  0  0  0
   -0.7579   -0.5878    1.7640 H   0  0  0  0  0  0  0  0  0  0  0  0
   -0.7791   -0.1912   -0.3557 C   0  0  0  0  0  0  0  0  0  0  0  0
    0.1922   -0.6815   -0.2642 H   0  0  0  0  0  0  0  0  0  0  0  0
   -1.4098   -0.8059   -1.0016 H   0  0  0  0  0  0  0  0  0  0  0  0
   -0.5674    1.1798   -1.0145 C   0  0  0  0  0  0  0  0  0  0  0  0
   -0.9211    1.9678   -0.3482 H   0  0  0  0  0  0  0  0  0  0  0  0
    0.4952    1.3249   -1.2119 H   0  0  0  0  0  0  0  0  0  0  0  0
   -1.3462    1.2507   -2.3350 C   0  0  0  0  0  0  0  0  0  0  0  0
   -1.0045    0.4422   -2.9852 H   0  0  0  0  0  0  0  0  0  0  0  0
   -2.4078    1.1062   -2.1207 H   0  0  0  0  0  0  0  0  0  0  0  0
   -1.1522    2.5469   -3.0170 N   0  3  0  0  0  0  0  0  0  0  0  0
   -0.5924    3.2306   -2.5369 H   0  0  0  0  0  0  0  0  0  0  0  0
   -1.6437    2.8912   -4.1956 C   0  0  0  0  0  0  0  0  0  0  0  0
   -2.3819    2.0817   -4.9020 N   0  0  0  0  0  0  0  0  0  0  0  0
   -2.5814    1.1668   -4.5380 H   0  0  0  0  0  0  0  0  0  0  0  0
   -2.7473    2.3589   -5.7945 H   0  0  0  0  0  0  0  0  0  0  0  0
   -1.4008    4.0706   -4.6927 N   0  0  0  0  0  0  0  0  0  0  0  0
   -0.8361    4.7296   -4.1849 H   0  0  0  0  0  0  0  0  0  0  0  0
   -1.7755    4.3277   -5.5872 H   0  0  0  0  0  0  0  0  0  0  0  0
   -1.6547    1.3413    1.4779 C   0  0  0  0  0  0  0  0  0  0  0  0
   -2.5654    1.9858    0.9716 O   0  0  0  0  0  0  0  0  0  0  0  0
   -0.8107    1.8504    2.3808 N   0  0  0  0  0  0  0  0  0  0  0  0
   -0.1136    1.2381    2.7719 H   0  0  0  0  0  0  0  0  0  0  0  0
   -0.8954    3.2155    2.9026 C   0  0  0  0  0  0  0  0  0  0  0  0
   -1.8299    3.3430    3.4532 H   0  0  0  0  0  0  0  0  0  0  0  0
   -0.0581    3.4194    3.5712 H   0  0  0  0  0  0  0  0  0  0  0  0
   -0.8804    3.9320    2.0784 H   0  0  0  0  0  0  0  0  0  0  0  0
  5  6  2  0  0  0  0
  5  7  1  0  0  0  0
  2  3  1  0  0  0  0
  2  4  1  0  0  0  0
  2  5  1  0  0  0  0
  1  2  1  0  0  0  0
 29 30  2  0  0  0  0
 29 31  1  0  0  0  0
 26 27  1  0  0  0  0
 26 28  1  0  0  0  0
 23 24  1  0  0  0  0
 23 25  1  0  0  0  0
 22 23  1  0  0  0  0
 22 26  1  0  0  0  0
 20 21  1  0  0  0  0
 20 22  2  0  0  0  0
 17 18  1  0  0  0  0
 17 19  1  0  0  0  0
 17 20  1  0  0  0  0
 14 15  1  0  0  0  0
 14 16  1  0  0  0  0
 14 17  1  0  0  0  0
 11 12  1  0  0  0  0
 11 13  1  0  0  0  0
 11 14  1  0  0  0  0
  9 10  1  0  0  0  0
  9 11  1  0  0  0  0
  9 29  1  0  0  0  0
  7  8  1  0  0  0  0
  7  9  1  0  0  0  0
 33 34  1  0  0  0  0
 33 35  1  0  0  0  0
 33 36  1  0  0  0  0
 31 32  1  0  0  0  0
 31 33  1  0  0  0  0
M  CHG  1  20   1
M  END
$$$$
default_name
  -OEChem-02102213163D

 36 35  0     1  0  0  0  0  0999 V2000
   -4.2256   -3.6731    1.8584 H   0  0  0  0  0  0  0  0  0  0  0  0
   -4.2396   -2.6781    1.4144 C   0  0  0  0  0  0  0  0  0  0  0  0
   -4.9506   -2.0521    1.9514 H   0  0  0  0  0  0  0  0  0  0  0  0
   -4.5266   -2.7521    0.3674 H   0  0  0  0  0  0  0  0  0  0  0  0
   -2.8576   -2.0761    1.5184 C   0  0  0  0  0  0  0  0  0  0  0  0
   -1.9456   -2.7051    2.0404 O   0  0  0  0  0  0  0  0  0  0  0  0
   -2.6926   -0.8481    1.0174 N   0  0  0  0  0  0  0  0  0  0  0  0
   -3.4926   -0.3971    0.5954 H   0  0  0  0  0  0  0  0  0  0  0  0
   -1.4216   -0.1071    1.0434 C   0  0  1  0  0  0  0  0  0  0  0  0
   -0.7579   -0.5878    1.7640 H   0  0  0  0  0  0  0  0  0  0  0  0
   -0.7791   -0.1912   -0.3557 C   0  0  0  0  0  0  0  0  0  0  0  0
    0.1922   -0.6815   -0.2642 H   0  0  0  0  0  0  0  0  0  0  0  0
   -1.4098   -0.8059   -1.0016 H   0  0  0  0  0  0  0  0  0  0  0  0
   -0.5674    1.1798   -1.0145 C   0  0  0  0  0  0  0  0  0  0  0  0
   -0.6659    1.9677   -0.2665 H   0  0  0  0  0  0  0  0  0  0  0  0
    0.4312    1.2199   -1.4508 H   0  0  0  0  0  0  0  0  0  0  0  0
   -1.6145    1.3978   -2.1152 C   0  0  0  0  0  0  0  0  0  0  0  0
   -1.5263    0.5900   -2.8453 H   0  0  0  0  0  0  0  0  0  0  0  0
   -2.6081    1.3572   -1.6627 H   0  0  0  0  0  0  0  0  0  0  0  0
   -1.4338    2.6975   -2.7941 N   0  3  0  0  0  0  0  0  0  0  0  0
   -0.7040    3.2933   -2.4423 H   0  0  0  0  0  0  0  0  0  0  0  0
   -2.1391    3.1494   -3.8175 C   0  0  0  0  0  0  0  0  0  0  0  0
   -3.1077    2.4588   -4.3506 N   0  0  0  0  0  0  0  0  0  0  0  0
   -3.3226    1.5538   -3.9709 H   0  0  0  0  0  0  0  0  0  0  0  0
   -3.6334    2.8166   -5.1268 H   0  0  0  0  0  0  0  0  0  0  0  0
   -1.8823    4.3189   -4.3308 N   0  0  0  0  0  0  0  0  0  0  0  0
   -1.1442    4.8883   -3.9538 H   0  0  0  0  0  0  0  0  0  0  0  0
   -2.4197    4.6579   -5.1072 H   0  0  0  0  0  0  0  0  0  0  0  0
   -1.6547    1.3413    1.4779 C   0  0  0  0  0  0  0  0  0  0  0  0
   -2.5654    1.9858    0.9716 O   0  0  0  0  0  0  0  0  0  0  0  0
   -0.8107    1.8504    2.3808 N   0  0  0  0  0  0  0  0  0  0  0  0
   -0.1136    1.2381    2.7719 H   0  0  0  0  0  0  0  0  0  0  0  0
   -0.8954    3.2155    2.9026 C   0  0  0  0  0  0  0  0  0  0  0  0
   -1.8299    3.3430    3.4532 H   0  0  0  0  0  0  0  0  0  0  0  0
   -0.0581    3.4194    3.5712 H   0  0  0  0  0  0  0  0  0  0  0  0
   -0.8804    3.9320    2.0784 H   0  0  0  0  0  0  0  0  0  0  0  0
  5  6  2  0  0  0  0
  5  7  1  0  0  0  0
  2  3  1  0  0  0  0
  2  4  1  0  0  0  0
  2  5  1  0  0  0  0
  1  2  1  0  0  0  0
 29 30  2  0  0  0  0
 29 31  1  0  0  0  0
 26 27  1  0  0  0  0
 26 28  1  0  0  0  0
 23 24  1  0  0  0  0
 23 25  1  0  0  0  0
 22 23  1  0  0  0  0
 22 26  1  0  0  0  0
 20 21  1  0  0  0  0
 20 22  2  0  0  0  0
 17 18  1  0  0  0  0
 17 19  1  0  0  0  0
 17 20  1  0  0  0  0
 14 15  1  0  0  0  0
 14 16  1  0  0  0  0
 14 17  1  0  0  0  0
 11 12  1  0  0  0  0
 11 13  1  0  0  0  0
 11 14  1  0  0  0  0
  9 10  1  0  0  0  0
  9 11  1  0  0  0  0
  9 29  1  0  0  0  0
  7  8  1  0  0  0  0
  7  9  1  0  0  0  0
 33 34  1  0  0  0  0
 33 35  1  0  0  0  0
 33 36  1  0  0  0  0
 31 32  1  0  0  0  0
 31 33  1  0  0  0  0
M  CHG  1  20   1
M  END
$$$$
default_name
  -OEChem-02102213163D

 36 35  0     1  0  0  0  0  0999 V2000
   -4.2256   -3.6731    1.8584 H   0  0  0  0  0  0  0  0  0  0  0  0
   -4.2396   -2.6781    1.4144 C   0  0  0  0  0  0  0  0  0  0  0  0
   -4.9506   -2.0521    1.9514 H   0  0  0  0  0  0  0  0  0  0  0  0
   -4.5266   -2.7521    0.3674 H   0  0  0  0  0  0  0  0  0  0  0  0
   -2.8576   -2.0761    1.5184 C   0  0  0  0  0  0  0  0  0  0  0  0
   -1.9456   -2.7051    2.0404 O   0  0  0  0  0  0  0  0  0  0  0  0
   -2.6926   -0.8481    1.0174 N   0  0  0  0  0  0  0  0  0  0  0  0
   -3.4926   -0.3971    0.5954 H   0  0  0  0  0  0  0  0  0  0  0  0
   -1.4216   -0.1071    1.0434 C   0  0  1  0  0  0  0  0  0  0  0  0
   -0.7579   -0.5878    1.7640 H   0  0  0  0  0  0  0  0  0  0  0  0
   -0.7791   -0.1912   -0.3557 C   0  0  0  0  0  0  0  0  0  0  0  0
    0.1922   -0.6815   -0.2642 H   0  0  0  0  0  0  0  0  0  0  0  0
   -1.4098   -0.8059   -1.0016 H   0  0  0  0  0  0  0  0  0  0  0  0
   -0.5674    1.1798   -1.0145 C   0  0  0  0  0  0  0  0  0  0  0  0
   -0.4005    1.9363   -0.2465 H   0  0  0  0  0  0  0  0  0  0  0  0
    0.3025    1.1342   -1.6705 H   0  0  0  0  0  0  0  0  0  0  0  0
   -1.8064    1.5618   -1.8356 C   0  0  0  0  0  0  0  0  0  0  0  0
   -1.9815    0.7858   -2.5842 H   0  0  0  0  0  0  0  0  0  0  0  0
   -2.6679    1.6056   -1.1651 H   0  0  0  0  0  0  0  0  0  0  0  0
   -1.6376    2.8663   -2.5083 N   0  3  0  0  0  0  0  0  0  0  0  0
   -0.7829    3.3628   -2.3230 H   0  0  0  0  0  0  0  0  0  0  0  0
   -2.5016    3.4403   -3.3287 C   0  0  0  0  0  0  0  0  0  0  0  0
   -3.6395    2.8840   -3.6369 N   0  0  0  0  0  0  0  0  0  0  0  0
   -3.8645    1.9897   -3.2381 H   0  0  0  0  0  0  0  0  0  0  0  0
   -4.2842    3.3333   -4.2609 H   0  0  0  0  0  0  0  0  0  0  0  0
   -2.2361    4.5993   -3.8611 N   0  0  0  0  0  0  0  0  0  0  0  0
   -1.3708    5.0675   -3.6537 H   0  0  0  0  0  0  0  0  0  0  0  0
   -2.8944    5.0312   -4.4830 H   0  0  0  0  0  0  0  0  0  0  0  0
   -1.6547    1.3413    1.4779 C   0  0  0  0  0  0  0  0  0  0  0  0
   -2.5654    1.9858    0.9716 O   0  0  0  0  0  0  0  0  0  0  0  0
   -0.8107    1.8504    2.3808 N   0  0  0  0  0  0  0  0  0  0  0  0
   -0.1136    1.2381    2.7719 H   0  0  0  0  0  0  0  0  0  0  0  0
   -0.8954    3.2155    2.9026 C   0  0  0  0  0  0  0  0  0  0  0  0
   -1.8299    3.3430    3.4532 H   0  0  0  0  0  0  0  0  0  0  0  0
   -0.0581    3.4194    3.5712 H   0  0  0  0  0  0  0  0  0  0  0  0
   -0.8804    3.9320    2.0784 H   0  0  0  0  0  0  0  0  0  0  0  0
  5  6  2  0  0  0  0
  5  7  1  0  0  0  0
  2  3  1  0  0  0  0
  2  4  1  0  0  0  0
  2  5  1  0  0  0  0
  1  2  1  0  0  0  0
 29 30  2  0  0  0  0
 29 31  1  0  0  0  0
 26 27  1  0  0  0  0
 26 28  1  0  0  0  0
 23 24  1  0  0  0  0
 23 25  1  0  0  0  0
 22 23  1  0  0  0  0
 22 26  1  0  0  0  0
 20 21  1  0  0  0  0
 20 22  2  0  0  0  0
 17 18  1  0  0  0  0
 17 19  1  0  0  0  0
 17 20  1  0  0  0  0
 14 15  1  0  0  0  0
 14 16  1  0  0  0  0
 14 17  1  0  0  0  0
 11 12  1  0  0  0  0
 11 13  1  0  0  0  0
 11 14  1  0  0  0  0
  9 10  1  0  0  0  0
  9 11  1  0  0  0  0
  9 29  1  0  0  0  0
  7  8  1  0  0  0  0
  7  9  1  0  0  0  0
 33 34  1  0  0  0  0
 33 35  1  0  0  0  0
 33 36  1  0  0  0  0
 31 32  1  0  0  0  0
 31 33  1  0  0  0  0
M  CHG  1  20   1
M  END
$$$$
default_name
  -OEChem-02102213163D

 36 35  0     1  0  0  0  0  0999 V2000
   -4.2256   -3.6731    1.8584 H   0  0  0  0  0  0  0  0  0  0  0  0
   -4.2396   -2.6781    1.4144 C   0  0  0  0  0  0  0  0  0  0  0  0
   -4.9506   -2.0521    1.9514 H   0  0  0  0  0  0  0  0  0  0  0  0
   -4.5266   -2.7521    0.3674 H   0  0  0  0  0  0  0  0  0  0  0  0
   -2.8576   -2.0761    1.5184 C   0  0  0  0  0  0  0  0  0  0  0  0
   -1.9456   -2.7051    2.0404 O   0  0  0  0  0  0  0  0  0  0  0  0
   -2.6926   -0.8481    1.0174 N   0  0  0  0  0  0  0  0  0  0  0  0
   -3.4926   -0.3971    0.5954 H   0  0  0  0  0  0  0  0  0  0  0  0
   -1.4216   -0.1071    1.0434 C   0  0  1  0  0  0  0  0  0  0  0  0
   -0.7579   -0.5878    1.7640 H   0  0  0  0  0  0  0  0  0  0  0  0
   -0.7791   -0.1912   -0.3557 C   0  0  0  0  0  0  0  0  0  0  0  0
    0.1922   -0.6815   -0.2642 H   0  0  0  0  0  0  0  0  0  0  0  0
   -1.4098   -0.8059   -1.0016 H   0  0  0  0  0  0  0  0  0  0  0  0
   -0.5674    1.1798   -1.0145 C   0  0  0  0  0  0  0  0  0  0  0  0
   -0.1430    1.8758   -0.2896 H   0  0  0  0  0  0  0  0  0  0  0  0
    0.1179    1.0736   -1.8560 H   0  0  0  0  0  0  0  0  0  0  0  0
   -1.9091    1.7316   -1.5153 C   0  0  0  0  0  0  0  0  0  0  0  0
   -2.3392    1.0161   -2.2199 H   0  0  0  0  0  0  0  0  0  0  0  0
   -2.5831    1.8344   -0.6617 H   0  0  0  0  0  0  0  0  0  0  0  0
   -1.7496    3.0418   -2.1792 N   0  3  0  0  0  0  0  0  0  0  0  0
   -0.8238    3.4345   -2.1869 H   0  0  0  0  0  0  0  0  0  0  0  0
   -2.7065    3.7441   -2.7624 C   0  0  0  0  0  0  0  0  0  0  0  0
   -3.9411    3.3282   -2.8094 N   0  0  0  0  0  0  0  0  0  0  0  0
   -4.1703    2.4447   -2.3895 H   0  0  0  0  0  0  0  0  0  0  0  0
   -4.6553    3.8737   -3.2556 H   0  0  0  0  0  0  0  0  0  0  0  0
   -2.4383    4.8927   -3.3156 N   0  0  0  0  0  0  0  0  0  0  0  0
   -1.5005    5.2551   -3.3050 H   0  0  0  0  0  0  0  0  0  0  0  0
   -3.1672    5.4222   -3.7570 H   0  0  0  0  0  0  0  0  0  0  0  0
   -1.6547    1.3413    1.4779 C   0  0  0  0  0  0  0  0  0  0  0  0
   -2.5654    1.9858    0.9716 O   0  0  0  0  0  0  0  0  0  0  0  0
   -0.8107    1.8504    2.3808 N   0  0  0  0  0  0  0  0  0  0  0  0
   -0.1136    1.2381    2.7719 H   0  0  0  0  0  0  0  0  0  0  0  0
   -0.8954    3.2155    2.9026 C   0  0  0  0  0  0  0  0  0  0  0  0
   -1.8299    3.3430    3.4532 H   0  0  0  0  0  0  0  0  0  0  0  0
   -0.0581    3.4194    3.5712 H   0  0  0  0  0  0  0  0  0  0  0  0
   -0.8804    3.9320    2.0784 H   0  0  0  0  0  0  0  0  0  0  0  0
  5  6  2  0  0  0  0
  5  7  1  0  0  0  0
  2  3  1  0  0  0  0
  2  4  1  0  0  0  0
  2  5  1  0  0  0  0
  1  2  1  0  0  0  0
 29 30  2  0  0  0  0
 29 31  1  0  0  0  0
 26 27  1  0  0  0  0
 26 28  1  0  0  0  0
 23 24  1  0  0  0  0
 23 25  1  0  0  0  0
 22 23  1  0  0  0  0
 22 26  1  0  0  0  0
 20 21  1  0  0  0  0
 20 22  2  0  0  0  0
 17 18  1  0  0  0  0
 17 19  1  0  0  0  0
 17 20  1  0  0  0  0
 14 15  1  0  0  0  0
 14 16  1  0  0  0  0
 14 17  1  0  0  0  0
 11 12  1  0  0  0  0
 11 13  1  0  0  0  0
 11 14  1  0  0  0  0
  9 10  1  0  0  0  0
  9 11  1  0  0  0  0
  9 29  1  0  0  0  0
  7  8  1  0  0  0  0
  7  9  1  0  0  0  0
 33 34  1  0  0  0  0
 33 35  1  0  0  0  0
 33 36  1  0  0  0  0
 31 32  1  0  0  0  0
 31 33  1  0  0  0  0
M  CHG  1  20   1
M  END
$$$$
default_name
  -OEChem-02102213163D

 36 35  0     1  0  0  0  0  0999 V2000
   -4.2256   -3.6731    1.8584 H   0  0  0  0  0  0  0  0  0  0  0  0
   -4.2396   -2.6781    1.4144 C   0  0  0  0  0  0  0  0  0  0  0  0
   -4.9506   -2.0521    1.9514 H   0  0  0  0  0  0  0  0  0  0  0  0
   -4.5266   -2.7521    0.3674 H   0  0  0  0  0  0  0  0  0  0  0  0
   -2.8576   -2.0761    1.5184 C   0  0  0  0  0  0  0  0  0  0  0  0
   -1.9456   -2.7051    2.0404 O   0  0  0  0  0  0  0  0  0  0  0  0
   -2.6926   -0.8481    1.0174 N   0  0  0  0  0  0  0  0  0  0  0  0
   -3.4926   -0.3971    0.5954 H   0  0  0  0  0  0  0  0  0  0  0  0
   -1.4216   -0.1071    1.0434 C   0  0  1  0  0  0  0  0  0  0  0  0
   -0.7579   -0.5878    1.7640 H   0  0  0  0  0  0  0  0  0  0  0  0
   -0.7791   -0.1912   -0.3557 C   0  0  0  0  0  0  0  0  0  0  0  0
    0.1922   -0.6815   -0.2642 H   0  0  0  0  0  0  0  0  0  0  0  0
   -1.4098   -0.8059   -1.0016 H   0  0  0  0  0  0  0  0  0  0  0  0
   -0.5674    1.1798   -1.0145 C   0  0  0  0  0  0  0  0  0  0  0  0
    0.0890    1.7903   -0.3929 H   0  0  0  0  0  0  0  0  0  0  0  0
   -0.1100    1.0421   -1.9947 H   0  0  0  0  0  0  0  0  0  0  0  0
   -1.9153    1.8955   -1.1762 C   0  0  0  0  0  0  0  0  0  0  0  0
   -2.5749    1.2653   -1.7772 H   0  0  0  0  0  0  0  0  0  0  0  0
   -2.3595    2.0281   -0.1869 H   0  0  0  0  0  0  0  0  0  0  0  0
   -1.7623    3.2120   -1.8291 N   0  3  0  0  0  0  0  0  0  0  0  0
   -0.8240    3.5035   -2.0435 H   0  0  0  0  0  0  0  0  0  0  0  0
   -2.7399    4.0401   -2.1572 C   0  0  0  0  0  0  0  0  0  0  0  0
   -3.9918    3.7613   -1.9245 N   0  0  0  0  0  0  0  0  0  0  0  0
   -4.2190    2.8879   -1.4829 H   0  0  0  0  0  0  0  0  0  0  0  0
   -4.7216    4.4011   -2.1795 H   0  0  0  0  0  0  0  0  0  0  0  0
   -2.4750    5.1790   -2.7315 N   0  0  0  0  0  0  0  0  0  0  0  0
   -1.5243    5.4382   -2.9316 H   0  0  0  0  0  0  0  0  0  0  0  0
   -3.2196    5.8043   -2.9788 H   0  0  0  0  0  0  0  0  0  0  0  0
   -1.6547    1.3413    1.4779 C   0  0  0  0  0  0  0  0  0  0  0  0
   -2.5654    1.9858    0.9716 O   0  0  0  0  0  0  0  0  0  0  0  0
   -0.8107    1.8504    2.3808 N   0  0  0  0  0  0  0  0  0  0  0  0
   -0.1136    1.2381    2.7719 H   0  0  0  0  0  0  0  0  0  0  0  0
   -0.8954    3.2155    2.9026 C   0  0  0  0  0  0  0  0  0  0  0  0
   -1.8299    3.3430    3.4532 H   0  0  0  0  0  0  0  0  0  0  0  0
   -0.0581    3.4194    3.5712 H   0  0  0  0  0  0  0  0  0  0  0  0
   -0.8804    3.9320    2.0784 H   0  0  0  0  0  0  0  0  0  0  0  0
  5  6  2  0  0  0  0
  5  7  1  0  0  0  0
  2  3  1  0  0  0  0
  2  4  1  0  0  0  0
  2  5  1  0  0  0  0
  1  2  1  0  0  0  0
 29 30  2  0  0  0  0
 29 31  1  0  0  0  0
 26 27  1  0  0  0  0
 26 28  1  0  0  0  0
 23 24  1  0  0  0  0
 23 25  1  0  0  0  0
 22 23  1  0  0  0  0
 22 26  1  0  0  0  0
 20 21  1  0  0  0  0
 20 22  2  0  0  0  0
 17 18  1  0  0  0  0
 17 19  1  0  0  0  0
 17 20  1  0  0  0  0
 14 15  1  0  0  0  0
 14 16  1  0  0  0  0
 14 17  1  0  0  0  0
 11 12  1  0  0  0  0
 11 13  1  0  0  0  0
 11 14  1  0  0  0  0
  9 10  1  0  0  0  0
  9 11  1  0  0  0  0
  9 29  1  0  0  0  0
  7  8  1  0  0  0  0
  7  9  1  0  0  0  0
 33 34  1  0  0  0  0
 33 35  1  0  0  0  0
 33 36  1  0  0  0  0
 31 32  1  0  0  0  0
 31 33  1  0  0  0  0
M  CHG  1  20   1
M  END
$$$$
default_name
  -OEChem-02102213163D

 36 35  0     1  0  0  0  0  0999 V2000
   -4.2256   -3.6731    1.8584 H   0  0  0  0  0  0  0  0  0  0  0  0
   -4.2396   -2.6781    1.4144 C   0  0  0  0  0  0  0  0  0  0  0  0
   -4.9506   -2.0521    1.9514 H   0  0  0  0  0  0  0  0  0  0  0  0
   -4.5266   -2.7521    0.3674 H   0  0  0  0  0  0  0  0  0  0  0  0
   -2.8576   -2.0761    1.5184 C   0  0  0  0  0  0  0  0  0  0  0  0
   -1.9456   -2.7051    2.0404 O   0  0  0  0  0  0  0  0  0  0  0  0
   -2.6926   -0.8481    1.0174 N   0  0  0  0  0  0  0  0  0  0  0  0
   -3.4926   -0.3971    0.5954 H   0  0  0  0  0  0  0  0  0  0  0  0
   -1.4216   -0.1071    1.0434 C   0  0  1  0  0  0  0  0  0  0  0  0
   -0.7579   -0.5878    1.7640 H   0  0  0  0  0  0  0  0  0  0  0  0
   -0.7791   -0.1912   -0.3557 C   0  0  0  0  0  0  0  0  0  0  0  0
    0.1922   -0.6815   -0.2642 H   0  0  0  0  0  0  0  0  0  0  0  0
   -1.4098   -0.8059   -1.0016 H   0  0  0  0  0  0  0  0  0  0  0  0
   -0.5674    1.1798   -1.0145 C   0  0  0  0  0  0  0  0  0  0  0  0
    0.2798    1.6857   -0.5494 H   0  0  0  0  0  0  0  0  0  0  0  0
   -0.3656    1.0420   -2.0772 H   0  0  0  0  0  0  0  0  0  0  0  0
   -1.8248    2.0425   -0.8413 C   0  0  0  0  0  0  0  0  0  0  0  0
   -2.6726    1.5163   -1.2861 H   0  0  0  0  0  0  0  0  0  0  0  0
   -2.0123    2.1733    0.2270 H   0  0  0  0  0  0  0  0  0  0  0  0
   -1.6747    3.3653   -1.4820 N   0  3  0  0  0  0  0  0  0  0  0  0
   -0.7833    3.5650   -1.9025 H   0  0  0  0  0  0  0  0  0  0  0  0
   -2.5994    4.3081   -1.5543 C   0  0  0  0  0  0  0  0  0  0  0  0
   -3.7883    4.1536   -1.0427 N   0  0  0  0  0  0  0  0  0  0  0  0
   -4.0074    3.2891   -0.5802 H   0  0  0  0  0  0  0  0  0  0  0  0
   -4.4784    4.8794   -1.1060 H   0  0  0  0  0  0  0  0  0  0  0  0
   -2.3436    5.4389   -2.1487 N   0  0  0  0  0  0  0  0  0  0  0  0
   -1.4407    5.6044   -2.5589 H   0  0  0  0  0  0  0  0  0  0  0  0
   -3.0480    6.1514   -2.2014 H   0  0  0  0  0  0  0  0  0  0  0  0
   -1.6547    1.3413    1.4779 C   0  0  0  0  0  0  0  0  0  0  0  0
   -2.5654    1.9858    0.9716 O   0  0  0  0  0  0  0  0  0  0  0  0
   -0.8107    1.8504    2.3808 N   0  0  0  0  0  0  0  0  0  0  0  0
   -0.1136    1.2381    2.7719 H   0  0  0  0  0  0  0  0  0  0  0  0
   -0.8954    3.2155    2.9026 C   0  0  0  0  0  0  0  0  0  0  0  0
   -1.8299    3.3430    3.4532 H   0  0  0  0  0  0  0  0  0  0  0  0
   -0.0581    3.4194    3.5712 H   0  0  0  0  0  0  0  0  0  0  0  0
   -0.8804    3.9320    2.0784 H   0  0  0  0  0  0  0  0  0  0  0  0
  5  6  2  0  0  0  0
  5  7  1  0  0  0  0
  2  3  1  0  0  0  0
  2  4  1  0  0  0  0
  2  5  1  0  0  0  0
  1  2  1  0  0  0  0
 29 30  2  0  0  0  0
 29 31  1  0  0  0  0
 26 27  1  0  0  0  0
 26 28  1  0  0  0  0
 23 24  1  0  0  0  0
 23 25  1  0  0  0  0
 22 23  1  0  0  0  0
 22 26  1  0  0  0  0
 20 21  1  0  0  0  0
 20 22  2  0  0  0  0
 17 18  1  0  0  0  0
 17 19  1  0  0  0  0
 17 20  1  0  0  0  0
 14 15  1  0  0  0  0
 14 16  1  0  0  0  0
 14 17  1  0  0  0  0
 11 12  1  0  0  0  0
 11 13  1  0  0  0  0
 11 14  1  0  0  0  0
  9 10  1  0  0  0  0
  9 11  1  0  0  0  0
  9 29  1  0  0  0  0
  7  8  1  0  0  0  0
  7  9  1  0  0  0  0
 33 34  1  0  0  0  0
 33 35  1  0  0  0  0
 33 36  1  0  0  0  0
 31 32  1  0  0  0  0
 31 33  1  0  0  0  0
M  CHG  1  20   1
M  END
$$$$
default_name
  -OEChem-02102213163D

 36 35  0     1  0  0  0  0  0999 V2000
   -4.2256   -3.6731    1.8584 H   0  0  0  0  0  0  0  0  0  0  0  0
   -4.2396   -2.6781    1.4144 C   0  0  0  0  0  0  0  0  0  0  0  0
   -4.9506   -2.0521    1.9514 H   0  0  0  0  0  0  0  0  0  0  0  0
   -4.5266   -2.7521    0.3674 H   0  0  0  0  0  0  0  0  0  0  0  0
   -2.8576   -2.0761    1.5184 C   0  0  0  0  0  0  0  0  0  0  0  0
   -1.9456   -2.7051    2.0404 O   0  0  0  0  0  0  0  0  0  0  0  0
   -2.6926   -0.8481    1.0174 N   0  0  0  0  0  0  0  0  0  0  0  0
   -3.4926   -0.3971    0.5954 H   0  0  0  0  0  0  0  0  0  0  0  0
   -1.4216   -0.1071    1.0434 C   0  0  1  0  0  0  0  0  0  0  0  0
   -0.7579   -0.5878    1.7640 H   0  0  0  0  0  0  0  0  0  0  0  0
   -0.7791   -0.1912   -0.3557 C   0  0  0  0  0  0  0  0  0  0  0  0
    0.1922   -0.6815   -0.2642 H   0  0  0  0  0  0  0  0  0  0  0  0
   -1.4098   -0.8059   -1.0016 H   0  0  0  0  0  0  0  0  0  0  0  0
   -0.5674    1.1798   -1.0145 C   0  0  0  0  0  0  0  0  0  0  0  0
    0.4163    1.5690   -0.7483 H   0  0  0  0  0  0  0  0  0  0  0  0
   -0.6317    1.0732   -2.0978 H   0  0  0  0  0  0  0  0  0  0  0  0
   -1.6438    2.1624   -0.5335 C   0  0  0  0  0  0  0  0  0  0  0  0
   -2.6257    1.7522   -0.7803 H   0  0  0  0  0  0  0  0  0  0  0  0
   -1.5652    2.2603    0.5518 H   0  0  0  0  0  0  0  0  0  0  0  0
   -1.4930    3.4913   -1.1614 N   0  3  0  0  0  0  0  0  0  0  0  0
   -0.7047    3.6148   -1.7735 H   0  0  0  0  0  0  0  0  0  0  0  0
   -2.2946    4.5298   -0.9949 C   0  0  0  0  0  0  0  0  0  0  0  0
   -3.3444    4.4786   -0.2239 N   0  0  0  0  0  0  0  0  0  0  0  0
   -3.5499    3.6208    0.2573 H   0  0  0  0  0  0  0  0  0  0  0  0
   -3.9423    5.2761   -0.1082 H   0  0  0  0  0  0  0  0  0  0  0  0
   -2.0533    5.6544   -1.6067 N   0  0  0  0  0  0  0  0  0  0  0  0
   -1.2554    5.7424   -2.2122 H   0  0  0  0  0  0  0  0  0  0  0  0
   -2.6640    6.4399   -1.4777 H   0  0  0  0  0  0  0  0  0  0  0  0
   -1.6547    1.3413    1.4779 C   0  0  0  0  0  0  0  0  0  0  0  0
   -2.5654    1.9858    0.9716 O   0  0  0  0  0  0  0  0  0  0  0  0
   -0.8107    1.8504    2.3808 N   0  0  0  0  0  0  0  0  0  0  0  0
   -0.1136    1.2381    2.7719 H   0  0  0  0  0  0  0  0  0  0  0  0
   -0.8954    3.2155    2.9026 C   0  0  0  0  0  0  0  0  0  0  0  0
   -1.8299    3.3430    3.4532 H   0  0  0  0  0  0  0  0  0  0  0  0
   -0.0581    3.4194    3.5712 H   0  0  0  0  0  0  0  0  0  0  0  0
   -0.8804    3.9320    2.0784 H   0  0  0  0  0  0  0  0  0  0  0  0
  5  6  2  0  0  0  0
  5  7  1  0  0  0  0
  2  3  1  0  0  0  0
  2  4  1  0  0  0  0
  2  5  1  0  0  0  0
  1  2  1  0  0  0  0
 29 30  2  0  0  0  0
 29 31  1  0  0  0  0
 26 27  1  0  0  0  0
 26 28  1  0  0  0  0
 23 24  1  0  0  0  0
 23 25  1  0  0  0  0
 22 23  1  0  0  0  0
 22 26  1  0  0  0  0
 20 21  1  0  0  0  0
 20 22  2  0  0  0  0
 17 18  1  0  0  0  0
 17 19  1  0  0  0  0
 17 20  1  0  0  0  0
 14 15  1  0  0  0  0
 14 16  1  0  0  0  0
 14 17  1  0  0  0  0
 11 12  1  0  0  0  0
 11 13  1  0  0  0  0
 11 14  1  0  0  0  0
  9 10  1  0  0  0  0
  9 11  1  0  0  0  0
  9 29  1  0  0  0  0
  7  8  1  0  0  0  0
  7  9  1  0  0  0  0
 33 34  1  0  0  0  0
 33 35  1  0  0  0  0
 33 36  1  0  0  0  0
 31 32  1  0  0  0  0
 31 33  1  0  0  0  0
M  CHG  1  20   1
M  END
$$$$
default_name
  -OEChem-02102213163D

 36 35  0     1  0  0  0  0  0999 V2000
   -4.2256   -3.6731    1.8584 H   0  0  0  0  0  0  0  0  0  0  0  0
   -4.2396   -2.6781    1.4144 C   0  0  0  0  0  0  0  0  0  0  0  0
   -4.9506   -2.0521    1.9514 H   0  0  0  0  0  0  0  0  0  0  0  0
   -4.5266   -2.7521    0.3674 H   0  0  0  0  0  0  0  0  0  0  0  0
   -2.8576   -2.0761    1.5184 C   0  0  0  0  0  0  0  0  0  0  0  0
   -1.9456   -2.7051    2.0404 O   0  0  0  0  0  0  0  0  0  0  0  0
   -2.6926   -0.8481    1.0174 N   0  0  0  0  0  0  0  0  0  0  0  0
   -3.4926   -0.3971    0.5954 H   0  0  0  0  0  0  0  0  0  0  0  0
   -1.4216   -0.1071    1.0434 C   0  0  1  0  0  0  0  0  0  0  0  0
   -0.7579   -0.5878    1.7640 H   0  0  0  0  0  0  0  0  0  0  0  0
   -0.7791   -0.1912   -0.3557 C   0  0  0  0  0  0  0  0  0  0  0  0
    0.1922   -0.6815   -0.2642 H   0  0  0  0  0  0  0  0  0  0  0  0
   -1.4098   -0.8059   -1.0016 H   0  0  0  0  0  0  0  0  0  0  0  0
   -0.5674    1.1798   -1.0145 C   0  0  0  0  0  0  0  0  0  0  0  0
    0.4893    1.4482   -0.9762 H   0  0  0  0  0  0  0  0  0  0  0  0
   -0.8899    1.1336   -2.0551 H   0  0  0  0  0  0  0  0  0  0  0  0
   -1.3844    2.2472   -0.2738 C   0  0  0  0  0  0  0  0  0  0  0  0
   -2.4373    1.9567   -0.2941 H   0  0  0  0  0  0  0  0  0  0  0  0
   -1.0486    2.2831    0.7652 H   0  0  0  0  0  0  0  0  0  0  0  0
   -1.2293    3.5813   -0.8893 N   0  3  0  0  0  0  0  0  0  0  0  0
   -0.5933    3.6496   -1.6653 H   0  0  0  0  0  0  0  0  0  0  0  0
   -1.8464    4.6902   -0.5171 C   0  0  0  0  0  0  0  0  0  0  0  0
   -2.6904    4.7139    0.4761 N   0  0  0  0  0  0  0  0  0  0  0  0
   -2.8776    3.8606    0.9723 H   0  0  0  0  0  0  0  0  0  0  0  0
   -3.1499    5.5642    0.7459 H   0  0  0  0  0  0  0  0  0  0  0  0
   -1.6236    5.8111   -1.1427 N   0  0  0  0  0  0  0  0  0  0  0  0
   -0.9810    5.8427   -1.9153 H   0  0  0  0  0  0  0  0  0  0  0  0
   -2.0939    6.6500   -0.8571 H   0  0  0  0  0  0  0  0  0  0  0  0
   -1.6547    1.3413    1.4779 C   0  0  0  0  0  0  0  0  0  0  0  0
   -2.5654    1.9858    0.9716 O   0  0  0  0  0  0  0  0  0  0  0  0
   -0.8107    1.8504    2.3808 N   0  0  0  0  0  0  0  0  0  0  0  0
   -0.1136    1.2381    2.7719 H   0  0  0  0  0  0  0  0  0  0  0  0
   -0.8954    3.2155    2.9026 C   0  0  0  0  0  0  0  0  0  0  0  0
   -1.8299    3.3430    3.4532 H   0  0  0  0  0  0  0  0  0  0  0  0
   -0.0581    3.4194    3.5712 H   0  0  0  0  0  0  0  0  0  0  0  0
   -0.8804    3.9320    2.0784 H   0  0  0  0  0  0  0  0  0  0  0  0
  5  6  2  0  0  0  0
  5  7  1  0  0  0  0
  2  3  1  0  0  0  0
  2  4  1  0  0  0  0
  2  5  1  0  0  0  0
  1  2  1  0  0  0  0
 29 30  2  0  0  0  0
 29 31  1  0  0  0  0
 26 27  1  0  0  0  0
 26 28  1  0  0  0  0
 23 24  1  0  0  0  0
 23 25  1  0  0  0  0
 22 23  1  0  0  0  0
 22 26  1  0  0  0  0
 20 21  1  0  0  0  0
 20 22  2  0  0  0  0
 17 18  1  0  0  0  0
 17 19  1  0  0  0  0
 17 20  1  0  0  0  0
 14 15  1  0  0  0  0
 14 16  1  0  0  0  0
 14 17  1  0  0  0  0
 11 12  1  0  0  0  0
 11 13  1  0  0  0  0
 11 14  1  0  0  0  0
  9 10  1  0  0  0  0
  9 11  1  0  0  0  0
  9 29  1  0  0  0  0
  7  8  1  0  0  0  0
  7  9  1  0  0  0  0
 33 34  1  0  0  0  0
 33 35  1  0  0  0  0
 33 36  1  0  0  0  0
 31 32  1  0  0  0  0
 31 33  1  0  0  0  0
M  CHG  1  20   1
M  END
$$$$
default_name
  -OEChem-02102213163D

 36 35  0     1  0  0  0  0  0999 V2000
   -4.2256   -3.6731    1.8584 H   0  0  0  0  0  0  0  0  0  0  0  0
   -4.2396   -2.6781    1.4144 C   0  0  0  0  0  0  0  0  0  0  0  0
   -4.9506   -2.0521    1.9514 H   0  0  0  0  0  0  0  0  0  0  0  0
   -4.5266   -2.7521    0.3674 H   0  0  0  0  0  0  0  0  0  0  0  0
   -2.8576   -2.0761    1.5184 C   0  0  0  0  0  0  0  0  0  0  0  0
   -1.9456   -2.7051    2.0404 O   0  0  0  0  0  0  0  0  0  0  0  0
   -2.6926   -0.8481    1.0174 N   0  0  0  0  0  0  0  0  0  0  0  0
   -3.4926   -0.3971    0.5954 H   0  0  0  0  0  0  0  0  0  0  0  0
   -1.4216   -0.1071    1.0434 C   0  0  1  0  0  0  0  0  0  0  0  0
   -0.7579   -0.5878    1.7640 H   0  0  0  0  0  0  0  0  0  0  0  0
   -0.7791   -0.1912   -0.3557 C   0  0  0  0  0  0  0  0  0  0  0  0
    0.1922   -0.6815   -0.2642 H   0  0  0  0  0  0  0  0  0  0  0  0
   -1.4098   -0.8059   -1.0016 H   0  0  0  0  0  0  0  0  0  0  0  0
   -0.5674    1.1798   -1.0145 C   0  0  0  0  0  0  0  0  0  0  0  0
    0.4937    1.3316   -1.2174 H   0  0  0  0  0  0  0  0  0  0  0  0
   -1.1228    1.2191   -1.9521 H   0  0  0  0  0  0  0  0  0  0  0  0
   -1.0644    2.2910   -0.0798 C   0  0  0  0  0  0  0  0  0  0  0  0
   -2.1203    2.1160    0.1392 H   0  0  0  0  0  0  0  0  0  0  0  0
   -0.4977    2.2402    0.8529 H   0  0  0  0  0  0  0  0  0  0  0  0
   -0.9018    3.6293   -0.6841 N   0  3  0  0  0  0  0  0  0  0  0  0
   -0.4569    3.6670   -1.5852 H   0  0  0  0  0  0  0  0  0  0  0  0
   -1.2852    4.7784   -0.1533 C   0  0  0  0  0  0  0  0  0  0  0  0
   -1.8708    4.8437    1.0095 N   0  0  0  0  0  0  0  0  0  0  0  0
   -2.0365    3.9921    1.5162 H   0  0  0  0  0  0  0  0  0  0  0  0
   -2.1552    5.7240    1.3981 H   0  0  0  0  0  0  0  0  0  0  0  0
   -1.0840    5.8982   -0.7881 N   0  0  0  0  0  0  0  0  0  0  0  0
   -0.6362    5.8985   -1.6883 H   0  0  0  0  0  0  0  0  0  0  0  0
   -1.3765    6.7676   -0.3818 H   0  0  0  0  0  0  0  0  0  0  0  0
   -1.6547    1.3413    1.4779 C   0  0  0  0  0  0  0  0  0  0  0  0
   -2.5654    1.9858    0.9716 O   0  0  0  0  0  0  0  0  0  0  0  0
   -0.8107    1.8504    2.3808 N   0  0  0  0  0  0  0  0  0  0  0  0
   -0.1136    1.2381    2.7719 H   0  0  0  0  0  0  0  0  0  0  0  0
   -0.8954    3.2155    2.9026 C   0  0  0  0  0  0  0  0  0  0  0  0
   -1.8299    3.3430    3.4532 H   0  0  0  0  0  0  0  0  0  0  0  0
   -0.0581    3.4194    3.5712 H   0  0  0  0  0  0  0  0  0  0  0  0
   -0.8804    3.9320    2.0784 H   0  0  0  0  0  0  0  0  0  0  0  0
  5  6  2  0  0  0  0
  5  7  1  0  0  0  0
  2  3  1  0  0  0  0
  2  4  1  0  0  0  0
  2  5  1  0  0  0  0
  1  2  1  0  0  0  0
 29 30  2  0  0  0  0
 29 31  1  0  0  0  0
 26 27  1  0  0  0  0
 26 28  1  0  0  0  0
 23 24  1  0  0  0  0
 23 25  1  0  0  0  0
 22 23  1  0  0  0  0
 22 26  1  0  0  0  0
 20 21  1  0  0  0  0
 20 22  2  0  0  0  0
 17 18  1  0  0  0  0
 17 19  1  0  0  0  0
 17 20  1  0  0  0  0
 14 15  1  0  0  0  0
 14 16  1  0  0  0  0
 14 17  1  0  0  0  0
 11 12  1  0  0  0  0
 11 13  1  0  0  0  0
 11 14  1  0  0  0  0
  9 10  1  0  0  0  0
  9 11  1  0  0  0  0
  9 29  1  0  0  0  0
  7  8  1  0  0  0  0
  7  9  1  0  0  0  0
 33 34  1  0  0  0  0
 33 35  1  0  0  0  0
 33 36  1  0  0  0  0
 31 32  1  0  0  0  0
 31 33  1  0  0  0  0
M  CHG  1  20   1
M  END
$$$$
default_name
  -OEChem-02102213163D

 36 35  0     1  0  0  0  0  0999 V2000
   -4.2256   -3.6731    1.8584 H   0  0  0  0  0  0  0  0  0  0  0  0
   -4.2396   -2.6781    1.4144 C   0  0  0  0  0  0  0  0  0  0  0  0
   -4.9506   -2.0521    1.9514 H   0  0  0  0  0  0  0  0  0  0  0  0
   -4.5266   -2.7521    0.3674 H   0  0  0  0  0  0  0  0  0  0  0  0
   -2.8576   -2.0761    1.5184 C   0  0  0  0  0  0  0  0  0  0  0  0
   -1.9456   -2.7051    2.0404 O   0  0  0  0  0  0  0  0  0  0  0  0
   -2.6926   -0.8481    1.0174 N   0  0  0  0  0  0  0  0  0  0  0  0
   -3.4926   -0.3971    0.5954 H   0  0  0  0  0  0  0  0  0  0  0  0
   -1.4216   -0.1071    1.0434 C   0  0  1  0  0  0  0  0  0  0  0  0
   -0.7579   -0.5878    1.7640 H   0  0  0  0  0  0  0  0  0  0  0  0
   -0.7791   -0.1912   -0.3557 C   0  0  0  0  0  0  0  0  0  0  0  0
    0.1922   -0.6815   -0.2642 H   0  0  0  0  0  0  0  0  0  0  0  0
   -1.4098   -0.8059   -1.0016 H   0  0  0  0  0  0  0  0  0  0  0  0
   -0.5674    1.1798   -1.0145 C   0  0  0  0  0  0  0  0  0  0  0  0
    0.4292    1.2271   -1.4556 H   0  0  0  0  0  0  0  0  0  0  0  0
   -1.3144    1.3238   -1.7956 H   0  0  0  0  0  0  0  0  0  0  0  0
   -0.7057    2.2909    0.0352 C   0  0  0  0  0  0  0  0  0  0  0  0
   -1.6962    2.2192    0.4903 H   0  0  0  0  0  0  0  0  0  0  0  0
    0.0498    2.1344    0.8087 H   0  0  0  0  0  0  0  0  0  0  0  0
   -0.5327    3.6320   -0.5599 N   0  3  0  0  0  0  0  0  0  0  0  0
   -0.3047    3.6658   -1.5388 H   0  0  0  0  0  0  0  0  0  0  0  0
   -0.6493    4.7882    0.0715 C   0  0  0  0  0  0  0  0  0  0  0  0
   -0.9415    4.8589    1.3399 N   0  0  0  0  0  0  0  0  0  0  0  0
   -1.0837    4.0062    1.8519 H   0  0  0  0  0  0  0  0  0  0  0  0
   -1.0259    5.7446    1.8040 H   0  0  0  0  0  0  0  0  0  0  0  0
   -0.4712    5.9097   -0.5672 N   0  0  0  0  0  0  0  0  0  0  0  0
   -0.2445    5.9060   -1.5467 H   0  0  0  0  0  0  0  0  0  0  0  0
   -0.5607    6.7846   -0.0844 H   0  0  0  0  0  0  0  0  0  0  0  0
   -1.6547    1.3413    1.4779 C   0  0  0  0  0  0  0  0  0  0  0  0
   -2.5654    1.9858    0.9716 O   0  0  0  0  0  0  0  0  0  0  0  0
   -0.8107    1.8504    2.3808 N   0  0  0  0  0  0  0  0  0  0  0  0
   -0.1136    1.2381    2.7719 H   0  0  0  0  0  0  0  0  0  0  0  0
   -0.8954    3.2155    2.9026 C   0  0  0  0  0  0  0  0  0  0  0  0
   -1.8299    3.3430    3.4532 H   0  0  0  0  0  0  0  0  0  0  0  0
   -0.0581    3.4194    3.5712 H   0  0  0  0  0  0  0  0  0  0  0  0
   -0.8804    3.9320    2.0784 H   0  0  0  0  0  0  0  0  0  0  0  0
  5  6  2  0  0  0  0
  5  7  1  0  0  0  0
  2  3  1  0  0  0  0
  2  4  1  0  0  0  0
  2  5  1  0  0  0  0
  1  2  1  0  0  0  0
 29 30  2  0  0  0  0
 29 31  1  0  0  0  0
 26 27  1  0  0  0  0
 26 28  1  0  0  0  0
 23 24  1  0  0  0  0
 23 25  1  0  0  0  0
 22 23  1  0  0  0  0
 22 26  1  0  0  0  0
 20 21  1  0  0  0  0
 20 22  2  0  0  0  0
 17 18  1  0  0  0  0
 17 19  1  0  0  0  0
 17 20  1  0  0  0  0
 14 15  1  0  0  0  0
 14 16  1  0  0  0  0
 14 17  1  0  0  0  0
 11 12  1  0  0  0  0
 11 13  1  0  0  0  0
 11 14  1  0  0  0  0
  9 10  1  0  0  0  0
  9 11  1  0  0  0  0
  9 29  1  0  0  0  0
  7  8  1  0  0  0  0
  7  9  1  0  0  0  0
 33 34  1  0  0  0  0
 33 35  1  0  0  0  0
 33 36  1  0  0  0  0
 31 32  1  0  0  0  0
 31 33  1  0  0  0  0
M  CHG  1  20   1
M  END
$$$$
default_name
  -OEChem-02102213163D

 36 35  0     1  0  0  0  0  0999 V2000
   -4.2256   -3.6731    1.8584 H   0  0  0  0  0  0  0  0  0  0  0  0
   -4.2396   -2.6781    1.4144 C   0  0  0  0  0  0  0  0  0  0  0  0
   -4.9506   -2.0521    1.9514 H   0  0  0  0  0  0  0  0  0  0  0  0
   -4.5266   -2.7521    0.3674 H   0  0  0  0  0  0  0  0  0  0  0  0
   -2.8576   -2.0761    1.5184 C   0  0  0  0  0  0  0  0  0  0  0  0
   -1.9456   -2.7051    2.0404 O   0  0  0  0  0  0  0  0  0  0  0  0
   -2.6926   -0.8481    1.0174 N   0  0  0  0  0  0  0  0  0  0  0  0
   -3.4926   -0.3971    0.5954 H   0  0  0  0  0  0  0  0  0  0  0  0
   -1.4216   -0.1071    1.0434 C   0  0  1  0  0  0  0  0  0  0  0  0
   -0.7579   -0.5878    1.7640 H   0  0  0  0  0  0  0  0  0  0  0  0
   -0.7791   -0.1912   -0.3557 C   0  0  0  0  0  0  0  0  0  0  0  0
    0.1922   -0.6815   -0.2642 H   0  0  0  0  0  0  0  0  0  0  0  0
   -1.4098   -0.8059   -1.0016 H   0  0  0  0  0  0  0  0  0  0  0  0
   -0.5674    1.1798   -1.0145 C   0  0  0  0  0  0  0  0  0  0  0  0
    0.3003    1.1418   -1.6746 H   0  0  0  0  0  0  0  0  0  0  0  0
   -1.4518    1.4407   -1.5965 H   0  0  0  0  0  0  0  0  0  0  0  0
   -0.3327    2.2468    0.0634 C   0  0  0  0  0  0  0  0  0  0  0  0
   -1.1941    2.2593    0.7351 H   0  0  0  0  0  0  0  0  0  0  0  0
    0.5568    1.9730    0.6358 H   0  0  0  0  0  0  0  0  0  0  0  0
   -0.1472    3.5892   -0.5251 N   0  3  0  0  0  0  0  0  0  0  0  0
   -0.1471    3.6461   -1.5292 H   0  0  0  0  0  0  0  0  0  0  0  0
    0.0180    4.7190    0.1421 C   0  0  0  0  0  0  0  0  0  0  0  0
    0.0342    4.7587    1.4449 N   0  0  0  0  0  0  0  0  0  0  0  0
   -0.0842    3.9021    1.9565 H   0  0  0  0  0  0  0  0  0  0  0  0
    0.1610    5.6246    1.9358 H   0  0  0  0  0  0  0  0  0  0  0  0
    0.1731    5.8449   -0.4949 N   0  0  0  0  0  0  0  0  0  0  0  0
    0.1674    5.8648   -1.5002 H   0  0  0  0  0  0  0  0  0  0  0  0
    0.2980    6.6998    0.0151 H   0  0  0  0  0  0  0  0  0  0  0  0
   -1.6547    1.3413    1.4779 C   0  0  0  0  0  0  0  0  0  0  0  0
   -2.5654    1.9858    0.9716 O   0  0  0  0  0  0  0  0  0  0  0  0
   -0.8107    1.8504    2.3808 N   0  0  0  0  0  0  0  0  0  0  0  0
   -0.1136    1.2381    2.7719 H   0  0  0  0  0  0  0  0  0  0  0  0
   -0.8954    3.2155    2.9026 C   0  0  0  0  0  0  0  0  0  0  0  0
   -1.8299    3.3430    3.4532 H   0  0  0  0  0  0  0  0  0  0  0  0
   -0.0581    3.4194    3.5712 H   0  0  0  0  0  0  0  0  0  0  0  0
   -0.8804    3.9320    2.0784 H   0  0  0  0  0  0  0  0  0  0  0  0
  5  6  2  0  0  0  0
  5  7  1  0  0  0  0
  2  3  1  0  0  0  0
  2  4  1  0  0  0  0
  2  5  1  0  0  0  0
  1  2  1  0  0  0  0
 29 30  2  0  0  0  0
 29 31  1  0  0  0  0
 26 27  1  0  0  0  0
 26 28  1  0  0  0  0
 23 24  1  0  0  0  0
 23 25  1  0  0  0  0
 22 23  1  0  0  0  0
 22 26  1  0  0  0  0
 20 21  1  0  0  0  0
 20 22  2  0  0  0  0
 17 18  1  0  0  0  0
 17 19  1  0  0  0  0
 17 20  1  0  0  0  0
 14 15  1  0  0  0  0
 14 16  1  0  0  0  0
 14 17  1  0  0  0  0
 11 12  1  0  0  0  0
 11 13  1  0  0  0  0
 11 14  1  0  0  0  0
  9 10  1  0  0  0  0
  9 11  1  0  0  0  0
  9 29  1  0  0  0  0
  7  8  1  0  0  0  0
  7  9  1  0  0  0  0
 33 34  1  0  0  0  0
 33 35  1  0  0  0  0
 33 36  1  0  0  0  0
 31 32  1  0  0  0  0
 31 33  1  0  0  0  0
M  CHG  1  20   1
M  END
$$$$
default_name
  -OEChem-02102213163D

 36 35  0     1  0  0  0  0  0999 V2000
   -4.2256   -3.6731    1.8584 H   0  0  0  0  0  0  0  0  0  0  0  0
   -4.2396   -2.6781    1.4144 C   0  0  0  0  0  0  0  0  0  0  0  0
   -4.9506   -2.0521    1.9514 H   0  0  0  0  0  0  0  0  0  0  0  0
   -4.5266   -2.7521    0.3674 H   0  0  0  0  0  0  0  0  0  0  0  0
   -2.8576   -2.0761    1.5184 C   0  0  0  0  0  0  0  0  0  0  0  0
   -1.9456   -2.7051    2.0404 O   0  0  0  0  0  0  0  0  0  0  0  0
   -2.6926   -0.8481    1.0174 N   0  0  0  0  0  0  0  0  0  0  0  0
   -3.4926   -0.3971    0.5954 H   0  0  0  0  0  0  0  0  0  0  0  0
   -1.4216   -0.1071    1.0434 C   0  0  1  0  0  0  0  0  0  0  0  0
   -0.7579   -0.5878    1.7640 H   0  0  0  0  0  0  0  0  0  0  0  0
   -0.7791   -0.1912   -0.3557 C   0  0  0  0  0  0  0  0  0  0  0  0
    0.1922   -0.6815   -0.2642 H   0  0  0  0  0  0  0  0  0  0  0  0
   -1.4098   -0.8059   -1.0016 H   0  0  0  0  0  0  0  0  0  0  0  0
   -0.5674    1.1798   -1.0145 C   0  0  0  0  0  0  0  0  0  0  0  0
    0.1157    1.0815   -1.8593 H   0  0  0  0  0  0  0  0  0  0  0  0
   -1.5255    1.5618   -1.3683 H   0  0  0  0  0  0  0  0  0  0  0  0
    0.0293    2.1618    0.0029 C   0  0  0  0  0  0  0  0  0  0  0  0
   -0.6480    2.2335    0.8570 H   0  0  0  0  0  0  0  0  0  0  0  0
    0.9886    1.7670    0.3459 H   0  0  0  0  0  0  0  0  0  0  0  0
    0.2285    3.5038   -0.5821 N   0  3  0  0  0  0  0  0  0  0  0  0
    0.0051    3.6092   -1.5570 H   0  0  0  0  0  0  0  0  0  0  0  0
    0.6711    4.5757    0.0536 C   0  0  0  0  0  0  0  0  0  0  0  0
    0.9898    4.5498    1.3174 N   0  0  0  0  0  0  0  0  0  0  0  0
    0.8938    3.6869    1.8229 H   0  0  0  0  0  0  0  0  0  0  0  0
    1.3245    5.3723    1.7847 H   0  0  0  0  0  0  0  0  0  0  0  0
    0.8049    5.7082   -0.5764 N   0  0  0  0  0  0  0  0  0  0  0  0
    0.5715    5.7775   -1.5519 H   0  0  0  0  0  0  0  0  0  0  0  0
    1.1409    6.5189   -0.0903 H   0  0  0  0  0  0  0  0  0  0  0  0
   -1.6547    1.3413    1.4779 C   0  0  0  0  0  0  0  0  0  0  0  0
   -2.5654    1.9858    0.9716 O   0  0  0  0  0  0  0  0  0  0  0  0
   -0.8107    1.8504    2.3808 N   0  0  0  0  0  0  0  0  0  0  0  0
   -0.1136    1.2381    2.7719 H   0  0  0  0  0  0  0  0  0  0  0  0
   -0.8954    3.2155    2.9026 C   0  0  0  0  0  0  0  0  0  0  0  0
   -1.8299    3.3430    3.4532 H   0  0  0  0  0  0  0  0  0  0  0  0
   -0.0581    3.4194    3.5712 H   0  0  0  0  0  0  0  0  0  0  0  0
   -0.8804    3.9320    2.0784 H   0  0  0  0  0  0  0  0  0  0  0  0
  5  6  2  0  0  0  0
  5  7  1  0  0  0  0
  2  3  1  0  0  0  0
  2  4  1  0  0  0  0
  2  5  1  0  0  0  0
  1  2  1  0  0  0  0
 29 30  2  0  0  0  0
 29 31  1  0  0  0  0
 26 27  1  0  0  0  0
 26 28  1  0  0  0  0
 23 24  1  0  0  0  0
 23 25  1  0  0  0  0
 22 23  1  0  0  0  0
 22 26  1  0  0  0  0
 20 21  1  0  0  0  0
 20 22  2  0  0  0  0
 17 18  1  0  0  0  0
 17 19  1  0  0  0  0
 17 20  1  0  0  0  0
 14 15  1  0  0  0  0
 14 16  1  0  0  0  0
 14 17  1  0  0  0  0
 11 12  1  0  0  0  0
 11 13  1  0  0  0  0
 11 14  1  0  0  0  0
  9 10  1  0  0  0  0
  9 11  1  0  0  0  0
  9 29  1  0  0  0  0
  7  8  1  0  0  0  0
  7  9  1  0  0  0  0
 33 34  1  0  0  0  0
 33 35  1  0  0  0  0
 33 36  1  0  0  0  0
 31 32  1  0  0  0  0
 31 33  1  0  0  0  0
M  CHG  1  20   1
M  END
$$$$
default_name
  -OEChem-02102213163D

 36 35  0     1  0  0  0  0  0999 V2000
   -4.2256   -3.6731    1.8584 H   0  0  0  0  0  0  0  0  0  0  0  0
   -4.2396   -2.6781    1.4144 C   0  0  0  0  0  0  0  0  0  0  0  0
   -4.9506   -2.0521    1.9514 H   0  0  0  0  0  0  0  0  0  0  0  0
   -4.5266   -2.7521    0.3674 H   0  0  0  0  0  0  0  0  0  0  0  0
   -2.8576   -2.0761    1.5184 C   0  0  0  0  0  0  0  0  0  0  0  0
   -1.9456   -2.7051    2.0404 O   0  0  0  0  0  0  0  0  0  0  0  0
   -2.6926   -0.8481    1.0174 N   0  0  0  0  0  0  0  0  0  0  0  0
   -3.4926   -0.3971    0.5954 H   0  0  0  0  0  0  0  0  0  0  0  0
   -1.4216   -0.1071    1.0434 C   0  0  1  0  0  0  0  0  0  0  0  0
   -0.7579   -0.5878    1.7640 H   0  0  0  0  0  0  0  0  0  0  0  0
   -0.7791   -0.1912   -0.3557 C   0  0  0  0  0  0  0  0  0  0  0  0
    0.1922   -0.6815   -0.2642 H   0  0  0  0  0  0  0  0  0  0  0  0
   -1.4098   -0.8059   -1.0016 H   0  0  0  0  0  0  0  0  0  0  0  0
   -0.5674    1.1798   -1.0145 C   0  0  0  0  0  0  0  0  0  0  0  0
   -0.1119    1.0504   -1.9972 H   0  0  0  0  0  0  0  0  0  0  0  0
   -1.5305    1.6787   -1.1265 H   0  0  0  0  0  0  0  0  0  0  0  0
    0.3556    2.0417   -0.1422 C   0  0  0  0  0  0  0  0  0  0  0  0
   -0.0953    2.1437    0.8476 H   0  0  0  0  0  0  0  0  0  0  0  0
    1.3158    1.5304   -0.0413 H   0  0  0  0  0  0  0  0  0  0  0  0
    0.5687    3.3816   -0.7270 N   0  3  0  0  0  0  0  0  0  0  0  0
    0.1417    3.5577   -1.6203 H   0  0  0  0  0  0  0  0  0  0  0  0
    1.2656    4.3678   -0.1879 C   0  0  0  0  0  0  0  0  0  0  0  0
    1.8601    4.2465    0.9659 N   0  0  0  0  0  0  0  0  0  0  0  0
    1.7837    3.3752    1.4602 H   0  0  0  0  0  0  0  0  0  0  0  0
    2.3855    5.0047    1.3608 H   0  0  0  0  0  0  0  0  0  0  0  0
    1.3811    5.5089   -0.8059 N   0  0  0  0  0  0  0  0  0  0  0  0
    0.9401    5.6502   -1.6983 H   0  0  0  0  0  0  0  0  0  0  0  0
    1.9107    6.2544   -0.3932 H   0  0  0  0  0  0  0  0  0  0  0  0
   -1.6547    1.3413    1.4779 C   0  0  0  0  0  0  0  0  0  0  0  0
   -2.5654    1.9858    0.9716 O   0  0  0  0  0  0  0  0  0  0  0  0
   -0.8107    1.8504    2.3808 N   0  0  0  0  0  0  0  0  0  0  0  0
   -0.1136    1.2381    2.7719 H   0  0  0  0  0  0  0  0  0  0  0  0
   -0.8954    3.2155    2.9026 C   0  0  0  0  0  0  0  0  0  0  0  0
   -1.8299    3.3430    3.4532 H   0  0  0  0  0  0  0  0  0  0  0  0
   -0.0581    3.4194    3.5712 H   0  0  0  0  0  0  0  0  0  0  0  0
   -0.8804    3.9320    2.0784 H   0  0  0  0  0  0  0  0  0  0  0  0
  5  6  2  0  0  0  0
  5  7  1  0  0  0  0
  2  3  1  0  0  0  0
  2  4  1  0  0  0  0
  2  5  1  0  0  0  0
  1  2  1  0  0  0  0
 29 30  2  0  0  0  0
 29 31  1  0  0  0  0
 26 27  1  0  0  0  0
 26 28  1  0  0  0  0
 23 24  1  0  0  0  0
 23 25  1  0  0  0  0
 22 23  1  0  0  0  0
 22 26  1  0  0  0  0
 20 21  1  0  0  0  0
 20 22  2  0  0  0  0
 17 18  1  0  0  0  0
 17 19  1  0  0  0  0
 17 20  1  0  0  0  0
 14 15  1  0  0  0  0
 14 16  1  0  0  0  0
 14 17  1  0  0  0  0
 11 12  1  0  0  0  0
 11 13  1  0  0  0  0
 11 14  1  0  0  0  0
  9 10  1  0  0  0  0
  9 11  1  0  0  0  0
  9 29  1  0  0  0  0
  7  8  1  0  0  0  0
  7  9  1  0  0  0  0
 33 34  1  0  0  0  0
 33 35  1  0  0  0  0
 33 36  1  0  0  0  0
 31 32  1  0  0  0  0
 31 33  1  0  0  0  0
M  CHG  1  20   1
M  END
$$$$
default_name
  -OEChem-02102213163D

 36 35  0     1  0  0  0  0  0999 V2000
   -4.2256   -3.6731    1.8584 H   0  0  0  0  0  0  0  0  0  0  0  0
   -4.2396   -2.6781    1.4144 C   0  0  0  0  0  0  0  0  0  0  0  0
   -4.9506   -2.0521    1.9514 H   0  0  0  0  0  0  0  0  0  0  0  0
   -4.5266   -2.7521    0.3674 H   0  0  0  0  0  0  0  0  0  0  0  0
   -2.8576   -2.0761    1.5184 C   0  0  0  0  0  0  0  0  0  0  0  0
   -1.9456   -2.7051    2.0404 O   0  0  0  0  0  0  0  0  0  0  0  0
   -2.6926   -0.8481    1.0174 N   0  0  0  0  0  0  0  0  0  0  0  0
   -3.4926   -0.3971    0.5954 H   0  0  0  0  0  0  0  0  0  0  0  0
   -1.4216   -0.1071    1.0434 C   0  0  1  0  0  0  0  0  0  0  0  0
   -0.7579   -0.5878    1.7640 H   0  0  0  0  0  0  0  0  0  0  0  0
   -0.7791   -0.1912   -0.3557 C   0  0  0  0  0  0  0  0  0  0  0  0
    0.1922   -0.6815   -0.2642 H   0  0  0  0  0  0  0  0  0  0  0  0
   -1.4098   -0.8059   -1.0016 H   0  0  0  0  0  0  0  0  0  0  0  0
   -0.5674    1.1798   -1.0145 C   0  0  0  0  0  0  0  0  0  0  0  0
   -0.3671    1.0505   -2.0790 H   0  0  0  0  0  0  0  0  0  0  0  0
   -1.4665    1.7837   -0.8877 H   0  0  0  0  0  0  0  0  0  0  0  0
    0.6238    1.8946   -0.3621 C   0  0  0  0  0  0  0  0  0  0  0  0
    0.4265    1.9958    0.7076 H   0  0  0  0  0  0  0  0  0  0  0  0
    1.5161    1.2793   -0.4993 H   0  0  0  0  0  0  0  0  0  0  0  0
    0.8503    3.2309   -0.9500 N   0  3  0  0  0  0  0  0  0  0  0  0
    0.2532    3.4950   -1.7149 H   0  0  0  0  0  0  0  0  0  0  0  0
    1.7611    4.1096   -0.5659 C   0  0  0  0  0  0  0  0  0  0  0  0
    2.5859    3.8694    0.4145 N   0  0  0  0  0  0  0  0  0  0  0  0
    2.5249    2.9882    0.8932 H   0  0  0  0  0  0  0  0  0  0  0  0
    3.2715    4.5470    0.6931 H   0  0  0  0  0  0  0  0  0  0  0  0
    1.8626    5.2606   -1.1678 N   0  0  0  0  0  0  0  0  0  0  0  0
    1.2482    5.4916   -1.9294 H   0  0  0  0  0  0  0  0  0  0  0  0
    2.5549    5.9243   -0.8732 H   0  0  0  0  0  0  0  0  0  0  0  0
   -1.6547    1.3413    1.4779 C   0  0  0  0  0  0  0  0  0  0  0  0
   -2.5654    1.9858    0.9716 O   0  0  0  0  0  0  0  0  0  0  0  0
   -0.8107    1.8504    2.3808 N   0  0  0  0  0  0  0  0  0  0  0  0
   -0.1136    1.2381    2.7719 H   0  0  0  0  0  0  0  0  0  0  0  0
   -0.8954    3.2155    2.9026 C   0  0  0  0  0  0  0  0  0  0  0  0
   -1.8299    3.3430    3.4532 H   0  0  0  0  0  0  0  0  0  0  0  0
   -0.0581    3.4194    3.5712 H   0  0  0  0  0  0  0  0  0  0  0  0
   -0.8804    3.9320    2.0784 H   0  0  0  0  0  0  0  0  0  0  0  0
  5  6  2  0  0  0  0
  5  7  1  0  0  0  0
  2  3  1  0  0  0  0
  2  4  1  0  0  0  0
  2  5  1  0  0  0  0
  1  2  1  0  0  0  0
 29 30  2  0  0  0  0
 29 31  1  0  0  0  0
 26 27  1  0  0  0  0
 26 28  1  0  0  0  0
 23 24  1  0  0  0  0
 23 25  1  0  0  0  0
 22 23  1  0  0  0  0
 22 26  1  0  0  0  0
 20 21  1  0  0  0  0
 20 22  2  0  0  0  0
 17 18  1  0  0  0  0
 17 19  1  0  0  0  0
 17 20  1  0  0  0  0
 14 15  1  0  0  0  0
 14 16  1  0  0  0  0
 14 17  1  0  0  0  0
 11 12  1  0  0  0  0
 11 13  1  0  0  0  0
 11 14  1  0  0  0  0
  9 10  1  0  0  0  0
  9 11  1  0  0  0  0
  9 29  1  0  0  0  0
  7  8  1  0  0  0  0
  7  9  1  0  0  0  0
 33 34  1  0  0  0  0
 33 35  1  0  0  0  0
 33 36  1  0  0  0  0
 31 32  1  0  0  0  0
 31 33  1  0  0  0  0
M  CHG  1  20   1
M  END
$$$$
default_name
  -OEChem-02102213163D

 36 35  0     1  0  0  0  0  0999 V2000
   -4.2256   -3.6731    1.8584 H   0  0  0  0  0  0  0  0  0  0  0  0
   -4.2396   -2.6781    1.4144 C   0  0  0  0  0  0  0  0  0  0  0  0
   -4.9506   -2.0521    1.9514 H   0  0  0  0  0  0  0  0  0  0  0  0
   -4.5266   -2.7521    0.3674 H   0  0  0  0  0  0  0  0  0  0  0  0
   -2.8576   -2.0761    1.5184 C   0  0  0  0  0  0  0  0  0  0  0  0
   -1.9456   -2.7051    2.0404 O   0  0  0  0  0  0  0  0  0  0  0  0
   -2.6926   -0.8481    1.0174 N   0  0  0  0  0  0  0  0  0  0  0  0
   -3.4926   -0.3971    0.5954 H   0  0  0  0  0  0  0  0  0  0  0  0
   -1.4216   -0.1071    1.0434 C   0  0  1  0  0  0  0  0  0  0  0  0
   -0.7579   -0.5878    1.7640 H   0  0  0  0  0  0  0  0  0  0  0  0
   -0.7791   -0.1912   -0.3557 C   0  0  0  0  0  0  0  0  0  0  0  0
    0.1922   -0.6815   -0.2642 H   0  0  0  0  0  0  0  0  0  0  0  0
   -1.4098   -0.8059   -1.0016 H   0  0  0  0  0  0  0  0  0  0  0  0
   -0.5674    1.1798   -1.0145 C   0  0  0  0  0  0  0  0  0  0  0  0
   -0.6325    1.0819   -2.0990 H   0  0  0  0  0  0  0  0  0  0  0  0
   -1.3378    1.8694   -0.6680 H   0  0  0  0  0  0  0  0  0  0  0  0
    0.8158    1.7306   -0.6417 C   0  0  0  0  0  0  0  0  0  0  0  0
    0.8817    1.8000    0.4466 H   0  0  0  0  0  0  0  0  0  0  0  0
    1.5759    1.0309   -0.9970 H   0  0  0  0  0  0  0  0  0  0  0  0
    1.0540    3.0621   -1.2357 N   0  3  0  0  0  0  0  0  0  0  0  0
    0.3322    3.4255   -1.8343 H   0  0  0  0  0  0  0  0  0  0  0  0
    2.1236    3.8187   -1.0547 C   0  0  0  0  0  0  0  0  0  0  0  0
    3.1177    3.4442   -0.2993 N   0  0  0  0  0  0  0  0  0  0  0  0
    3.0668    2.5523    0.1604 H   0  0  0  0  0  0  0  0  0  0  0  0
    3.9223    4.0303   -0.1729 H   0  0  0  0  0  0  0  0  0  0  0  0
    2.2165    4.9802   -1.6375 N   0  0  0  0  0  0  0  0  0  0  0  0
    1.4748    5.3123   -2.2296 H   0  0  0  0  0  0  0  0  0  0  0  0
    3.0296    5.5510   -1.4974 H   0  0  0  0  0  0  0  0  0  0  0  0
   -1.6547    1.3413    1.4779 C   0  0  0  0  0  0  0  0  0  0  0  0
   -2.5654    1.9858    0.9716 O   0  0  0  0  0  0  0  0  0  0  0  0
   -0.8107    1.8504    2.3808 N   0  0  0  0  0  0  0  0  0  0  0  0
   -0.1136    1.2381    2.7719 H   0  0  0  0  0  0  0  0  0  0  0  0
   -0.8954    3.2155    2.9026 C   0  0  0  0  0  0  0  0  0  0  0  0
   -1.8299    3.3430    3.4532 H   0  0  0  0  0  0  0  0  0  0  0  0
   -0.0581    3.4194    3.5712 H   0  0  0  0  0  0  0  0  0  0  0  0
   -0.8804    3.9320    2.0784 H   0  0  0  0  0  0  0  0  0  0  0  0
  5  6  2  0  0  0  0
  5  7  1  0  0  0  0
  2  3  1  0  0  0  0
  2  4  1  0  0  0  0
  2  5  1  0  0  0  0
  1  2  1  0  0  0  0
 29 30  2  0  0  0  0
 29 31  1  0  0  0  0
 26 27  1  0  0  0  0
 26 28  1  0  0  0  0
 23 24  1  0  0  0  0
 23 25  1  0  0  0  0
 22 23  1  0  0  0  0
 22 26  1  0  0  0  0
 20 21  1  0  0  0  0
 20 22  2  0  0  0  0
 17 18  1  0  0  0  0
 17 19  1  0  0  0  0
 17 20  1  0  0  0  0
 14 15  1  0  0  0  0
 14 16  1  0  0  0  0
 14 17  1  0  0  0  0
 11 12  1  0  0  0  0
 11 13  1  0  0  0  0
 11 14  1  0  0  0  0
  9 10  1  0  0  0  0
  9 11  1  0  0  0  0
  9 29  1  0  0  0  0
  7  8  1  0  0  0  0
  7  9  1  0  0  0  0
 33 34  1  0  0  0  0
 33 35  1  0  0  0  0
 33 36  1  0  0  0  0
 31 32  1  0  0  0  0
 31 33  1  0  0  0  0
M  CHG  1  20   1
M  END
$$$$
default_name
  -OEChem-02102213163D

 36 35  0     1  0  0  0  0  0999 V2000
   -4.2256   -3.6731    1.8584 H   0  0  0  0  0  0  0  0  0  0  0  0
   -4.2396   -2.6781    1.4144 C   0  0  0  0  0  0  0  0  0  0  0  0
   -4.9506   -2.0521    1.9514 H   0  0  0  0  0  0  0  0  0  0  0  0
   -4.5266   -2.7521    0.3674 H   0  0  0  0  0  0  0  0  0  0  0  0
   -2.8576   -2.0761    1.5184 C   0  0  0  0  0  0  0  0  0  0  0  0
   -1.9456   -2.7051    2.0404 O   0  0  0  0  0  0  0  0  0  0  0  0
   -2.6926   -0.8481    1.0174 N   0  0  0  0  0  0  0  0  0  0  0  0
   -3.4926   -0.3971    0.5954 H   0  0  0  0  0  0  0  0  0  0  0  0
   -1.4216   -0.1071    1.0434 C   0  0  1  0  0  0  0  0  0  0  0  0
   -0.7579   -0.5878    1.7640 H   0  0  0  0  0  0  0  0  0  0  0  0
   -0.7791   -0.1912   -0.3557 C   0  0  0  0  0  0  0  0  0  0  0  0
    0.1922   -0.6815   -0.2642 H   0  0  0  0  0  0  0  0  0  0  0  0
   -1.4098   -0.8059   -1.0016 H   0  0  0  0  0  0  0  0  0  0  0  0
   -0.5674    1.1798   -1.0145 C   0  0  0  0  0  0  0  0  0  0  0  0
   -0.8900    1.1424   -2.0559 H   0  0  0  0  0  0  0  0  0  0  0  0
   -1.1532    1.9300   -0.4824 H   0  0  0  0  0  0  0  0  0  0  0  0
    0.9184    1.5608   -0.9619 C   0  0  0  0  0  0  0  0  0  0  0  0
    1.2394    1.5697    0.0822 H   0  0  0  0  0  0  0  0  0  0  0  0
    1.4911    0.8021   -1.5004 H   0  0  0  0  0  0  0  0  0  0  0  0
    1.1661    2.8867   -1.5649 N   0  3  0  0  0  0  0  0  0  0  0  0
    0.3731    3.3538   -1.9703 H   0  0  0  0  0  0  0  0  0  0  0  0
    2.3285    3.5149   -1.6210 C   0  0  0  0  0  0  0  0  0  0  0  0
    3.4193    3.0000   -1.1268 N   0  0  0  0  0  0  0  0  0  0  0  0
    3.3726    2.0973   -0.6882 H   0  0  0  0  0  0  0  0  0  0  0  0
    4.2935    3.4899   -1.1781 H   0  0  0  0  0  0  0  0  0  0  0  0
    2.4187    4.6868   -2.1830 N   0  0  0  0  0  0  0  0  0  0  0  0
    1.6045    5.1248   -2.5782 H   0  0  0  0  0  0  0  0  0  0  0  0
    3.3025    5.1600   -2.2234 H   0  0  0  0  0  0  0  0  0  0  0  0
   -1.6547    1.3413    1.4779 C   0  0  0  0  0  0  0  0  0  0  0  0
   -2.5654    1.9858    0.9716 O   0  0  0  0  0  0  0  0  0  0  0  0
   -0.8107    1.8504    2.3808 N   0  0  0  0  0  0  0  0  0  0  0  0
   -0.1136    1.2381    2.7719 H   0  0  0  0  0  0  0  0  0  0  0  0
   -0.8954    3.2155    2.9026 C   0  0  0  0  0  0  0  0  0  0  0  0
   -1.8299    3.3430    3.4532 H   0  0  0  0  0  0  0  0  0  0  0  0
   -0.0581    3.4194    3.5712 H   0  0  0  0  0  0  0  0  0  0  0  0
   -0.8804    3.9320    2.0784 H   0  0  0  0  0  0  0  0  0  0  0  0
  5  6  2  0  0  0  0
  5  7  1  0  0  0  0
  2  3  1  0  0  0  0
  2  4  1  0  0  0  0
  2  5  1  0  0  0  0
  1  2  1  0  0  0  0
 29 30  2  0  0  0  0
 29 31  1  0  0  0  0
 26 27  1  0  0  0  0
 26 28  1  0  0  0  0
 23 24  1  0  0  0  0
 23 25  1  0  0  0  0
 22 23  1  0  0  0  0
 22 26  1  0  0  0  0
 20 21  1  0  0  0  0
 20 22  2  0  0  0  0
 17 18  1  0  0  0  0
 17 19  1  0  0  0  0
 17 20  1  0  0  0  0
 14 15  1  0  0  0  0
 14 16  1  0  0  0  0
 14 17  1  0  0  0  0
 11 12  1  0  0  0  0
 11 13  1  0  0  0  0
 11 14  1  0  0  0  0
  9 10  1  0  0  0  0
  9 11  1  0  0  0  0
  9 29  1  0  0  0  0
  7  8  1  0  0  0  0
  7  9  1  0  0  0  0
 33 34  1  0  0  0  0
 33 35  1  0  0  0  0
 33 36  1  0  0  0  0
 31 32  1  0  0  0  0
 31 33  1  0  0  0  0
M  CHG  1  20   1
M  END
$$$$
default_name
  -OEChem-02102213163D

 36 35  0     1  0  0  0  0  0999 V2000
   -4.2256   -3.6731    1.8584 H   0  0  0  0  0  0  0  0  0  0  0  0
   -4.2396   -2.6781    1.4144 C   0  0  0  0  0  0  0  0  0  0  0  0
   -4.9506   -2.0521    1.9514 H   0  0  0  0  0  0  0  0  0  0  0  0
   -4.5266   -2.7521    0.3674 H   0  0  0  0  0  0  0  0  0  0  0  0
   -2.8576   -2.0761    1.5184 C   0  0  0  0  0  0  0  0  0  0  0  0
   -1.9456   -2.7051    2.0404 O   0  0  0  0  0  0  0  0  0  0  0  0
   -2.6926   -0.8481    1.0174 N   0  0  0  0  0  0  0  0  0  0  0  0
   -3.4926   -0.3971    0.5954 H   0  0  0  0  0  0  0  0  0  0  0  0
   -1.4216   -0.1071    1.0434 C   0  0  1  0  0  0  0  0  0  0  0  0
   -0.7579   -0.5878    1.7640 H   0  0  0  0  0  0  0  0  0  0  0  0
   -0.7791   -0.1912   -0.3557 C   0  0  0  0  0  0  0  0  0  0  0  0
    0.1922   -0.6815   -0.2642 H   0  0  0  0  0  0  0  0  0  0  0  0
   -1.4098   -0.8059   -1.0016 H   0  0  0  0  0  0  0  0  0  0  0  0
   -0.5674    1.1798   -1.0145 C   0  0  0  0  0  0  0  0  0  0  0  0
   -1.1221    1.2279   -1.9526 H   0  0  0  0  0  0  0  0  0  0  0  0
   -0.9253    1.9615   -0.3437 H   0  0  0  0  0  0  0  0  0  0  0  0
    0.9247    1.3969   -1.3010 C   0  0  0  0  0  0  0  0  0  0  0  0
    1.4751    1.3205   -0.3605 H   0  0  0  0  0  0  0  0  0  0  0  0
    1.2675    0.6084   -1.9752 H   0  0  0  0  0  0  0  0  0  0  0  0
    1.1787    2.7165   -1.9149 N   0  3  0  0  0  0  0  0  0  0  0  0
    0.3733    3.2848   -2.1137 H   0  0  0  0  0  0  0  0  0  0  0  0
    2.3618    3.2189   -2.2262 C   0  0  0  0  0  0  0  0  0  0  0  0
    3.4700    2.5669   -2.0116 N   0  0  0  0  0  0  0  0  0  0  0  0
    3.4213    1.6541   -1.5948 H   0  0  0  0  0  0  0  0  0  0  0  0
    4.3597    2.9625   -2.2542 H   0  0  0  0  0  0  0  0  0  0  0  0
    2.4554    4.4005   -2.7671 N   0  0  0  0  0  0  0  0  0  0  0  0
    1.6283    4.9416   -2.9516 H   0  0  0  0  0  0  0  0  0  0  0  0
    3.3548    4.7779   -3.0016 H   0  0  0  0  0  0  0  0  0  0  0  0
   -1.6547    1.3413    1.4779 C   0  0  0  0  0  0  0  0  0  0  0  0
   -2.5654    1.9858    0.9716 O   0  0  0  0  0  0  0  0  0  0  0  0
   -0.8107    1.8504    2.3808 N   0  0  0  0  0  0  0  0  0  0  0  0
   -0.1136    1.2381    2.7719 H   0  0  0  0  0  0  0  0  0  0  0  0
   -0.8954    3.2155    2.9026 C   0  0  0  0  0  0  0  0  0  0  0  0
   -1.8299    3.3430    3.4532 H   0  0  0  0  0  0  0  0  0  0  0  0
   -0.0581    3.4194    3.5712 H   0  0  0  0  0  0  0  0  0  0  0  0
   -0.8804    3.9320    2.0784 H   0  0  0  0  0  0  0  0  0  0  0  0
  5  6  2  0  0  0  0
  5  7  1  0  0  0  0
  2  3  1  0  0  0  0
  2  4  1  0  0  0  0
  2  5  1  0  0  0  0
  1  2  1  0  0  0  0
 29 30  2  0  0  0  0
 29 31  1  0  0  0  0
 26 27  1  0  0  0  0
 26 28  1  0  0  0  0
 23 24  1  0  0  0  0
 23 25  1  0  0  0  0
 22 23  1  0  0  0  0
 22 26  1  0  0  0  0
 20 21  1  0  0  0  0
 20 22  2  0  0  0  0
 17 18  1  0  0  0  0
 17 19  1  0  0  0  0
 17 20  1  0  0  0  0
 14 15  1  0  0  0  0
 14 16  1  0  0  0  0
 14 17  1  0  0  0  0
 11 12  1  0  0  0  0
 11 13  1  0  0  0  0
 11 14  1  0  0  0  0
  9 10  1  0  0  0  0
  9 11  1  0  0  0  0
  9 29  1  0  0  0  0
  7  8  1  0  0  0  0
  7  9  1  0  0  0  0
 33 34  1  0  0  0  0
 33 35  1  0  0  0  0
 33 36  1  0  0  0  0
 31 32  1  0  0  0  0
 31 33  1  0  0  0  0
M  CHG  1  20   1
M  END
$$$$
default_name
  -OEChem-02102213163D

 36 35  0     1  0  0  0  0  0999 V2000
   -4.2256   -3.6731    1.8584 H   0  0  0  0  0  0  0  0  0  0  0  0
   -4.2396   -2.6781    1.4144 C   0  0  0  0  0  0  0  0  0  0  0  0
   -4.9506   -2.0521    1.9514 H   0  0  0  0  0  0  0  0  0  0  0  0
   -4.5266   -2.7521    0.3674 H   0  0  0  0  0  0  0  0  0  0  0  0
   -2.8576   -2.0761    1.5184 C   0  0  0  0  0  0  0  0  0  0  0  0
   -1.9456   -2.7051    2.0404 O   0  0  0  0  0  0  0  0  0  0  0  0
   -2.6926   -0.8481    1.0174 N   0  0  0  0  0  0  0  0  0  0  0  0
   -3.4926   -0.3971    0.5954 H   0  0  0  0  0  0  0  0  0  0  0  0
   -1.4216   -0.1071    1.0434 C   0  0  1  0  0  0  0  0  0  0  0  0
   -0.7579   -0.5878    1.7640 H   0  0  0  0  0  0  0  0  0  0  0  0
   -0.7791   -0.1912   -0.3557 C   0  0  0  0  0  0  0  0  0  0  0  0
    0.1922   -0.6815   -0.2642 H   0  0  0  0  0  0  0  0  0  0  0  0
   -1.4098   -0.8059   -1.0016 H   0  0  0  0  0  0  0  0  0  0  0  0
   -0.5674    1.1798   -1.0145 C   0  0  0  0  0  0  0  0  0  0  0  0
   -1.3129    1.3325   -1.7961 H   0  0  0  0  0  0  0  0  0  0  0  0
   -0.6697    1.9616   -0.2613 H   0  0  0  0  0  0  0  0  0  0  0  0
    0.8342    1.2499   -1.6359 C   0  0  0  0  0  0  0  0  0  0  0  0
    1.5728    1.0695   -0.8515 H   0  0  0  0  0  0  0  0  0  0  0  0
    0.9203    0.4632   -2.3891 H   0  0  0  0  0  0  0  0  0  0  0  0
    1.0912    2.5632   -2.2621 N   0  3  0  0  0  0  0  0  0  0  0  0
    0.3326    3.2233   -2.2547 H   0  0  0  0  0  0  0  0  0  0  0  0
    2.2213    2.9509   -2.8291 C   0  0  0  0  0  0  0  0  0  0  0  0
    3.2665    2.1745   -2.8935 N   0  0  0  0  0  0  0  0  0  0  0  0
    3.2097    1.2529   -2.4976 H   0  0  0  0  0  0  0  0  0  0  0  0
    4.1165    2.4842   -3.3277 H   0  0  0  0  0  0  0  0  0  0  0  0
    2.3240    4.1406   -3.3499 N   0  0  0  0  0  0  0  0  0  0  0  0
    1.5447    4.7754   -3.3243 H   0  0  0  0  0  0  0  0  0  0  0  0
    3.1832    4.4308   -3.7791 H   0  0  0  0  0  0  0  0  0  0  0  0
   -1.6547    1.3413    1.4779 C   0  0  0  0  0  0  0  0  0  0  0  0
   -2.5654    1.9858    0.9716 O   0  0  0  0  0  0  0  0  0  0  0  0
   -0.8107    1.8504    2.3808 N   0  0  0  0  0  0  0  0  0  0  0  0
   -0.1136    1.2381    2.7719 H   0  0  0  0  0  0  0  0  0  0  0  0
   -0.8954    3.2155    2.9026 C   0  0  0  0  0  0  0  0  0  0  0  0
   -1.8299    3.3430    3.4532 H   0  0  0  0  0  0  0  0  0  0  0  0
   -0.0581    3.4194    3.5712 H   0  0  0  0  0  0  0  0  0  0  0  0
   -0.8804    3.9320    2.0784 H   0  0  0  0  0  0  0  0  0  0  0  0
  5  6  2  0  0  0  0
  5  7  1  0  0  0  0
  2  3  1  0  0  0  0
  2  4  1  0  0  0  0
  2  5  1  0  0  0  0
  1  2  1  0  0  0  0
 29 30  2  0  0  0  0
 29 31  1  0  0  0  0
 26 27  1  0  0  0  0
 26 28  1  0  0  0  0
 23 24  1  0  0  0  0
 23 25  1  0  0  0  0
 22 23  1  0  0  0  0
 22 26  1  0  0  0  0
 20 21  1  0  0  0  0
 20 22  2  0  0  0  0
 17 18  1  0  0  0  0
 17 19  1  0  0  0  0
 17 20  1  0  0  0  0
 14 15  1  0  0  0  0
 14 16  1  0  0  0  0
 14 17  1  0  0  0  0
 11 12  1  0  0  0  0
 11 13  1  0  0  0  0
 11 14  1  0  0  0  0
  9 10  1  0  0  0  0
  9 11  1  0  0  0  0
  9 29  1  0  0  0  0
  7  8  1  0  0  0  0
  7  9  1  0  0  0  0
 33 34  1  0  0  0  0
 33 35  1  0  0  0  0
 33 36  1  0  0  0  0
 31 32  1  0  0  0  0
 31 33  1  0  0  0  0
M  CHG  1  20   1
M  END
$$$$
default_name
  -OEChem-02102213163D

 36 35  0     1  0  0  0  0  0999 V2000
   -4.2256   -3.6731    1.8584 H   0  0  0  0  0  0  0  0  0  0  0  0
   -4.2396   -2.6781    1.4144 C   0  0  0  0  0  0  0  0  0  0  0  0
   -4.9506   -2.0521    1.9514 H   0  0  0  0  0  0  0  0  0  0  0  0
   -4.5266   -2.7521    0.3674 H   0  0  0  0  0  0  0  0  0  0  0  0
   -2.8576   -2.0761    1.5184 C   0  0  0  0  0  0  0  0  0  0  0  0
   -1.9456   -2.7051    2.0404 O   0  0  0  0  0  0  0  0  0  0  0  0
   -2.6926   -0.8481    1.0174 N   0  0  0  0  0  0  0  0  0  0  0  0
   -3.4926   -0.3971    0.5954 H   0  0  0  0  0  0  0  0  0  0  0  0
   -1.4216   -0.1071    1.0434 C   0  0  1  0  0  0  0  0  0  0  0  0
   -0.7579   -0.5878    1.7640 H   0  0  0  0  0  0  0  0  0  0  0  0
   -0.7791   -0.1912   -0.3557 C   0  0  0  0  0  0  0  0  0  0  0  0
    0.1922   -0.6815   -0.2642 H   0  0  0  0  0  0  0  0  0  0  0  0
   -1.4098   -0.8059   -1.0016 H   0  0  0  0  0  0  0  0  0  0  0  0
   -0.5674    1.1798   -1.0145 C   0  0  0  0  0  0  0  0  0  0  0  0
   -1.4494    1.4492   -1.5972 H   0  0  0  0  0  0  0  0  0  0  0  0
   -0.4036    1.9304   -0.2407 H   0  0  0  0  0  0  0  0  0  0  0  0
    0.6531    1.1300   -1.9437 C   0  0  0  0  0  0  0  0  0  0  0  0
    1.5259    0.8336   -1.3574 H   0  0  0  0  0  0  0  0  0  0  0  0
    0.4732    0.3762   -2.7138 H   0  0  0  0  0  0  0  0  0  0  0  0
    0.9094    2.4372   -2.5826 N   0  3  0  0  0  0  0  0  0  0  0  0
    0.2539    3.1735   -2.3838 H   0  0  0  0  0  0  0  0  0  0  0  0
    1.9166    2.7291   -3.3885 C   0  0  0  0  0  0  0  0  0  0  0  0
    2.8226    1.8496   -3.7123 N   0  0  0  0  0  0  0  0  0  0  0  0
    2.7522    0.9211   -3.3350 H   0  0  0  0  0  0  0  0  0  0  0  0
    3.5804    2.0875   -4.3255 H   0  0  0  0  0  0  0  0  0  0  0  0
    2.0336    3.9250   -3.8919 N   0  0  0  0  0  0  0  0  0  0  0  0
    1.3594    4.6375   -3.6710 H   0  0  0  0  0  0  0  0  0  0  0  0
    2.7993    4.1423   -4.5028 H   0  0  0  0  0  0  0  0  0  0  0  0
   -1.6547    1.3413    1.4779 C   0  0  0  0  0  0  0  0  0  0  0  0
   -2.5654    1.9858    0.9716 O   0  0  0  0  0  0  0  0  0  0  0  0
   -0.8107    1.8504    2.3808 N   0  0  0  0  0  0  0  0  0  0  0  0
   -0.1136    1.2381    2.7719 H   0  0  0  0  0  0  0  0  0  0  0  0
   -0.8954    3.2155    2.9026 C   0  0  0  0  0  0  0  0  0  0  0  0
   -1.8299    3.3430    3.4532 H   0  0  0  0  0  0  0  0  0  0  0  0
   -0.0581    3.4194    3.5712 H   0  0  0  0  0  0  0  0  0  0  0  0
   -0.8804    3.9320    2.0784 H   0  0  0  0  0  0  0  0  0  0  0  0
  5  6  2  0  0  0  0
  5  7  1  0  0  0  0
  2  3  1  0  0  0  0
  2  4  1  0  0  0  0
  2  5  1  0  0  0  0
  1  2  1  0  0  0  0
 29 30  2  0  0  0  0
 29 31  1  0  0  0  0
 26 27  1  0  0  0  0
 26 28  1  0  0  0  0
 23 24  1  0  0  0  0
 23 25  1  0  0  0  0
 22 23  1  0  0  0  0
 22 26  1  0  0  0  0
 20 21  1  0  0  0  0
 20 22  2  0  0  0  0
 17 18  1  0  0  0  0
 17 19  1  0  0  0  0
 17 20  1  0  0  0  0
 14 15  1  0  0  0  0
 14 16  1  0  0  0  0
 14 17  1  0  0  0  0
 11 12  1  0  0  0  0
 11 13  1  0  0  0  0
 11 14  1  0  0  0  0
  9 10  1  0  0  0  0
  9 11  1  0  0  0  0
  9 29  1  0  0  0  0
  7  8  1  0  0  0  0
  7  9  1  0  0  0  0
 33 34  1  0  0  0  0
 33 35  1  0  0  0  0
 33 36  1  0  0  0  0
 31 32  1  0  0  0  0
 31 33  1  0  0  0  0
M  CHG  1  20   1
M  END
$$$$
default_name
  -OEChem-02102213163D

 36 35  0     1  0  0  0  0  0999 V2000
   -4.2256   -3.6731    1.8584 H   0  0  0  0  0  0  0  0  0  0  0  0
   -4.2396   -2.6781    1.4144 C   0  0  0  0  0  0  0  0  0  0  0  0
   -4.9506   -2.0521    1.9514 H   0  0  0  0  0  0  0  0  0  0  0  0
   -4.5266   -2.7521    0.3674 H   0  0  0  0  0  0  0  0  0  0  0  0
   -2.8576   -2.0761    1.5184 C   0  0  0  0  0  0  0  0  0  0  0  0
   -1.9456   -2.7051    2.0404 O   0  0  0  0  0  0  0  0  0  0  0  0
   -2.6926   -0.8481    1.0174 N   0  0  0  0  0  0  0  0  0  0  0  0
   -3.4926   -0.3971    0.5954 H   0  0  0  0  0  0  0  0  0  0  0  0
   -1.4216   -0.1071    1.0434 C   0  0  1  0  0  0  0  0  0  0  0  0
   -0.7579   -0.5878    1.7640 H   0  0  0  0  0  0  0  0  0  0  0  0
   -0.7791   -0.1912   -0.3557 C   0  0  0  0  0  0  0  0  0  0  0  0
    0.1922   -0.6815   -0.2642 H   0  0  0  0  0  0  0  0  0  0  0  0
   -1.4098   -0.8059   -1.0016 H   0  0  0  0  0  0  0  0  0  0  0  0
   -0.5674    1.1798   -1.0145 C   0  0  0  0  0  0  0  0  0  0  0  0
   -1.5223    1.5700   -1.3693 H   0  0  0  0  0  0  0  0  0  0  0  0
   -0.1454    1.8700   -0.2833 H   0  0  0  0  0  0  0  0  0  0  0  0
    0.3937    1.0452   -2.2034 C   0  0  0  0  0  0  0  0  0  0  0  0
    1.3375    0.6291   -1.8435 H   0  0  0  0  0  0  0  0  0  0  0  0
   -0.0434    0.3534   -2.9273 H   0  0  0  0  0  0  0  0  0  0  0  0
    0.6458    2.3471   -2.8548 N   0  3  0  0  0  0  0  0  0  0  0  0
    0.1426    3.1387   -2.4920 H   0  0  0  0  0  0  0  0  0  0  0  0
    1.4684    2.5687   -3.8664 C   0  0  0  0  0  0  0  0  0  0  0  0
    2.1686    1.6143   -4.4122 N   0  0  0  0  0  0  0  0  0  0  0  0
    2.0800    0.6813   -4.0500 H   0  0  0  0  0  0  0  0  0  0  0  0
    2.7880    1.7994   -5.1796 H   0  0  0  0  0  0  0  0  0  0  0  0
    1.6040    3.7684   -4.3559 N   0  0  0  0  0  0  0  0  0  0  0  0
    1.0850    4.5372   -3.9679 H   0  0  0  0  0  0  0  0  0  0  0  0
    2.2292    3.9321   -5.1234 H   0  0  0  0  0  0  0  0  0  0  0  0
   -1.6547    1.3413    1.4779 C   0  0  0  0  0  0  0  0  0  0  0  0
   -2.5654    1.9858    0.9716 O   0  0  0  0  0  0  0  0  0  0  0  0
   -0.8107    1.8504    2.3808 N   0  0  0  0  0  0  0  0  0  0  0  0
   -0.1136    1.2381    2.7719 H   0  0  0  0  0  0  0  0  0  0  0  0
   -0.8954    3.2155    2.9026 C   0  0  0  0  0  0  0  0  0  0  0  0
   -1.8299    3.3430    3.4532 H   0  0  0  0  0  0  0  0  0  0  0  0
   -0.0581    3.4194    3.5712 H   0  0  0  0  0  0  0  0  0  0  0  0
   -0.8804    3.9320    2.0784 H   0  0  0  0  0  0  0  0  0  0  0  0
  5  6  2  0  0  0  0
  5  7  1  0  0  0  0
  2  3  1  0  0  0  0
  2  4  1  0  0  0  0
  2  5  1  0  0  0  0
  1  2  1  0  0  0  0
 29 30  2  0  0  0  0
 29 31  1  0  0  0  0
 26 27  1  0  0  0  0
 26 28  1  0  0  0  0
 23 24  1  0  0  0  0
 23 25  1  0  0  0  0
 22 23  1  0  0  0  0
 22 26  1  0  0  0  0
 20 21  1  0  0  0  0
 20 22  2  0  0  0  0
 17 18  1  0  0  0  0
 17 19  1  0  0  0  0
 17 20  1  0  0  0  0
 14 15  1  0  0  0  0
 14 16  1  0  0  0  0
 14 17  1  0  0  0  0
 11 12  1  0  0  0  0
 11 13  1  0  0  0  0
 11 14  1  0  0  0  0
  9 10  1  0  0  0  0
  9 11  1  0  0  0  0
  9 29  1  0  0  0  0
  7  8  1  0  0  0  0
  7  9  1  0  0  0  0
 33 34  1  0  0  0  0
 33 35  1  0  0  0  0
 33 36  1  0  0  0  0
 31 32  1  0  0  0  0
 31 33  1  0  0  0  0
M  CHG  1  20   1
M  END
$$$$
default_name
  -OEChem-02102213163D

 36 35  0     1  0  0  0  0  0999 V2000
   -4.2256   -3.6731    1.8584 H   0  0  0  0  0  0  0  0  0  0  0  0
   -4.2396   -2.6781    1.4144 C   0  0  0  0  0  0  0  0  0  0  0  0
   -4.9506   -2.0521    1.9514 H   0  0  0  0  0  0  0  0  0  0  0  0
   -4.5266   -2.7521    0.3674 H   0  0  0  0  0  0  0  0  0  0  0  0
   -2.8576   -2.0761    1.5184 C   0  0  0  0  0  0  0  0  0  0  0  0
   -1.9456   -2.7051    2.0404 O   0  0  0  0  0  0  0  0  0  0  0  0
   -2.6926   -0.8481    1.0174 N   0  0  0  0  0  0  0  0  0  0  0  0
   -3.4926   -0.3971    0.5954 H   0  0  0  0  0  0  0  0  0  0  0  0
   -1.4216   -0.1071    1.0434 C   0  0  1  0  0  0  0  0  0  0  0  0
   -0.7579   -0.5878    1.7640 H   0  0  0  0  0  0  0  0  0  0  0  0
   -0.7791   -0.1912   -0.3557 C   0  0  0  0  0  0  0  0  0  0  0  0
    0.0476   -0.9034   -0.3172 H   0  0  0  0  0  0  0  0  0  0  0  0
   -1.5185   -0.5678   -1.0659 H   0  0  0  0  0  0  0  0  0  0  0  0
   -0.2347    1.1532   -0.8601 C   0  0  0  0  0  0  0  0  0  0  0  0
   -1.0452    1.8810   -0.9187 H   0  0  0  0  0  0  0  0  0  0  0  0
    0.5264    1.5165   -0.1688 H   0  0  0  0  0  0  0  0  0  0  0  0
    0.3840    0.9767   -2.2535 C   0  0  0  0  0  0  0  0  0  0  0  0
    1.1764    0.2272   -2.1908 H   0  0  0  0  0  0  0  0  0  0  0  0
   -0.3902    0.6151   -2.9343 H   0  0  0  0  0  0  0  0  0  0  0  0
    0.9433    2.2430   -2.7696 N   0  3  0  0  0  0  0  0  0  0  0  0
    0.8193    3.0590   -2.1949 H   0  0  0  0  0  0  0  0  0  0  0  0
    1.5897    2.4038   -3.9121 C   0  0  0  0  0  0  0  0  0  0  0  0
    1.8052    1.4134   -4.7318 N   0  0  0  0  0  0  0  0  0  0  0  0
    1.4698    0.4991   -4.4848 H   0  0  0  0  0  0  0  0  0  0  0  0
    2.2972    1.5526   -5.5952 H   0  0  0  0  0  0  0  0  0  0  0  0
    2.0365    3.5777   -4.2579 N   0  0  0  0  0  0  0  0  0  0  0  0
    1.8948    4.3722   -3.6582 H   0  0  0  0  0  0  0  0  0  0  0  0
    2.5264    3.6952   -5.1255 H   0  0  0  0  0  0  0  0  0  0  0  0
   -1.6547    1.3413    1.4779 C   0  0  0  0  0  0  0  0  0  0  0  0
   -2.5654    1.9858    0.9716 O   0  0  0  0  0  0  0  0  0  0  0  0
   -0.8107    1.8504    2.3808 N   0  0  0  0  0  0  0  0  0  0  0  0
   -0.1136    1.2381    2.7719 H   0  0  0  0  0  0  0  0  0  0  0  0
   -0.8954    3.2155    2.9026 C   0  0  0  0  0  0  0  0  0  0  0  0
   -1.8299    3.3430    3.4532 H   0  0  0  0  0  0  0  0  0  0  0  0
   -0.0581    3.4194    3.5712 H   0  0  0  0  0  0  0  0  0  0  0  0
   -0.8804    3.9320    2.0784 H   0  0  0  0  0  0  0  0  0  0  0  0
  5  6  2  0  0  0  0
  5  7  1  0  0  0  0
  2  3  1  0  0  0  0
  2  4  1  0  0  0  0
  2  5  1  0  0  0  0
  1  2  1  0  0  0  0
 29 30  2  0  0  0  0
 29 31  1  0  0  0  0
 26 27  1  0  0  0  0
 26 28  1  0  0  0  0
 23 24  1  0  0  0  0
 23 25  1  0  0  0  0
 22 23  1  0  0  0  0
 22 26  1  0  0  0  0
 20 21  1  0  0  0  0
 20 22  2  0  0  0  0
 17 18  1  0  0  0  0
 17 19  1  0  0  0  0
 17 20  1  0  0  0  0
 14 15  1  0  0  0  0
 14 16  1  0  0  0  0
 14 17  1  0  0  0  0
 11 12  1  0  0  0  0
 11 13  1  0  0  0  0
 11 14  1  0  0  0  0
  9 10  1  0  0  0  0
  9 11  1  0  0  0  0
  9 29  1  0  0  0  0
  7  8  1  0  0  0  0
  7  9  1  0  0  0  0
 33 34  1  0  0  0  0
 33 35  1  0  0  0  0
 33 36  1  0  0  0  0
 31 32  1  0  0  0  0
 31 33  1  0  0  0  0
M  CHG  1  20   1
M  END
$$$$
default_name
  -OEChem-02102213163D

 36 35  0     1  0  0  0  0  0999 V2000
   -4.2256   -3.6731    1.8584 H   0  0  0  0  0  0  0  0  0  0  0  0
   -4.2396   -2.6781    1.4144 C   0  0  0  0  0  0  0  0  0  0  0  0
   -4.9506   -2.0521    1.9514 H   0  0  0  0  0  0  0  0  0  0  0  0
   -4.5266   -2.7521    0.3674 H   0  0  0  0  0  0  0  0  0  0  0  0
   -2.8576   -2.0761    1.5184 C   0  0  0  0  0  0  0  0  0  0  0  0
   -1.9456   -2.7051    2.0404 O   0  0  0  0  0  0  0  0  0  0  0  0
   -2.6926   -0.8481    1.0174 N   0  0  0  0  0  0  0  0  0  0  0  0
   -3.4926   -0.3971    0.5954 H   0  0  0  0  0  0  0  0  0  0  0  0
   -1.4216   -0.1071    1.0434 C   0  0  1  0  0  0  0  0  0  0  0  0
   -0.7579   -0.5878    1.7640 H   0  0  0  0  0  0  0  0  0  0  0  0
   -0.7791   -0.1912   -0.3557 C   0  0  0  0  0  0  0  0  0  0  0  0
    0.0476   -0.9034   -0.3172 H   0  0  0  0  0  0  0  0  0  0  0  0
   -1.5185   -0.5678   -1.0659 H   0  0  0  0  0  0  0  0  0  0  0  0
   -0.2347    1.1532   -0.8601 C   0  0  0  0  0  0  0  0  0  0  0  0
   -0.9646    1.9415   -0.6704 H   0  0  0  0  0  0  0  0  0  0  0  0
    0.6924    1.3867   -0.3355 H   0  0  0  0  0  0  0  0  0  0  0  0
    0.0385    1.0736   -2.3682 C   0  0  0  0  0  0  0  0  0  0  0  0
    0.7496    0.2647   -2.5515 H   0  0  0  0  0  0  0  0  0  0  0  0
   -0.8987    0.8417   -2.8796 H   0  0  0  0  0  0  0  0  0  0  0  0
    0.5873    2.3406   -2.8938 N   0  3  0  0  0  0  0  0  0  0  0  0
    0.6729    3.1009   -2.2411 H   0  0  0  0  0  0  0  0  0  0  0  0
    0.9754    2.5680   -4.1374 C   0  0  0  0  0  0  0  0  0  0  0  0
    0.9074    1.6527   -5.0631 N   0  0  0  0  0  0  0  0  0  0  0  0
    0.5496    0.7456   -4.8212 H   0  0  0  0  0  0  0  0  0  0  0  0
    1.2058    1.8419   -6.0023 H   0  0  0  0  0  0  0  0  0  0  0  0
    1.4442    3.7344   -4.4795 N   0  0  0  0  0  0  0  0  0  0  0  0
    1.5161    4.4722   -3.8002 H   0  0  0  0  0  0  0  0  0  0  0  0
    1.7376    3.9026   -5.4241 H   0  0  0  0  0  0  0  0  0  0  0  0
   -1.6547    1.3413    1.4779 C   0  0  0  0  0  0  0  0  0  0  0  0
   -2.5654    1.9858    0.9716 O   0  0  0  0  0  0  0  0  0  0  0  0
   -0.8107    1.8504    2.3808 N   0  0  0  0  0  0  0  0  0  0  0  0
   -0.1136    1.2381    2.7719 H   0  0  0  0  0  0  0  0  0  0  0  0
   -0.8954    3.2155    2.9026 C   0  0  0  0  0  0  0  0  0  0  0  0
   -1.8299    3.3430    3.4532 H   0  0  0  0  0  0  0  0  0  0  0  0
   -0.0581    3.4194    3.5712 H   0  0  0  0  0  0  0  0  0  0  0  0
   -0.8804    3.9320    2.0784 H   0  0  0  0  0  0  0  0  0  0  0  0
  5  6  2  0  0  0  0
  5  7  1  0  0  0  0
  2  3  1  0  0  0  0
  2  4  1  0  0  0  0
  2  5  1  0  0  0  0
  1  2  1  0  0  0  0
 29 30  2  0  0  0  0
 29 31  1  0  0  0  0
 26 27  1  0  0  0  0
 26 28  1  0  0  0  0
 23 24  1  0  0  0  0
 23 25  1  0  0  0  0
 22 23  1  0  0  0  0
 22 26  1  0  0  0  0
 20 21  1  0  0  0  0
 20 22  2  0  0  0  0
 17 18  1  0  0  0  0
 17 19  1  0  0  0  0
 17 20  1  0  0  0  0
 14 15  1  0  0  0  0
 14 16  1  0  0  0  0
 14 17  1  0  0  0  0
 11 12  1  0  0  0  0
 11 13  1  0  0  0  0
 11 14  1  0  0  0  0
  9 10  1  0  0  0  0
  9 11  1  0  0  0  0
  9 29  1  0  0  0  0
  7  8  1  0  0  0  0
  7  9  1  0  0  0  0
 33 34  1  0  0  0  0
 33 35  1  0  0  0  0
 33 36  1  0  0  0  0
 31 32  1  0  0  0  0
 31 33  1  0  0  0  0
M  CHG  1  20   1
M  END
$$$$
default_name
  -OEChem-02102213163D

 36 35  0     1  0  0  0  0  0999 V2000
   -4.2256   -3.6731    1.8584 H   0  0  0  0  0  0  0  0  0  0  0  0
   -4.2396   -2.6781    1.4144 C   0  0  0  0  0  0  0  0  0  0  0  0
   -4.9506   -2.0521    1.9514 H   0  0  0  0  0  0  0  0  0  0  0  0
   -4.5266   -2.7521    0.3674 H   0  0  0  0  0  0  0  0  0  0  0  0
   -2.8576   -2.0761    1.5184 C   0  0  0  0  0  0  0  0  0  0  0  0
   -1.9456   -2.7051    2.0404 O   0  0  0  0  0  0  0  0  0  0  0  0
   -2.6926   -0.8481    1.0174 N   0  0  0  0  0  0  0  0  0  0  0  0
   -3.4926   -0.3971    0.5954 H   0  0  0  0  0  0  0  0  0  0  0  0
   -1.4216   -0.1071    1.0434 C   0  0  1  0  0  0  0  0  0  0  0  0
   -0.7579   -0.5878    1.7640 H   0  0  0  0  0  0  0  0  0  0  0  0
   -0.7791   -0.1912   -0.3557 C   0  0  0  0  0  0  0  0  0  0  0  0
    0.0476   -0.9034   -0.3172 H   0  0  0  0  0  0  0  0  0  0  0  0
   -1.5185   -0.5678   -1.0659 H   0  0  0  0  0  0  0  0  0  0  0  0
   -0.2347    1.1532   -0.8601 C   0  0  0  0  0  0  0  0  0  0  0  0
   -0.8252    1.9702   -0.4432 H   0  0  0  0  0  0  0  0  0  0  0  0
    0.8039    1.2626   -0.5460 H   0  0  0  0  0  0  0  0  0  0  0  0
   -0.3130    1.2070   -2.3919 C   0  0  0  0  0  0  0  0  0  0  0  0
    0.2588    0.3703   -2.7999 H   0  0  0  0  0  0  0  0  0  0  0  0
   -1.3583    1.0987   -2.6906 H   0  0  0  0  0  0  0  0  0  0  0  0
    0.2236    2.4765   -2.9241 N   0  3  0  0  0  0  0  0  0  0  0  0
    0.5246    3.1581   -2.2488 H   0  0  0  0  0  0  0  0  0  0  0  0
    0.3451    2.7995   -4.2008 C   0  0  0  0  0  0  0  0  0  0  0  0
   -0.0145    1.9906   -5.1577 N   0  0  0  0  0  0  0  0  0  0  0  0
   -0.3945    1.0928   -4.9150 H   0  0  0  0  0  0  0  0  0  0  0  0
    0.0841    2.2514   -6.1216 H   0  0  0  0  0  0  0  0  0  0  0  0
    0.8352    3.9565   -4.5450 N   0  0  0  0  0  0  0  0  0  0  0  0
    1.1267    4.6141   -3.8425 H   0  0  0  0  0  0  0  0  0  0  0  0
    0.9257    4.1975   -5.5147 H   0  0  0  0  0  0  0  0  0  0  0  0
   -1.6547    1.3413    1.4779 C   0  0  0  0  0  0  0  0  0  0  0  0
   -2.5654    1.9858    0.9716 O   0  0  0  0  0  0  0  0  0  0  0  0
   -0.8107    1.8504    2.3808 N   0  0  0  0  0  0  0  0  0  0  0  0
   -0.1136    1.2381    2.7719 H   0  0  0  0  0  0  0  0  0  0  0  0
   -0.8954    3.2155    2.9026 C   0  0  0  0  0  0  0  0  0  0  0  0
   -1.8299    3.3430    3.4532 H   0  0  0  0  0  0  0  0  0  0  0  0
   -0.0581    3.4194    3.5712 H   0  0  0  0  0  0  0  0  0  0  0  0
   -0.8804    3.9320    2.0784 H   0  0  0  0  0  0  0  0  0  0  0  0
  5  6  2  0  0  0  0
  5  7  1  0  0  0  0
  2  3  1  0  0  0  0
  2  4  1  0  0  0  0
  2  5  1  0  0  0  0
  1  2  1  0  0  0  0
 29 30  2  0  0  0  0
 29 31  1  0  0  0  0
 26 27  1  0  0  0  0
 26 28  1  0  0  0  0
 23 24  1  0  0  0  0
 23 25  1  0  0  0  0
 22 23  1  0  0  0  0
 22 26  1  0  0  0  0
 20 21  1  0  0  0  0
 20 22  2  0  0  0  0
 17 18  1  0  0  0  0
 17 19  1  0  0  0  0
 17 20  1  0  0  0  0
 14 15  1  0  0  0  0
 14 16  1  0  0  0  0
 14 17  1  0  0  0  0
 11 12  1  0  0  0  0
 11 13  1  0  0  0  0
 11 14  1  0  0  0  0
  9 10  1  0  0  0  0
  9 11  1  0  0  0  0
  9 29  1  0  0  0  0
  7  8  1  0  0  0  0
  7  9  1  0  0  0  0
 33 34  1  0  0  0  0
 33 35  1  0  0  0  0
 33 36  1  0  0  0  0
 31 32  1  0  0  0  0
 31 33  1  0  0  0  0
M  CHG  1  20   1
M  END
$$$$
default_name
  -OEChem-02102213163D

 36 35  0     1  0  0  0  0  0999 V2000
   -4.2256   -3.6731    1.8584 H   0  0  0  0  0  0  0  0  0  0  0  0
   -4.2396   -2.6781    1.4144 C   0  0  0  0  0  0  0  0  0  0  0  0
   -4.9506   -2.0521    1.9514 H   0  0  0  0  0  0  0  0  0  0  0  0
   -4.5266   -2.7521    0.3674 H   0  0  0  0  0  0  0  0  0  0  0  0
   -2.8576   -2.0761    1.5184 C   0  0  0  0  0  0  0  0  0  0  0  0
   -1.9456   -2.7051    2.0404 O   0  0  0  0  0  0  0  0  0  0  0  0
   -2.6926   -0.8481    1.0174 N   0  0  0  0  0  0  0  0  0  0  0  0
   -3.4926   -0.3971    0.5954 H   0  0  0  0  0  0  0  0  0  0  0  0
   -1.4216   -0.1071    1.0434 C   0  0  1  0  0  0  0  0  0  0  0  0
   -0.7579   -0.5878    1.7640 H   0  0  0  0  0  0  0  0  0  0  0  0
   -0.7791   -0.1912   -0.3557 C   0  0  0  0  0  0  0  0  0  0  0  0
    0.0476   -0.9034   -0.3172 H   0  0  0  0  0  0  0  0  0  0  0  0
   -1.5185   -0.5678   -1.0659 H   0  0  0  0  0  0  0  0  0  0  0  0
   -0.2347    1.1532   -0.8601 C   0  0  0  0  0  0  0  0  0  0  0  0
   -0.6367    1.9654   -0.2528 H   0  0  0  0  0  0  0  0  0  0  0  0
    0.8533    1.1525   -0.7860 H   0  0  0  0  0  0  0  0  0  0  0  0
   -0.6465    1.3680   -2.3229 C   0  0  0  0  0  0  0  0  0  0  0  0
   -0.2626    0.5368   -2.9188 H   0  0  0  0  0  0  0  0  0  0  0  0
   -1.7375    1.3687   -2.3804 H   0  0  0  0  0  0  0  0  0  0  0  0
   -0.1230    2.6415   -2.8586 N   0  3  0  0  0  0  0  0  0  0  0  0
    0.3845    3.2267   -2.2173 H   0  0  0  0  0  0  0  0  0  0  0  0
   -0.2585    3.0825   -4.0980 C   0  0  0  0  0  0  0  0  0  0  0  0
   -0.8977    2.4040   -5.0092 N   0  0  0  0  0  0  0  0  0  0  0  0
   -1.2982    1.5170   -4.7598 H   0  0  0  0  0  0  0  0  0  0  0  0
   -0.9917    2.7533   -5.9452 H   0  0  0  0  0  0  0  0  0  0  0  0
    0.2510    4.2288   -4.4499 N   0  0  0  0  0  0  0  0  0  0  0  0
    0.7531    4.7881   -3.7820 H   0  0  0  0  0  0  0  0  0  0  0  0
    0.1460    4.5596   -5.3912 H   0  0  0  0  0  0  0  0  0  0  0  0
   -1.6547    1.3413    1.4779 C   0  0  0  0  0  0  0  0  0  0  0  0
   -2.5654    1.9858    0.9716 O   0  0  0  0  0  0  0  0  0  0  0  0
   -0.8107    1.8504    2.3808 N   0  0  0  0  0  0  0  0  0  0  0  0
   -0.1136    1.2381    2.7719 H   0  0  0  0  0  0  0  0  0  0  0  0
   -0.8954    3.2155    2.9026 C   0  0  0  0  0  0  0  0  0  0  0  0
   -1.8299    3.3430    3.4532 H   0  0  0  0  0  0  0  0  0  0  0  0
   -0.0581    3.4194    3.5712 H   0  0  0  0  0  0  0  0  0  0  0  0
   -0.8804    3.9320    2.0784 H   0  0  0  0  0  0  0  0  0  0  0  0
  5  6  2  0  0  0  0
  5  7  1  0  0  0  0
  2  3  1  0  0  0  0
  2  4  1  0  0  0  0
  2  5  1  0  0  0  0
  1  2  1  0  0  0  0
 29 30  2  0  0  0  0
 29 31  1  0  0  0  0
 26 27  1  0  0  0  0
 26 28  1  0  0  0  0
 23 24  1  0  0  0  0
 23 25  1  0  0  0  0
 22 23  1  0  0  0  0
 22 26  1  0  0  0  0
 20 21  1  0  0  0  0
 20 22  2  0  0  0  0
 17 18  1  0  0  0  0
 17 19  1  0  0  0  0
 17 20  1  0  0  0  0
 14 15  1  0  0  0  0
 14 16  1  0  0  0  0
 14 17  1  0  0  0  0
 11 12  1  0  0  0  0
 11 13  1  0  0  0  0
 11 14  1  0  0  0  0
  9 10  1  0  0  0  0
  9 11  1  0  0  0  0
  9 29  1  0  0  0  0
  7  8  1  0  0  0  0
  7  9  1  0  0  0  0
 33 34  1  0  0  0  0
 33 35  1  0  0  0  0
 33 36  1  0  0  0  0
 31 32  1  0  0  0  0
 31 33  1  0  0  0  0
M  CHG  1  20   1
M  END
$$$$
default_name
  -OEChem-02102213163D

 36 35  0     1  0  0  0  0  0999 V2000
   -4.2256   -3.6731    1.8584 H   0  0  0  0  0  0  0  0  0  0  0  0
   -4.2396   -2.6781    1.4144 C   0  0  0  0  0  0  0  0  0  0  0  0
   -4.9506   -2.0521    1.9514 H   0  0  0  0  0  0  0  0  0  0  0  0
   -4.5266   -2.7521    0.3674 H   0  0  0  0  0  0  0  0  0  0  0  0
   -2.8576   -2.0761    1.5184 C   0  0  0  0  0  0  0  0  0  0  0  0
   -1.9456   -2.7051    2.0404 O   0  0  0  0  0  0  0  0  0  0  0  0
   -2.6926   -0.8481    1.0174 N   0  0  0  0  0  0  0  0  0  0  0  0
   -3.4926   -0.3971    0.5954 H   0  0  0  0  0  0  0  0  0  0  0  0
   -1.4216   -0.1071    1.0434 C   0  0  1  0  0  0  0  0  0  0  0  0
   -0.7579   -0.5878    1.7640 H   0  0  0  0  0  0  0  0  0  0  0  0
   -0.7791   -0.1912   -0.3557 C   0  0  0  0  0  0  0  0  0  0  0  0
    0.0476   -0.9034   -0.3172 H   0  0  0  0  0  0  0  0  0  0  0  0
   -1.5185   -0.5678   -1.0659 H   0  0  0  0  0  0  0  0  0  0  0  0
   -0.2347    1.1532   -0.8601 C   0  0  0  0  0  0  0  0  0  0  0  0
   -0.4119    1.9272   -0.1120 H   0  0  0  0  0  0  0  0  0  0  0  0
    0.8373    1.0640   -1.0392 H   0  0  0  0  0  0  0  0  0  0  0  0
   -0.9393    1.5455   -2.1659 C   0  0  0  0  0  0  0  0  0  0  0  0
   -0.7790    0.7529   -2.9003 H   0  0  0  0  0  0  0  0  0  0  0  0
   -2.0106    1.6332   -1.9700 H   0  0  0  0  0  0  0  0  0  0  0  0
   -0.4290    2.8243   -2.7016 N   0  3  0  0  0  0  0  0  0  0  0  0
    0.2622    3.3019   -2.1488 H   0  0  0  0  0  0  0  0  0  0  0  0
   -0.7942    3.3978   -3.8359 C   0  0  0  0  0  0  0  0  0  0  0  0
   -1.6820    2.8648   -4.6277 N   0  0  0  0  0  0  0  0  0  0  0  0
   -2.0999    1.9893   -4.3663 H   0  0  0  0  0  0  0  0  0  0  0  0
   -1.9482    3.3134   -5.4849 H   0  0  0  0  0  0  0  0  0  0  0  0
   -0.2686    4.5327   -4.2006 N   0  0  0  0  0  0  0  0  0  0  0  0
    0.4207    4.9824   -3.6230 H   0  0  0  0  0  0  0  0  0  0  0  0
   -0.5484    4.9643   -5.0620 H   0  0  0  0  0  0  0  0  0  0  0  0
   -1.6547    1.3413    1.4779 C   0  0  0  0  0  0  0  0  0  0  0  0
   -2.5654    1.9858    0.9716 O   0  0  0  0  0  0  0  0  0  0  0  0
   -0.8107    1.8504    2.3808 N   0  0  0  0  0  0  0  0  0  0  0  0
   -0.1136    1.2381    2.7719 H   0  0  0  0  0  0  0  0  0  0  0  0
   -0.8954    3.2155    2.9026 C   0  0  0  0  0  0  0  0  0  0  0  0
   -1.8299    3.3430    3.4532 H   0  0  0  0  0  0  0  0  0  0  0  0
   -0.0581    3.4194    3.5712 H   0  0  0  0  0  0  0  0  0  0  0  0
   -0.8804    3.9320    2.0784 H   0  0  0  0  0  0  0  0  0  0  0  0
  5  6  2  0  0  0  0
  5  7  1  0  0  0  0
  2  3  1  0  0  0  0
  2  4  1  0  0  0  0
  2  5  1  0  0  0  0
  1  2  1  0  0  0  0
 29 30  2  0  0  0  0
 29 31  1  0  0  0  0
 26 27  1  0  0  0  0
 26 28  1  0  0  0  0
 23 24  1  0  0  0  0
 23 25  1  0  0  0  0
 22 23  1  0  0  0  0
 22 26  1  0  0  0  0
 20 21  1  0  0  0  0
 20 22  2  0  0  0  0
 17 18  1  0  0  0  0
 17 19  1  0  0  0  0
 17 20  1  0  0  0  0
 14 15  1  0  0  0  0
 14 16  1  0  0  0  0
 14 17  1  0  0  0  0
 11 12  1  0  0  0  0
 11 13  1  0  0  0  0
 11 14  1  0  0  0  0
  9 10  1  0  0  0  0
  9 11  1  0  0  0  0
  9 29  1  0  0  0  0
  7  8  1  0  0  0  0
  7  9  1  0  0  0  0
 33 34  1  0  0  0  0
 33 35  1  0  0  0  0
 33 36  1  0  0  0  0
 31 32  1  0  0  0  0
 31 33  1  0  0  0  0
M  CHG  1  20   1
M  END
$$$$
default_name
  -OEChem-02102213163D

 36 35  0     1  0  0  0  0  0999 V2000
   -4.2256   -3.6731    1.8584 H   0  0  0  0  0  0  0  0  0  0  0  0
   -4.2396   -2.6781    1.4144 C   0  0  0  0  0  0  0  0  0  0  0  0
   -4.9506   -2.0521    1.9514 H   0  0  0  0  0  0  0  0  0  0  0  0
   -4.5266   -2.7521    0.3674 H   0  0  0  0  0  0  0  0  0  0  0  0
   -2.8576   -2.0761    1.5184 C   0  0  0  0  0  0  0  0  0  0  0  0
   -1.9456   -2.7051    2.0404 O   0  0  0  0  0  0  0  0  0  0  0  0
   -2.6926   -0.8481    1.0174 N   0  0  0  0  0  0  0  0  0  0  0  0
   -3.4926   -0.3971    0.5954 H   0  0  0  0  0  0  0  0  0  0  0  0
   -1.4216   -0.1071    1.0434 C   0  0  1  0  0  0  0  0  0  0  0  0
   -0.7579   -0.5878    1.7640 H   0  0  0  0  0  0  0  0  0  0  0  0
   -0.7791   -0.1912   -0.3557 C   0  0  0  0  0  0  0  0  0  0  0  0
    0.0476   -0.9034   -0.3172 H   0  0  0  0  0  0  0  0  0  0  0  0
   -1.5185   -0.5678   -1.0659 H   0  0  0  0  0  0  0  0  0  0  0  0
   -0.2347    1.1532   -0.8601 C   0  0  0  0  0  0  0  0  0  0  0  0
   -0.1661    1.8582   -0.0304 H   0  0  0  0  0  0  0  0  0  0  0  0
    0.7570    1.0031   -1.2882 H   0  0  0  0  0  0  0  0  0  0  0  0
   -1.1715    1.7275   -1.9316 C   0  0  0  0  0  0  0  0  0  0  0  0
   -1.2552    1.0038   -2.7456 H   0  0  0  0  0  0  0  0  0  0  0  0
   -2.1589    1.8743   -1.4875 H   0  0  0  0  0  0  0  0  0  0  0  0
   -0.6734    3.0125   -2.4638 N   0  3  0  0  0  0  0  0  0  0  0  0
    0.1659    3.3787   -2.0481 H   0  0  0  0  0  0  0  0  0  0  0  0
   -1.2254    3.7238   -3.4325 C   0  0  0  0  0  0  0  0  0  0  0  0
   -2.3140    3.3416   -4.0392 N   0  0  0  0  0  0  0  0  0  0  0  0
   -2.7449    2.4776   -3.7612 H   0  0  0  0  0  0  0  0  0  0  0  0
   -2.7202    3.8935   -4.7722 H   0  0  0  0  0  0  0  0  0  0  0  0
   -0.6882    4.8476   -3.8143 N   0  0  0  0  0  0  0  0  0  0  0  0
    0.1522    5.1837   -3.3762 H   0  0  0  0  0  0  0  0  0  0  0  0
   -1.1102    5.3841   -4.5496 H   0  0  0  0  0  0  0  0  0  0  0  0
   -1.6547    1.3413    1.4779 C   0  0  0  0  0  0  0  0  0  0  0  0
   -2.5654    1.9858    0.9716 O   0  0  0  0  0  0  0  0  0  0  0  0
   -0.8107    1.8504    2.3808 N   0  0  0  0  0  0  0  0  0  0  0  0
   -0.1136    1.2381    2.7719 H   0  0  0  0  0  0  0  0  0  0  0  0
   -0.8954    3.2155    2.9026 C   0  0  0  0  0  0  0  0  0  0  0  0
   -1.8299    3.3430    3.4532 H   0  0  0  0  0  0  0  0  0  0  0  0
   -0.0581    3.4194    3.5712 H   0  0  0  0  0  0  0  0  0  0  0  0
   -0.8804    3.9320    2.0784 H   0  0  0  0  0  0  0  0  0  0  0  0
  5  6  2  0  0  0  0
  5  7  1  0  0  0  0
  2  3  1  0  0  0  0
  2  4  1  0  0  0  0
  2  5  1  0  0  0  0
  1  2  1  0  0  0  0
 29 30  2  0  0  0  0
 29 31  1  0  0  0  0
 26 27  1  0  0  0  0
 26 28  1  0  0  0  0
 23 24  1  0  0  0  0
 23 25  1  0  0  0  0
 22 23  1  0  0  0  0
 22 26  1  0  0  0  0
 20 21  1  0  0  0  0
 20 22  2  0  0  0  0
 17 18  1  0  0  0  0
 17 19  1  0  0  0  0
 17 20  1  0  0  0  0
 14 15  1  0  0  0  0
 14 16  1  0  0  0  0
 14 17  1  0  0  0  0
 11 12  1  0  0  0  0
 11 13  1  0  0  0  0
 11 14  1  0  0  0  0
  9 10  1  0  0  0  0
  9 11  1  0  0  0  0
  9 29  1  0  0  0  0
  7  8  1  0  0  0  0
  7  9  1  0  0  0  0
 33 34  1  0  0  0  0
 33 35  1  0  0  0  0
 33 36  1  0  0  0  0
 31 32  1  0  0  0  0
 31 33  1  0  0  0  0
M  CHG  1  20   1
M  END
$$$$
default_name
  -OEChem-02102213163D

 36 35  0     1  0  0  0  0  0999 V2000
   -4.2256   -3.6731    1.8584 H   0  0  0  0  0  0  0  0  0  0  0  0
   -4.2396   -2.6781    1.4144 C   0  0  0  0  0  0  0  0  0  0  0  0
   -4.9506   -2.0521    1.9514 H   0  0  0  0  0  0  0  0  0  0  0  0
   -4.5266   -2.7521    0.3674 H   0  0  0  0  0  0  0  0  0  0  0  0
   -2.8576   -2.0761    1.5184 C   0  0  0  0  0  0  0  0  0  0  0  0
   -1.9456   -2.7051    2.0404 O   0  0  0  0  0  0  0  0  0  0  0  0
   -2.6926   -0.8481    1.0174 N   0  0  0  0  0  0  0  0  0  0  0  0
   -3.4926   -0.3971    0.5954 H   0  0  0  0  0  0  0  0  0  0  0  0
   -1.4216   -0.1071    1.0434 C   0  0  1  0  0  0  0  0  0  0  0  0
   -0.7579   -0.5878    1.7640 H   0  0  0  0  0  0  0  0  0  0  0  0
   -0.7791   -0.1912   -0.3557 C   0  0  0  0  0  0  0  0  0  0  0  0
    0.0476   -0.9034   -0.3172 H   0  0  0  0  0  0  0  0  0  0  0  0
   -1.5185   -0.5678   -1.0659 H   0  0  0  0  0  0  0  0  0  0  0  0
   -0.2347    1.1532   -0.8601 C   0  0  0  0  0  0  0  0  0  0  0  0
    0.0839    1.7632   -0.0137 H   0  0  0  0  0  0  0  0  0  0  0  0
    0.6178    0.9739   -1.5161 H   0  0  0  0  0  0  0  0  0  0  0  0
   -1.3272    1.9015   -1.6359 C   0  0  0  0  0  0  0  0  0  0  0  0
   -1.6588    1.2725   -2.4653 H   0  0  0  0  0  0  0  0  0  0  0  0
   -2.1723    2.0756   -0.9657 H   0  0  0  0  0  0  0  0  0  0  0  0
   -0.8396    3.1932   -2.1615 N   0  3  0  0  0  0  0  0  0  0  0  0
    0.1022    3.4518   -1.9219 H   0  0  0  0  0  0  0  0  0  0  0  0
   -1.5228    4.0384   -2.9152 C   0  0  0  0  0  0  0  0  0  0  0  0
   -2.7506    3.8018   -3.2838 N   0  0  0  0  0  0  0  0  0  0  0  0
   -3.1893    2.9486   -2.9857 H   0  0  0  0  0  0  0  0  0  0  0  0
   -3.2551    4.4540   -3.8556 H   0  0  0  0  0  0  0  0  0  0  0  0
   -0.9791    5.1520   -3.3171 N   0  0  0  0  0  0  0  0  0  0  0  0
   -0.0342    5.3784   -3.0586 H   0  0  0  0  0  0  0  0  0  0  0  0
   -1.5010    5.7903   -3.8888 H   0  0  0  0  0  0  0  0  0  0  0  0
   -1.6547    1.3413    1.4779 C   0  0  0  0  0  0  0  0  0  0  0  0
   -2.5654    1.9858    0.9716 O   0  0  0  0  0  0  0  0  0  0  0  0
   -0.8107    1.8504    2.3808 N   0  0  0  0  0  0  0  0  0  0  0  0
   -0.1136    1.2381    2.7719 H   0  0  0  0  0  0  0  0  0  0  0  0
   -0.8954    3.2155    2.9026 C   0  0  0  0  0  0  0  0  0  0  0  0
   -1.8299    3.3430    3.4532 H   0  0  0  0  0  0  0  0  0  0  0  0
   -0.0581    3.4194    3.5712 H   0  0  0  0  0  0  0  0  0  0  0  0
   -0.8804    3.9320    2.0784 H   0  0  0  0  0  0  0  0  0  0  0  0
  5  6  2  0  0  0  0
  5  7  1  0  0  0  0
  2  3  1  0  0  0  0
  2  4  1  0  0  0  0
  2  5  1  0  0  0  0
  1  2  1  0  0  0  0
 29 30  2  0  0  0  0
 29 31  1  0  0  0  0
 26 27  1  0  0  0  0
 26 28  1  0  0  0  0
 23 24  1  0  0  0  0
 23 25  1  0  0  0  0
 22 23  1  0  0  0  0
 22 26  1  0  0  0  0
 20 21  1  0  0  0  0
 20 22  2  0  0  0  0
 17 18  1  0  0  0  0
 17 19  1  0  0  0  0
 17 20  1  0  0  0  0
 14 15  1  0  0  0  0
 14 16  1  0  0  0  0
 14 17  1  0  0  0  0
 11 12  1  0  0  0  0
 11 13  1  0  0  0  0
 11 14  1  0  0  0  0
  9 10  1  0  0  0  0
  9 11  1  0  0  0  0
  9 29  1  0  0  0  0
  7  8  1  0  0  0  0
  7  9  1  0  0  0  0
 33 34  1  0  0  0  0
 33 35  1  0  0  0  0
 33 36  1  0  0  0  0
 31 32  1  0  0  0  0
 31 33  1  0  0  0  0
M  CHG  1  20   1
M  END
$$$$
default_name
  -OEChem-02102213163D

 36 35  0     1  0  0  0  0  0999 V2000
   -4.2256   -3.6731    1.8584 H   0  0  0  0  0  0  0  0  0  0  0  0
   -4.2396   -2.6781    1.4144 C   0  0  0  0  0  0  0  0  0  0  0  0
   -4.9506   -2.0521    1.9514 H   0  0  0  0  0  0  0  0  0  0  0  0
   -4.5266   -2.7521    0.3674 H   0  0  0  0  0  0  0  0  0  0  0  0
   -2.8576   -2.0761    1.5184 C   0  0  0  0  0  0  0  0  0  0  0  0
   -1.9456   -2.7051    2.0404 O   0  0  0  0  0  0  0  0  0  0  0  0
   -2.6926   -0.8481    1.0174 N   0  0  0  0  0  0  0  0  0  0  0  0
   -3.4926   -0.3971    0.5954 H   0  0  0  0  0  0  0  0  0  0  0  0
   -1.4216   -0.1071    1.0434 C   0  0  1  0  0  0  0  0  0  0  0  0
   -0.7579   -0.5878    1.7640 H   0  0  0  0  0  0  0  0  0  0  0  0
   -0.7791   -0.1912   -0.3557 C   0  0  0  0  0  0  0  0  0  0  0  0
    0.0476   -0.9034   -0.3172 H   0  0  0  0  0  0  0  0  0  0  0  0
   -1.5185   -0.5678   -1.0659 H   0  0  0  0  0  0  0  0  0  0  0  0
   -0.2347    1.1532   -0.8601 C   0  0  0  0  0  0  0  0  0  0  0  0
    0.3212    1.6487   -0.0628 H   0  0  0  0  0  0  0  0  0  0  0  0
    0.4292    0.9785   -1.7074 H   0  0  0  0  0  0  0  0  0  0  0  0
   -1.3959    2.0556   -1.2991 C   0  0  0  0  0  0  0  0  0  0  0  0
   -1.9623    1.5406   -2.0784 H   0  0  0  0  0  0  0  0  0  0  0  0
   -2.0499    2.2232   -0.4402 H   0  0  0  0  0  0  0  0  0  0  0  0
   -0.9163    3.3542   -1.8153 N   0  3  0  0  0  0  0  0  0  0  0  0
    0.0756    3.5163   -1.7789 H   0  0  0  0  0  0  0  0  0  0  0  0
   -1.6661    4.3200   -2.3192 C   0  0  0  0  0  0  0  0  0  0  0  0
   -2.9620    4.2142   -2.4130 N   0  0  0  0  0  0  0  0  0  0  0  0
   -3.4029    3.3701   -2.0927 H   0  0  0  0  0  0  0  0  0  0  0  0
   -3.5164    4.9568   -2.7977 H   0  0  0  0  0  0  0  0  0  0  0  0
   -1.1217    5.4251   -2.7430 N   0  0  0  0  0  0  0  0  0  0  0  0
   -0.1257    5.5531   -2.6916 H   0  0  0  0  0  0  0  0  0  0  0  0
   -1.6942    6.1553   -3.1247 H   0  0  0  0  0  0  0  0  0  0  0  0
   -1.6547    1.3413    1.4779 C   0  0  0  0  0  0  0  0  0  0  0  0
   -2.5654    1.9858    0.9716 O   0  0  0  0  0  0  0  0  0  0  0  0
   -0.8107    1.8504    2.3808 N   0  0  0  0  0  0  0  0  0  0  0  0
   -0.1136    1.2381    2.7719 H   0  0  0  0  0  0  0  0  0  0  0  0
   -0.8954    3.2155    2.9026 C   0  0  0  0  0  0  0  0  0  0  0  0
   -1.8299    3.3430    3.4532 H   0  0  0  0  0  0  0  0  0  0  0  0
   -0.0581    3.4194    3.5712 H   0  0  0  0  0  0  0  0  0  0  0  0
   -0.8804    3.9320    2.0784 H   0  0  0  0  0  0  0  0  0  0  0  0
  5  6  2  0  0  0  0
  5  7  1  0  0  0  0
  2  3  1  0  0  0  0
  2  4  1  0  0  0  0
  2  5  1  0  0  0  0
  1  2  1  0  0  0  0
 29 30  2  0  0  0  0
 29 31  1  0  0  0  0
 26 27  1  0  0  0  0
 26 28  1  0  0  0  0
 23 24  1  0  0  0  0
 23 25  1  0  0  0  0
 22 23  1  0  0  0  0
 22 26  1  0  0  0  0
 20 21  1  0  0  0  0
 20 22  2  0  0  0  0
 17 18  1  0  0  0  0
 17 19  1  0  0  0  0
 17 20  1  0  0  0  0
 14 15  1  0  0  0  0
 14 16  1  0  0  0  0
 14 17  1  0  0  0  0
 11 12  1  0  0  0  0
 11 13  1  0  0  0  0
 11 14  1  0  0  0  0
  9 10  1  0  0  0  0
  9 11  1  0  0  0  0
  9 29  1  0  0  0  0
  7  8  1  0  0  0  0
  7  9  1  0  0  0  0
 33 34  1  0  0  0  0
 33 35  1  0  0  0  0
 33 36  1  0  0  0  0
 31 32  1  0  0  0  0
 31 33  1  0  0  0  0
M  CHG  1  20   1
M  END
$$$$
default_name
  -OEChem-02102213163D

 36 35  0     1  0  0  0  0  0999 V2000
   -4.2256   -3.6731    1.8584 H   0  0  0  0  0  0  0  0  0  0  0  0
   -4.2396   -2.6781    1.4144 C   0  0  0  0  0  0  0  0  0  0  0  0
   -4.9506   -2.0521    1.9514 H   0  0  0  0  0  0  0  0  0  0  0  0
   -4.5266   -2.7521    0.3674 H   0  0  0  0  0  0  0  0  0  0  0  0
   -2.8576   -2.0761    1.5184 C   0  0  0  0  0  0  0  0  0  0  0  0
   -1.9456   -2.7051    2.0404 O   0  0  0  0  0  0  0  0  0  0  0  0
   -2.6926   -0.8481    1.0174 N   0  0  0  0  0  0  0  0  0  0  0  0
   -3.4926   -0.3971    0.5954 H   0  0  0  0  0  0  0  0  0  0  0  0
   -1.4216   -0.1071    1.0434 C   0  0  1  0  0  0  0  0  0  0  0  0
   -0.7579   -0.5878    1.7640 H   0  0  0  0  0  0  0  0  0  0  0  0
   -0.7791   -0.1912   -0.3557 C   0  0  0  0  0  0  0  0  0  0  0  0
    0.0476   -0.9034   -0.3172 H   0  0  0  0  0  0  0  0  0  0  0  0
   -1.5185   -0.5678   -1.0659 H   0  0  0  0  0  0  0  0  0  0  0  0
   -0.2347    1.1532   -0.8601 C   0  0  0  0  0  0  0  0  0  0  0  0
    0.5294    1.5224   -0.1746 H   0  0  0  0  0  0  0  0  0  0  0  0
    0.2041    1.0165   -1.8490 H   0  0  0  0  0  0  0  0  0  0  0  0
   -1.3727    2.1795   -0.9441 C   0  0  0  0  0  0  0  0  0  0  0  0
   -2.1450    1.7898   -1.6113 H   0  0  0  0  0  0  0  0  0  0  0  0
   -1.8001    2.3072    0.0533 H   0  0  0  0  0  0  0  0  0  0  0  0
   -0.8982    3.4844   -1.4487 N   0  3  0  0  0  0  0  0  0  0  0  0
    0.0877    3.5677   -1.6288 H   0  0  0  0  0  0  0  0  0  0  0  0
   -1.6456    4.5496   -1.6853 C   0  0  0  0  0  0  0  0  0  0  0  0
   -2.9338    4.5506   -1.4861 N   0  0  0  0  0  0  0  0  0  0  0  0
   -3.3710    3.7135   -1.1431 H   0  0  0  0  0  0  0  0  0  0  0  0
   -3.4864    5.3676   -1.6704 H   0  0  0  0  0  0  0  0  0  0  0  0
   -1.1060    5.6484   -2.1311 N   0  0  0  0  0  0  0  0  0  0  0  0
   -0.1161    5.6960   -2.3005 H   0  0  0  0  0  0  0  0  0  0  0  0
   -1.6766    6.4541   -2.3094 H   0  0  0  0  0  0  0  0  0  0  0  0
   -1.6547    1.3413    1.4779 C   0  0  0  0  0  0  0  0  0  0  0  0
   -2.5654    1.9858    0.9716 O   0  0  0  0  0  0  0  0  0  0  0  0
   -0.8107    1.8504    2.3808 N   0  0  0  0  0  0  0  0  0  0  0  0
   -0.1136    1.2381    2.7719 H   0  0  0  0  0  0  0  0  0  0  0  0
   -0.8954    3.2155    2.9026 C   0  0  0  0  0  0  0  0  0  0  0  0
   -1.8299    3.3430    3.4532 H   0  0  0  0  0  0  0  0  0  0  0  0
   -0.0581    3.4194    3.5712 H   0  0  0  0  0  0  0  0  0  0  0  0
   -0.8804    3.9320    2.0784 H   0  0  0  0  0  0  0  0  0  0  0  0
  5  6  2  0  0  0  0
  5  7  1  0  0  0  0
  2  3  1  0  0  0  0
  2  4  1  0  0  0  0
  2  5  1  0  0  0  0
  1  2  1  0  0  0  0
 29 30  2  0  0  0  0
 29 31  1  0  0  0  0
 26 27  1  0  0  0  0
 26 28  1  0  0  0  0
 23 24  1  0  0  0  0
 23 25  1  0  0  0  0
 22 23  1  0  0  0  0
 22 26  1  0  0  0  0
 20 21  1  0  0  0  0
 20 22  2  0  0  0  0
 17 18  1  0  0  0  0
 17 19  1  0  0  0  0
 17 20  1  0  0  0  0
 14 15  1  0  0  0  0
 14 16  1  0  0  0  0
 14 17  1  0  0  0  0
 11 12  1  0  0  0  0
 11 13  1  0  0  0  0
 11 14  1  0  0  0  0
  9 10  1  0  0  0  0
  9 11  1  0  0  0  0
  9 29  1  0  0  0  0
  7  8  1  0  0  0  0
  7  9  1  0  0  0  0
 33 34  1  0  0  0  0
 33 35  1  0  0  0  0
 33 36  1  0  0  0  0
 31 32  1  0  0  0  0
 31 33  1  0  0  0  0
M  CHG  1  20   1
M  END
$$$$
default_name
  -OEChem-02102213163D

 36 35  0     1  0  0  0  0  0999 V2000
   -4.2256   -3.6731    1.8584 H   0  0  0  0  0  0  0  0  0  0  0  0
   -4.2396   -2.6781    1.4144 C   0  0  0  0  0  0  0  0  0  0  0  0
   -4.9506   -2.0521    1.9514 H   0  0  0  0  0  0  0  0  0  0  0  0
   -4.5266   -2.7521    0.3674 H   0  0  0  0  0  0  0  0  0  0  0  0
   -2.8576   -2.0761    1.5184 C   0  0  0  0  0  0  0  0  0  0  0  0
   -1.9456   -2.7051    2.0404 O   0  0  0  0  0  0  0  0  0  0  0  0
   -2.6926   -0.8481    1.0174 N   0  0  0  0  0  0  0  0  0  0  0  0
   -3.4926   -0.3971    0.5954 H   0  0  0  0  0  0  0  0  0  0  0  0
   -1.4216   -0.1071    1.0434 C   0  0  1  0  0  0  0  0  0  0  0  0
   -0.7579   -0.5878    1.7640 H   0  0  0  0  0  0  0  0  0  0  0  0
   -0.7791   -0.1912   -0.3557 C   0  0  0  0  0  0  0  0  0  0  0  0
    0.0476   -0.9034   -0.3172 H   0  0  0  0  0  0  0  0  0  0  0  0
   -1.5185   -0.5678   -1.0659 H   0  0  0  0  0  0  0  0  0  0  0  0
   -0.2347    1.1532   -0.8601 C   0  0  0  0  0  0  0  0  0  0  0  0
    0.6946    1.3930   -0.3413 H   0  0  0  0  0  0  0  0  0  0  0  0
   -0.0422    1.0854   -1.9313 H   0  0  0  0  0  0  0  0  0  0  0  0
   -1.2594    2.2646   -0.5951 C   0  0  0  0  0  0  0  0  0  0  0  0
   -2.1945    2.0033   -1.0958 H   0  0  0  0  0  0  0  0  0  0  0  0
   -1.4398    2.3217    0.4810 H   0  0  0  0  0  0  0  0  0  0  0  0
   -0.7866    3.5751   -1.0868 N   0  3  0  0  0  0  0  0  0  0  0  0
    0.1378    3.6026   -1.4818 H   0  0  0  0  0  0  0  0  0  0  0  0
   -1.4626    4.7114   -1.0566 C   0  0  0  0  0  0  0  0  0  0  0  0
   -2.6680    4.7880   -0.5663 N   0  0  0  0  0  0  0  0  0  0  0  0
   -3.0958    3.9553   -0.2016 H   0  0  0  0  0  0  0  0  0  0  0  0
   -3.1670    5.6584   -0.5506 H   0  0  0  0  0  0  0  0  0  0  0  0
   -0.9333    5.8066   -1.5231 N   0  0  0  0  0  0  0  0  0  0  0  0
   -0.0060    5.7973   -1.9117 H   0  0  0  0  0  0  0  0  0  0  0  0
   -1.4496    6.6665   -1.4984 H   0  0  0  0  0  0  0  0  0  0  0  0
   -1.6547    1.3413    1.4779 C   0  0  0  0  0  0  0  0  0  0  0  0
   -2.5654    1.9858    0.9716 O   0  0  0  0  0  0  0  0  0  0  0  0
   -0.8107    1.8504    2.3808 N   0  0  0  0  0  0  0  0  0  0  0  0
   -0.1136    1.2381    2.7719 H   0  0  0  0  0  0  0  0  0  0  0  0
   -0.8954    3.2155    2.9026 C   0  0  0  0  0  0  0  0  0  0  0  0
   -1.8299    3.3430    3.4532 H   0  0  0  0  0  0  0  0  0  0  0  0
   -0.0581    3.4194    3.5712 H   0  0  0  0  0  0  0  0  0  0  0  0
   -0.8804    3.9320    2.0784 H   0  0  0  0  0  0  0  0  0  0  0  0
  5  6  2  0  0  0  0
  5  7  1  0  0  0  0
  2  3  1  0  0  0  0
  2  4  1  0  0  0  0
  2  5  1  0  0  0  0
  1  2  1  0  0  0  0
 29 30  2  0  0  0  0
 29 31  1  0  0  0  0
 26 27  1  0  0  0  0
 26 28  1  0  0  0  0
 23 24  1  0  0  0  0
 23 25  1  0  0  0  0
 22 23  1  0  0  0  0
 22 26  1  0  0  0  0
 20 21  1  0  0  0  0
 20 22  2  0  0  0  0
 17 18  1  0  0  0  0
 17 19  1  0  0  0  0
 17 20  1  0  0  0  0
 14 15  1  0  0  0  0
 14 16  1  0  0  0  0
 14 17  1  0  0  0  0
 11 12  1  0  0  0  0
 11 13  1  0  0  0  0
 11 14  1  0  0  0  0
  9 10  1  0  0  0  0
  9 11  1  0  0  0  0
  9 29  1  0  0  0  0
  7  8  1  0  0  0  0
  7  9  1  0  0  0  0
 33 34  1  0  0  0  0
 33 35  1  0  0  0  0
 33 36  1  0  0  0  0
 31 32  1  0  0  0  0
 31 33  1  0  0  0  0
M  CHG  1  20   1
M  END
$$$$
default_name
  -OEChem-02102213163D

 36 35  0     1  0  0  0  0  0999 V2000
   -4.2256   -3.6731    1.8584 H   0  0  0  0  0  0  0  0  0  0  0  0
   -4.2396   -2.6781    1.4144 C   0  0  0  0  0  0  0  0  0  0  0  0
   -4.9506   -2.0521    1.9514 H   0  0  0  0  0  0  0  0  0  0  0  0
   -4.5266   -2.7521    0.3674 H   0  0  0  0  0  0  0  0  0  0  0  0
   -2.8576   -2.0761    1.5184 C   0  0  0  0  0  0  0  0  0  0  0  0
   -1.9456   -2.7051    2.0404 O   0  0  0  0  0  0  0  0  0  0  0  0
   -2.6926   -0.8481    1.0174 N   0  0  0  0  0  0  0  0  0  0  0  0
   -3.4926   -0.3971    0.5954 H   0  0  0  0  0  0  0  0  0  0  0  0
   -1.4216   -0.1071    1.0434 C   0  0  1  0  0  0  0  0  0  0  0  0
   -0.7579   -0.5878    1.7640 H   0  0  0  0  0  0  0  0  0  0  0  0
   -0.7791   -0.1912   -0.3557 C   0  0  0  0  0  0  0  0  0  0  0  0
    0.0476   -0.9034   -0.3172 H   0  0  0  0  0  0  0  0  0  0  0  0
   -1.5185   -0.5678   -1.0659 H   0  0  0  0  0  0  0  0  0  0  0  0
   -0.2347    1.1532   -0.8601 C   0  0  0  0  0  0  0  0  0  0  0  0
    0.8053    1.2692   -0.5517 H   0  0  0  0  0  0  0  0  0  0  0  0
   -0.2928    1.1804   -1.9487 H   0  0  0  0  0  0  0  0  0  0  0  0
   -1.0637    2.3051   -0.2758 C   0  0  0  0  0  0  0  0  0  0  0  0
   -2.1073    2.1663   -0.5672 H   0  0  0  0  0  0  0  0  0  0  0  0
   -0.9937    2.2659    0.8138 H   0  0  0  0  0  0  0  0  0  0  0  0
   -0.5891    3.6199   -0.7541 N   0  3  0  0  0  0  0  0  0  0  0  0
    0.2224    3.6185   -1.3480 H   0  0  0  0  0  0  0  0  0  0  0  0
   -1.1296    4.7944   -0.4758 C   0  0  0  0  0  0  0  0  0  0  0  0
   -2.1826    4.9104    0.2837 N   0  0  0  0  0  0  0  0  0  0  0  0
   -2.5961    4.0791    0.6677 H   0  0  0  0  0  0  0  0  0  0  0  0
   -2.5801    5.8094    0.4853 H   0  0  0  0  0  0  0  0  0  0  0  0
   -0.6153    5.8889   -0.9605 N   0  0  0  0  0  0  0  0  0  0  0  0
    0.1971    5.8501   -1.5518 H   0  0  0  0  0  0  0  0  0  0  0  0
   -1.0284    6.7778   -0.7470 H   0  0  0  0  0  0  0  0  0  0  0  0
   -1.6547    1.3413    1.4779 C   0  0  0  0  0  0  0  0  0  0  0  0
   -2.5654    1.9858    0.9716 O   0  0  0  0  0  0  0  0  0  0  0  0
   -0.8107    1.8504    2.3808 N   0  0  0  0  0  0  0  0  0  0  0  0
   -0.1136    1.2381    2.7719 H   0  0  0  0  0  0  0  0  0  0  0  0
   -0.8954    3.2155    2.9026 C   0  0  0  0  0  0  0  0  0  0  0  0
   -1.8299    3.3430    3.4532 H   0  0  0  0  0  0  0  0  0  0  0  0
   -0.0581    3.4194    3.5712 H   0  0  0  0  0  0  0  0  0  0  0  0
   -0.8804    3.9320    2.0784 H   0  0  0  0  0  0  0  0  0  0  0  0
  5  6  2  0  0  0  0
  5  7  1  0  0  0  0
  2  3  1  0  0  0  0
  2  4  1  0  0  0  0
  2  5  1  0  0  0  0
  1  2  1  0  0  0  0
 29 30  2  0  0  0  0
 29 31  1  0  0  0  0
 26 27  1  0  0  0  0
 26 28  1  0  0  0  0
 23 24  1  0  0  0  0
 23 25  1  0  0  0  0
 22 23  1  0  0  0  0
 22 26  1  0  0  0  0
 20 21  1  0  0  0  0
 20 22  2  0  0  0  0
 17 18  1  0  0  0  0
 17 19  1  0  0  0  0
 17 20  1  0  0  0  0
 14 15  1  0  0  0  0
 14 16  1  0  0  0  0
 14 17  1  0  0  0  0
 11 12  1  0  0  0  0
 11 13  1  0  0  0  0
 11 14  1  0  0  0  0
  9 10  1  0  0  0  0
  9 11  1  0  0  0  0
  9 29  1  0  0  0  0
  7  8  1  0  0  0  0
  7  9  1  0  0  0  0
 33 34  1  0  0  0  0
 33 35  1  0  0  0  0
 33 36  1  0  0  0  0
 31 32  1  0  0  0  0
 31 33  1  0  0  0  0
M  CHG  1  20   1
M  END
$$$$
default_name
  -OEChem-02102213163D

 36 35  0     1  0  0  0  0  0999 V2000
   -4.2256   -3.6731    1.8584 H   0  0  0  0  0  0  0  0  0  0  0  0
   -4.2396   -2.6781    1.4144 C   0  0  0  0  0  0  0  0  0  0  0  0
   -4.9506   -2.0521    1.9514 H   0  0  0  0  0  0  0  0  0  0  0  0
   -4.5266   -2.7521    0.3674 H   0  0  0  0  0  0  0  0  0  0  0  0
   -2.8576   -2.0761    1.5184 C   0  0  0  0  0  0  0  0  0  0  0  0
   -1.9456   -2.7051    2.0404 O   0  0  0  0  0  0  0  0  0  0  0  0
   -2.6926   -0.8481    1.0174 N   0  0  0  0  0  0  0  0  0  0  0  0
   -3.4926   -0.3971    0.5954 H   0  0  0  0  0  0  0  0  0  0  0  0
   -1.4216   -0.1071    1.0434 C   0  0  1  0  0  0  0  0  0  0  0  0
   -0.7579   -0.5878    1.7640 H   0  0  0  0  0  0  0  0  0  0  0  0
   -0.7791   -0.1912   -0.3557 C   0  0  0  0  0  0  0  0  0  0  0  0
    0.0476   -0.9034   -0.3172 H   0  0  0  0  0  0  0  0  0  0  0  0
   -1.5185   -0.5678   -1.0659 H   0  0  0  0  0  0  0  0  0  0  0  0
   -0.2347    1.1532   -0.8601 C   0  0  0  0  0  0  0  0  0  0  0  0
    0.8540    1.1595   -0.7913 H   0  0  0  0  0  0  0  0  0  0  0  0
   -0.5308    1.2951   -1.8999 H   0  0  0  0  0  0  0  0  0  0  0  0
   -0.7988    2.2983   -0.0080 C   0  0  0  0  0  0  0  0  0  0  0  0
   -1.8895    2.2679   -0.0613 H   0  0  0  0  0  0  0  0  0  0  0  0
   -0.4920    2.1436    1.0292 H   0  0  0  0  0  0  0  0  0  0  0  0
   -0.3192    3.6159   -0.4734 N   0  3  0  0  0  0  0  0  0  0  0  0
    0.3358    3.6144   -1.2365 H   0  0  0  0  0  0  0  0  0  0  0  0
   -0.6693    4.7930    0.0173 C   0  0  0  0  0  0  0  0  0  0  0  0
   -1.5108    4.9094    1.0060 N   0  0  0  0  0  0  0  0  0  0  0  0
   -1.9059    4.0765    1.4055 H   0  0  0  0  0  0  0  0  0  0  0  0
   -1.7656    5.8103    1.3668 H   0  0  0  0  0  0  0  0  0  0  0  0
   -0.1736    5.8897   -0.4816 N   0  0  0  0  0  0  0  0  0  0  0  0
    0.4792    5.8508   -1.2453 H   0  0  0  0  0  0  0  0  0  0  0  0
   -0.4419    6.7807   -0.1064 H   0  0  0  0  0  0  0  0  0  0  0  0
   -1.6547    1.3413    1.4779 C   0  0  0  0  0  0  0  0  0  0  0  0
   -2.5654    1.9858    0.9716 O   0  0  0  0  0  0  0  0  0  0  0  0
   -0.8107    1.8504    2.3808 N   0  0  0  0  0  0  0  0  0  0  0  0
   -0.1136    1.2381    2.7719 H   0  0  0  0  0  0  0  0  0  0  0  0
   -0.8954    3.2155    2.9026 C   0  0  0  0  0  0  0  0  0  0  0  0
   -1.8299    3.3430    3.4532 H   0  0  0  0  0  0  0  0  0  0  0  0
   -0.0581    3.4194    3.5712 H   0  0  0  0  0  0  0  0  0  0  0  0
   -0.8804    3.9320    2.0784 H   0  0  0  0  0  0  0  0  0  0  0  0
  5  6  2  0  0  0  0
  5  7  1  0  0  0  0
  2  3  1  0  0  0  0
  2  4  1  0  0  0  0
  2  5  1  0  0  0  0
  1  2  1  0  0  0  0
 29 30  2  0  0  0  0
 29 31  1  0  0  0  0
 26 27  1  0  0  0  0
 26 28  1  0  0  0  0
 23 24  1  0  0  0  0
 23 25  1  0  0  0  0
 22 23  1  0  0  0  0
 22 26  1  0  0  0  0
 20 21  1  0  0  0  0
 20 22  2  0  0  0  0
 17 18  1  0  0  0  0
 17 19  1  0  0  0  0
 17 20  1  0  0  0  0
 14 15  1  0  0  0  0
 14 16  1  0  0  0  0
 14 17  1  0  0  0  0
 11 12  1  0  0  0  0
 11 13  1  0  0  0  0
 11 14  1  0  0  0  0
  9 10  1  0  0  0  0
  9 11  1  0  0  0  0
  9 29  1  0  0  0  0
  7  8  1  0  0  0  0
  7  9  1  0  0  0  0
 33 34  1  0  0  0  0
 33 35  1  0  0  0  0
 33 36  1  0  0  0  0
 31 32  1  0  0  0  0
 31 33  1  0  0  0  0
M  CHG  1  20   1
M  END
$$$$
default_name
  -OEChem-02102213163D

 36 35  0     1  0  0  0  0  0999 V2000
   -4.2256   -3.6731    1.8584 H   0  0  0  0  0  0  0  0  0  0  0  0
   -4.2396   -2.6781    1.4144 C   0  0  0  0  0  0  0  0  0  0  0  0
   -4.9506   -2.0521    1.9514 H   0  0  0  0  0  0  0  0  0  0  0  0
   -4.5266   -2.7521    0.3674 H   0  0  0  0  0  0  0  0  0  0  0  0
   -2.8576   -2.0761    1.5184 C   0  0  0  0  0  0  0  0  0  0  0  0
   -1.9456   -2.7051    2.0404 O   0  0  0  0  0  0  0  0  0  0  0  0
   -2.6926   -0.8481    1.0174 N   0  0  0  0  0  0  0  0  0  0  0  0
   -3.4926   -0.3971    0.5954 H   0  0  0  0  0  0  0  0  0  0  0  0
   -1.4216   -0.1071    1.0434 C   0  0  1  0  0  0  0  0  0  0  0  0
   -0.7579   -0.5878    1.7640 H   0  0  0  0  0  0  0  0  0  0  0  0
   -0.7791   -0.1912   -0.3557 C   0  0  0  0  0  0  0  0  0  0  0  0
    0.0476   -0.9034   -0.3172 H   0  0  0  0  0  0  0  0  0  0  0  0
   -1.5185   -0.5678   -1.0659 H   0  0  0  0  0  0  0  0  0  0  0  0
   -0.2347    1.1532   -0.8601 C   0  0  0  0  0  0  0  0  0  0  0  0
    0.8375    1.0715   -1.0439 H   0  0  0  0  0  0  0  0  0  0  0  0
   -0.7399    1.4216   -1.7884 H   0  0  0  0  0  0  0  0  0  0  0  0
   -0.4828    2.2446    0.1900 C   0  0  0  0  0  0  0  0  0  0  0  0
   -1.5558    2.3011    0.3873 H   0  0  0  0  0  0  0  0  0  0  0  0
    0.0309    1.9630    1.1122 H   0  0  0  0  0  0  0  0  0  0  0  0
    0.0048    3.5633   -0.2638 N   0  3  0  0  0  0  0  0  0  0  0  0
    0.4703    3.5906   -1.1549 H   0  0  0  0  0  0  0  0  0  0  0  0
   -0.1131    4.7073    0.3891 C   0  0  0  0  0  0  0  0  0  0  0  0
   -0.6983    4.7849    1.5513 N   0  0  0  0  0  0  0  0  0  0  0  0
   -1.0723    3.9475    1.9616 H   0  0  0  0  0  0  0  0  0  0  0  0
   -0.7791    5.6611    2.0338 H   0  0  0  0  0  0  0  0  0  0  0  0
    0.3617    5.8090   -0.1189 N   0  0  0  0  0  0  0  0  0  0  0  0
    0.8213    5.7994   -1.0131 H   0  0  0  0  0  0  0  0  0  0  0  0
    0.2700    6.6748    0.3798 H   0  0  0  0  0  0  0  0  0  0  0  0
   -1.6547    1.3413    1.4779 C   0  0  0  0  0  0  0  0  0  0  0  0
   -2.5654    1.9858    0.9716 O   0  0  0  0  0  0  0  0  0  0  0  0
   -0.8107    1.8504    2.3808 N   0  0  0  0  0  0  0  0  0  0  0  0
   -0.1136    1.2381    2.7719 H   0  0  0  0  0  0  0  0  0  0  0  0
   -0.8954    3.2155    2.9026 C   0  0  0  0  0  0  0  0  0  0  0  0
   -1.8299    3.3430    3.4532 H   0  0  0  0  0  0  0  0  0  0  0  0
   -0.0581    3.4194    3.5712 H   0  0  0  0  0  0  0  0  0  0  0  0
   -0.8804    3.9320    2.0784 H   0  0  0  0  0  0  0  0  0  0  0  0
  5  6  2  0  0  0  0
  5  7  1  0  0  0  0
  2  3  1  0  0  0  0
  2  4  1  0  0  0  0
  2  5  1  0  0  0  0
  1  2  1  0  0  0  0
 29 30  2  0  0  0  0
 29 31  1  0  0  0  0
 26 27  1  0  0  0  0
 26 28  1  0  0  0  0
 23 24  1  0  0  0  0
 23 25  1  0  0  0  0
 22 23  1  0  0  0  0
 22 26  1  0  0  0  0
 20 21  1  0  0  0  0
 20 22  2  0  0  0  0
 17 18  1  0  0  0  0
 17 19  1  0  0  0  0
 17 20  1  0  0  0  0
 14 15  1  0  0  0  0
 14 16  1  0  0  0  0
 14 17  1  0  0  0  0
 11 12  1  0  0  0  0
 11 13  1  0  0  0  0
 11 14  1  0  0  0  0
  9 10  1  0  0  0  0
  9 11  1  0  0  0  0
  9 29  1  0  0  0  0
  7  8  1  0  0  0  0
  7  9  1  0  0  0  0
 33 34  1  0  0  0  0
 33 35  1  0  0  0  0
 33 36  1  0  0  0  0
 31 32  1  0  0  0  0
 31 33  1  0  0  0  0
M  CHG  1  20   1
M  END
$$$$
default_name
  -OEChem-02102213163D

 36 35  0     1  0  0  0  0  0999 V2000
   -4.2256   -3.6731    1.8584 H   0  0  0  0  0  0  0  0  0  0  0  0
   -4.2396   -2.6781    1.4144 C   0  0  0  0  0  0  0  0  0  0  0  0
   -4.9506   -2.0521    1.9514 H   0  0  0  0  0  0  0  0  0  0  0  0
   -4.5266   -2.7521    0.3674 H   0  0  0  0  0  0  0  0  0  0  0  0
   -2.8576   -2.0761    1.5184 C   0  0  0  0  0  0  0  0  0  0  0  0
   -1.9456   -2.7051    2.0404 O   0  0  0  0  0  0  0  0  0  0  0  0
   -2.6926   -0.8481    1.0174 N   0  0  0  0  0  0  0  0  0  0  0  0
   -3.4926   -0.3971    0.5954 H   0  0  0  0  0  0  0  0  0  0  0  0
   -1.4216   -0.1071    1.0434 C   0  0  1  0  0  0  0  0  0  0  0  0
   -0.7579   -0.5878    1.7640 H   0  0  0  0  0  0  0  0  0  0  0  0
   -0.7791   -0.1912   -0.3557 C   0  0  0  0  0  0  0  0  0  0  0  0
    0.0476   -0.9034   -0.3172 H   0  0  0  0  0  0  0  0  0  0  0  0
   -1.5185   -0.5678   -1.0659 H   0  0  0  0  0  0  0  0  0  0  0  0
   -0.2347    1.1532   -0.8601 C   0  0  0  0  0  0  0  0  0  0  0  0
    0.7569    1.0110   -1.2922 H   0  0  0  0  0  0  0  0  0  0  0  0
   -0.9059    1.5514   -1.6217 H   0  0  0  0  0  0  0  0  0  0  0  0
   -0.1373    2.1478    0.3048 C   0  0  0  0  0  0  0  0  0  0  0  0
   -1.1290    2.2636    0.7481 H   0  0  0  0  0  0  0  0  0  0  0  0
    0.5394    1.7364    1.0574 H   0  0  0  0  0  0  0  0  0  0  0  0
    0.3608    3.4657   -0.1396 N   0  3  0  0  0  0  0  0  0  0  0  0
    0.6167    3.5486   -1.1087 H   0  0  0  0  0  0  0  0  0  0  0  0
    0.5011    4.5431    0.6144 C   0  0  0  0  0  0  0  0  0  0  0  0
    0.1995    4.5456    1.8826 N   0  0  0  0  0  0  0  0  0  0  0  0
   -0.1521    3.7011    2.2980 H   0  0  0  0  0  0  0  0  0  0  0  0
    0.3122    5.3718    2.4408 H   0  0  0  0  0  0  0  0  0  0  0  0
    0.9540    5.6523    0.1027 N   0  0  0  0  0  0  0  0  0  0  0  0
    1.1999    5.6994   -0.8711 H   0  0  0  0  0  0  0  0  0  0  0  0
    1.0588    6.4673    0.6783 H   0  0  0  0  0  0  0  0  0  0  0  0
   -1.6547    1.3413    1.4779 C   0  0  0  0  0  0  0  0  0  0  0  0
   -2.5654    1.9858    0.9716 O   0  0  0  0  0  0  0  0  0  0  0  0
   -0.8107    1.8504    2.3808 N   0  0  0  0  0  0  0  0  0  0  0  0
   -0.1136    1.2381    2.7719 H   0  0  0  0  0  0  0  0  0  0  0  0
   -0.8954    3.2155    2.9026 C   0  0  0  0  0  0  0  0  0  0  0  0
   -1.8299    3.3430    3.4532 H   0  0  0  0  0  0  0  0  0  0  0  0
   -0.0581    3.4194    3.5712 H   0  0  0  0  0  0  0  0  0  0  0  0
   -0.8804    3.9320    2.0784 H   0  0  0  0  0  0  0  0  0  0  0  0
  5  6  2  0  0  0  0
  5  7  1  0  0  0  0
  2  3  1  0  0  0  0
  2  4  1  0  0  0  0
  2  5  1  0  0  0  0
  1  2  1  0  0  0  0
 29 30  2  0  0  0  0
 29 31  1  0  0  0  0
 26 27  1  0  0  0  0
 26 28  1  0  0  0  0
 23 24  1  0  0  0  0
 23 25  1  0  0  0  0
 22 23  1  0  0  0  0
 22 26  1  0  0  0  0
 20 21  1  0  0  0  0
 20 22  2  0  0  0  0
 17 18  1  0  0  0  0
 17 19  1  0  0  0  0
 17 20  1  0  0  0  0
 14 15  1  0  0  0  0
 14 16  1  0  0  0  0
 14 17  1  0  0  0  0
 11 12  1  0  0  0  0
 11 13  1  0  0  0  0
 11 14  1  0  0  0  0
  9 10  1  0  0  0  0
  9 11  1  0  0  0  0
  9 29  1  0  0  0  0
  7  8  1  0  0  0  0
  7  9  1  0  0  0  0
 33 34  1  0  0  0  0
 33 35  1  0  0  0  0
 33 36  1  0  0  0  0
 31 32  1  0  0  0  0
 31 33  1  0  0  0  0
M  CHG  1  20   1
M  END
$$$$
default_name
  -OEChem-02102213163D

 36 35  0     1  0  0  0  0  0999 V2000
   -4.2256   -3.6731    1.8584 H   0  0  0  0  0  0  0  0  0  0  0  0
   -4.2396   -2.6781    1.4144 C   0  0  0  0  0  0  0  0  0  0  0  0
   -4.9506   -2.0521    1.9514 H   0  0  0  0  0  0  0  0  0  0  0  0
   -4.5266   -2.7521    0.3674 H   0  0  0  0  0  0  0  0  0  0  0  0
   -2.8576   -2.0761    1.5184 C   0  0  0  0  0  0  0  0  0  0  0  0
   -1.9456   -2.7051    2.0404 O   0  0  0  0  0  0  0  0  0  0  0  0
   -2.6926   -0.8481    1.0174 N   0  0  0  0  0  0  0  0  0  0  0  0
   -3.4926   -0.3971    0.5954 H   0  0  0  0  0  0  0  0  0  0  0  0
   -1.4216   -0.1071    1.0434 C   0  0  1  0  0  0  0  0  0  0  0  0
   -0.7579   -0.5878    1.7640 H   0  0  0  0  0  0  0  0  0  0  0  0
   -0.7791   -0.1912   -0.3557 C   0  0  0  0  0  0  0  0  0  0  0  0
    0.0476   -0.9034   -0.3172 H   0  0  0  0  0  0  0  0  0  0  0  0
   -1.5185   -0.5678   -1.0659 H   0  0  0  0  0  0  0  0  0  0  0  0
   -0.2347    1.1532   -0.8601 C   0  0  0  0  0  0  0  0  0  0  0  0
    0.6175    0.9822   -1.5193 H   0  0  0  0  0  0  0  0  0  0  0  0
   -1.0174    1.6755   -1.4112 H   0  0  0  0  0  0  0  0  0  0  0  0
    0.2142    2.0143    0.3285 C   0  0  0  0  0  0  0  0  0  0  0  0
   -0.6382    2.1580    0.9964 H   0  0  0  0  0  0  0  0  0  0  0  0
    0.9990    1.4794    0.8685 H   0  0  0  0  0  0  0  0  0  0  0  0
    0.7245    3.3298   -0.1093 N   0  3  0  0  0  0  0  0  0  0  0  0
    0.7650    3.4914   -1.1010 H   0  0  0  0  0  0  0  0  0  0  0  0
    1.1315    4.3116    0.6778 C   0  0  0  0  0  0  0  0  0  0  0  0
    1.1214    4.2077    1.9772 N   0  0  0  0  0  0  0  0  0  0  0  0
    0.7920    3.3539    2.3918 H   0  0  0  0  0  0  0  0  0  0  0  0
    1.4340    4.9623    2.5602 H   0  0  0  0  0  0  0  0  0  0  0  0
    1.5630    5.4302    0.1682 N   0  0  0  0  0  0  0  0  0  0  0  0
    1.5893    5.5575   -0.8289 H   0  0  0  0  0  0  0  0  0  0  0  0
    1.8707    6.1725    0.7689 H   0  0  0  0  0  0  0  0  0  0  0  0
   -1.6547    1.3413    1.4779 C   0  0  0  0  0  0  0  0  0  0  0  0
   -2.5654    1.9858    0.9716 O   0  0  0  0  0  0  0  0  0  0  0  0
   -0.8107    1.8504    2.3808 N   0  0  0  0  0  0  0  0  0  0  0  0
   -0.1136    1.2381    2.7719 H   0  0  0  0  0  0  0  0  0  0  0  0
   -0.8954    3.2155    2.9026 C   0  0  0  0  0  0  0  0  0  0  0  0
   -1.8299    3.3430    3.4532 H   0  0  0  0  0  0  0  0  0  0  0  0
   -0.0581    3.4194    3.5712 H   0  0  0  0  0  0  0  0  0  0  0  0
   -0.8804    3.9320    2.0784 H   0  0  0  0  0  0  0  0  0  0  0  0
  5  6  2  0  0  0  0
  5  7  1  0  0  0  0
  2  3  1  0  0  0  0
  2  4  1  0  0  0  0
  2  5  1  0  0  0  0
  1  2  1  0  0  0  0
 29 30  2  0  0  0  0
 29 31  1  0  0  0  0
 26 27  1  0  0  0  0
 26 28  1  0  0  0  0
 23 24  1  0  0  0  0
 23 25  1  0  0  0  0
 22 23  1  0  0  0  0
 22 26  1  0  0  0  0
 20 21  1  0  0  0  0
 20 22  2  0  0  0  0
 17 18  1  0  0  0  0
 17 19  1  0  0  0  0
 17 20  1  0  0  0  0
 14 15  1  0  0  0  0
 14 16  1  0  0  0  0
 14 17  1  0  0  0  0
 11 12  1  0  0  0  0
 11 13  1  0  0  0  0
 11 14  1  0  0  0  0
  9 10  1  0  0  0  0
  9 11  1  0  0  0  0
  9 29  1  0  0  0  0
  7  8  1  0  0  0  0
  7  9  1  0  0  0  0
 33 34  1  0  0  0  0
 33 35  1  0  0  0  0
 33 36  1  0  0  0  0
 31 32  1  0  0  0  0
 31 33  1  0  0  0  0
M  CHG  1  20   1
M  END
$$$$
default_name
  -OEChem-02102213163D

 36 35  0     1  0  0  0  0  0999 V2000
   -4.2256   -3.6731    1.8584 H   0  0  0  0  0  0  0  0  0  0  0  0
   -4.2396   -2.6781    1.4144 C   0  0  0  0  0  0  0  0  0  0  0  0
   -4.9506   -2.0521    1.9514 H   0  0  0  0  0  0  0  0  0  0  0  0
   -4.5266   -2.7521    0.3674 H   0  0  0  0  0  0  0  0  0  0  0  0
   -2.8576   -2.0761    1.5184 C   0  0  0  0  0  0  0  0  0  0  0  0
   -1.9456   -2.7051    2.0404 O   0  0  0  0  0  0  0  0  0  0  0  0
   -2.6926   -0.8481    1.0174 N   0  0  0  0  0  0  0  0  0  0  0  0
   -3.4926   -0.3971    0.5954 H   0  0  0  0  0  0  0  0  0  0  0  0
   -1.4216   -0.1071    1.0434 C   0  0  1  0  0  0  0  0  0  0  0  0
   -0.7579   -0.5878    1.7640 H   0  0  0  0  0  0  0  0  0  0  0  0
   -0.7791   -0.1912   -0.3557 C   0  0  0  0  0  0  0  0  0  0  0  0
    0.0476   -0.9034   -0.3172 H   0  0  0  0  0  0  0  0  0  0  0  0
   -1.5185   -0.5678   -1.0659 H   0  0  0  0  0  0  0  0  0  0  0  0
   -0.2347    1.1532   -0.8601 C   0  0  0  0  0  0  0  0  0  0  0  0
    0.4290    0.9870   -1.7098 H   0  0  0  0  0  0  0  0  0  0  0  0
   -1.0668    1.7856   -1.1712 H   0  0  0  0  0  0  0  0  0  0  0  0
    0.5477    1.8533    0.2594 C   0  0  0  0  0  0  0  0  0  0  0  0
   -0.1169    1.9915    1.1154 H   0  0  0  0  0  0  0  0  0  0  0  0
    1.3782    1.2094    0.5583 H   0  0  0  0  0  0  0  0  0  0  0  0
    1.0712    3.1648   -0.1748 N   0  3  0  0  0  0  0  0  0  0  0  0
    0.9051    3.4229   -1.1325 H   0  0  0  0  0  0  0  0  0  0  0  0
    1.7351    4.0285    0.5750 C   0  0  0  0  0  0  0  0  0  0  0  0
    2.0046    3.7943    1.8287 N   0  0  0  0  0  0  0  0  0  0  0  0
    1.6957    2.9297    2.2366 H   0  0  0  0  0  0  0  0  0  0  0  0
    2.5098    4.4604    2.3837 H   0  0  0  0  0  0  0  0  0  0  0  0
    2.1472    5.1579    0.0730 N   0  0  0  0  0  0  0  0  0  0  0  0
    1.9629    5.3835   -0.8893 H   0  0  0  0  0  0  0  0  0  0  0  0
    2.6504    5.8104    0.6454 H   0  0  0  0  0  0  0  0  0  0  0  0
   -1.6547    1.3413    1.4779 C   0  0  0  0  0  0  0  0  0  0  0  0
   -2.5654    1.9858    0.9716 O   0  0  0  0  0  0  0  0  0  0  0  0
   -0.8107    1.8504    2.3808 N   0  0  0  0  0  0  0  0  0  0  0  0
   -0.1136    1.2381    2.7719 H   0  0  0  0  0  0  0  0  0  0  0  0
   -0.8954    3.2155    2.9026 C   0  0  0  0  0  0  0  0  0  0  0  0
   -1.8299    3.3430    3.4532 H   0  0  0  0  0  0  0  0  0  0  0  0
   -0.0581    3.4194    3.5712 H   0  0  0  0  0  0  0  0  0  0  0  0
   -0.8804    3.9320    2.0784 H   0  0  0  0  0  0  0  0  0  0  0  0
  5  6  2  0  0  0  0
  5  7  1  0  0  0  0
  2  3  1  0  0  0  0
  2  4  1  0  0  0  0
  2  5  1  0  0  0  0
  1  2  1  0  0  0  0
 29 30  2  0  0  0  0
 29 31  1  0  0  0  0
 26 27  1  0  0  0  0
 26 28  1  0  0  0  0
 23 24  1  0  0  0  0
 23 25  1  0  0  0  0
 22 23  1  0  0  0  0
 22 26  1  0  0  0  0
 20 21  1  0  0  0  0
 20 22  2  0  0  0  0
 17 18  1  0  0  0  0
 17 19  1  0  0  0  0
 17 20  1  0  0  0  0
 14 15  1  0  0  0  0
 14 16  1  0  0  0  0
 14 17  1  0  0  0  0
 11 12  1  0  0  0  0
 11 13  1  0  0  0  0
 11 14  1  0  0  0  0
  9 10  1  0  0  0  0
  9 11  1  0  0  0  0
  9 29  1  0  0  0  0
  7  8  1  0  0  0  0
  7  9  1  0  0  0  0
 33 34  1  0  0  0  0
 33 35  1  0  0  0  0
 33 36  1  0  0  0  0
 31 32  1  0  0  0  0
 31 33  1  0  0  0  0
M  CHG  1  20   1
M  END
$$$$
default_name
  -OEChem-02102213163D

 36 35  0     1  0  0  0  0  0999 V2000
   -4.2256   -3.6731    1.8584 H   0  0  0  0  0  0  0  0  0  0  0  0
   -4.2396   -2.6781    1.4144 C   0  0  0  0  0  0  0  0  0  0  0  0
   -4.9506   -2.0521    1.9514 H   0  0  0  0  0  0  0  0  0  0  0  0
   -4.5266   -2.7521    0.3674 H   0  0  0  0  0  0  0  0  0  0  0  0
   -2.8576   -2.0761    1.5184 C   0  0  0  0  0  0  0  0  0  0  0  0
   -1.9456   -2.7051    2.0404 O   0  0  0  0  0  0  0  0  0  0  0  0
   -2.6926   -0.8481    1.0174 N   0  0  0  0  0  0  0  0  0  0  0  0
   -3.4926   -0.3971    0.5954 H   0  0  0  0  0  0  0  0  0  0  0  0
   -1.4216   -0.1071    1.0434 C   0  0  1  0  0  0  0  0  0  0  0  0
   -0.7579   -0.5878    1.7640 H   0  0  0  0  0  0  0  0  0  0  0  0
   -0.7791   -0.1912   -0.3557 C   0  0  0  0  0  0  0  0  0  0  0  0
    0.0476   -0.9034   -0.3172 H   0  0  0  0  0  0  0  0  0  0  0  0
   -1.5185   -0.5678   -1.0659 H   0  0  0  0  0  0  0  0  0  0  0  0
   -0.2347    1.1532   -0.8601 C   0  0  0  0  0  0  0  0  0  0  0  0
    0.2042    1.0253   -1.8506 H   0  0  0  0  0  0  0  0  0  0  0  0
   -1.0508    1.8741   -0.9180 H   0  0  0  0  0  0  0  0  0  0  0  0
    0.8405    1.6758    0.1024 C   0  0  0  0  0  0  0  0  0  0  0  0
    0.3995    1.7755    1.0969 H   0  0  0  0  0  0  0  0  0  0  0  0
    1.6513    0.9449    0.1479 H   0  0  0  0  0  0  0  0  0  0  0  0
    1.3771    2.9820   -0.3318 N   0  3  0  0  0  0  0  0  0  0  0  0
    1.0274    3.3476   -1.2010 H   0  0  0  0  0  0  0  0  0  0  0  0
    2.2707    3.7133    0.3129 C   0  0  0  0  0  0  0  0  0  0  0  0
    2.7889    3.3335    1.4472 N   0  0  0  0  0  0  0  0  0  0  0  0
    2.4973    2.4573    1.8431 H   0  0  0  0  0  0  0  0  0  0  0  0
    3.4663    3.9003    1.9234 H   0  0  0  0  0  0  0  0  0  0  0  0
    2.6668    4.8540   -0.1762 N   0  0  0  0  0  0  0  0  0  0  0  0
    2.2953    5.1892   -1.0484 H   0  0  0  0  0  0  0  0  0  0  0  0
    3.3448    5.4056    0.3162 H   0  0  0  0  0  0  0  0  0  0  0  0
   -1.6547    1.3413    1.4779 C   0  0  0  0  0  0  0  0  0  0  0  0
   -2.5654    1.9858    0.9716 O   0  0  0  0  0  0  0  0  0  0  0  0
   -0.8107    1.8504    2.3808 N   0  0  0  0  0  0  0  0  0  0  0  0
   -0.1136    1.2381    2.7719 H   0  0  0  0  0  0  0  0  0  0  0  0
   -0.8954    3.2155    2.9026 C   0  0  0  0  0  0  0  0  0  0  0  0
   -1.8299    3.3430    3.4532 H   0  0  0  0  0  0  0  0  0  0  0  0
   -0.0581    3.4194    3.5712 H   0  0  0  0  0  0  0  0  0  0  0  0
   -0.8804    3.9320    2.0784 H   0  0  0  0  0  0  0  0  0  0  0  0
  5  6  2  0  0  0  0
  5  7  1  0  0  0  0
  2  3  1  0  0  0  0
  2  4  1  0  0  0  0
  2  5  1  0  0  0  0
  1  2  1  0  0  0  0
 29 30  2  0  0  0  0
 29 31  1  0  0  0  0
 26 27  1  0  0  0  0
 26 28  1  0  0  0  0
 23 24  1  0  0  0  0
 23 25  1  0  0  0  0
 22 23  1  0  0  0  0
 22 26  1  0  0  0  0
 20 21  1  0  0  0  0
 20 22  2  0  0  0  0
 17 18  1  0  0  0  0
 17 19  1  0  0  0  0
 17 20  1  0  0  0  0
 14 15  1  0  0  0  0
 14 16  1  0  0  0  0
 14 17  1  0  0  0  0
 11 12  1  0  0  0  0
 11 13  1  0  0  0  0
 11 14  1  0  0  0  0
  9 10  1  0  0  0  0
  9 11  1  0  0  0  0
  9 29  1  0  0  0  0
  7  8  1  0  0  0  0
  7  9  1  0  0  0  0
 33 34  1  0  0  0  0
 33 35  1  0  0  0  0
 33 36  1  0  0  0  0
 31 32  1  0  0  0  0
 31 33  1  0  0  0  0
M  CHG  1  20   1
M  END
$$$$
default_name
  -OEChem-02102213163D

 36 35  0     1  0  0  0  0  0999 V2000
   -4.2256   -3.6731    1.8584 H   0  0  0  0  0  0  0  0  0  0  0  0
   -4.2396   -2.6781    1.4144 C   0  0  0  0  0  0  0  0  0  0  0  0
   -4.9506   -2.0521    1.9514 H   0  0  0  0  0  0  0  0  0  0  0  0
   -4.5266   -2.7521    0.3674 H   0  0  0  0  0  0  0  0  0  0  0  0
   -2.8576   -2.0761    1.5184 C   0  0  0  0  0  0  0  0  0  0  0  0
   -1.9456   -2.7051    2.0404 O   0  0  0  0  0  0  0  0  0  0  0  0
   -2.6926   -0.8481    1.0174 N   0  0  0  0  0  0  0  0  0  0  0  0
   -3.4926   -0.3971    0.5954 H   0  0  0  0  0  0  0  0  0  0  0  0
   -1.4216   -0.1071    1.0434 C   0  0  1  0  0  0  0  0  0  0  0  0
   -0.7579   -0.5878    1.7640 H   0  0  0  0  0  0  0  0  0  0  0  0
   -0.7791   -0.1912   -0.3557 C   0  0  0  0  0  0  0  0  0  0  0  0
    0.0476   -0.9034   -0.3172 H   0  0  0  0  0  0  0  0  0  0  0  0
   -1.5185   -0.5678   -1.0659 H   0  0  0  0  0  0  0  0  0  0  0  0
   -0.2347    1.1532   -0.8601 C   0  0  0  0  0  0  0  0  0  0  0  0
   -0.0416    1.0942   -1.9321 H   0  0  0  0  0  0  0  0  0  0  0  0
   -0.9705    1.9350   -0.6690 H   0  0  0  0  0  0  0  0  0  0  0  0
    1.0727    1.4938   -0.1319 C   0  0  0  0  0  0  0  0  0  0  0  0
    0.8758    1.5245    0.9422 H   0  0  0  0  0  0  0  0  0  0  0  0
    1.7996    0.7038   -0.3346 H   0  0  0  0  0  0  0  0  0  0  0  0
    1.6215    2.7938   -0.5696 N   0  3  0  0  0  0  0  0  0  0  0  0
    1.1237    3.2708   -1.3017 H   0  0  0  0  0  0  0  0  0  0  0  0
    2.7019    3.3873   -0.0905 C   0  0  0  0  0  0  0  0  0  0  0  0
    3.4209    2.8568    0.8587 N   0  0  0  0  0  0  0  0  0  0  0  0
    3.1424    1.9691    1.2379 H   0  0  0  0  0  0  0  0  0  0  0  0
    4.2383    3.3202    1.2107 H   0  0  0  0  0  0  0  0  0  0  0  0
    3.0863    4.5391   -0.5626 N   0  0  0  0  0  0  0  0  0  0  0  0
    2.5639    4.9879   -1.2951 H   0  0  0  0  0  0  0  0  0  0  0  0
    3.9065    4.9858   -0.1962 H   0  0  0  0  0  0  0  0  0  0  0  0
   -1.6547    1.3413    1.4779 C   0  0  0  0  0  0  0  0  0  0  0  0
   -2.5654    1.9858    0.9716 O   0  0  0  0  0  0  0  0  0  0  0  0
   -0.8107    1.8504    2.3808 N   0  0  0  0  0  0  0  0  0  0  0  0
   -0.1136    1.2381    2.7719 H   0  0  0  0  0  0  0  0  0  0  0  0
   -0.8954    3.2155    2.9026 C   0  0  0  0  0  0  0  0  0  0  0  0
   -1.8299    3.3430    3.4532 H   0  0  0  0  0  0  0  0  0  0  0  0
   -0.0581    3.4194    3.5712 H   0  0  0  0  0  0  0  0  0  0  0  0
   -0.8804    3.9320    2.0784 H   0  0  0  0  0  0  0  0  0  0  0  0
  5  6  2  0  0  0  0
  5  7  1  0  0  0  0
  2  3  1  0  0  0  0
  2  4  1  0  0  0  0
  2  5  1  0  0  0  0
  1  2  1  0  0  0  0
 29 30  2  0  0  0  0
 29 31  1  0  0  0  0
 26 27  1  0  0  0  0
 26 28  1  0  0  0  0
 23 24  1  0  0  0  0
 23 25  1  0  0  0  0
 22 23  1  0  0  0  0
 22 26  1  0  0  0  0
 20 21  1  0  0  0  0
 20 22  2  0  0  0  0
 17 18  1  0  0  0  0
 17 19  1  0  0  0  0
 17 20  1  0  0  0  0
 14 15  1  0  0  0  0
 14 16  1  0  0  0  0
 14 17  1  0  0  0  0
 11 12  1  0  0  0  0
 11 13  1  0  0  0  0
 11 14  1  0  0  0  0
  9 10  1  0  0  0  0
  9 11  1  0  0  0  0
  9 29  1  0  0  0  0
  7  8  1  0  0  0  0
  7  9  1  0  0  0  0
 33 34  1  0  0  0  0
 33 35  1  0  0  0  0
 33 36  1  0  0  0  0
 31 32  1  0  0  0  0
 31 33  1  0  0  0  0
M  CHG  1  20   1
M  END
$$$$
default_name
  -OEChem-02102213163D

 36 35  0     1  0  0  0  0  0999 V2000
   -4.2256   -3.6731    1.8584 H   0  0  0  0  0  0  0  0  0  0  0  0
   -4.2396   -2.6781    1.4144 C   0  0  0  0  0  0  0  0  0  0  0  0
   -4.9506   -2.0521    1.9514 H   0  0  0  0  0  0  0  0  0  0  0  0
   -4.5266   -2.7521    0.3674 H   0  0  0  0  0  0  0  0  0  0  0  0
   -2.8576   -2.0761    1.5184 C   0  0  0  0  0  0  0  0  0  0  0  0
   -1.9456   -2.7051    2.0404 O   0  0  0  0  0  0  0  0  0  0  0  0
   -2.6926   -0.8481    1.0174 N   0  0  0  0  0  0  0  0  0  0  0  0
   -3.4926   -0.3971    0.5954 H   0  0  0  0  0  0  0  0  0  0  0  0
   -1.4216   -0.1071    1.0434 C   0  0  1  0  0  0  0  0  0  0  0  0
   -0.7579   -0.5878    1.7640 H   0  0  0  0  0  0  0  0  0  0  0  0
   -0.7791   -0.1912   -0.3557 C   0  0  0  0  0  0  0  0  0  0  0  0
    0.0476   -0.9034   -0.3172 H   0  0  0  0  0  0  0  0  0  0  0  0
   -1.5185   -0.5678   -1.0659 H   0  0  0  0  0  0  0  0  0  0  0  0
   -0.2347    1.1532   -0.8601 C   0  0  0  0  0  0  0  0  0  0  0  0
   -0.2916    1.1892   -1.9489 H   0  0  0  0  0  0  0  0  0  0  0  0
   -0.8313    1.9641   -0.4411 H   0  0  0  0  0  0  0  0  0  0  0  0
    1.2284    1.3199   -0.4275 C   0  0  0  0  0  0  0  0  0  0  0  0
    1.2794    1.2559    0.6618 H   0  0  0  0  0  0  0  0  0  0  0  0
    1.8130    0.5025   -0.8564 H   0  0  0  0  0  0  0  0  0  0  0  0
    1.7877    2.6131   -0.8719 N   0  3  0  0  0  0  0  0  0  0  0  0
    1.1874    3.1977   -1.4279 H   0  0  0  0  0  0  0  0  0  0  0  0
    2.9993    3.0727   -0.6078 C   0  0  0  0  0  0  0  0  0  0  0  0
    3.8575    2.3965    0.1033 N   0  0  0  0  0  0  0  0  0  0  0  0
    3.5868    1.4981    0.4624 H   0  0  0  0  0  0  0  0  0  0  0  0
    4.7732    2.7597    0.2941 H   0  0  0  0  0  0  0  0  0  0  0  0
    3.3773    4.2347   -1.0597 N   0  0  0  0  0  0  0  0  0  0  0  0
    2.7502    4.7932   -1.6128 H   0  0  0  0  0  0  0  0  0  0  0  0
    4.2973    4.5796   -0.8570 H   0  0  0  0  0  0  0  0  0  0  0  0
   -1.6547    1.3413    1.4779 C   0  0  0  0  0  0  0  0  0  0  0  0
   -2.5654    1.9858    0.9716 O   0  0  0  0  0  0  0  0  0  0  0  0
   -0.8107    1.8504    2.3808 N   0  0  0  0  0  0  0  0  0  0  0  0
   -0.1136    1.2381    2.7719 H   0  0  0  0  0  0  0  0  0  0  0  0
   -0.8954    3.2155    2.9026 C   0  0  0  0  0  0  0  0  0  0  0  0
   -1.8299    3.3430    3.4532 H   0  0  0  0  0  0  0  0  0  0  0  0
   -0.0581    3.4194    3.5712 H   0  0  0  0  0  0  0  0  0  0  0  0
   -0.8804    3.9320    2.0784 H   0  0  0  0  0  0  0  0  0  0  0  0
  5  6  2  0  0  0  0
  5  7  1  0  0  0  0
  2  3  1  0  0  0  0
  2  4  1  0  0  0  0
  2  5  1  0  0  0  0
  1  2  1  0  0  0  0
 29 30  2  0  0  0  0
 29 31  1  0  0  0  0
 26 27  1  0  0  0  0
 26 28  1  0  0  0  0
 23 24  1  0  0  0  0
 23 25  1  0  0  0  0
 22 23  1  0  0  0  0
 22 26  1  0  0  0  0
 20 21  1  0  0  0  0
 20 22  2  0  0  0  0
 17 18  1  0  0  0  0
 17 19  1  0  0  0  0
 17 20  1  0  0  0  0
 14 15  1  0  0  0  0
 14 16  1  0  0  0  0
 14 17  1  0  0  0  0
 11 12  1  0  0  0  0
 11 13  1  0  0  0  0
 11 14  1  0  0  0  0
  9 10  1  0  0  0  0
  9 11  1  0  0  0  0
  9 29  1  0  0  0  0
  7  8  1  0  0  0  0
  7  9  1  0  0  0  0
 33 34  1  0  0  0  0
 33 35  1  0  0  0  0
 33 36  1  0  0  0  0
 31 32  1  0  0  0  0
 31 33  1  0  0  0  0
M  CHG  1  20   1
M  END
$$$$
default_name
  -OEChem-02102213163D

 36 35  0     1  0  0  0  0  0999 V2000
   -4.2256   -3.6731    1.8584 H   0  0  0  0  0  0  0  0  0  0  0  0
   -4.2396   -2.6781    1.4144 C   0  0  0  0  0  0  0  0  0  0  0  0
   -4.9506   -2.0521    1.9514 H   0  0  0  0  0  0  0  0  0  0  0  0
   -4.5266   -2.7521    0.3674 H   0  0  0  0  0  0  0  0  0  0  0  0
   -2.8576   -2.0761    1.5184 C   0  0  0  0  0  0  0  0  0  0  0  0
   -1.9456   -2.7051    2.0404 O   0  0  0  0  0  0  0  0  0  0  0  0
   -2.6926   -0.8481    1.0174 N   0  0  0  0  0  0  0  0  0  0  0  0
   -3.4926   -0.3971    0.5954 H   0  0  0  0  0  0  0  0  0  0  0  0
   -1.4216   -0.1071    1.0434 C   0  0  1  0  0  0  0  0  0  0  0  0
   -0.7579   -0.5878    1.7640 H   0  0  0  0  0  0  0  0  0  0  0  0
   -0.7791   -0.1912   -0.3557 C   0  0  0  0  0  0  0  0  0  0  0  0
    0.0476   -0.9034   -0.3172 H   0  0  0  0  0  0  0  0  0  0  0  0
   -1.5185   -0.5678   -1.0659 H   0  0  0  0  0  0  0  0  0  0  0  0
   -0.2347    1.1532   -0.8601 C   0  0  0  0  0  0  0  0  0  0  0  0
   -0.5289    1.3037   -1.8997 H   0  0  0  0  0  0  0  0  0  0  0  0
   -0.6427    1.9596   -0.2498 H   0  0  0  0  0  0  0  0  0  0  0  0
    1.2971    1.1657   -0.7643 C   0  0  0  0  0  0  0  0  0  0  0  0
    1.5829    0.9878    0.2749 H   0  0  0  0  0  0  0  0  0  0  0  0
    1.6906    0.3549   -1.3819 H   0  0  0  0  0  0  0  0  0  0  0  0
    1.8644    2.4521   -1.2181 N   0  3  0  0  0  0  0  0  0  0  0  0
    1.2141    3.1332   -1.5709 H   0  0  0  0  0  0  0  0  0  0  0  0
    3.1427    2.7911   -1.2037 C   0  0  0  0  0  0  0  0  0  0  0  0
    4.0689    1.9841   -0.7675 N   0  0  0  0  0  0  0  0  0  0  0  0
    3.8003    1.0765   -0.4305 H   0  0  0  0  0  0  0  0  0  0  0  0
    5.0345    2.2569   -0.7638 H   0  0  0  0  0  0  0  0  0  0  0  0
    3.5198    3.9616   -1.6338 N   0  0  0  0  0  0  0  0  0  0  0  0
    2.8417    4.6185   -1.9797 H   0  0  0  0  0  0  0  0  0  0  0  0
    4.4905    4.2147   -1.6211 H   0  0  0  0  0  0  0  0  0  0  0  0
   -1.6547    1.3413    1.4779 C   0  0  0  0  0  0  0  0  0  0  0  0
   -2.5654    1.9858    0.9716 O   0  0  0  0  0  0  0  0  0  0  0  0
   -0.8107    1.8504    2.3808 N   0  0  0  0  0  0  0  0  0  0  0  0
   -0.1136    1.2381    2.7719 H   0  0  0  0  0  0  0  0  0  0  0  0
   -0.8954    3.2155    2.9026 C   0  0  0  0  0  0  0  0  0  0  0  0
   -1.8299    3.3430    3.4532 H   0  0  0  0  0  0  0  0  0  0  0  0
   -0.0581    3.4194    3.5712 H   0  0  0  0  0  0  0  0  0  0  0  0
   -0.8804    3.9320    2.0784 H   0  0  0  0  0  0  0  0  0  0  0  0
  5  6  2  0  0  0  0
  5  7  1  0  0  0  0
  2  3  1  0  0  0  0
  2  4  1  0  0  0  0
  2  5  1  0  0  0  0
  1  2  1  0  0  0  0
 29 30  2  0  0  0  0
 29 31  1  0  0  0  0
 26 27  1  0  0  0  0
 26 28  1  0  0  0  0
 23 24  1  0  0  0  0
 23 25  1  0  0  0  0
 22 23  1  0  0  0  0
 22 26  1  0  0  0  0
 20 21  1  0  0  0  0
 20 22  2  0  0  0  0
 17 18  1  0  0  0  0
 17 19  1  0  0  0  0
 17 20  1  0  0  0  0
 14 15  1  0  0  0  0
 14 16  1  0  0  0  0
 14 17  1  0  0  0  0
 11 12  1  0  0  0  0
 11 13  1  0  0  0  0
 11 14  1  0  0  0  0
  9 10  1  0  0  0  0
  9 11  1  0  0  0  0
  9 29  1  0  0  0  0
  7  8  1  0  0  0  0
  7  9  1  0  0  0  0
 33 34  1  0  0  0  0
 33 35  1  0  0  0  0
 33 36  1  0  0  0  0
 31 32  1  0  0  0  0
 31 33  1  0  0  0  0
M  CHG  1  20   1
M  END
$$$$
default_name
  -OEChem-02102213163D

 36 35  0     1  0  0  0  0  0999 V2000
   -4.2256   -3.6731    1.8584 H   0  0  0  0  0  0  0  0  0  0  0  0
   -4.2396   -2.6781    1.4144 C   0  0  0  0  0  0  0  0  0  0  0  0
   -4.9506   -2.0521    1.9514 H   0  0  0  0  0  0  0  0  0  0  0  0
   -4.5266   -2.7521    0.3674 H   0  0  0  0  0  0  0  0  0  0  0  0
   -2.8576   -2.0761    1.5184 C   0  0  0  0  0  0  0  0  0  0  0  0
   -1.9456   -2.7051    2.0404 O   0  0  0  0  0  0  0  0  0  0  0  0
   -2.6926   -0.8481    1.0174 N   0  0  0  0  0  0  0  0  0  0  0  0
   -3.4926   -0.3971    0.5954 H   0  0  0  0  0  0  0  0  0  0  0  0
   -1.4216   -0.1071    1.0434 C   0  0  1  0  0  0  0  0  0  0  0  0
   -0.7579   -0.5878    1.7640 H   0  0  0  0  0  0  0  0  0  0  0  0
   -0.7791   -0.1912   -0.3557 C   0  0  0  0  0  0  0  0  0  0  0  0
    0.0476   -0.9034   -0.3172 H   0  0  0  0  0  0  0  0  0  0  0  0
   -1.5185   -0.5678   -1.0659 H   0  0  0  0  0  0  0  0  0  0  0  0
   -0.2347    1.1532   -0.8601 C   0  0  0  0  0  0  0  0  0  0  0  0
   -0.7372    1.4300   -1.7880 H   0  0  0  0  0  0  0  0  0  0  0  0
   -0.4176    1.9215   -0.1082 H   0  0  0  0  0  0  0  0  0  0  0  0
    1.2739    1.0418   -1.1193 C   0  0  0  0  0  0  0  0  0  0  0  0
    1.7656    0.7385   -0.1922 H   0  0  0  0  0  0  0  0  0  0  0  0
    1.4408    0.2710   -1.8754 H   0  0  0  0  0  0  0  0  0  0  0  0
    1.8463    2.3219   -1.5847 N   0  3  0  0  0  0  0  0  0  0  0  0
    1.2019    3.0818   -1.7210 H   0  0  0  0  0  0  0  0  0  0  0  0
    3.1221    2.5615   -1.8377 C   0  0  0  0  0  0  0  0  0  0  0  0
    4.0407    1.6478   -1.6944 N   0  0  0  0  0  0  0  0  0  0  0  0
    3.7684    0.7332   -1.3801 H   0  0  0  0  0  0  0  0  0  0  0  0
    5.0045    1.8461   -1.8911 H   0  0  0  0  0  0  0  0  0  0  0  0
    3.5042    3.7383   -2.2457 N   0  0  0  0  0  0  0  0  0  0  0  0
    2.8321    4.4756   -2.3709 H   0  0  0  0  0  0  0  0  0  0  0  0
    4.4730    3.9158   -2.4364 H   0  0  0  0  0  0  0  0  0  0  0  0
   -1.6547    1.3413    1.4779 C   0  0  0  0  0  0  0  0  0  0  0  0
   -2.5654    1.9858    0.9716 O   0  0  0  0  0  0  0  0  0  0  0  0
   -0.8107    1.8504    2.3808 N   0  0  0  0  0  0  0  0  0  0  0  0
   -0.1136    1.2381    2.7719 H   0  0  0  0  0  0  0  0  0  0  0  0
   -0.8954    3.2155    2.9026 C   0  0  0  0  0  0  0  0  0  0  0  0
   -1.8299    3.3430    3.4532 H   0  0  0  0  0  0  0  0  0  0  0  0
   -0.0581    3.4194    3.5712 H   0  0  0  0  0  0  0  0  0  0  0  0
   -0.8804    3.9320    2.0784 H   0  0  0  0  0  0  0  0  0  0  0  0
  5  6  2  0  0  0  0
  5  7  1  0  0  0  0
  2  3  1  0  0  0  0
  2  4  1  0  0  0  0
  2  5  1  0  0  0  0
  1  2  1  0  0  0  0
 29 30  2  0  0  0  0
 29 31  1  0  0  0  0
 26 27  1  0  0  0  0
 26 28  1  0  0  0  0
 23 24  1  0  0  0  0
 23 25  1  0  0  0  0
 22 23  1  0  0  0  0
 22 26  1  0  0  0  0
 20 21  1  0  0  0  0
 20 22  2  0  0  0  0
 17 18  1  0  0  0  0
 17 19  1  0  0  0  0
 17 20  1  0  0  0  0
 14 15  1  0  0  0  0
 14 16  1  0  0  0  0
 14 17  1  0  0  0  0
 11 12  1  0  0  0  0
 11 13  1  0  0  0  0
 11 14  1  0  0  0  0
  9 10  1  0  0  0  0
  9 11  1  0  0  0  0
  9 29  1  0  0  0  0
  7  8  1  0  0  0  0
  7  9  1  0  0  0  0
 33 34  1  0  0  0  0
 33 35  1  0  0  0  0
 33 36  1  0  0  0  0
 31 32  1  0  0  0  0
 31 33  1  0  0  0  0
M  CHG  1  20   1
M  END
$$$$
default_name
  -OEChem-02102213163D

 36 35  0     1  0  0  0  0  0999 V2000
   -4.2256   -3.6731    1.8584 H   0  0  0  0  0  0  0  0  0  0  0  0
   -4.2396   -2.6781    1.4144 C   0  0  0  0  0  0  0  0  0  0  0  0
   -4.9506   -2.0521    1.9514 H   0  0  0  0  0  0  0  0  0  0  0  0
   -4.5266   -2.7521    0.3674 H   0  0  0  0  0  0  0  0  0  0  0  0
   -2.8576   -2.0761    1.5184 C   0  0  0  0  0  0  0  0  0  0  0  0
   -1.9456   -2.7051    2.0404 O   0  0  0  0  0  0  0  0  0  0  0  0
   -2.6926   -0.8481    1.0174 N   0  0  0  0  0  0  0  0  0  0  0  0
   -3.4926   -0.3971    0.5954 H   0  0  0  0  0  0  0  0  0  0  0  0
   -1.4216   -0.1071    1.0434 C   0  0  1  0  0  0  0  0  0  0  0  0
   -0.7579   -0.5878    1.7640 H   0  0  0  0  0  0  0  0  0  0  0  0
   -0.7791   -0.1912   -0.3557 C   0  0  0  0  0  0  0  0  0  0  0  0
    0.0476   -0.9034   -0.3172 H   0  0  0  0  0  0  0  0  0  0  0  0
   -1.5185   -0.5678   -1.0659 H   0  0  0  0  0  0  0  0  0  0  0  0
   -0.2347    1.1532   -0.8601 C   0  0  0  0  0  0  0  0  0  0  0  0
   -0.9023    1.5594   -1.6212 H   0  0  0  0  0  0  0  0  0  0  0  0
   -0.1714    1.8527   -0.0259 H   0  0  0  0  0  0  0  0  0  0  0  0
    1.1606    0.9567   -1.4684 C   0  0  0  0  0  0  0  0  0  0  0  0
    1.8151    0.5251   -0.7076 H   0  0  0  0  0  0  0  0  0  0  0  0
    1.0805    0.2564   -2.3031 H   0  0  0  0  0  0  0  0  0  0  0  0
    1.7347    2.2313   -1.9467 N   0  3  0  0  0  0  0  0  0  0  0  0
    1.1518    3.0470   -1.8680 H   0  0  0  0  0  0  0  0  0  0  0  0
    2.9391    2.3997   -2.4664 C   0  0  0  0  0  0  0  0  0  0  0  0
    3.7749    1.4103   -2.6142 N   0  0  0  0  0  0  0  0  0  0  0  0
    3.4932    0.4913   -2.3217 H   0  0  0  0  0  0  0  0  0  0  0  0
    4.6851    1.5552   -3.0108 H   0  0  0  0  0  0  0  0  0  0  0  0
    3.3315    3.5801   -2.8537 N   0  0  0  0  0  0  0  0  0  0  0  0
    2.7220    4.3743   -2.7597 H   0  0  0  0  0  0  0  0  0  0  0  0
    4.2460    3.7035   -3.2474 H   0  0  0  0  0  0  0  0  0  0  0  0
   -1.6547    1.3413    1.4779 C   0  0  0  0  0  0  0  0  0  0  0  0
   -2.5654    1.9858    0.9716 O   0  0  0  0  0  0  0  0  0  0  0  0
   -0.8107    1.8504    2.3808 N   0  0  0  0  0  0  0  0  0  0  0  0
   -0.1136    1.2381    2.7719 H   0  0  0  0  0  0  0  0  0  0  0  0
   -0.8954    3.2155    2.9026 C   0  0  0  0  0  0  0  0  0  0  0  0
   -1.8299    3.3430    3.4532 H   0  0  0  0  0  0  0  0  0  0  0  0
   -0.0581    3.4194    3.5712 H   0  0  0  0  0  0  0  0  0  0  0  0
   -0.8804    3.9320    2.0784 H   0  0  0  0  0  0  0  0  0  0  0  0
  5  6  2  0  0  0  0
  5  7  1  0  0  0  0
  2  3  1  0  0  0  0
  2  4  1  0  0  0  0
  2  5  1  0  0  0  0
  1  2  1  0  0  0  0
 29 30  2  0  0  0  0
 29 31  1  0  0  0  0
 26 27  1  0  0  0  0
 26 28  1  0  0  0  0
 23 24  1  0  0  0  0
 23 25  1  0  0  0  0
 22 23  1  0  0  0  0
 22 26  1  0  0  0  0
 20 21  1  0  0  0  0
 20 22  2  0  0  0  0
 17 18  1  0  0  0  0
 17 19  1  0  0  0  0
 17 20  1  0  0  0  0
 14 15  1  0  0  0  0
 14 16  1  0  0  0  0
 14 17  1  0  0  0  0
 11 12  1  0  0  0  0
 11 13  1  0  0  0  0
 11 14  1  0  0  0  0
  9 10  1  0  0  0  0
  9 11  1  0  0  0  0
  9 29  1  0  0  0  0
  7  8  1  0  0  0  0
  7  9  1  0  0  0  0
 33 34  1  0  0  0  0
 33 35  1  0  0  0  0
 33 36  1  0  0  0  0
 31 32  1  0  0  0  0
 31 33  1  0  0  0  0
M  CHG  1  20   1
M  END
$$$$
default_name
  -OEChem-02102213163D

 36 35  0     1  0  0  0  0  0999 V2000
   -4.2256   -3.6731    1.8584 H   0  0  0  0  0  0  0  0  0  0  0  0
   -4.2396   -2.6781    1.4144 C   0  0  0  0  0  0  0  0  0  0  0  0
   -4.9506   -2.0521    1.9514 H   0  0  0  0  0  0  0  0  0  0  0  0
   -4.5266   -2.7521    0.3674 H   0  0  0  0  0  0  0  0  0  0  0  0
   -2.8576   -2.0761    1.5184 C   0  0  0  0  0  0  0  0  0  0  0  0
   -1.9456   -2.7051    2.0404 O   0  0  0  0  0  0  0  0  0  0  0  0
   -2.6926   -0.8481    1.0174 N   0  0  0  0  0  0  0  0  0  0  0  0
   -3.4926   -0.3971    0.5954 H   0  0  0  0  0  0  0  0  0  0  0  0
   -1.4216   -0.1071    1.0434 C   0  0  1  0  0  0  0  0  0  0  0  0
   -0.7579   -0.5878    1.7640 H   0  0  0  0  0  0  0  0  0  0  0  0
   -0.7791   -0.1912   -0.3557 C   0  0  0  0  0  0  0  0  0  0  0  0
    0.0476   -0.9034   -0.3172 H   0  0  0  0  0  0  0  0  0  0  0  0
   -1.5185   -0.5678   -1.0659 H   0  0  0  0  0  0  0  0  0  0  0  0
   -0.2347    1.1532   -0.8601 C   0  0  0  0  0  0  0  0  0  0  0  0
   -1.0130    1.6832   -1.4109 H   0  0  0  0  0  0  0  0  0  0  0  0
    0.0793    1.7577   -0.0085 H   0  0  0  0  0  0  0  0  0  0  0  0
    0.9649    0.9162   -1.7877 C   0  0  0  0  0  0  0  0  0  0  0  0
    1.7279    0.3620   -1.2363 H   0  0  0  0  0  0  0  0  0  0  0  0
    0.6344    0.3122   -2.6360 H   0  0  0  0  0  0  0  0  0  0  0  0
    1.5372    2.1864   -2.2793 N   0  3  0  0  0  0  0  0  0  0  0  0
    1.0672    3.0311   -2.0018 H   0  0  0  0  0  0  0  0  0  0  0  0
    2.6061    2.3167   -3.0471 C   0  0  0  0  0  0  0  0  0  0  0  0
    3.2895    1.2879   -3.4642 N   0  0  0  0  0  0  0  0  0  0  0  0
    2.9935    0.3675   -3.1909 H   0  0  0  0  0  0  0  0  0  0  0  0
    4.0982    1.4042   -4.0468 H   0  0  0  0  0  0  0  0  0  0  0  0
    3.0134    3.4978   -3.4163 N   0  0  0  0  0  0  0  0  0  0  0  0
    2.5189    4.3215   -3.1196 H   0  0  0  0  0  0  0  0  0  0  0  0
    3.8248    3.5921   -3.9988 H   0  0  0  0  0  0  0  0  0  0  0  0
   -1.6547    1.3413    1.4779 C   0  0  0  0  0  0  0  0  0  0  0  0
   -2.5654    1.9858    0.9716 O   0  0  0  0  0  0  0  0  0  0  0  0
   -0.8107    1.8504    2.3808 N   0  0  0  0  0  0  0  0  0  0  0  0
   -0.1136    1.2381    2.7719 H   0  0  0  0  0  0  0  0  0  0  0  0
   -0.8954    3.2155    2.9026 C   0  0  0  0  0  0  0  0  0  0  0  0
   -1.8299    3.3430    3.4532 H   0  0  0  0  0  0  0  0  0  0  0  0
   -0.0581    3.4194    3.5712 H   0  0  0  0  0  0  0  0  0  0  0  0
   -0.8804    3.9320    2.0784 H   0  0  0  0  0  0  0  0  0  0  0  0
  5  6  2  0  0  0  0
  5  7  1  0  0  0  0
  2  3  1  0  0  0  0
  2  4  1  0  0  0  0
  2  5  1  0  0  0  0
  1  2  1  0  0  0  0
 29 30  2  0  0  0  0
 29 31  1  0  0  0  0
 26 27  1  0  0  0  0
 26 28  1  0  0  0  0
 23 24  1  0  0  0  0
 23 25  1  0  0  0  0
 22 23  1  0  0  0  0
 22 26  1  0  0  0  0
 20 21  1  0  0  0  0
 20 22  2  0  0  0  0
 17 18  1  0  0  0  0
 17 19  1  0  0  0  0
 17 20  1  0  0  0  0
 14 15  1  0  0  0  0
 14 16  1  0  0  0  0
 14 17  1  0  0  0  0
 11 12  1  0  0  0  0
 11 13  1  0  0  0  0
 11 14  1  0  0  0  0
  9 10  1  0  0  0  0
  9 11  1  0  0  0  0
  9 29  1  0  0  0  0
  7  8  1  0  0  0  0
  7  9  1  0  0  0  0
 33 34  1  0  0  0  0
 33 35  1  0  0  0  0
 33 36  1  0  0  0  0
 31 32  1  0  0  0  0
 31 33  1  0  0  0  0
M  CHG  1  20   1
M  END
$$$$
default_name
  -OEChem-02102213163D

 36 35  0     1  0  0  0  0  0999 V2000
   -4.2256   -3.6731    1.8584 H   0  0  0  0  0  0  0  0  0  0  0  0
   -4.2396   -2.6781    1.4144 C   0  0  0  0  0  0  0  0  0  0  0  0
   -4.9506   -2.0521    1.9514 H   0  0  0  0  0  0  0  0  0  0  0  0
   -4.5266   -2.7521    0.3674 H   0  0  0  0  0  0  0  0  0  0  0  0
   -2.8576   -2.0761    1.5184 C   0  0  0  0  0  0  0  0  0  0  0  0
   -1.9456   -2.7051    2.0404 O   0  0  0  0  0  0  0  0  0  0  0  0
   -2.6926   -0.8481    1.0174 N   0  0  0  0  0  0  0  0  0  0  0  0
   -3.4926   -0.3971    0.5954 H   0  0  0  0  0  0  0  0  0  0  0  0
   -1.4216   -0.1071    1.0434 C   0  0  1  0  0  0  0  0  0  0  0  0
   -0.7579   -0.5878    1.7640 H   0  0  0  0  0  0  0  0  0  0  0  0
   -0.7791   -0.1912   -0.3557 C   0  0  0  0  0  0  0  0  0  0  0  0
    0.0476   -0.9034   -0.3172 H   0  0  0  0  0  0  0  0  0  0  0  0
   -1.5185   -0.5678   -1.0659 H   0  0  0  0  0  0  0  0  0  0  0  0
   -0.2347    1.1532   -0.8601 C   0  0  0  0  0  0  0  0  0  0  0  0
   -1.0618    1.7929   -1.1712 H   0  0  0  0  0  0  0  0  0  0  0  0
    0.3173    1.6430   -0.0573 H   0  0  0  0  0  0  0  0  0  0  0  0
    0.7000    0.9230   -2.0555 C   0  0  0  0  0  0  0  0  0  0  0  0
    1.5100    0.2604   -1.7422 H   0  0  0  0  0  0  0  0  0  0  0  0
    0.1327    0.4345   -2.8513 H   0  0  0  0  0  0  0  0  0  0  0  0
    1.2673    2.1905   -2.5600 N   0  3  0  0  0  0  0  0  0  0  0  0
    0.9538    3.0351   -2.1133 H   0  0  0  0  0  0  0  0  0  0  0  0
    2.1458    2.3181   -3.5402 C   0  0  0  0  0  0  0  0  0  0  0  0
    2.6177    1.2890   -4.1865 N   0  0  0  0  0  0  0  0  0  0  0  0
    2.3034    0.3702   -3.9287 H   0  0  0  0  0  0  0  0  0  0  0  0
    3.2837    1.4033   -4.9282 H   0  0  0  0  0  0  0  0  0  0  0  0
    2.5717    3.4970   -3.8953 N   0  0  0  0  0  0  0  0  0  0  0  0
    2.2368    4.3207   -3.4260 H   0  0  0  0  0  0  0  0  0  0  0  0
    3.2383    3.5893   -4.6394 H   0  0  0  0  0  0  0  0  0  0  0  0
   -1.6547    1.3413    1.4779 C   0  0  0  0  0  0  0  0  0  0  0  0
   -2.5654    1.9858    0.9716 O   0  0  0  0  0  0  0  0  0  0  0  0
   -0.8107    1.8504    2.3808 N   0  0  0  0  0  0  0  0  0  0  0  0
   -0.1136    1.2381    2.7719 H   0  0  0  0  0  0  0  0  0  0  0  0
   -0.8954    3.2155    2.9026 C   0  0  0  0  0  0  0  0  0  0  0  0
   -1.8299    3.3430    3.4532 H   0  0  0  0  0  0  0  0  0  0  0  0
   -0.0581    3.4194    3.5712 H   0  0  0  0  0  0  0  0  0  0  0  0
   -0.8804    3.9320    2.0784 H   0  0  0  0  0  0  0  0  0  0  0  0
  5  6  2  0  0  0  0
  5  7  1  0  0  0  0
  2  3  1  0  0  0  0
  2  4  1  0  0  0  0
  2  5  1  0  0  0  0
  1  2  1  0  0  0  0
 29 30  2  0  0  0  0
 29 31  1  0  0  0  0
 26 27  1  0  0  0  0
 26 28  1  0  0  0  0
 23 24  1  0  0  0  0
 23 25  1  0  0  0  0
 22 23  1  0  0  0  0
 22 26  1  0  0  0  0
 20 21  1  0  0  0  0
 20 22  2  0  0  0  0
 17 18  1  0  0  0  0
 17 19  1  0  0  0  0
 17 20  1  0  0  0  0
 14 15  1  0  0  0  0
 14 16  1  0  0  0  0
 14 17  1  0  0  0  0
 11 12  1  0  0  0  0
 11 13  1  0  0  0  0
 11 14  1  0  0  0  0
  9 10  1  0  0  0  0
  9 11  1  0  0  0  0
  9 29  1  0  0  0  0
  7  8  1  0  0  0  0
  7  9  1  0  0  0  0
 33 34  1  0  0  0  0
 33 35  1  0  0  0  0
 33 36  1  0  0  0  0
 31 32  1  0  0  0  0
 31 33  1  0  0  0  0
M  CHG  1  20   1
M  END
$$$$
default_name
  -OEChem-02102213163D

 36 35  0     1  0  0  0  0  0999 V2000
   -4.2256   -3.6731    1.8584 H   0  0  0  0  0  0  0  0  0  0  0  0
   -4.2396   -2.6781    1.4144 C   0  0  0  0  0  0  0  0  0  0  0  0
   -4.9506   -2.0521    1.9514 H   0  0  0  0  0  0  0  0  0  0  0  0
   -4.5266   -2.7521    0.3674 H   0  0  0  0  0  0  0  0  0  0  0  0
   -2.8576   -2.0761    1.5184 C   0  0  0  0  0  0  0  0  0  0  0  0
   -1.9456   -2.7051    2.0404 O   0  0  0  0  0  0  0  0  0  0  0  0
   -2.6926   -0.8481    1.0174 N   0  0  0  0  0  0  0  0  0  0  0  0
   -3.4926   -0.3971    0.5954 H   0  0  0  0  0  0  0  0  0  0  0  0
   -1.4216   -0.1071    1.0434 C   0  0  1  0  0  0  0  0  0  0  0  0
   -0.7579   -0.5878    1.7640 H   0  0  0  0  0  0  0  0  0  0  0  0
   -0.7791   -0.1912   -0.3557 C   0  0  0  0  0  0  0  0  0  0  0  0
   -0.1435   -1.0781   -0.3945 H   0  0  0  0  0  0  0  0  0  0  0  0
   -1.5667   -0.3054   -1.1037 H   0  0  0  0  0  0  0  0  0  0  0  0
    0.0783    1.0328   -0.7091 C   0  0  0  0  0  0  0  0  0  0  0  0
   -0.5375    1.9330   -0.6887 H   0  0  0  0  0  0  0  0  0  0  0  0
    0.8843    1.1310    0.0187 H   0  0  0  0  0  0  0  0  0  0  0  0
    0.6759    0.8644   -2.1127 C   0  0  0  0  0  0  0  0  0  0  0  0
    1.2688   -0.0529   -2.1315 H   0  0  0  0  0  0  0  0  0  0  0  0
   -0.1428    0.7698   -2.8301 H   0  0  0  0  0  0  0  0  0  0  0  0
    1.5297    2.0107   -2.4863 N   0  3  0  0  0  0  0  0  0  0  0  0
    1.5847    2.7672   -1.8259 H   0  0  0  0  0  0  0  0  0  0  0  0
    2.2264    2.1350   -3.6036 C   0  0  0  0  0  0  0  0  0  0  0  0
    2.2261    1.2145   -4.5266 N   0  0  0  0  0  0  0  0  0  0  0  0
    1.6795    0.3841   -4.3816 H   0  0  0  0  0  0  0  0  0  0  0  0
    2.7602    1.3247   -5.3690 H   0  0  0  0  0  0  0  0  0  0  0  0
    2.9447    3.2004   -3.8182 N   0  0  0  0  0  0  0  0  0  0  0  0
    2.9768    3.9377   -3.1353 H   0  0  0  0  0  0  0  0  0  0  0  0
    3.4718    3.2906   -4.6671 H   0  0  0  0  0  0  0  0  0  0  0  0
   -1.6547    1.3413    1.4779 C   0  0  0  0  0  0  0  0  0  0  0  0
   -2.5654    1.9858    0.9716 O   0  0  0  0  0  0  0  0  0  0  0  0
   -0.8107    1.8504    2.3808 N   0  0  0  0  0  0  0  0  0  0  0  0
   -0.1136    1.2381    2.7719 H   0  0  0  0  0  0  0  0  0  0  0  0
   -0.8954    3.2155    2.9026 C   0  0  0  0  0  0  0  0  0  0  0  0
   -1.8299    3.3430    3.4532 H   0  0  0  0  0  0  0  0  0  0  0  0
   -0.0581    3.4194    3.5712 H   0  0  0  0  0  0  0  0  0  0  0  0
   -0.8804    3.9320    2.0784 H   0  0  0  0  0  0  0  0  0  0  0  0
  5  6  2  0  0  0  0
  5  7  1  0  0  0  0
  2  3  1  0  0  0  0
  2  4  1  0  0  0  0
  2  5  1  0  0  0  0
  1  2  1  0  0  0  0
 29 30  2  0  0  0  0
 29 31  1  0  0  0  0
 26 27  1  0  0  0  0
 26 28  1  0  0  0  0
 23 24  1  0  0  0  0
 23 25  1  0  0  0  0
 22 23  1  0  0  0  0
 22 26  1  0  0  0  0
 20 21  1  0  0  0  0
 20 22  2  0  0  0  0
 17 18  1  0  0  0  0
 17 19  1  0  0  0  0
 17 20  1  0  0  0  0
 14 15  1  0  0  0  0
 14 16  1  0  0  0  0
 14 17  1  0  0  0  0
 11 12  1  0  0  0  0
 11 13  1  0  0  0  0
 11 14  1  0  0  0  0
  9 10  1  0  0  0  0
  9 11  1  0  0  0  0
  9 29  1  0  0  0  0
  7  8  1  0  0  0  0
  7  9  1  0  0  0  0
 33 34  1  0  0  0  0
 33 35  1  0  0  0  0
 33 36  1  0  0  0  0
 31 32  1  0  0  0  0
 31 33  1  0  0  0  0
M  CHG  1  20   1
M  END
$$$$
default_name
  -OEChem-02102213163D

 36 35  0     1  0  0  0  0  0999 V2000
   -4.2256   -3.6731    1.8584 H   0  0  0  0  0  0  0  0  0  0  0  0
   -4.2396   -2.6781    1.4144 C   0  0  0  0  0  0  0  0  0  0  0  0
   -4.9506   -2.0521    1.9514 H   0  0  0  0  0  0  0  0  0  0  0  0
   -4.5266   -2.7521    0.3674 H   0  0  0  0  0  0  0  0  0  0  0  0
   -2.8576   -2.0761    1.5184 C   0  0  0  0  0  0  0  0  0  0  0  0
   -1.9456   -2.7051    2.0404 O   0  0  0  0  0  0  0  0  0  0  0  0
   -2.6926   -0.8481    1.0174 N   0  0  0  0  0  0  0  0  0  0  0  0
   -3.4926   -0.3971    0.5954 H   0  0  0  0  0  0  0  0  0  0  0  0
   -1.4216   -0.1071    1.0434 C   0  0  1  0  0  0  0  0  0  0  0  0
   -0.7579   -0.5878    1.7640 H   0  0  0  0  0  0  0  0  0  0  0  0
   -0.7791   -0.1912   -0.3557 C   0  0  0  0  0  0  0  0  0  0  0  0
   -0.1435   -1.0781   -0.3945 H   0  0  0  0  0  0  0  0  0  0  0  0
   -1.5667   -0.3054   -1.1037 H   0  0  0  0  0  0  0  0  0  0  0  0
    0.0783    1.0328   -0.7091 C   0  0  0  0  0  0  0  0  0  0  0  0
   -0.4516    1.9461   -0.4351 H   0  0  0  0  0  0  0  0  0  0  0  0
    1.0197    0.9842   -0.1610 H   0  0  0  0  0  0  0  0  0  0  0  0
    0.3659    1.0516   -2.2166 C   0  0  0  0  0  0  0  0  0  0  0  0
    0.8725    0.1221   -2.4865 H   0  0  0  0  0  0  0  0  0  0  0  0
   -0.5855    1.1027   -2.7514 H   0  0  0  0  0  0  0  0  0  0  0  0
    1.2100    2.2021   -2.5995 N   0  3  0  0  0  0  0  0  0  0  0  0
    1.4535    2.8471   -1.8675 H   0  0  0  0  0  0  0  0  0  0  0  0
    1.6740    2.4623   -3.8103 C   0  0  0  0  0  0  0  0  0  0  0  0
    1.4186    1.6924   -4.8308 N   0  0  0  0  0  0  0  0  0  0  0  0
    0.8520    0.8747   -4.6901 H   0  0  0  0  0  0  0  0  0  0  0  0
    1.7782    1.9045   -5.7432 H   0  0  0  0  0  0  0  0  0  0  0  0
    2.4118    3.5149   -4.0221 N   0  0  0  0  0  0  0  0  0  0  0  0
    2.6361    4.1386   -3.2659 H   0  0  0  0  0  0  0  0  0  0  0  0
    2.7618    3.7086   -4.9421 H   0  0  0  0  0  0  0  0  0  0  0  0
   -1.6547    1.3413    1.4779 C   0  0  0  0  0  0  0  0  0  0  0  0
   -2.5654    1.9858    0.9716 O   0  0  0  0  0  0  0  0  0  0  0  0
   -0.8107    1.8504    2.3808 N   0  0  0  0  0  0  0  0  0  0  0  0
   -0.1136    1.2381    2.7719 H   0  0  0  0  0  0  0  0  0  0  0  0
   -0.8954    3.2155    2.9026 C   0  0  0  0  0  0  0  0  0  0  0  0
   -1.8299    3.3430    3.4532 H   0  0  0  0  0  0  0  0  0  0  0  0
   -0.0581    3.4194    3.5712 H   0  0  0  0  0  0  0  0  0  0  0  0
   -0.8804    3.9320    2.0784 H   0  0  0  0  0  0  0  0  0  0  0  0
  5  6  2  0  0  0  0
  5  7  1  0  0  0  0
  2  3  1  0  0  0  0
  2  4  1  0  0  0  0
  2  5  1  0  0  0  0
  1  2  1  0  0  0  0
 29 30  2  0  0  0  0
 29 31  1  0  0  0  0
 26 27  1  0  0  0  0
 26 28  1  0  0  0  0
 23 24  1  0  0  0  0
 23 25  1  0  0  0  0
 22 23  1  0  0  0  0
 22 26  1  0  0  0  0
 20 21  1  0  0  0  0
 20 22  2  0  0  0  0
 17 18  1  0  0  0  0
 17 19  1  0  0  0  0
 17 20  1  0  0  0  0
 14 15  1  0  0  0  0
 14 16  1  0  0  0  0
 14 17  1  0  0  0  0
 11 12  1  0  0  0  0
 11 13  1  0  0  0  0
 11 14  1  0  0  0  0
  9 10  1  0  0  0  0
  9 11  1  0  0  0  0
  9 29  1  0  0  0  0
  7  8  1  0  0  0  0
  7  9  1  0  0  0  0
 33 34  1  0  0  0  0
 33 35  1  0  0  0  0
 33 36  1  0  0  0  0
 31 32  1  0  0  0  0
 31 33  1  0  0  0  0
M  CHG  1  20   1
M  END
$$$$
default_name
  -OEChem-02102213163D

 36 35  0     1  0  0  0  0  0999 V2000
   -4.2256   -3.6731    1.8584 H   0  0  0  0  0  0  0  0  0  0  0  0
   -4.2396   -2.6781    1.4144 C   0  0  0  0  0  0  0  0  0  0  0  0
   -4.9506   -2.0521    1.9514 H   0  0  0  0  0  0  0  0  0  0  0  0
   -4.5266   -2.7521    0.3674 H   0  0  0  0  0  0  0  0  0  0  0  0
   -2.8576   -2.0761    1.5184 C   0  0  0  0  0  0  0  0  0  0  0  0
   -1.9456   -2.7051    2.0404 O   0  0  0  0  0  0  0  0  0  0  0  0
   -2.6926   -0.8481    1.0174 N   0  0  0  0  0  0  0  0  0  0  0  0
   -3.4926   -0.3971    0.5954 H   0  0  0  0  0  0  0  0  0  0  0  0
   -1.4216   -0.1071    1.0434 C   0  0  1  0  0  0  0  0  0  0  0  0
   -0.7579   -0.5878    1.7640 H   0  0  0  0  0  0  0  0  0  0  0  0
   -0.7791   -0.1912   -0.3557 C   0  0  0  0  0  0  0  0  0  0  0  0
   -0.1435   -1.0781   -0.3945 H   0  0  0  0  0  0  0  0  0  0  0  0
   -1.5667   -0.3054   -1.1037 H   0  0  0  0  0  0  0  0  0  0  0  0
    0.0783    1.0328   -0.7091 C   0  0  0  0  0  0  0  0  0  0  0  0
   -0.3156    1.9170   -0.2060 H   0  0  0  0  0  0  0  0  0  0  0  0
    1.1047    0.8604   -0.3837 H   0  0  0  0  0  0  0  0  0  0  0  0
    0.0562    1.2658   -2.2259 C   0  0  0  0  0  0  0  0  0  0  0  0
    0.4269    0.3661   -2.7224 H   0  0  0  0  0  0  0  0  0  0  0  0
   -0.9770    1.4392   -2.5360 H   0  0  0  0  0  0  0  0  0  0  0  0
    0.8891    2.4223   -2.6153 N   0  3  0  0  0  0  0  0  0  0  0  0
    1.3230    2.9381   -1.8689 H   0  0  0  0  0  0  0  0  0  0  0  0
    1.1172    2.8412   -3.8488 C   0  0  0  0  0  0  0  0  0  0  0  0
    0.6043    2.2461   -4.8889 N   0  0  0  0  0  0  0  0  0  0  0  0
    0.0182    1.4425   -4.7465 H   0  0  0  0  0  0  0  0  0  0  0  0
    0.7871    2.5771   -5.8184 H   0  0  0  0  0  0  0  0  0  0  0  0
    1.8737    3.8799   -4.0636 N   0  0  0  0  0  0  0  0  0  0  0  0
    2.2920    4.3719   -3.2929 H   0  0  0  0  0  0  0  0  0  0  0  0
    2.0442    4.1943   -5.0009 H   0  0  0  0  0  0  0  0  0  0  0  0
   -1.6547    1.3413    1.4779 C   0  0  0  0  0  0  0  0  0  0  0  0
   -2.5654    1.9858    0.9716 O   0  0  0  0  0  0  0  0  0  0  0  0
   -0.8107    1.8504    2.3808 N   0  0  0  0  0  0  0  0  0  0  0  0
   -0.1136    1.2381    2.7719 H   0  0  0  0  0  0  0  0  0  0  0  0
   -0.8954    3.2155    2.9026 C   0  0  0  0  0  0  0  0  0  0  0  0
   -1.8299    3.3430    3.4532 H   0  0  0  0  0  0  0  0  0  0  0  0
   -0.0581    3.4194    3.5712 H   0  0  0  0  0  0  0  0  0  0  0  0
   -0.8804    3.9320    2.0784 H   0  0  0  0  0  0  0  0  0  0  0  0
  5  6  2  0  0  0  0
  5  7  1  0  0  0  0
  2  3  1  0  0  0  0
  2  4  1  0  0  0  0
  2  5  1  0  0  0  0
  1  2  1  0  0  0  0
 29 30  2  0  0  0  0
 29 31  1  0  0  0  0
 26 27  1  0  0  0  0
 26 28  1  0  0  0  0
 23 24  1  0  0  0  0
 23 25  1  0  0  0  0
 22 23  1  0  0  0  0
 22 26  1  0  0  0  0
 20 21  1  0  0  0  0
 20 22  2  0  0  0  0
 17 18  1  0  0  0  0
 17 19  1  0  0  0  0
 17 20  1  0  0  0  0
 14 15  1  0  0  0  0
 14 16  1  0  0  0  0
 14 17  1  0  0  0  0
 11 12  1  0  0  0  0
 11 13  1  0  0  0  0
 11 14  1  0  0  0  0
  9 10  1  0  0  0  0
  9 11  1  0  0  0  0
  9 29  1  0  0  0  0
  7  8  1  0  0  0  0
  7  9  1  0  0  0  0
 33 34  1  0  0  0  0
 33 35  1  0  0  0  0
 33 36  1  0  0  0  0
 31 32  1  0  0  0  0
 31 33  1  0  0  0  0
M  CHG  1  20   1
M  END
$$$$
default_name
  -OEChem-02102213163D

 36 35  0     1  0  0  0  0  0999 V2000
   -4.2256   -3.6731    1.8584 H   0  0  0  0  0  0  0  0  0  0  0  0
   -4.2396   -2.6781    1.4144 C   0  0  0  0  0  0  0  0  0  0  0  0
   -4.9506   -2.0521    1.9514 H   0  0  0  0  0  0  0  0  0  0  0  0
   -4.5266   -2.7521    0.3674 H   0  0  0  0  0  0  0  0  0  0  0  0
   -2.8576   -2.0761    1.5184 C   0  0  0  0  0  0  0  0  0  0  0  0
   -1.9456   -2.7051    2.0404 O   0  0  0  0  0  0  0  0  0  0  0  0
   -2.6926   -0.8481    1.0174 N   0  0  0  0  0  0  0  0  0  0  0  0
   -3.4926   -0.3971    0.5954 H   0  0  0  0  0  0  0  0  0  0  0  0
   -1.4216   -0.1071    1.0434 C   0  0  1  0  0  0  0  0  0  0  0  0
   -0.7579   -0.5878    1.7640 H   0  0  0  0  0  0  0  0  0  0  0  0
   -0.7791   -0.1912   -0.3557 C   0  0  0  0  0  0  0  0  0  0  0  0
   -0.1435   -1.0781   -0.3945 H   0  0  0  0  0  0  0  0  0  0  0  0
   -1.5667   -0.3054   -1.1037 H   0  0  0  0  0  0  0  0  0  0  0  0
    0.0783    1.0328   -0.7091 C   0  0  0  0  0  0  0  0  0  0  0  0
   -0.1387    1.8476   -0.0170 H   0  0  0  0  0  0  0  0  0  0  0  0
    1.1335    0.7679   -0.6343 H   0  0  0  0  0  0  0  0  0  0  0  0
   -0.2322    1.4926   -2.1401 C   0  0  0  0  0  0  0  0  0  0  0  0
   -0.0375    0.6625   -2.8230 H   0  0  0  0  0  0  0  0  0  0  0  0
   -1.2908    1.7564   -2.1985 H   0  0  0  0  0  0  0  0  0  0  0  0
    0.5891    2.6564   -2.5325 N   0  3  0  0  0  0  0  0  0  0  0  0
    1.2021    3.0340   -1.8303 H   0  0  0  0  0  0  0  0  0  0  0  0
    0.5941    3.2459   -3.7163 C   0  0  0  0  0  0  0  0  0  0  0  0
   -0.1613    2.8378   -4.6971 N   0  0  0  0  0  0  0  0  0  0  0  0
   -0.7649    2.0488   -4.5469 H   0  0  0  0  0  0  0  0  0  0  0  0
   -0.1457    3.2968   -5.5893 H   0  0  0  0  0  0  0  0  0  0  0  0
    1.3671    4.2705   -3.9399 N   0  0  0  0  0  0  0  0  0  0  0  0
    1.9680    4.6216   -3.2142 H   0  0  0  0  0  0  0  0  0  0  0  0
    1.3679    4.7148   -4.8394 H   0  0  0  0  0  0  0  0  0  0  0  0
   -1.6547    1.3413    1.4779 C   0  0  0  0  0  0  0  0  0  0  0  0
   -2.5654    1.9858    0.9716 O   0  0  0  0  0  0  0  0  0  0  0  0
   -0.8107    1.8504    2.3808 N   0  0  0  0  0  0  0  0  0  0  0  0
   -0.1136    1.2381    2.7719 H   0  0  0  0  0  0  0  0  0  0  0  0
   -0.8954    3.2155    2.9026 C   0  0  0  0  0  0  0  0  0  0  0  0
   -1.8299    3.3430    3.4532 H   0  0  0  0  0  0  0  0  0  0  0  0
   -0.0581    3.4194    3.5712 H   0  0  0  0  0  0  0  0  0  0  0  0
   -0.8804    3.9320    2.0784 H   0  0  0  0  0  0  0  0  0  0  0  0
  5  6  2  0  0  0  0
  5  7  1  0  0  0  0
  2  3  1  0  0  0  0
  2  4  1  0  0  0  0
  2  5  1  0  0  0  0
  1  2  1  0  0  0  0
 29 30  2  0  0  0  0
 29 31  1  0  0  0  0
 26 27  1  0  0  0  0
 26 28  1  0  0  0  0
 23 24  1  0  0  0  0
 23 25  1  0  0  0  0
 22 23  1  0  0  0  0
 22 26  1  0  0  0  0
 20 21  1  0  0  0  0
 20 22  2  0  0  0  0
 17 18  1  0  0  0  0
 17 19  1  0  0  0  0
 17 20  1  0  0  0  0
 14 15  1  0  0  0  0
 14 16  1  0  0  0  0
 14 17  1  0  0  0  0
 11 12  1  0  0  0  0
 11 13  1  0  0  0  0
 11 14  1  0  0  0  0
  9 10  1  0  0  0  0
  9 11  1  0  0  0  0
  9 29  1  0  0  0  0
  7  8  1  0  0  0  0
  7  9  1  0  0  0  0
 33 34  1  0  0  0  0
 33 35  1  0  0  0  0
 33 36  1  0  0  0  0
 31 32  1  0  0  0  0
 31 33  1  0  0  0  0
M  CHG  1  20   1
M  END
$$$$
default_name
  -OEChem-02102213163D

 36 35  0     1  0  0  0  0  0999 V2000
   -4.2256   -3.6731    1.8584 H   0  0  0  0  0  0  0  0  0  0  0  0
   -4.2396   -2.6781    1.4144 C   0  0  0  0  0  0  0  0  0  0  0  0
   -4.9506   -2.0521    1.9514 H   0  0  0  0  0  0  0  0  0  0  0  0
   -4.5266   -2.7521    0.3674 H   0  0  0  0  0  0  0  0  0  0  0  0
   -2.8576   -2.0761    1.5184 C   0  0  0  0  0  0  0  0  0  0  0  0
   -1.9456   -2.7051    2.0404 O   0  0  0  0  0  0  0  0  0  0  0  0
   -2.6926   -0.8481    1.0174 N   0  0  0  0  0  0  0  0  0  0  0  0
   -3.4926   -0.3971    0.5954 H   0  0  0  0  0  0  0  0  0  0  0  0
   -1.4216   -0.1071    1.0434 C   0  0  1  0  0  0  0  0  0  0  0  0
   -0.7579   -0.5878    1.7640 H   0  0  0  0  0  0  0  0  0  0  0  0
   -0.7791   -0.1912   -0.3557 C   0  0  0  0  0  0  0  0  0  0  0  0
   -0.1435   -1.0781   -0.3945 H   0  0  0  0  0  0  0  0  0  0  0  0
   -1.5667   -0.3054   -1.1037 H   0  0  0  0  0  0  0  0  0  0  0  0
    0.0783    1.0328   -0.7091 C   0  0  0  0  0  0  0  0  0  0  0  0
    0.0670    1.7428    0.1190 H   0  0  0  0  0  0  0  0  0  0  0  0
    1.1040    0.7130   -0.8956 H   0  0  0  0  0  0  0  0  0  0  0  0
   -0.4794    1.7164   -1.9650 C   0  0  0  0  0  0  0  0  0  0  0  0
   -0.4893    0.9909   -2.7816 H   0  0  0  0  0  0  0  0  0  0  0  0
   -1.5053    2.0328   -1.7620 H   0  0  0  0  0  0  0  0  0  0  0  0
    0.3303    2.8884   -2.3568 N   0  3  0  0  0  0  0  0  0  0  0  0
    1.0989    3.1282   -1.7542 H   0  0  0  0  0  0  0  0  0  0  0  0
    0.1403    3.6489   -3.4219 C   0  0  0  0  0  0  0  0  0  0  0  0
   -0.8260    3.4273   -4.2684 N   0  0  0  0  0  0  0  0  0  0  0  0
   -1.4440    2.6522   -4.1049 H   0  0  0  0  0  0  0  0  0  0  0  0
   -0.9565    4.0143   -5.0716 H   0  0  0  0  0  0  0  0  0  0  0  0
    0.9266    4.6601   -3.6595 N   0  0  0  0  0  0  0  0  0  0  0  0
    1.6861    4.8707   -3.0352 H   0  0  0  0  0  0  0  0  0  0  0  0
    0.7789    5.2344   -4.4687 H   0  0  0  0  0  0  0  0  0  0  0  0
   -1.6547    1.3413    1.4779 C   0  0  0  0  0  0  0  0  0  0  0  0
   -2.5654    1.9858    0.9716 O   0  0  0  0  0  0  0  0  0  0  0  0
   -0.8107    1.8504    2.3808 N   0  0  0  0  0  0  0  0  0  0  0  0
   -0.1136    1.2381    2.7719 H   0  0  0  0  0  0  0  0  0  0  0  0
   -0.8954    3.2155    2.9026 C   0  0  0  0  0  0  0  0  0  0  0  0
   -1.8299    3.3430    3.4532 H   0  0  0  0  0  0  0  0  0  0  0  0
   -0.0581    3.4194    3.5712 H   0  0  0  0  0  0  0  0  0  0  0  0
   -0.8804    3.9320    2.0784 H   0  0  0  0  0  0  0  0  0  0  0  0
  5  6  2  0  0  0  0
  5  7  1  0  0  0  0
  2  3  1  0  0  0  0
  2  4  1  0  0  0  0
  2  5  1  0  0  0  0
  1  2  1  0  0  0  0
 29 30  2  0  0  0  0
 29 31  1  0  0  0  0
 26 27  1  0  0  0  0
 26 28  1  0  0  0  0
 23 24  1  0  0  0  0
 23 25  1  0  0  0  0
 22 23  1  0  0  0  0
 22 26  1  0  0  0  0
 20 21  1  0  0  0  0
 20 22  2  0  0  0  0
 17 18  1  0  0  0  0
 17 19  1  0  0  0  0
 17 20  1  0  0  0  0
 14 15  1  0  0  0  0
 14 16  1  0  0  0  0
 14 17  1  0  0  0  0
 11 12  1  0  0  0  0
 11 13  1  0  0  0  0
 11 14  1  0  0  0  0
  9 10  1  0  0  0  0
  9 11  1  0  0  0  0
  9 29  1  0  0  0  0
  7  8  1  0  0  0  0
  7  9  1  0  0  0  0
 33 34  1  0  0  0  0
 33 35  1  0  0  0  0
 33 36  1  0  0  0  0
 31 32  1  0  0  0  0
 31 33  1  0  0  0  0
M  CHG  1  20   1
M  END
$$$$
default_name
  -OEChem-02102213163D

 36 35  0     1  0  0  0  0  0999 V2000
   -4.2256   -3.6731    1.8584 H   0  0  0  0  0  0  0  0  0  0  0  0
   -4.2396   -2.6781    1.4144 C   0  0  0  0  0  0  0  0  0  0  0  0
   -4.9506   -2.0521    1.9514 H   0  0  0  0  0  0  0  0  0  0  0  0
   -4.5266   -2.7521    0.3674 H   0  0  0  0  0  0  0  0  0  0  0  0
   -2.8576   -2.0761    1.5184 C   0  0  0  0  0  0  0  0  0  0  0  0
   -1.9456   -2.7051    2.0404 O   0  0  0  0  0  0  0  0  0  0  0  0
   -2.6926   -0.8481    1.0174 N   0  0  0  0  0  0  0  0  0  0  0  0
   -3.4926   -0.3971    0.5954 H   0  0  0  0  0  0  0  0  0  0  0  0
   -1.4216   -0.1071    1.0434 C   0  0  1  0  0  0  0  0  0  0  0  0
   -0.7579   -0.5878    1.7640 H   0  0  0  0  0  0  0  0  0  0  0  0
   -0.7791   -0.1912   -0.3557 C   0  0  0  0  0  0  0  0  0  0  0  0
   -0.1435   -1.0781   -0.3945 H   0  0  0  0  0  0  0  0  0  0  0  0
   -1.5667   -0.3054   -1.1037 H   0  0  0  0  0  0  0  0  0  0  0  0
    0.0783    1.0328   -0.7091 C   0  0  0  0  0  0  0  0  0  0  0  0
    0.2876    1.6096    0.1928 H   0  0  0  0  0  0  0  0  0  0  0  0
    1.0184    0.6995   -1.1499 H   0  0  0  0  0  0  0  0  0  0  0  0
   -0.6688    1.9220   -1.7124 C   0  0  0  0  0  0  0  0  0  0  0  0
   -0.8976    1.3291   -2.6010 H   0  0  0  0  0  0  0  0  0  0  0  0
   -1.6060    2.2494   -1.2562 H   0  0  0  0  0  0  0  0  0  0  0  0
    0.1305    3.1025   -2.1001 N   0  3  0  0  0  0  0  0  0  0  0  0
    1.0206    3.2144   -1.6457 H   0  0  0  0  0  0  0  0  0  0  0  0
   -0.2134    4.0226   -2.9857 C   0  0  0  0  0  0  0  0  0  0  0  0
   -1.3444    3.9743   -3.6320 N   0  0  0  0  0  0  0  0  0  0  0  0
   -1.9729    3.2117   -3.4508 H   0  0  0  0  0  0  0  0  0  0  0  0
   -1.5902    4.6809   -4.3006 H   0  0  0  0  0  0  0  0  0  0  0  0
    0.5821    5.0222   -3.2415 N   0  0  0  0  0  0  0  0  0  0  0  0
    1.4656    5.1023   -2.7682 H   0  0  0  0  0  0  0  0  0  0  0  0
    0.3174    5.7179   -3.9141 H   0  0  0  0  0  0  0  0  0  0  0  0
   -1.6547    1.3413    1.4779 C   0  0  0  0  0  0  0  0  0  0  0  0
   -2.5654    1.9858    0.9716 O   0  0  0  0  0  0  0  0  0  0  0  0
   -0.8107    1.8504    2.3808 N   0  0  0  0  0  0  0  0  0  0  0  0
   -0.1136    1.2381    2.7719 H   0  0  0  0  0  0  0  0  0  0  0  0
   -0.8954    3.2155    2.9026 C   0  0  0  0  0  0  0  0  0  0  0  0
   -1.8299    3.3430    3.4532 H   0  0  0  0  0  0  0  0  0  0  0  0
   -0.0581    3.4194    3.5712 H   0  0  0  0  0  0  0  0  0  0  0  0
   -0.8804    3.9320    2.0784 H   0  0  0  0  0  0  0  0  0  0  0  0
  5  6  2  0  0  0  0
  5  7  1  0  0  0  0
  2  3  1  0  0  0  0
  2  4  1  0  0  0  0
  2  5  1  0  0  0  0
  1  2  1  0  0  0  0
 29 30  2  0  0  0  0
 29 31  1  0  0  0  0
 26 27  1  0  0  0  0
 26 28  1  0  0  0  0
 23 24  1  0  0  0  0
 23 25  1  0  0  0  0
 22 23  1  0  0  0  0
 22 26  1  0  0  0  0
 20 21  1  0  0  0  0
 20 22  2  0  0  0  0
 17 18  1  0  0  0  0
 17 19  1  0  0  0  0
 17 20  1  0  0  0  0
 14 15  1  0  0  0  0
 14 16  1  0  0  0  0
 14 17  1  0  0  0  0
 11 12  1  0  0  0  0
 11 13  1  0  0  0  0
 11 14  1  0  0  0  0
  9 10  1  0  0  0  0
  9 11  1  0  0  0  0
  9 29  1  0  0  0  0
  7  8  1  0  0  0  0
  7  9  1  0  0  0  0
 33 34  1  0  0  0  0
 33 35  1  0  0  0  0
 33 36  1  0  0  0  0
 31 32  1  0  0  0  0
 31 33  1  0  0  0  0
M  CHG  1  20   1
M  END
$$$$
default_name
  -OEChem-02102213163D

 36 35  0     1  0  0  0  0  0999 V2000
   -4.2256   -3.6731    1.8584 H   0  0  0  0  0  0  0  0  0  0  0  0
   -4.2396   -2.6781    1.4144 C   0  0  0  0  0  0  0  0  0  0  0  0
   -4.9506   -2.0521    1.9514 H   0  0  0  0  0  0  0  0  0  0  0  0
   -4.5266   -2.7521    0.3674 H   0  0  0  0  0  0  0  0  0  0  0  0
   -2.8576   -2.0761    1.5184 C   0  0  0  0  0  0  0  0  0  0  0  0
   -1.9456   -2.7051    2.0404 O   0  0  0  0  0  0  0  0  0  0  0  0
   -2.6926   -0.8481    1.0174 N   0  0  0  0  0  0  0  0  0  0  0  0
   -3.4926   -0.3971    0.5954 H   0  0  0  0  0  0  0  0  0  0  0  0
   -1.4216   -0.1071    1.0434 C   0  0  1  0  0  0  0  0  0  0  0  0
   -0.7579   -0.5878    1.7640 H   0  0  0  0  0  0  0  0  0  0  0  0
   -0.7791   -0.1912   -0.3557 C   0  0  0  0  0  0  0  0  0  0  0  0
   -0.1435   -1.0781   -0.3945 H   0  0  0  0  0  0  0  0  0  0  0  0
   -1.5667   -0.3054   -1.1037 H   0  0  0  0  0  0  0  0  0  0  0  0
    0.0783    1.0328   -0.7091 C   0  0  0  0  0  0  0  0  0  0  0  0
    0.5079    1.4572    0.1994 H   0  0  0  0  0  0  0  0  0  0  0  0
    0.8825    0.7284   -1.3798 H   0  0  0  0  0  0  0  0  0  0  0  0
   -0.7874    2.0954   -1.3997 C   0  0  0  0  0  0  0  0  0  0  0  0
   -1.2345    1.6540   -2.2934 H   0  0  0  0  0  0  0  0  0  0  0  0
   -1.5860    2.3916   -0.7155 H   0  0  0  0  0  0  0  0  0  0  0  0
    0.0031    3.2842   -1.7801 N   0  3  0  0  0  0  0  0  0  0  0  0
    0.9725    3.2867   -1.5124 H   0  0  0  0  0  0  0  0  0  0  0  0
   -0.4427    4.3416   -2.4374 C   0  0  0  0  0  0  0  0  0  0  0  0
   -1.6814    4.4416   -2.8312 N   0  0  0  0  0  0  0  0  0  0  0  0
   -2.3155    3.6890   -2.6289 H   0  0  0  0  0  0  0  0  0  0  0  0
   -2.0036    5.2512   -3.3288 H   0  0  0  0  0  0  0  0  0  0  0  0
    0.3572    5.3320   -2.7143 N   0  0  0  0  0  0  0  0  0  0  0  0
    1.3215    5.3006   -2.4314 H   0  0  0  0  0  0  0  0  0  0  0  0
    0.0149    6.1323   -3.2133 H   0  0  0  0  0  0  0  0  0  0  0  0
   -1.6547    1.3413    1.4779 C   0  0  0  0  0  0  0  0  0  0  0  0
   -2.5654    1.9858    0.9716 O   0  0  0  0  0  0  0  0  0  0  0  0
   -0.8107    1.8504    2.3808 N   0  0  0  0  0  0  0  0  0  0  0  0
   -0.1136    1.2381    2.7719 H   0  0  0  0  0  0  0  0  0  0  0  0
   -0.8954    3.2155    2.9026 C   0  0  0  0  0  0  0  0  0  0  0  0
   -1.8299    3.3430    3.4532 H   0  0  0  0  0  0  0  0  0  0  0  0
   -0.0581    3.4194    3.5712 H   0  0  0  0  0  0  0  0  0  0  0  0
   -0.8804    3.9320    2.0784 H   0  0  0  0  0  0  0  0  0  0  0  0
  5  6  2  0  0  0  0
  5  7  1  0  0  0  0
  2  3  1  0  0  0  0
  2  4  1  0  0  0  0
  2  5  1  0  0  0  0
  1  2  1  0  0  0  0
 29 30  2  0  0  0  0
 29 31  1  0  0  0  0
 26 27  1  0  0  0  0
 26 28  1  0  0  0  0
 23 24  1  0  0  0  0
 23 25  1  0  0  0  0
 22 23  1  0  0  0  0
 22 26  1  0  0  0  0
 20 21  1  0  0  0  0
 20 22  2  0  0  0  0
 17 18  1  0  0  0  0
 17 19  1  0  0  0  0
 17 20  1  0  0  0  0
 14 15  1  0  0  0  0
 14 16  1  0  0  0  0
 14 17  1  0  0  0  0
 11 12  1  0  0  0  0
 11 13  1  0  0  0  0
 11 14  1  0  0  0  0
  9 10  1  0  0  0  0
  9 11  1  0  0  0  0
  9 29  1  0  0  0  0
  7  8  1  0  0  0  0
  7  9  1  0  0  0  0
 33 34  1  0  0  0  0
 33 35  1  0  0  0  0
 33 36  1  0  0  0  0
 31 32  1  0  0  0  0
 31 33  1  0  0  0  0
M  CHG  1  20   1
M  END
$$$$
default_name
  -OEChem-02102213163D

 36 35  0     1  0  0  0  0  0999 V2000
   -4.2256   -3.6731    1.8584 H   0  0  0  0  0  0  0  0  0  0  0  0
   -4.2396   -2.6781    1.4144 C   0  0  0  0  0  0  0  0  0  0  0  0
   -4.9506   -2.0521    1.9514 H   0  0  0  0  0  0  0  0  0  0  0  0
   -4.5266   -2.7521    0.3674 H   0  0  0  0  0  0  0  0  0  0  0  0
   -2.8576   -2.0761    1.5184 C   0  0  0  0  0  0  0  0  0  0  0  0
   -1.9456   -2.7051    2.0404 O   0  0  0  0  0  0  0  0  0  0  0  0
   -2.6926   -0.8481    1.0174 N   0  0  0  0  0  0  0  0  0  0  0  0
   -3.4926   -0.3971    0.5954 H   0  0  0  0  0  0  0  0  0  0  0  0
   -1.4216   -0.1071    1.0434 C   0  0  1  0  0  0  0  0  0  0  0  0
   -0.7579   -0.5878    1.7640 H   0  0  0  0  0  0  0  0  0  0  0  0
   -0.7791   -0.1912   -0.3557 C   0  0  0  0  0  0  0  0  0  0  0  0
   -0.1435   -1.0781   -0.3945 H   0  0  0  0  0  0  0  0  0  0  0  0
   -1.5667   -0.3054   -1.1037 H   0  0  0  0  0  0  0  0  0  0  0  0
    0.0783    1.0328   -0.7091 C   0  0  0  0  0  0  0  0  0  0  0  0
    0.7130    1.2958    0.1383 H   0  0  0  0  0  0  0  0  0  0  0  0
    0.7055    0.7976   -1.5696 H   0  0  0  0  0  0  0  0  0  0  0  0
   -0.8271    2.2248   -1.0481 C   0  0  0  0  0  0  0  0  0  0  0  0
   -1.4772    1.9434   -1.8798 H   0  0  0  0  0  0  0  0  0  0  0  0
   -1.4467    2.4496   -0.1768 H   0  0  0  0  0  0  0  0  0  0  0  0
   -0.0431    3.4210   -1.4184 N   0  3  0  0  0  0  0  0  0  0  0  0
    0.9578    3.3400   -1.3632 H   0  0  0  0  0  0  0  0  0  0  0  0
   -0.5322    4.5842   -1.8144 C   0  0  0  0  0  0  0  0  0  0  0  0
   -1.8138    4.7973   -1.9208 N   0  0  0  0  0  0  0  0  0  0  0  0
   -2.4485    4.0518   -1.6954 H   0  0  0  0  0  0  0  0  0  0  0  0
   -2.1684    5.6862   -2.2225 H   0  0  0  0  0  0  0  0  0  0  0  0
    0.2671    5.5685   -2.1139 N   0  0  0  0  0  0  0  0  0  0  0  0
    1.2636    5.4520   -2.0476 H   0  0  0  0  0  0  0  0  0  0  0  0
   -0.1081    6.4492   -2.4140 H   0  0  0  0  0  0  0  0  0  0  0  0
   -1.6547    1.3413    1.4779 C   0  0  0  0  0  0  0  0  0  0  0  0
   -2.5654    1.9858    0.9716 O   0  0  0  0  0  0  0  0  0  0  0  0
   -0.8107    1.8504    2.3808 N   0  0  0  0  0  0  0  0  0  0  0  0
   -0.1136    1.2381    2.7719 H   0  0  0  0  0  0  0  0  0  0  0  0
   -0.8954    3.2155    2.9026 C   0  0  0  0  0  0  0  0  0  0  0  0
   -1.8299    3.3430    3.4532 H   0  0  0  0  0  0  0  0  0  0  0  0
   -0.0581    3.4194    3.5712 H   0  0  0  0  0  0  0  0  0  0  0  0
   -0.8804    3.9320    2.0784 H   0  0  0  0  0  0  0  0  0  0  0  0
  5  6  2  0  0  0  0
  5  7  1  0  0  0  0
  2  3  1  0  0  0  0
  2  4  1  0  0  0  0
  2  5  1  0  0  0  0
  1  2  1  0  0  0  0
 29 30  2  0  0  0  0
 29 31  1  0  0  0  0
 26 27  1  0  0  0  0
 26 28  1  0  0  0  0
 23 24  1  0  0  0  0
 23 25  1  0  0  0  0
 22 23  1  0  0  0  0
 22 26  1  0  0  0  0
 20 21  1  0  0  0  0
 20 22  2  0  0  0  0
 17 18  1  0  0  0  0
 17 19  1  0  0  0  0
 17 20  1  0  0  0  0
 14 15  1  0  0  0  0
 14 16  1  0  0  0  0
 14 17  1  0  0  0  0
 11 12  1  0  0  0  0
 11 13  1  0  0  0  0
 11 14  1  0  0  0  0
  9 10  1  0  0  0  0
  9 11  1  0  0  0  0
  9 29  1  0  0  0  0
  7  8  1  0  0  0  0
  7  9  1  0  0  0  0
 33 34  1  0  0  0  0
 33 35  1  0  0  0  0
 33 36  1  0  0  0  0
 31 32  1  0  0  0  0
 31 33  1  0  0  0  0
M  CHG  1  20   1
M  END
$$$$
default_name
  -OEChem-02102213163D

 36 35  0     1  0  0  0  0  0999 V2000
   -4.2256   -3.6731    1.8584 H   0  0  0  0  0  0  0  0  0  0  0  0
   -4.2396   -2.6781    1.4144 C   0  0  0  0  0  0  0  0  0  0  0  0
   -4.9506   -2.0521    1.9514 H   0  0  0  0  0  0  0  0  0  0  0  0
   -4.5266   -2.7521    0.3674 H   0  0  0  0  0  0  0  0  0  0  0  0
   -2.8576   -2.0761    1.5184 C   0  0  0  0  0  0  0  0  0  0  0  0
   -1.9456   -2.7051    2.0404 O   0  0  0  0  0  0  0  0  0  0  0  0
   -2.6926   -0.8481    1.0174 N   0  0  0  0  0  0  0  0  0  0  0  0
   -3.4926   -0.3971    0.5954 H   0  0  0  0  0  0  0  0  0  0  0  0
   -1.4216   -0.1071    1.0434 C   0  0  1  0  0  0  0  0  0  0  0  0
   -0.7579   -0.5878    1.7640 H   0  0  0  0  0  0  0  0  0  0  0  0
   -0.7791   -0.1912   -0.3557 C   0  0  0  0  0  0  0  0  0  0  0  0
   -0.1435   -1.0781   -0.3945 H   0  0  0  0  0  0  0  0  0  0  0  0
   -1.5667   -0.3054   -1.1037 H   0  0  0  0  0  0  0  0  0  0  0  0
    0.0783    1.0328   -0.7091 C   0  0  0  0  0  0  0  0  0  0  0  0
    0.8888    1.1366    0.0136 H   0  0  0  0  0  0  0  0  0  0  0  0
    0.4994    0.9024   -1.7065 H   0  0  0  0  0  0  0  0  0  0  0  0
   -0.7852    2.3013   -0.6816 C   0  0  0  0  0  0  0  0  0  0  0  0
   -1.6090    2.1777   -1.3884 H   0  0  0  0  0  0  0  0  0  0  0  0
   -1.1975    2.4194    0.3232 H   0  0  0  0  0  0  0  0  0  0  0  0
   -0.0050    3.5037   -1.0397 N   0  3  0  0  0  0  0  0  0  0  0  0
    0.9775    3.3709   -1.2084 H   0  0  0  0  0  0  0  0  0  0  0  0
   -0.4756    4.7338   -1.1591 C   0  0  0  0  0  0  0  0  0  0  0  0
   -1.7327    5.0172   -0.9626 N   0  0  0  0  0  0  0  0  0  0  0  0
   -2.3627    4.2752   -0.7139 H   0  0  0  0  0  0  0  0  0  0  0  0
   -2.0734    5.9563   -1.0569 H   0  0  0  0  0  0  0  0  0  0  0  0
    0.3181    5.7155   -1.4813 N   0  0  0  0  0  0  0  0  0  0  0  0
    1.2958    5.5462   -1.6432 H   0  0  0  0  0  0  0  0  0  0  0  0
   -0.0431    6.6472   -1.5709 H   0  0  0  0  0  0  0  0  0  0  0  0
   -1.6547    1.3413    1.4779 C   0  0  0  0  0  0  0  0  0  0  0  0
   -2.5654    1.9858    0.9716 O   0  0  0  0  0  0  0  0  0  0  0  0
   -0.8107    1.8504    2.3808 N   0  0  0  0  0  0  0  0  0  0  0  0
   -0.1136    1.2381    2.7719 H   0  0  0  0  0  0  0  0  0  0  0  0
   -0.8954    3.2155    2.9026 C   0  0  0  0  0  0  0  0  0  0  0  0
   -1.8299    3.3430    3.4532 H   0  0  0  0  0  0  0  0  0  0  0  0
   -0.0581    3.4194    3.5712 H   0  0  0  0  0  0  0  0  0  0  0  0
   -0.8804    3.9320    2.0784 H   0  0  0  0  0  0  0  0  0  0  0  0
  5  6  2  0  0  0  0
  5  7  1  0  0  0  0
  2  3  1  0  0  0  0
  2  4  1  0  0  0  0
  2  5  1  0  0  0  0
  1  2  1  0  0  0  0
 29 30  2  0  0  0  0
 29 31  1  0  0  0  0
 26 27  1  0  0  0  0
 26 28  1  0  0  0  0
 23 24  1  0  0  0  0
 23 25  1  0  0  0  0
 22 23  1  0  0  0  0
 22 26  1  0  0  0  0
 20 21  1  0  0  0  0
 20 22  2  0  0  0  0
 17 18  1  0  0  0  0
 17 19  1  0  0  0  0
 17 20  1  0  0  0  0
 14 15  1  0  0  0  0
 14 16  1  0  0  0  0
 14 17  1  0  0  0  0
 11 12  1  0  0  0  0
 11 13  1  0  0  0  0
 11 14  1  0  0  0  0
  9 10  1  0  0  0  0
  9 11  1  0  0  0  0
  9 29  1  0  0  0  0
  7  8  1  0  0  0  0
  7  9  1  0  0  0  0
 33 34  1  0  0  0  0
 33 35  1  0  0  0  0
 33 36  1  0  0  0  0
 31 32  1  0  0  0  0
 31 33  1  0  0  0  0
M  CHG  1  20   1
M  END
$$$$
default_name
  -OEChem-02102213163D

 36 35  0     1  0  0  0  0  0999 V2000
   -4.2256   -3.6731    1.8584 H   0  0  0  0  0  0  0  0  0  0  0  0
   -4.2396   -2.6781    1.4144 C   0  0  0  0  0  0  0  0  0  0  0  0
   -4.9506   -2.0521    1.9514 H   0  0  0  0  0  0  0  0  0  0  0  0
   -4.5266   -2.7521    0.3674 H   0  0  0  0  0  0  0  0  0  0  0  0
   -2.8576   -2.0761    1.5184 C   0  0  0  0  0  0  0  0  0  0  0  0
   -1.9456   -2.7051    2.0404 O   0  0  0  0  0  0  0  0  0  0  0  0
   -2.6926   -0.8481    1.0174 N   0  0  0  0  0  0  0  0  0  0  0  0
   -3.4926   -0.3971    0.5954 H   0  0  0  0  0  0  0  0  0  0  0  0
   -1.4216   -0.1071    1.0434 C   0  0  1  0  0  0  0  0  0  0  0  0
   -0.7579   -0.5878    1.7640 H   0  0  0  0  0  0  0  0  0  0  0  0
   -0.7791   -0.1912   -0.3557 C   0  0  0  0  0  0  0  0  0  0  0  0
   -0.1435   -1.0781   -0.3945 H   0  0  0  0  0  0  0  0  0  0  0  0
   -1.5667   -0.3054   -1.1037 H   0  0  0  0  0  0  0  0  0  0  0  0
    0.0783    1.0328   -0.7091 C   0  0  0  0  0  0  0  0  0  0  0  0
    1.0235    0.9904   -0.1661 H   0  0  0  0  0  0  0  0  0  0  0  0
    0.2784    1.0356   -1.7811 H   0  0  0  0  0  0  0  0  0  0  0  0
   -0.6646    2.3197   -0.3252 C   0  0  0  0  0  0  0  0  0  0  0  0
   -1.6210    2.3408   -0.8528 H   0  0  0  0  0  0  0  0  0  0  0  0
   -0.8556    2.3032    0.7504 H   0  0  0  0  0  0  0  0  0  0  0  0
    0.1149    3.5265   -0.6699 N   0  3  0  0  0  0  0  0  0  0  0  0
    1.0304    3.3772   -1.0584 H   0  0  0  0  0  0  0  0  0  0  0  0
   -0.2768    4.7803   -0.5162 C   0  0  0  0  0  0  0  0  0  0  0  0
   -1.4436    5.0863   -0.0220 N   0  0  0  0  0  0  0  0  0  0  0  0
   -2.0641    4.3440    0.2488 H   0  0  0  0  0  0  0  0  0  0  0  0
   -1.7252    6.0431    0.0883 H   0  0  0  0  0  0  0  0  0  0  0  0
    0.5065    5.7631   -0.8594 N   0  0  0  0  0  0  0  0  0  0  0  0
    1.4161    5.5768   -1.2455 H   0  0  0  0  0  0  0  0  0  0  0  0
    0.2054    6.7128   -0.7412 H   0  0  0  0  0  0  0  0  0  0  0  0
   -1.6547    1.3413    1.4779 C   0  0  0  0  0  0  0  0  0  0  0  0
   -2.5654    1.9858    0.9716 O   0  0  0  0  0  0  0  0  0  0  0  0
   -0.8107    1.8504    2.3808 N   0  0  0  0  0  0  0  0  0  0  0  0
   -0.1136    1.2381    2.7719 H   0  0  0  0  0  0  0  0  0  0  0  0
   -0.8954    3.2155    2.9026 C   0  0  0  0  0  0  0  0  0  0  0  0
   -1.8299    3.3430    3.4532 H   0  0  0  0  0  0  0  0  0  0  0  0
   -0.0581    3.4194    3.5712 H   0  0  0  0  0  0  0  0  0  0  0  0
   -0.8804    3.9320    2.0784 H   0  0  0  0  0  0  0  0  0  0  0  0
  5  6  2  0  0  0  0
  5  7  1  0  0  0  0
  2  3  1  0  0  0  0
  2  4  1  0  0  0  0
  2  5  1  0  0  0  0
  1  2  1  0  0  0  0
 29 30  2  0  0  0  0
 29 31  1  0  0  0  0
 26 27  1  0  0  0  0
 26 28  1  0  0  0  0
 23 24  1  0  0  0  0
 23 25  1  0  0  0  0
 22 23  1  0  0  0  0
 22 26  1  0  0  0  0
 20 21  1  0  0  0  0
 20 22  2  0  0  0  0
 17 18  1  0  0  0  0
 17 19  1  0  0  0  0
 17 20  1  0  0  0  0
 14 15  1  0  0  0  0
 14 16  1  0  0  0  0
 14 17  1  0  0  0  0
 11 12  1  0  0  0  0
 11 13  1  0  0  0  0
 11 14  1  0  0  0  0
  9 10  1  0  0  0  0
  9 11  1  0  0  0  0
  9 29  1  0  0  0  0
  7  8  1  0  0  0  0
  7  9  1  0  0  0  0
 33 34  1  0  0  0  0
 33 35  1  0  0  0  0
 33 36  1  0  0  0  0
 31 32  1  0  0  0  0
 31 33  1  0  0  0  0
M  CHG  1  20   1
M  END
$$$$
default_name
  -OEChem-02102213163D

 36 35  0     1  0  0  0  0  0999 V2000
   -4.2256   -3.6731    1.8584 H   0  0  0  0  0  0  0  0  0  0  0  0
   -4.2396   -2.6781    1.4144 C   0  0  0  0  0  0  0  0  0  0  0  0
   -4.9506   -2.0521    1.9514 H   0  0  0  0  0  0  0  0  0  0  0  0
   -4.5266   -2.7521    0.3674 H   0  0  0  0  0  0  0  0  0  0  0  0
   -2.8576   -2.0761    1.5184 C   0  0  0  0  0  0  0  0  0  0  0  0
   -1.9456   -2.7051    2.0404 O   0  0  0  0  0  0  0  0  0  0  0  0
   -2.6926   -0.8481    1.0174 N   0  0  0  0  0  0  0  0  0  0  0  0
   -3.4926   -0.3971    0.5954 H   0  0  0  0  0  0  0  0  0  0  0  0
   -1.4216   -0.1071    1.0434 C   0  0  1  0  0  0  0  0  0  0  0  0
   -0.7579   -0.5878    1.7640 H   0  0  0  0  0  0  0  0  0  0  0  0
   -0.7791   -0.1912   -0.3557 C   0  0  0  0  0  0  0  0  0  0  0  0
   -0.1435   -1.0781   -0.3945 H   0  0  0  0  0  0  0  0  0  0  0  0
   -1.5667   -0.3054   -1.1037 H   0  0  0  0  0  0  0  0  0  0  0  0
    0.0783    1.0328   -0.7091 C   0  0  0  0  0  0  0  0  0  0  0  0
    1.1078    0.8671   -0.3886 H   0  0  0  0  0  0  0  0  0  0  0  0
    0.0575    1.1883   -1.7883 H   0  0  0  0  0  0  0  0  0  0  0  0
   -0.4735    2.2788   -0.0032 C   0  0  0  0  0  0  0  0  0  0  0  0
   -1.5124    2.4217   -0.3093 H   0  0  0  0  0  0  0  0  0  0  0  0
   -0.4440    2.1089    1.0757 H   0  0  0  0  0  0  0  0  0  0  0  0
    0.3084    3.4880   -0.3341 N   0  3  0  0  0  0  0  0  0  0  0  0
    1.1128    3.3584   -0.9236 H   0  0  0  0  0  0  0  0  0  0  0  0
    0.0506    4.7204    0.0705 C   0  0  0  0  0  0  0  0  0  0  0  0
   -0.9662    4.9999    0.8369 N   0  0  0  0  0  0  0  0  0  0  0  0
   -1.5729    4.2536    1.1270 H   0  0  0  0  0  0  0  0  0  0  0  0
   -1.1474    5.9407    1.1352 H   0  0  0  0  0  0  0  0  0  0  0  0
    0.8197    5.7079   -0.2907 N   0  0  0  0  0  0  0  0  0  0  0  0
    1.6160    5.5418   -0.8817 H   0  0  0  0  0  0  0  0  0  0  0  0
    0.6205    6.6414    0.0184 H   0  0  0  0  0  0  0  0  0  0  0  0
   -1.6547    1.3413    1.4779 C   0  0  0  0  0  0  0  0  0  0  0  0
   -2.5654    1.9858    0.9716 O   0  0  0  0  0  0  0  0  0  0  0  0
   -0.8107    1.8504    2.3808 N   0  0  0  0  0  0  0  0  0  0  0  0
   -0.1136    1.2381    2.7719 H   0  0  0  0  0  0  0  0  0  0  0  0
   -0.8954    3.2155    2.9026 C   0  0  0  0  0  0  0  0  0  0  0  0
   -1.8299    3.3430    3.4532 H   0  0  0  0  0  0  0  0  0  0  0  0
   -0.0581    3.4194    3.5712 H   0  0  0  0  0  0  0  0  0  0  0  0
   -0.8804    3.9320    2.0784 H   0  0  0  0  0  0  0  0  0  0  0  0
  5  6  2  0  0  0  0
  5  7  1  0  0  0  0
  2  3  1  0  0  0  0
  2  4  1  0  0  0  0
  2  5  1  0  0  0  0
  1  2  1  0  0  0  0
 29 30  2  0  0  0  0
 29 31  1  0  0  0  0
 26 27  1  0  0  0  0
 26 28  1  0  0  0  0
 23 24  1  0  0  0  0
 23 25  1  0  0  0  0
 22 23  1  0  0  0  0
 22 26  1  0  0  0  0
 20 21  1  0  0  0  0
 20 22  2  0  0  0  0
 17 18  1  0  0  0  0
 17 19  1  0  0  0  0
 17 20  1  0  0  0  0
 14 15  1  0  0  0  0
 14 16  1  0  0  0  0
 14 17  1  0  0  0  0
 11 12  1  0  0  0  0
 11 13  1  0  0  0  0
 11 14  1  0  0  0  0
  9 10  1  0  0  0  0
  9 11  1  0  0  0  0
  9 29  1  0  0  0  0
  7  8  1  0  0  0  0
  7  9  1  0  0  0  0
 33 34  1  0  0  0  0
 33 35  1  0  0  0  0
 33 36  1  0  0  0  0
 31 32  1  0  0  0  0
 31 33  1  0  0  0  0
M  CHG  1  20   1
M  END
$$$$
default_name
  -OEChem-02102213163D

 36 35  0     1  0  0  0  0  0999 V2000
   -4.2256   -3.6731    1.8584 H   0  0  0  0  0  0  0  0  0  0  0  0
   -4.2396   -2.6781    1.4144 C   0  0  0  0  0  0  0  0  0  0  0  0
   -4.9506   -2.0521    1.9514 H   0  0  0  0  0  0  0  0  0  0  0  0
   -4.5266   -2.7521    0.3674 H   0  0  0  0  0  0  0  0  0  0  0  0
   -2.8576   -2.0761    1.5184 C   0  0  0  0  0  0  0  0  0  0  0  0
   -1.9456   -2.7051    2.0404 O   0  0  0  0  0  0  0  0  0  0  0  0
   -2.6926   -0.8481    1.0174 N   0  0  0  0  0  0  0  0  0  0  0  0
   -3.4926   -0.3971    0.5954 H   0  0  0  0  0  0  0  0  0  0  0  0
   -1.4216   -0.1071    1.0434 C   0  0  1  0  0  0  0  0  0  0  0  0
   -0.7579   -0.5878    1.7640 H   0  0  0  0  0  0  0  0  0  0  0  0
   -0.7791   -0.1912   -0.3557 C   0  0  0  0  0  0  0  0  0  0  0  0
   -0.1435   -1.0781   -0.3945 H   0  0  0  0  0  0  0  0  0  0  0  0
   -1.5667   -0.3054   -1.1037 H   0  0  0  0  0  0  0  0  0  0  0  0
    0.0783    1.0328   -0.7091 C   0  0  0  0  0  0  0  0  0  0  0  0
    1.1360    0.7751   -0.6388 H   0  0  0  0  0  0  0  0  0  0  0  0
   -0.1482    1.3500   -1.7276 H   0  0  0  0  0  0  0  0  0  0  0  0
   -0.2249    2.1814    0.2626 C   0  0  0  0  0  0  0  0  0  0  0  0
   -1.2905    2.4148    0.2049 H   0  0  0  0  0  0  0  0  0  0  0  0
    0.0090    1.8496    1.2769 H   0  0  0  0  0  0  0  0  0  0  0  0
    0.5622    3.3907   -0.0552 N   0  3  0  0  0  0  0  0  0  0  0  0
    1.2190    3.3159   -0.8130 H   0  0  0  0  0  0  0  0  0  0  0  0
    0.4843    4.5582    0.5610 C   0  0  0  0  0  0  0  0  0  0  0  0
   -0.3330    4.7639    1.5555 N   0  0  0  0  0  0  0  0  0  0  0  0
   -0.9227    4.0100    1.8610 H   0  0  0  0  0  0  0  0  0  0  0  0
   -0.3795    5.6561    2.0125 H   0  0  0  0  0  0  0  0  0  0  0  0
    1.2362    5.5538    0.1860 N   0  0  0  0  0  0  0  0  0  0  0  0
    1.8821    5.4435   -0.5767 H   0  0  0  0  0  0  0  0  0  0  0  0
    1.1738    6.4379    0.6561 H   0  0  0  0  0  0  0  0  0  0  0  0
   -1.6547    1.3413    1.4779 C   0  0  0  0  0  0  0  0  0  0  0  0
   -2.5654    1.9858    0.9716 O   0  0  0  0  0  0  0  0  0  0  0  0
   -0.8107    1.8504    2.3808 N   0  0  0  0  0  0  0  0  0  0  0  0
   -0.1136    1.2381    2.7719 H   0  0  0  0  0  0  0  0  0  0  0  0
   -0.8954    3.2155    2.9026 C   0  0  0  0  0  0  0  0  0  0  0  0
   -1.8299    3.3430    3.4532 H   0  0  0  0  0  0  0  0  0  0  0  0
   -0.0581    3.4194    3.5712 H   0  0  0  0  0  0  0  0  0  0  0  0
   -0.8804    3.9320    2.0784 H   0  0  0  0  0  0  0  0  0  0  0  0
  5  6  2  0  0  0  0
  5  7  1  0  0  0  0
  2  3  1  0  0  0  0
  2  4  1  0  0  0  0
  2  5  1  0  0  0  0
  1  2  1  0  0  0  0
 29 30  2  0  0  0  0
 29 31  1  0  0  0  0
 26 27  1  0  0  0  0
 26 28  1  0  0  0  0
 23 24  1  0  0  0  0
 23 25  1  0  0  0  0
 22 23  1  0  0  0  0
 22 26  1  0  0  0  0
 20 21  1  0  0  0  0
 20 22  2  0  0  0  0
 17 18  1  0  0  0  0
 17 19  1  0  0  0  0
 17 20  1  0  0  0  0
 14 15  1  0  0  0  0
 14 16  1  0  0  0  0
 14 17  1  0  0  0  0
 11 12  1  0  0  0  0
 11 13  1  0  0  0  0
 11 14  1  0  0  0  0
  9 10  1  0  0  0  0
  9 11  1  0  0  0  0
  9 29  1  0  0  0  0
  7  8  1  0  0  0  0
  7  9  1  0  0  0  0
 33 34  1  0  0  0  0
 33 35  1  0  0  0  0
 33 36  1  0  0  0  0
 31 32  1  0  0  0  0
 31 33  1  0  0  0  0
M  CHG  1  20   1
M  END
$$$$
default_name
  -OEChem-02102213163D

 36 35  0     1  0  0  0  0  0999 V2000
   -4.2256   -3.6731    1.8584 H   0  0  0  0  0  0  0  0  0  0  0  0
   -4.2396   -2.6781    1.4144 C   0  0  0  0  0  0  0  0  0  0  0  0
   -4.9506   -2.0521    1.9514 H   0  0  0  0  0  0  0  0  0  0  0  0
   -4.5266   -2.7521    0.3674 H   0  0  0  0  0  0  0  0  0  0  0  0
   -2.8576   -2.0761    1.5184 C   0  0  0  0  0  0  0  0  0  0  0  0
   -1.9456   -2.7051    2.0404 O   0  0  0  0  0  0  0  0  0  0  0  0
   -2.6926   -0.8481    1.0174 N   0  0  0  0  0  0  0  0  0  0  0  0
   -3.4926   -0.3971    0.5954 H   0  0  0  0  0  0  0  0  0  0  0  0
   -1.4216   -0.1071    1.0434 C   0  0  1  0  0  0  0  0  0  0  0  0
   -0.7579   -0.5878    1.7640 H   0  0  0  0  0  0  0  0  0  0  0  0
   -0.7791   -0.1912   -0.3557 C   0  0  0  0  0  0  0  0  0  0  0  0
   -0.1435   -1.0781   -0.3945 H   0  0  0  0  0  0  0  0  0  0  0  0
   -1.5667   -0.3054   -1.1037 H   0  0  0  0  0  0  0  0  0  0  0  0
    0.0783    1.0328   -0.7091 C   0  0  0  0  0  0  0  0  0  0  0  0
    1.1061    0.7207   -0.8995 H   0  0  0  0  0  0  0  0  0  0  0  0
   -0.3248    1.5097   -1.6031 H   0  0  0  0  0  0  0  0  0  0  0  0
    0.0643    2.0341    0.4539 C   0  0  0  0  0  0  0  0  0  0  0  0
   -0.9706    2.3206    0.6549 H   0  0  0  0  0  0  0  0  0  0  0  0
    0.4727    1.5431    1.3403 H   0  0  0  0  0  0  0  0  0  0  0  0
    0.8592    3.2413    0.1478 N   0  3  0  0  0  0  0  0  0  0  0  0
    1.3420    3.2525   -0.7343 H   0  0  0  0  0  0  0  0  0  0  0  0
    0.9947    4.3049    0.9220 C   0  0  0  0  0  0  0  0  0  0  0  0
    0.4127    4.3944    2.0850 N   0  0  0  0  0  0  0  0  0  0  0  0
   -0.1578    3.6300    2.4006 H   0  0  0  0  0  0  0  0  0  0  0  0
    0.5263    5.2086    2.6604 H   0  0  0  0  0  0  0  0  0  0  0  0
    1.7277    5.3112    0.5382 N   0  0  0  0  0  0  0  0  0  0  0  0
    2.1962    5.2886   -0.3511 H   0  0  0  0  0  0  0  0  0  0  0  0
    1.8278    6.1162    1.1286 H   0  0  0  0  0  0  0  0  0  0  0  0
   -1.6547    1.3413    1.4779 C   0  0  0  0  0  0  0  0  0  0  0  0
   -2.5654    1.9858    0.9716 O   0  0  0  0  0  0  0  0  0  0  0  0
   -0.8107    1.8504    2.3808 N   0  0  0  0  0  0  0  0  0  0  0  0
   -0.1136    1.2381    2.7719 H   0  0  0  0  0  0  0  0  0  0  0  0
   -0.8954    3.2155    2.9026 C   0  0  0  0  0  0  0  0  0  0  0  0
   -1.8299    3.3430    3.4532 H   0  0  0  0  0  0  0  0  0  0  0  0
   -0.0581    3.4194    3.5712 H   0  0  0  0  0  0  0  0  0  0  0  0
   -0.8804    3.9320    2.0784 H   0  0  0  0  0  0  0  0  0  0  0  0
  5  6  2  0  0  0  0
  5  7  1  0  0  0  0
  2  3  1  0  0  0  0
  2  4  1  0  0  0  0
  2  5  1  0  0  0  0
  1  2  1  0  0  0  0
 29 30  2  0  0  0  0
 29 31  1  0  0  0  0
 26 27  1  0  0  0  0
 26 28  1  0  0  0  0
 23 24  1  0  0  0  0
 23 25  1  0  0  0  0
 22 23  1  0  0  0  0
 22 26  1  0  0  0  0
 20 21  1  0  0  0  0
 20 22  2  0  0  0  0
 17 18  1  0  0  0  0
 17 19  1  0  0  0  0
 17 20  1  0  0  0  0
 14 15  1  0  0  0  0
 14 16  1  0  0  0  0
 14 17  1  0  0  0  0
 11 12  1  0  0  0  0
 11 13  1  0  0  0  0
 11 14  1  0  0  0  0
  9 10  1  0  0  0  0
  9 11  1  0  0  0  0
  9 29  1  0  0  0  0
  7  8  1  0  0  0  0
  7  9  1  0  0  0  0
 33 34  1  0  0  0  0
 33 35  1  0  0  0  0
 33 36  1  0  0  0  0
 31 32  1  0  0  0  0
 31 33  1  0  0  0  0
M  CHG  1  20   1
M  END
$$$$
default_name
  -OEChem-02102213163D

 36 35  0     1  0  0  0  0  0999 V2000
   -4.2256   -3.6731    1.8584 H   0  0  0  0  0  0  0  0  0  0  0  0
   -4.2396   -2.6781    1.4144 C   0  0  0  0  0  0  0  0  0  0  0  0
   -4.9506   -2.0521    1.9514 H   0  0  0  0  0  0  0  0  0  0  0  0
   -4.5266   -2.7521    0.3674 H   0  0  0  0  0  0  0  0  0  0  0  0
   -2.8576   -2.0761    1.5184 C   0  0  0  0  0  0  0  0  0  0  0  0
   -1.9456   -2.7051    2.0404 O   0  0  0  0  0  0  0  0  0  0  0  0
   -2.6926   -0.8481    1.0174 N   0  0  0  0  0  0  0  0  0  0  0  0
   -3.4926   -0.3971    0.5954 H   0  0  0  0  0  0  0  0  0  0  0  0
   -1.4216   -0.1071    1.0434 C   0  0  1  0  0  0  0  0  0  0  0  0
   -0.7579   -0.5878    1.7640 H   0  0  0  0  0  0  0  0  0  0  0  0
   -0.7791   -0.1912   -0.3557 C   0  0  0  0  0  0  0  0  0  0  0  0
   -0.1435   -1.0781   -0.3945 H   0  0  0  0  0  0  0  0  0  0  0  0
   -1.5667   -0.3054   -1.1037 H   0  0  0  0  0  0  0  0  0  0  0  0
    0.0783    1.0328   -0.7091 C   0  0  0  0  0  0  0  0  0  0  0  0
    1.0203    0.7076   -1.1530 H   0  0  0  0  0  0  0  0  0  0  0  0
   -0.4602    1.6564   -1.4234 H   0  0  0  0  0  0  0  0  0  0  0  0
    0.3743    1.8470    0.5578 C   0  0  0  0  0  0  0  0  0  0  0  0
   -0.5743    2.1455    1.0099 H   0  0  0  0  0  0  0  0  0  0  0  0
    0.9154    1.2103    1.2617 H   0  0  0  0  0  0  0  0  0  0  0  0
    1.1789    3.0500    0.2610 N   0  3  0  0  0  0  0  0  0  0  0  0
    1.4731    3.1726   -0.6928 H   0  0  0  0  0  0  0  0  0  0  0  0
    1.5471    3.9776    1.1287 C   0  0  0  0  0  0  0  0  0  0  0  0
    1.2203    3.9165    2.3891 N   0  0  0  0  0  0  0  0  0  0  0  0
    0.6697    3.1394    2.7090 H   0  0  0  0  0  0  0  0  0  0  0  0
    1.5083    4.6288    3.0346 H   0  0  0  0  0  0  0  0  0  0  0  0
    2.2606    4.9968    0.7421 N   0  0  0  0  0  0  0  0  0  0  0  0
    2.5369    5.0876   -0.2204 H   0  0  0  0  0  0  0  0  0  0  0  0
    2.5378    5.6983    1.4036 H   0  0  0  0  0  0  0  0  0  0  0  0
   -1.6547    1.3413    1.4779 C   0  0  0  0  0  0  0  0  0  0  0  0
   -2.5654    1.9858    0.9716 O   0  0  0  0  0  0  0  0  0  0  0  0
   -0.8107    1.8504    2.3808 N   0  0  0  0  0  0  0  0  0  0  0  0
   -0.1136    1.2381    2.7719 H   0  0  0  0  0  0  0  0  0  0  0  0
   -0.8954    3.2155    2.9026 C   0  0  0  0  0  0  0  0  0  0  0  0
   -1.8299    3.3430    3.4532 H   0  0  0  0  0  0  0  0  0  0  0  0
   -0.0581    3.4194    3.5712 H   0  0  0  0  0  0  0  0  0  0  0  0
   -0.8804    3.9320    2.0784 H   0  0  0  0  0  0  0  0  0  0  0  0
  5  6  2  0  0  0  0
  5  7  1  0  0  0  0
  2  3  1  0  0  0  0
  2  4  1  0  0  0  0
  2  5  1  0  0  0  0
  1  2  1  0  0  0  0
 29 30  2  0  0  0  0
 29 31  1  0  0  0  0
 26 27  1  0  0  0  0
 26 28  1  0  0  0  0
 23 24  1  0  0  0  0
 23 25  1  0  0  0  0
 22 23  1  0  0  0  0
 22 26  1  0  0  0  0
 20 21  1  0  0  0  0
 20 22  2  0  0  0  0
 17 18  1  0  0  0  0
 17 19  1  0  0  0  0
 17 20  1  0  0  0  0
 14 15  1  0  0  0  0
 14 16  1  0  0  0  0
 14 17  1  0  0  0  0
 11 12  1  0  0  0  0
 11 13  1  0  0  0  0
 11 14  1  0  0  0  0
  9 10  1  0  0  0  0
  9 11  1  0  0  0  0
  9 29  1  0  0  0  0
  7  8  1  0  0  0  0
  7  9  1  0  0  0  0
 33 34  1  0  0  0  0
 33 35  1  0  0  0  0
 33 36  1  0  0  0  0
 31 32  1  0  0  0  0
 31 33  1  0  0  0  0
M  CHG  1  20   1
M  END
$$$$
default_name
  -OEChem-02102213163D

 36 35  0     1  0  0  0  0  0999 V2000
   -4.2256   -3.6731    1.8584 H   0  0  0  0  0  0  0  0  0  0  0  0
   -4.2396   -2.6781    1.4144 C   0  0  0  0  0  0  0  0  0  0  0  0
   -4.9506   -2.0521    1.9514 H   0  0  0  0  0  0  0  0  0  0  0  0
   -4.5266   -2.7521    0.3674 H   0  0  0  0  0  0  0  0  0  0  0  0
   -2.8576   -2.0761    1.5184 C   0  0  0  0  0  0  0  0  0  0  0  0
   -1.9456   -2.7051    2.0404 O   0  0  0  0  0  0  0  0  0  0  0  0
   -2.6926   -0.8481    1.0174 N   0  0  0  0  0  0  0  0  0  0  0  0
   -3.4926   -0.3971    0.5954 H   0  0  0  0  0  0  0  0  0  0  0  0
   -1.4216   -0.1071    1.0434 C   0  0  1  0  0  0  0  0  0  0  0  0
   -0.7579   -0.5878    1.7640 H   0  0  0  0  0  0  0  0  0  0  0  0
   -0.7791   -0.1912   -0.3557 C   0  0  0  0  0  0  0  0  0  0  0  0
   -0.1435   -1.0781   -0.3945 H   0  0  0  0  0  0  0  0  0  0  0  0
   -1.5667   -0.3054   -1.1037 H   0  0  0  0  0  0  0  0  0  0  0  0
    0.0783    1.0328   -0.7091 C   0  0  0  0  0  0  0  0  0  0  0  0
    0.8843    0.7367   -1.3821 H   0  0  0  0  0  0  0  0  0  0  0  0
   -0.5452    1.7803   -1.2007 H   0  0  0  0  0  0  0  0  0  0  0  0
    0.6840    1.6327    0.5671 C   0  0  0  0  0  0  0  0  0  0  0  0
   -0.1288    1.9015    1.2457 H   0  0  0  0  0  0  0  0  0  0  0  0
    1.3069    0.8737    1.0463 H   0  0  0  0  0  0  0  0  0  0  0  0
    1.4998    2.8297    0.2767 N   0  3  0  0  0  0  0  0  0  0  0  0
    1.6037    3.0816   -0.6913 H   0  0  0  0  0  0  0  0  0  0  0  0
    2.1038    3.5987    1.1671 C   0  0  0  0  0  0  0  0  0  0  0  0
    2.0346    3.3628    2.4473 N   0  0  0  0  0  0  0  0  0  0  0  0
    1.5034    2.5716    2.7654 H   0  0  0  0  0  0  0  0  0  0  0  0
    2.4994    3.9562    3.1097 H   0  0  0  0  0  0  0  0  0  0  0  0
    2.7988    4.6318    0.7836 N   0  0  0  0  0  0  0  0  0  0  0  0
    2.8810    4.8544   -0.1935 H   0  0  0  0  0  0  0  0  0  0  0  0
    3.2554    5.2125    1.4624 H   0  0  0  0  0  0  0  0  0  0  0  0
   -1.6547    1.3413    1.4779 C   0  0  0  0  0  0  0  0  0  0  0  0
   -2.5654    1.9858    0.9716 O   0  0  0  0  0  0  0  0  0  0  0  0
   -0.8107    1.8504    2.3808 N   0  0  0  0  0  0  0  0  0  0  0  0
   -0.1136    1.2381    2.7719 H   0  0  0  0  0  0  0  0  0  0  0  0
   -0.8954    3.2155    2.9026 C   0  0  0  0  0  0  0  0  0  0  0  0
   -1.8299    3.3430    3.4532 H   0  0  0  0  0  0  0  0  0  0  0  0
   -0.0581    3.4194    3.5712 H   0  0  0  0  0  0  0  0  0  0  0  0
   -0.8804    3.9320    2.0784 H   0  0  0  0  0  0  0  0  0  0  0  0
  5  6  2  0  0  0  0
  5  7  1  0  0  0  0
  2  3  1  0  0  0  0
  2  4  1  0  0  0  0
  2  5  1  0  0  0  0
  1  2  1  0  0  0  0
 29 30  2  0  0  0  0
 29 31  1  0  0  0  0
 26 27  1  0  0  0  0
 26 28  1  0  0  0  0
 23 24  1  0  0  0  0
 23 25  1  0  0  0  0
 22 23  1  0  0  0  0
 22 26  1  0  0  0  0
 20 21  1  0  0  0  0
 20 22  2  0  0  0  0
 17 18  1  0  0  0  0
 17 19  1  0  0  0  0
 17 20  1  0  0  0  0
 14 15  1  0  0  0  0
 14 16  1  0  0  0  0
 14 17  1  0  0  0  0
 11 12  1  0  0  0  0
 11 13  1  0  0  0  0
 11 14  1  0  0  0  0
  9 10  1  0  0  0  0
  9 11  1  0  0  0  0
  9 29  1  0  0  0  0
  7  8  1  0  0  0  0
  7  9  1  0  0  0  0
 33 34  1  0  0  0  0
 33 35  1  0  0  0  0
 33 36  1  0  0  0  0
 31 32  1  0  0  0  0
 31 33  1  0  0  0  0
M  CHG  1  20   1
M  END
$$$$
default_name
  -OEChem-02102213163D

 36 35  0     1  0  0  0  0  0999 V2000
   -4.2256   -3.6731    1.8584 H   0  0  0  0  0  0  0  0  0  0  0  0
   -4.2396   -2.6781    1.4144 C   0  0  0  0  0  0  0  0  0  0  0  0
   -4.9506   -2.0521    1.9514 H   0  0  0  0  0  0  0  0  0  0  0  0
   -4.5266   -2.7521    0.3674 H   0  0  0  0  0  0  0  0  0  0  0  0
   -2.8576   -2.0761    1.5184 C   0  0  0  0  0  0  0  0  0  0  0  0
   -1.9456   -2.7051    2.0404 O   0  0  0  0  0  0  0  0  0  0  0  0
   -2.6926   -0.8481    1.0174 N   0  0  0  0  0  0  0  0  0  0  0  0
   -3.4926   -0.3971    0.5954 H   0  0  0  0  0  0  0  0  0  0  0  0
   -1.4216   -0.1071    1.0434 C   0  0  1  0  0  0  0  0  0  0  0  0
   -0.7579   -0.5878    1.7640 H   0  0  0  0  0  0  0  0  0  0  0  0
   -0.7791   -0.1912   -0.3557 C   0  0  0  0  0  0  0  0  0  0  0  0
   -0.1435   -1.0781   -0.3945 H   0  0  0  0  0  0  0  0  0  0  0  0
   -1.5667   -0.3054   -1.1037 H   0  0  0  0  0  0  0  0  0  0  0  0
    0.0783    1.0328   -0.7091 C   0  0  0  0  0  0  0  0  0  0  0  0
    0.7074    0.8061   -1.5711 H   0  0  0  0  0  0  0  0  0  0  0  0
   -0.5740    1.8728   -0.9501 H   0  0  0  0  0  0  0  0  0  0  0  0
    0.9723    1.4059    0.4813 C   0  0  0  0  0  0  0  0  0  0  0  0
    0.3357    1.6052    1.3464 H   0  0  0  0  0  0  0  0  0  0  0  0
    1.6207    0.5565    0.7088 H   0  0  0  0  0  0  0  0  0  0  0  0
    1.7998    2.5956    0.1939 N   0  3  0  0  0  0  0  0  0  0  0  0
    1.7246    2.9857   -0.7300 H   0  0  0  0  0  0  0  0  0  0  0  0
    2.6269    3.1940    1.0346 C   0  0  0  0  0  0  0  0  0  0  0  0
    2.8002    2.7711    2.2555 N   0  0  0  0  0  0  0  0  0  0  0  0
    2.2866    1.9653    2.5658 H   0  0  0  0  0  0  0  0  0  0  0  0
    3.4321    3.2366    2.8807 H   0  0  0  0  0  0  0  0  0  0  0  0
    3.3053    4.2412    0.6599 N   0  0  0  0  0  0  0  0  0  0  0  0
    3.2050    4.6046   -0.2722 H   0  0  0  0  0  0  0  0  0  0  0  0
    3.9317    4.6921    1.3009 H   0  0  0  0  0  0  0  0  0  0  0  0
   -1.6547    1.3413    1.4779 C   0  0  0  0  0  0  0  0  0  0  0  0
   -2.5654    1.9858    0.9716 O   0  0  0  0  0  0  0  0  0  0  0  0
   -0.8107    1.8504    2.3808 N   0  0  0  0  0  0  0  0  0  0  0  0
   -0.1136    1.2381    2.7719 H   0  0  0  0  0  0  0  0  0  0  0  0
   -0.8954    3.2155    2.9026 C   0  0  0  0  0  0  0  0  0  0  0  0
   -1.8299    3.3430    3.4532 H   0  0  0  0  0  0  0  0  0  0  0  0
   -0.0581    3.4194    3.5712 H   0  0  0  0  0  0  0  0  0  0  0  0
   -0.8804    3.9320    2.0784 H   0  0  0  0  0  0  0  0  0  0  0  0
  5  6  2  0  0  0  0
  5  7  1  0  0  0  0
  2  3  1  0  0  0  0
  2  4  1  0  0  0  0
  2  5  1  0  0  0  0
  1  2  1  0  0  0  0
 29 30  2  0  0  0  0
 29 31  1  0  0  0  0
 26 27  1  0  0  0  0
 26 28  1  0  0  0  0
 23 24  1  0  0  0  0
 23 25  1  0  0  0  0
 22 23  1  0  0  0  0
 22 26  1  0  0  0  0
 20 21  1  0  0  0  0
 20 22  2  0  0  0  0
 17 18  1  0  0  0  0
 17 19  1  0  0  0  0
 17 20  1  0  0  0  0
 14 15  1  0  0  0  0
 14 16  1  0  0  0  0
 14 17  1  0  0  0  0
 11 12  1  0  0  0  0
 11 13  1  0  0  0  0
 11 14  1  0  0  0  0
  9 10  1  0  0  0  0
  9 11  1  0  0  0  0
  9 29  1  0  0  0  0
  7  8  1  0  0  0  0
  7  9  1  0  0  0  0
 33 34  1  0  0  0  0
 33 35  1  0  0  0  0
 33 36  1  0  0  0  0
 31 32  1  0  0  0  0
 31 33  1  0  0  0  0
M  CHG  1  20   1
M  END
$$$$
default_name
  -OEChem-02102213163D

 36 35  0     1  0  0  0  0  0999 V2000
   -4.2256   -3.6731    1.8584 H   0  0  0  0  0  0  0  0  0  0  0  0
   -4.2396   -2.6781    1.4144 C   0  0  0  0  0  0  0  0  0  0  0  0
   -4.9506   -2.0521    1.9514 H   0  0  0  0  0  0  0  0  0  0  0  0
   -4.5266   -2.7521    0.3674 H   0  0  0  0  0  0  0  0  0  0  0  0
   -2.8576   -2.0761    1.5184 C   0  0  0  0  0  0  0  0  0  0  0  0
   -1.9456   -2.7051    2.0404 O   0  0  0  0  0  0  0  0  0  0  0  0
   -2.6926   -0.8481    1.0174 N   0  0  0  0  0  0  0  0  0  0  0  0
   -3.4926   -0.3971    0.5954 H   0  0  0  0  0  0  0  0  0  0  0  0
   -1.4216   -0.1071    1.0434 C   0  0  1  0  0  0  0  0  0  0  0  0
   -0.7579   -0.5878    1.7640 H   0  0  0  0  0  0  0  0  0  0  0  0
   -0.7791   -0.1912   -0.3557 C   0  0  0  0  0  0  0  0  0  0  0  0
   -0.1435   -1.0781   -0.3945 H   0  0  0  0  0  0  0  0  0  0  0  0
   -1.5667   -0.3054   -1.1037 H   0  0  0  0  0  0  0  0  0  0  0  0
    0.0783    1.0328   -0.7091 C   0  0  0  0  0  0  0  0  0  0  0  0
    0.5016    0.9109   -1.7071 H   0  0  0  0  0  0  0  0  0  0  0  0
   -0.5445    1.9277   -0.6888 H   0  0  0  0  0  0  0  0  0  0  0  0
    1.2196    1.1821    0.3061 C   0  0  0  0  0  0  0  0  0  0  0  0
    0.7875    1.2767    1.3050 H   0  0  0  0  0  0  0  0  0  0  0  0
    1.8352    0.2801    0.2723 H   0  0  0  0  0  0  0  0  0  0  0  0
    2.0585    2.3636    0.0182 N   0  3  0  0  0  0  0  0  0  0  0  0
    1.8278    2.8915   -0.8061 H   0  0  0  0  0  0  0  0  0  0  0  0
    3.0808    2.7910    0.7403 C   0  0  0  0  0  0  0  0  0  0  0  0
    3.4649    2.1817    1.8267 N   0  0  0  0  0  0  0  0  0  0  0  0
    2.9657    1.3619    2.1239 H   0  0  0  0  0  0  0  0  0  0  0  0
    4.2430    2.5190    2.3630 H   0  0  0  0  0  0  0  0  0  0  0  0
    3.7459    3.8516    0.3795 N   0  0  0  0  0  0  0  0  0  0  0  0
    3.4869    4.3555   -0.4511 H   0  0  0  0  0  0  0  0  0  0  0  0
    4.5207    4.1724    0.9302 H   0  0  0  0  0  0  0  0  0  0  0  0
   -1.6547    1.3413    1.4779 C   0  0  0  0  0  0  0  0  0  0  0  0
   -2.5654    1.9858    0.9716 O   0  0  0  0  0  0  0  0  0  0  0  0
   -0.8107    1.8504    2.3808 N   0  0  0  0  0  0  0  0  0  0  0  0
   -0.1136    1.2381    2.7719 H   0  0  0  0  0  0  0  0  0  0  0  0
   -0.8954    3.2155    2.9026 C   0  0  0  0  0  0  0  0  0  0  0  0
   -1.8299    3.3430    3.4532 H   0  0  0  0  0  0  0  0  0  0  0  0
   -0.0581    3.4194    3.5712 H   0  0  0  0  0  0  0  0  0  0  0  0
   -0.8804    3.9320    2.0784 H   0  0  0  0  0  0  0  0  0  0  0  0
  5  6  2  0  0  0  0
  5  7  1  0  0  0  0
  2  3  1  0  0  0  0
  2  4  1  0  0  0  0
  2  5  1  0  0  0  0
  1  2  1  0  0  0  0
 29 30  2  0  0  0  0
 29 31  1  0  0  0  0
 26 27  1  0  0  0  0
 26 28  1  0  0  0  0
 23 24  1  0  0  0  0
 23 25  1  0  0  0  0
 22 23  1  0  0  0  0
 22 26  1  0  0  0  0
 20 21  1  0  0  0  0
 20 22  2  0  0  0  0
 17 18  1  0  0  0  0
 17 19  1  0  0  0  0
 17 20  1  0  0  0  0
 14 15  1  0  0  0  0
 14 16  1  0  0  0  0
 14 17  1  0  0  0  0
 11 12  1  0  0  0  0
 11 13  1  0  0  0  0
 11 14  1  0  0  0  0
  9 10  1  0  0  0  0
  9 11  1  0  0  0  0
  9 29  1  0  0  0  0
  7  8  1  0  0  0  0
  7  9  1  0  0  0  0
 33 34  1  0  0  0  0
 33 35  1  0  0  0  0
 33 36  1  0  0  0  0
 31 32  1  0  0  0  0
 31 33  1  0  0  0  0
M  CHG  1  20   1
M  END
$$$$
default_name
  -OEChem-02102213163D

 36 35  0     1  0  0  0  0  0999 V2000
   -4.2256   -3.6731    1.8584 H   0  0  0  0  0  0  0  0  0  0  0  0
   -4.2396   -2.6781    1.4144 C   0  0  0  0  0  0  0  0  0  0  0  0
   -4.9506   -2.0521    1.9514 H   0  0  0  0  0  0  0  0  0  0  0  0
   -4.5266   -2.7521    0.3674 H   0  0  0  0  0  0  0  0  0  0  0  0
   -2.8576   -2.0761    1.5184 C   0  0  0  0  0  0  0  0  0  0  0  0
   -1.9456   -2.7051    2.0404 O   0  0  0  0  0  0  0  0  0  0  0  0
   -2.6926   -0.8481    1.0174 N   0  0  0  0  0  0  0  0  0  0  0  0
   -3.4926   -0.3971    0.5954 H   0  0  0  0  0  0  0  0  0  0  0  0
   -1.4216   -0.1071    1.0434 C   0  0  1  0  0  0  0  0  0  0  0  0
   -0.7579   -0.5878    1.7640 H   0  0  0  0  0  0  0  0  0  0  0  0
   -0.7791   -0.1912   -0.3557 C   0  0  0  0  0  0  0  0  0  0  0  0
   -0.1435   -1.0781   -0.3945 H   0  0  0  0  0  0  0  0  0  0  0  0
   -1.5667   -0.3054   -1.1037 H   0  0  0  0  0  0  0  0  0  0  0  0
    0.0783    1.0328   -0.7091 C   0  0  0  0  0  0  0  0  0  0  0  0
    0.2811    1.0441   -1.7810 H   0  0  0  0  0  0  0  0  0  0  0  0
   -0.4589    1.9411   -0.4345 H   0  0  0  0  0  0  0  0  0  0  0  0
    1.4089    0.9765    0.0536 C   0  0  0  0  0  0  0  0  0  0  0  0
    1.1958    0.9385    1.1243 H   0  0  0  0  0  0  0  0  0  0  0  0
    1.9359    0.0635   -0.2336 H   0  0  0  0  0  0  0  0  0  0  0  0
    2.2584    2.1495   -0.2384 N   0  3  0  0  0  0  0  0  0  0  0  0
    1.9061    2.8053   -0.9145 H   0  0  0  0  0  0  0  0  0  0  0  0
    3.4344    2.4173    0.3041 C   0  0  0  0  0  0  0  0  0  0  0  0
    3.9833    1.6346    1.1903 N   0  0  0  0  0  0  0  0  0  0  0  0
    3.4946    0.8025    1.4697 H   0  0  0  0  0  0  0  0  0  0  0  0
    4.8767    1.8524    1.5920 H   0  0  0  0  0  0  0  0  0  0  0  0
    4.0903    3.4895   -0.0385 N   0  0  0  0  0  0  0  0  0  0  0  0
    3.7074    4.1239   -0.7181 H   0  0  0  0  0  0  0  0  0  0  0  0
    4.9821    3.6889    0.3755 H   0  0  0  0  0  0  0  0  0  0  0  0
   -1.6547    1.3413    1.4779 C   0  0  0  0  0  0  0  0  0  0  0  0
   -2.5654    1.9858    0.9716 O   0  0  0  0  0  0  0  0  0  0  0  0
   -0.8107    1.8504    2.3808 N   0  0  0  0  0  0  0  0  0  0  0  0
   -0.1136    1.2381    2.7719 H   0  0  0  0  0  0  0  0  0  0  0  0
   -0.8954    3.2155    2.9026 C   0  0  0  0  0  0  0  0  0  0  0  0
   -1.8299    3.3430    3.4532 H   0  0  0  0  0  0  0  0  0  0  0  0
   -0.0581    3.4194    3.5712 H   0  0  0  0  0  0  0  0  0  0  0  0
   -0.8804    3.9320    2.0784 H   0  0  0  0  0  0  0  0  0  0  0  0
  5  6  2  0  0  0  0
  5  7  1  0  0  0  0
  2  3  1  0  0  0  0
  2  4  1  0  0  0  0
  2  5  1  0  0  0  0
  1  2  1  0  0  0  0
 29 30  2  0  0  0  0
 29 31  1  0  0  0  0
 26 27  1  0  0  0  0
 26 28  1  0  0  0  0
 23 24  1  0  0  0  0
 23 25  1  0  0  0  0
 22 23  1  0  0  0  0
 22 26  1  0  0  0  0
 20 21  1  0  0  0  0
 20 22  2  0  0  0  0
 17 18  1  0  0  0  0
 17 19  1  0  0  0  0
 17 20  1  0  0  0  0
 14 15  1  0  0  0  0
 14 16  1  0  0  0  0
 14 17  1  0  0  0  0
 11 12  1  0  0  0  0
 11 13  1  0  0  0  0
 11 14  1  0  0  0  0
  9 10  1  0  0  0  0
  9 11  1  0  0  0  0
  9 29  1  0  0  0  0
  7  8  1  0  0  0  0
  7  9  1  0  0  0  0
 33 34  1  0  0  0  0
 33 35  1  0  0  0  0
 33 36  1  0  0  0  0
 31 32  1  0  0  0  0
 31 33  1  0  0  0  0
M  CHG  1  20   1
M  END
$$$$
default_name
  -OEChem-02102213163D

 36 35  0     1  0  0  0  0  0999 V2000
   -4.2256   -3.6731    1.8584 H   0  0  0  0  0  0  0  0  0  0  0  0
   -4.2396   -2.6781    1.4144 C   0  0  0  0  0  0  0  0  0  0  0  0
   -4.9506   -2.0521    1.9514 H   0  0  0  0  0  0  0  0  0  0  0  0
   -4.5266   -2.7521    0.3674 H   0  0  0  0  0  0  0  0  0  0  0  0
   -2.8576   -2.0761    1.5184 C   0  0  0  0  0  0  0  0  0  0  0  0
   -1.9456   -2.7051    2.0404 O   0  0  0  0  0  0  0  0  0  0  0  0
   -2.6926   -0.8481    1.0174 N   0  0  0  0  0  0  0  0  0  0  0  0
   -3.4926   -0.3971    0.5954 H   0  0  0  0  0  0  0  0  0  0  0  0
   -1.4216   -0.1071    1.0434 C   0  0  1  0  0  0  0  0  0  0  0  0
   -0.7579   -0.5878    1.7640 H   0  0  0  0  0  0  0  0  0  0  0  0
   -0.7791   -0.1912   -0.3557 C   0  0  0  0  0  0  0  0  0  0  0  0
   -0.1435   -1.0781   -0.3945 H   0  0  0  0  0  0  0  0  0  0  0  0
   -1.5667   -0.3054   -1.1037 H   0  0  0  0  0  0  0  0  0  0  0  0
    0.0783    1.0328   -0.7091 C   0  0  0  0  0  0  0  0  0  0  0  0
    0.0608    1.1965   -1.7875 H   0  0  0  0  0  0  0  0  0  0  0  0
   -0.3230    1.9123   -0.2046 H   0  0  0  0  0  0  0  0  0  0  0  0
    1.5275    0.8031   -0.2591 C   0  0  0  0  0  0  0  0  0  0  0  0
    1.5327    0.6137    0.8167 H   0  0  0  0  0  0  0  0  0  0  0  0
    1.9159   -0.0787   -0.7743 H   0  0  0  0  0  0  0  0  0  0  0  0
    2.3858    1.9678   -0.5585 N   0  3  0  0  0  0  0  0  0  0  0  0
    1.9542    2.7330   -1.0479 H   0  0  0  0  0  0  0  0  0  0  0  0
    3.6638    2.0983   -0.2442 C   0  0  0  0  0  0  0  0  0  0  0  0
    4.3202    1.1673    0.3896 N   0  0  0  0  0  0  0  0  0  0  0  0
    3.8372    0.3251    0.6479 H   0  0  0  0  0  0  0  0  0  0  0  0
    5.2900    1.2821    0.6202 H   0  0  0  0  0  0  0  0  0  0  0  0
    4.3153    3.1797   -0.5657 N   0  0  0  0  0  0  0  0  0  0  0  0
    3.8515    3.9257   -1.0550 H   0  0  0  0  0  0  0  0  0  0  0  0
    5.2847    3.2746   -0.3253 H   0  0  0  0  0  0  0  0  0  0  0  0
   -1.6547    1.3413    1.4779 C   0  0  0  0  0  0  0  0  0  0  0  0
   -2.5654    1.9858    0.9716 O   0  0  0  0  0  0  0  0  0  0  0  0
   -0.8107    1.8504    2.3808 N   0  0  0  0  0  0  0  0  0  0  0  0
   -0.1136    1.2381    2.7719 H   0  0  0  0  0  0  0  0  0  0  0  0
   -0.8954    3.2155    2.9026 C   0  0  0  0  0  0  0  0  0  0  0  0
   -1.8299    3.3430    3.4532 H   0  0  0  0  0  0  0  0  0  0  0  0
   -0.0581    3.4194    3.5712 H   0  0  0  0  0  0  0  0  0  0  0  0
   -0.8804    3.9320    2.0784 H   0  0  0  0  0  0  0  0  0  0  0  0
  5  6  2  0  0  0  0
  5  7  1  0  0  0  0
  2  3  1  0  0  0  0
  2  4  1  0  0  0  0
  2  5  1  0  0  0  0
  1  2  1  0  0  0  0
 29 30  2  0  0  0  0
 29 31  1  0  0  0  0
 26 27  1  0  0  0  0
 26 28  1  0  0  0  0
 23 24  1  0  0  0  0
 23 25  1  0  0  0  0
 22 23  1  0  0  0  0
 22 26  1  0  0  0  0
 20 21  1  0  0  0  0
 20 22  2  0  0  0  0
 17 18  1  0  0  0  0
 17 19  1  0  0  0  0
 17 20  1  0  0  0  0
 14 15  1  0  0  0  0
 14 16  1  0  0  0  0
 14 17  1  0  0  0  0
 11 12  1  0  0  0  0
 11 13  1  0  0  0  0
 11 14  1  0  0  0  0
  9 10  1  0  0  0  0
  9 11  1  0  0  0  0
  9 29  1  0  0  0  0
  7  8  1  0  0  0  0
  7  9  1  0  0  0  0
 33 34  1  0  0  0  0
 33 35  1  0  0  0  0
 33 36  1  0  0  0  0
 31 32  1  0  0  0  0
 31 33  1  0  0  0  0
M  CHG  1  20   1
M  END
$$$$
default_name
  -OEChem-02102213163D

 36 35  0     1  0  0  0  0  0999 V2000
   -4.2256   -3.6731    1.8584 H   0  0  0  0  0  0  0  0  0  0  0  0
   -4.2396   -2.6781    1.4144 C   0  0  0  0  0  0  0  0  0  0  0  0
   -4.9506   -2.0521    1.9514 H   0  0  0  0  0  0  0  0  0  0  0  0
   -4.5266   -2.7521    0.3674 H   0  0  0  0  0  0  0  0  0  0  0  0
   -2.8576   -2.0761    1.5184 C   0  0  0  0  0  0  0  0  0  0  0  0
   -1.9456   -2.7051    2.0404 O   0  0  0  0  0  0  0  0  0  0  0  0
   -2.6926   -0.8481    1.0174 N   0  0  0  0  0  0  0  0  0  0  0  0
   -3.4926   -0.3971    0.5954 H   0  0  0  0  0  0  0  0  0  0  0  0
   -1.4216   -0.1071    1.0434 C   0  0  1  0  0  0  0  0  0  0  0  0
   -0.7579   -0.5878    1.7640 H   0  0  0  0  0  0  0  0  0  0  0  0
   -0.7791   -0.1912   -0.3557 C   0  0  0  0  0  0  0  0  0  0  0  0
   -0.1435   -1.0781   -0.3945 H   0  0  0  0  0  0  0  0  0  0  0  0
   -1.5667   -0.3054   -1.1037 H   0  0  0  0  0  0  0  0  0  0  0  0
    0.0783    1.0328   -0.7091 C   0  0  0  0  0  0  0  0  0  0  0  0
   -0.1443    1.3579   -1.7264 H   0  0  0  0  0  0  0  0  0  0  0  0
   -0.1460    1.8431   -0.0147 H   0  0  0  0  0  0  0  0  0  0  0  0
    1.5672    0.6738   -0.6107 C   0  0  0  0  0  0  0  0  0  0  0  0
    1.7753    0.3242    0.4031 H   0  0  0  0  0  0  0  0  0  0  0  0
    1.7766   -0.1366   -1.3129 H   0  0  0  0  0  0  0  0  0  0  0  0
    2.4320    1.8310   -0.9202 N   0  3  0  0  0  0  0  0  0  0  0  0
    1.9689    2.6797   -1.1971 H   0  0  0  0  0  0  0  0  0  0  0  0
    3.7532    1.8557   -0.8672 C   0  0  0  0  0  0  0  0  0  0  0  0
    4.4527    0.8116   -0.5209 N   0  0  0  0  0  0  0  0  0  0  0  0
    3.9701   -0.0376   -0.2856 H   0  0  0  0  0  0  0  0  0  0  0  0
    5.4549    0.8472   -0.4862 H   0  0  0  0  0  0  0  0  0  0  0  0
    4.4053    2.9432   -1.1661 N   0  0  0  0  0  0  0  0  0  0  0  0
    3.9094    3.7743   -1.4387 H   0  0  0  0  0  0  0  0  0  0  0  0
    5.4076    2.9576   -1.1245 H   0  0  0  0  0  0  0  0  0  0  0  0
   -1.6547    1.3413    1.4779 C   0  0  0  0  0  0  0  0  0  0  0  0
   -2.5654    1.9858    0.9716 O   0  0  0  0  0  0  0  0  0  0  0  0
   -0.8107    1.8504    2.3808 N   0  0  0  0  0  0  0  0  0  0  0  0
   -0.1136    1.2381    2.7719 H   0  0  0  0  0  0  0  0  0  0  0  0
   -0.8954    3.2155    2.9026 C   0  0  0  0  0  0  0  0  0  0  0  0
   -1.8299    3.3430    3.4532 H   0  0  0  0  0  0  0  0  0  0  0  0
   -0.0581    3.4194    3.5712 H   0  0  0  0  0  0  0  0  0  0  0  0
   -0.8804    3.9320    2.0784 H   0  0  0  0  0  0  0  0  0  0  0  0
  5  6  2  0  0  0  0
  5  7  1  0  0  0  0
  2  3  1  0  0  0  0
  2  4  1  0  0  0  0
  2  5  1  0  0  0  0
  1  2  1  0  0  0  0
 29 30  2  0  0  0  0
 29 31  1  0  0  0  0
 26 27  1  0  0  0  0
 26 28  1  0  0  0  0
 23 24  1  0  0  0  0
 23 25  1  0  0  0  0
 22 23  1  0  0  0  0
 22 26  1  0  0  0  0
 20 21  1  0  0  0  0
 20 22  2  0  0  0  0
 17 18  1  0  0  0  0
 17 19  1  0  0  0  0
 17 20  1  0  0  0  0
 14 15  1  0  0  0  0
 14 16  1  0  0  0  0
 14 17  1  0  0  0  0
 11 12  1  0  0  0  0
 11 13  1  0  0  0  0
 11 14  1  0  0  0  0
  9 10  1  0  0  0  0
  9 11  1  0  0  0  0
  9 29  1  0  0  0  0
  7  8  1  0  0  0  0
  7  9  1  0  0  0  0
 33 34  1  0  0  0  0
 33 35  1  0  0  0  0
 33 36  1  0  0  0  0
 31 32  1  0  0  0  0
 31 33  1  0  0  0  0
M  CHG  1  20   1
M  END
$$$$
default_name
  -OEChem-02102213163D

 36 35  0     1  0  0  0  0  0999 V2000
   -4.2256   -3.6731    1.8584 H   0  0  0  0  0  0  0  0  0  0  0  0
   -4.2396   -2.6781    1.4144 C   0  0  0  0  0  0  0  0  0  0  0  0
   -4.9506   -2.0521    1.9514 H   0  0  0  0  0  0  0  0  0  0  0  0
   -4.5266   -2.7521    0.3674 H   0  0  0  0  0  0  0  0  0  0  0  0
   -2.8576   -2.0761    1.5184 C   0  0  0  0  0  0  0  0  0  0  0  0
   -1.9456   -2.7051    2.0404 O   0  0  0  0  0  0  0  0  0  0  0  0
   -2.6926   -0.8481    1.0174 N   0  0  0  0  0  0  0  0  0  0  0  0
   -3.4926   -0.3971    0.5954 H   0  0  0  0  0  0  0  0  0  0  0  0
   -1.4216   -0.1071    1.0434 C   0  0  1  0  0  0  0  0  0  0  0  0
   -0.7579   -0.5878    1.7640 H   0  0  0  0  0  0  0  0  0  0  0  0
   -0.7791   -0.1912   -0.3557 C   0  0  0  0  0  0  0  0  0  0  0  0
   -0.1435   -1.0781   -0.3945 H   0  0  0  0  0  0  0  0  0  0  0  0
   -1.5667   -0.3054   -1.1037 H   0  0  0  0  0  0  0  0  0  0  0  0
    0.0783    1.0328   -0.7091 C   0  0  0  0  0  0  0  0  0  0  0  0
   -0.3202    1.5171   -1.6017 H   0  0  0  0  0  0  0  0  0  0  0  0
    0.0601    1.7383    0.1221 H   0  0  0  0  0  0  0  0  0  0  0  0
    1.5254    0.5972   -0.9772 C   0  0  0  0  0  0  0  0  0  0  0  0
    1.9072    0.0900   -0.0882 H   0  0  0  0  0  0  0  0  0  0  0  0
    1.5274   -0.1065   -1.8129 H   0  0  0  0  0  0  0  0  0  0  0  0
    2.3938    1.7483   -1.2989 N   0  3  0  0  0  0  0  0  0  0  0  0
    1.9491    2.6488   -1.3519 H   0  0  0  0  0  0  0  0  0  0  0  0
    3.6966    1.7061   -1.5225 C   0  0  0  0  0  0  0  0  0  0  0  0
    4.3716    0.5917   -1.4791 N   0  0  0  0  0  0  0  0  0  0  0  0
    3.8844   -0.2610   -1.2672 H   0  0  0  0  0  0  0  0  0  0  0  0
    5.3599    0.5770   -1.6517 H   0  0  0  0  0  0  0  0  0  0  0  0
    4.3544    2.7962   -1.7987 N   0  0  0  0  0  0  0  0  0  0  0  0
    3.8772    3.6801   -1.8432 H   0  0  0  0  0  0  0  0  0  0  0  0
    5.3427    2.7596   -1.9677 H   0  0  0  0  0  0  0  0  0  0  0  0
   -1.6547    1.3413    1.4779 C   0  0  0  0  0  0  0  0  0  0  0  0
   -2.5654    1.9858    0.9716 O   0  0  0  0  0  0  0  0  0  0  0  0
   -0.8107    1.8504    2.3808 N   0  0  0  0  0  0  0  0  0  0  0  0
   -0.1136    1.2381    2.7719 H   0  0  0  0  0  0  0  0  0  0  0  0
   -0.8954    3.2155    2.9026 C   0  0  0  0  0  0  0  0  0  0  0  0
   -1.8299    3.3430    3.4532 H   0  0  0  0  0  0  0  0  0  0  0  0
   -0.0581    3.4194    3.5712 H   0  0  0  0  0  0  0  0  0  0  0  0
   -0.8804    3.9320    2.0784 H   0  0  0  0  0  0  0  0  0  0  0  0
  5  6  2  0  0  0  0
  5  7  1  0  0  0  0
  2  3  1  0  0  0  0
  2  4  1  0  0  0  0
  2  5  1  0  0  0  0
  1  2  1  0  0  0  0
 29 30  2  0  0  0  0
 29 31  1  0  0  0  0
 26 27  1  0  0  0  0
 26 28  1  0  0  0  0
 23 24  1  0  0  0  0
 23 25  1  0  0  0  0
 22 23  1  0  0  0  0
 22 26  1  0  0  0  0
 20 21  1  0  0  0  0
 20 22  2  0  0  0  0
 17 18  1  0  0  0  0
 17 19  1  0  0  0  0
 17 20  1  0  0  0  0
 14 15  1  0  0  0  0
 14 16  1  0  0  0  0
 14 17  1  0  0  0  0
 11 12  1  0  0  0  0
 11 13  1  0  0  0  0
 11 14  1  0  0  0  0
  9 10  1  0  0  0  0
  9 11  1  0  0  0  0
  9 29  1  0  0  0  0
  7  8  1  0  0  0  0
  7  9  1  0  0  0  0
 33 34  1  0  0  0  0
 33 35  1  0  0  0  0
 33 36  1  0  0  0  0
 31 32  1  0  0  0  0
 31 33  1  0  0  0  0
M  CHG  1  20   1
M  END
$$$$
default_name
  -OEChem-02102213163D

 36 35  0     1  0  0  0  0  0999 V2000
   -4.2256   -3.6731    1.8584 H   0  0  0  0  0  0  0  0  0  0  0  0
   -4.2396   -2.6781    1.4144 C   0  0  0  0  0  0  0  0  0  0  0  0
   -4.9506   -2.0521    1.9514 H   0  0  0  0  0  0  0  0  0  0  0  0
   -4.5266   -2.7521    0.3674 H   0  0  0  0  0  0  0  0  0  0  0  0
   -2.8576   -2.0761    1.5184 C   0  0  0  0  0  0  0  0  0  0  0  0
   -1.9456   -2.7051    2.0404 O   0  0  0  0  0  0  0  0  0  0  0  0
   -2.6926   -0.8481    1.0174 N   0  0  0  0  0  0  0  0  0  0  0  0
   -3.4926   -0.3971    0.5954 H   0  0  0  0  0  0  0  0  0  0  0  0
   -1.4216   -0.1071    1.0434 C   0  0  1  0  0  0  0  0  0  0  0  0
   -0.7579   -0.5878    1.7640 H   0  0  0  0  0  0  0  0  0  0  0  0
   -0.7791   -0.1912   -0.3557 C   0  0  0  0  0  0  0  0  0  0  0  0
   -0.1435   -1.0781   -0.3945 H   0  0  0  0  0  0  0  0  0  0  0  0
   -1.5667   -0.3054   -1.1037 H   0  0  0  0  0  0  0  0  0  0  0  0
    0.0783    1.0328   -0.7091 C   0  0  0  0  0  0  0  0  0  0  0  0
   -0.4549    1.6633   -1.4220 H   0  0  0  0  0  0  0  0  0  0  0  0
    0.2811    1.6050    0.1967 H   0  0  0  0  0  0  0  0  0  0  0  0
    1.4047    0.5788   -1.3336 C   0  0  0  0  0  0  0  0  0  0  0  0
    1.9192   -0.0732   -0.6239 H   0  0  0  0  0  0  0  0  0  0  0  0
    1.1855    0.0097   -2.2401 H   0  0  0  0  0  0  0  0  0  0  0  0
    2.2739    1.7255   -1.6687 N   0  3  0  0  0  0  0  0  0  0  0  0
    1.8963    2.6425   -1.5019 H   0  0  0  0  0  0  0  0  0  0  0  0
    3.4978    1.6596   -2.1654 C   0  0  0  0  0  0  0  0  0  0  0  0
    4.0825    0.5226   -2.4196 N   0  0  0  0  0  0  0  0  0  0  0  0
    3.5857   -0.3299   -2.2299 H   0  0  0  0  0  0  0  0  0  0  0  0
    5.0117    0.4902   -2.7969 H   0  0  0  0  0  0  0  0  0  0  0  0
    4.1659    2.7486   -2.4206 N   0  0  0  0  0  0  0  0  0  0  0  0
    3.7570    3.6494   -2.2409 H   0  0  0  0  0  0  0  0  0  0  0  0
    5.0942    2.6941   -2.7973 H   0  0  0  0  0  0  0  0  0  0  0  0
   -1.6547    1.3413    1.4779 C   0  0  0  0  0  0  0  0  0  0  0  0
   -2.5654    1.9858    0.9716 O   0  0  0  0  0  0  0  0  0  0  0  0
   -0.8107    1.8504    2.3808 N   0  0  0  0  0  0  0  0  0  0  0  0
   -0.1136    1.2381    2.7719 H   0  0  0  0  0  0  0  0  0  0  0  0
   -0.8954    3.2155    2.9026 C   0  0  0  0  0  0  0  0  0  0  0  0
   -1.8299    3.3430    3.4532 H   0  0  0  0  0  0  0  0  0  0  0  0
   -0.0581    3.4194    3.5712 H   0  0  0  0  0  0  0  0  0  0  0  0
   -0.8804    3.9320    2.0784 H   0  0  0  0  0  0  0  0  0  0  0  0
  5  6  2  0  0  0  0
  5  7  1  0  0  0  0
  2  3  1  0  0  0  0
  2  4  1  0  0  0  0
  2  5  1  0  0  0  0
  1  2  1  0  0  0  0
 29 30  2  0  0  0  0
 29 31  1  0  0  0  0
 26 27  1  0  0  0  0
 26 28  1  0  0  0  0
 23 24  1  0  0  0  0
 23 25  1  0  0  0  0
 22 23  1  0  0  0  0
 22 26  1  0  0  0  0
 20 21  1  0  0  0  0
 20 22  2  0  0  0  0
 17 18  1  0  0  0  0
 17 19  1  0  0  0  0
 17 20  1  0  0  0  0
 14 15  1  0  0  0  0
 14 16  1  0  0  0  0
 14 17  1  0  0  0  0
 11 12  1  0  0  0  0
 11 13  1  0  0  0  0
 11 14  1  0  0  0  0
  9 10  1  0  0  0  0
  9 11  1  0  0  0  0
  9 29  1  0  0  0  0
  7  8  1  0  0  0  0
  7  9  1  0  0  0  0
 33 34  1  0  0  0  0
 33 35  1  0  0  0  0
 33 36  1  0  0  0  0
 31 32  1  0  0  0  0
 31 33  1  0  0  0  0
M  CHG  1  20   1
M  END
$$$$
default_name
  -OEChem-02102213163D

 36 35  0     1  0  0  0  0  0999 V2000
   -4.2256   -3.6731    1.8584 H   0  0  0  0  0  0  0  0  0  0  0  0
   -4.2396   -2.6781    1.4144 C   0  0  0  0  0  0  0  0  0  0  0  0
   -4.9506   -2.0521    1.9514 H   0  0  0  0  0  0  0  0  0  0  0  0
   -4.5266   -2.7521    0.3674 H   0  0  0  0  0  0  0  0  0  0  0  0
   -2.8576   -2.0761    1.5184 C   0  0  0  0  0  0  0  0  0  0  0  0
   -1.9456   -2.7051    2.0404 O   0  0  0  0  0  0  0  0  0  0  0  0
   -2.6926   -0.8481    1.0174 N   0  0  0  0  0  0  0  0  0  0  0  0
   -3.4926   -0.3971    0.5954 H   0  0  0  0  0  0  0  0  0  0  0  0
   -1.4216   -0.1071    1.0434 C   0  0  1  0  0  0  0  0  0  0  0  0
   -0.7579   -0.5878    1.7640 H   0  0  0  0  0  0  0  0  0  0  0  0
   -0.7791   -0.1912   -0.3557 C   0  0  0  0  0  0  0  0  0  0  0  0
   -0.1435   -1.0781   -0.3945 H   0  0  0  0  0  0  0  0  0  0  0  0
   -1.5667   -0.3054   -1.1037 H   0  0  0  0  0  0  0  0  0  0  0  0
    0.0783    1.0328   -0.7091 C   0  0  0  0  0  0  0  0  0  0  0  0
   -0.5392    1.7867   -1.1995 H   0  0  0  0  0  0  0  0  0  0  0  0
    0.5020    1.4523    0.2039 H   0  0  0  0  0  0  0  0  0  0  0  0
    1.2136    0.6197   -1.6557 C   0  0  0  0  0  0  0  0  0  0  0  0
    1.8106   -0.1540   -1.1674 H   0  0  0  0  0  0  0  0  0  0  0  0
    0.7739    0.2041   -2.5654 H   0  0  0  0  0  0  0  0  0  0  0  0
    2.0805    1.7641   -2.0045 N   0  3  0  0  0  0  0  0  0  0  0  0
    1.8139    2.6613   -1.6367 H   0  0  0  0  0  0  0  0  0  0  0  0
    3.1705    1.7195   -2.7521 C   0  0  0  0  0  0  0  0  0  0  0  0
    3.6051    0.6090   -3.2785 N   0  0  0  0  0  0  0  0  0  0  0  0
    3.0946   -0.2394   -3.1081 H   0  0  0  0  0  0  0  0  0  0  0  0
    4.4339    0.5926   -3.8439 H   0  0  0  0  0  0  0  0  0  0  0  0
    3.8527    2.8038   -2.9893 N   0  0  0  0  0  0  0  0  0  0  0  0
    3.5570    3.6844   -2.6047 H   0  0  0  0  0  0  0  0  0  0  0  0
    4.6791    2.7655   -3.5569 H   0  0  0  0  0  0  0  0  0  0  0  0
   -1.6547    1.3413    1.4779 C   0  0  0  0  0  0  0  0  0  0  0  0
   -2.5654    1.9858    0.9716 O   0  0  0  0  0  0  0  0  0  0  0  0
   -0.8107    1.8504    2.3808 N   0  0  0  0  0  0  0  0  0  0  0  0
   -0.1136    1.2381    2.7719 H   0  0  0  0  0  0  0  0  0  0  0  0
   -0.8954    3.2155    2.9026 C   0  0  0  0  0  0  0  0  0  0  0  0
   -1.8299    3.3430    3.4532 H   0  0  0  0  0  0  0  0  0  0  0  0
   -0.0581    3.4194    3.5712 H   0  0  0  0  0  0  0  0  0  0  0  0
   -0.8804    3.9320    2.0784 H   0  0  0  0  0  0  0  0  0  0  0  0
  5  6  2  0  0  0  0
  5  7  1  0  0  0  0
  2  3  1  0  0  0  0
  2  4  1  0  0  0  0
  2  5  1  0  0  0  0
  1  2  1  0  0  0  0
 29 30  2  0  0  0  0
 29 31  1  0  0  0  0
 26 27  1  0  0  0  0
 26 28  1  0  0  0  0
 23 24  1  0  0  0  0
 23 25  1  0  0  0  0
 22 23  1  0  0  0  0
 22 26  1  0  0  0  0
 20 21  1  0  0  0  0
 20 22  2  0  0  0  0
 17 18  1  0  0  0  0
 17 19  1  0  0  0  0
 17 20  1  0  0  0  0
 14 15  1  0  0  0  0
 14 16  1  0  0  0  0
 14 17  1  0  0  0  0
 11 12  1  0  0  0  0
 11 13  1  0  0  0  0
 11 14  1  0  0  0  0
  9 10  1  0  0  0  0
  9 11  1  0  0  0  0
  9 29  1  0  0  0  0
  7  8  1  0  0  0  0
  7  9  1  0  0  0  0
 33 34  1  0  0  0  0
 33 35  1  0  0  0  0
 33 36  1  0  0  0  0
 31 32  1  0  0  0  0
 31 33  1  0  0  0  0
M  CHG  1  20   1
M  END
$$$$
default_name
  -OEChem-02102213163D

 36 35  0     1  0  0  0  0  0999 V2000
   -4.2256   -3.6731    1.8584 H   0  0  0  0  0  0  0  0  0  0  0  0
   -4.2396   -2.6781    1.4144 C   0  0  0  0  0  0  0  0  0  0  0  0
   -4.9506   -2.0521    1.9514 H   0  0  0  0  0  0  0  0  0  0  0  0
   -4.5266   -2.7521    0.3674 H   0  0  0  0  0  0  0  0  0  0  0  0
   -2.8576   -2.0761    1.5184 C   0  0  0  0  0  0  0  0  0  0  0  0
   -1.9456   -2.7051    2.0404 O   0  0  0  0  0  0  0  0  0  0  0  0
   -2.6926   -0.8481    1.0174 N   0  0  0  0  0  0  0  0  0  0  0  0
   -3.4926   -0.3971    0.5954 H   0  0  0  0  0  0  0  0  0  0  0  0
   -1.4216   -0.1071    1.0434 C   0  0  1  0  0  0  0  0  0  0  0  0
   -0.7579   -0.5878    1.7640 H   0  0  0  0  0  0  0  0  0  0  0  0
   -0.7791   -0.1912   -0.3557 C   0  0  0  0  0  0  0  0  0  0  0  0
   -0.1435   -1.0781   -0.3945 H   0  0  0  0  0  0  0  0  0  0  0  0
   -1.5667   -0.3054   -1.1037 H   0  0  0  0  0  0  0  0  0  0  0  0
    0.0783    1.0328   -0.7091 C   0  0  0  0  0  0  0  0  0  0  0  0
   -0.5674    1.8786   -0.9494 H   0  0  0  0  0  0  0  0  0  0  0  0
    0.7077    1.2906    0.1432 H   0  0  0  0  0  0  0  0  0  0  0  0
    0.9650    0.7171   -1.9214 C   0  0  0  0  0  0  0  0  0  0  0  0
    1.5887   -0.1471   -1.6816 H   0  0  0  0  0  0  0  0  0  0  0  0
    0.3209    0.4633   -2.7666 H   0  0  0  0  0  0  0  0  0  0  0  0
    1.8266    1.8613   -2.2834 N   0  3  0  0  0  0  0  0  0  0  0  0
    1.7076    2.7038   -1.7472 H   0  0  0  0  0  0  0  0  0  0  0  0
    2.7368    1.8817   -3.2427 C   0  0  0  0  0  0  0  0  0  0  0  0
    2.9719    0.8450   -3.9972 N   0  0  0  0  0  0  0  0  0  0  0  0
    2.4444    0.0041   -3.8420 H   0  0  0  0  0  0  0  0  0  0  0  0
    3.6660    0.8773   -4.7211 H   0  0  0  0  0  0  0  0  0  0  0  0
    3.4362    2.9579   -3.4660 N   0  0  0  0  0  0  0  0  0  0  0  0
    3.2909    3.7828   -2.9097 H   0  0  0  0  0  0  0  0  0  0  0  0
    4.1257    2.9690   -4.1947 H   0  0  0  0  0  0  0  0  0  0  0  0
   -1.6547    1.3413    1.4779 C   0  0  0  0  0  0  0  0  0  0  0  0
   -2.5654    1.9858    0.9716 O   0  0  0  0  0  0  0  0  0  0  0  0
   -0.8107    1.8504    2.3808 N   0  0  0  0  0  0  0  0  0  0  0  0
   -0.1136    1.2381    2.7719 H   0  0  0  0  0  0  0  0  0  0  0  0
   -0.8954    3.2155    2.9026 C   0  0  0  0  0  0  0  0  0  0  0  0
   -1.8299    3.3430    3.4532 H   0  0  0  0  0  0  0  0  0  0  0  0
   -0.0581    3.4194    3.5712 H   0  0  0  0  0  0  0  0  0  0  0  0
   -0.8804    3.9320    2.0784 H   0  0  0  0  0  0  0  0  0  0  0  0
  5  6  2  0  0  0  0
  5  7  1  0  0  0  0
  2  3  1  0  0  0  0
  2  4  1  0  0  0  0
  2  5  1  0  0  0  0
  1  2  1  0  0  0  0
 29 30  2  0  0  0  0
 29 31  1  0  0  0  0
 26 27  1  0  0  0  0
 26 28  1  0  0  0  0
 23 24  1  0  0  0  0
 23 25  1  0  0  0  0
 22 23  1  0  0  0  0
 22 26  1  0  0  0  0
 20 21  1  0  0  0  0
 20 22  2  0  0  0  0
 17 18  1  0  0  0  0
 17 19  1  0  0  0  0
 17 20  1  0  0  0  0
 14 15  1  0  0  0  0
 14 16  1  0  0  0  0
 14 17  1  0  0  0  0
 11 12  1  0  0  0  0
 11 13  1  0  0  0  0
 11 14  1  0  0  0  0
  9 10  1  0  0  0  0
  9 11  1  0  0  0  0
  9 29  1  0  0  0  0
  7  8  1  0  0  0  0
  7  9  1  0  0  0  0
 33 34  1  0  0  0  0
 33 35  1  0  0  0  0
 33 36  1  0  0  0  0
 31 32  1  0  0  0  0
 31 33  1  0  0  0  0
M  CHG  1  20   1
M  END
$$$$
default_name
  -OEChem-02102213163D

 36 35  0     1  0  0  0  0  0999 V2000
   -4.2256   -3.6731    1.8584 H   0  0  0  0  0  0  0  0  0  0  0  0
   -4.2396   -2.6781    1.4144 C   0  0  0  0  0  0  0  0  0  0  0  0
   -4.9506   -2.0521    1.9514 H   0  0  0  0  0  0  0  0  0  0  0  0
   -4.5266   -2.7521    0.3674 H   0  0  0  0  0  0  0  0  0  0  0  0
   -2.8576   -2.0761    1.5184 C   0  0  0  0  0  0  0  0  0  0  0  0
   -1.9456   -2.7051    2.0404 O   0  0  0  0  0  0  0  0  0  0  0  0
   -2.6926   -0.8481    1.0174 N   0  0  0  0  0  0  0  0  0  0  0  0
   -3.4926   -0.3971    0.5954 H   0  0  0  0  0  0  0  0  0  0  0  0
   -1.4216   -0.1071    1.0434 C   0  0  1  0  0  0  0  0  0  0  0  0
   -0.7579   -0.5878    1.7640 H   0  0  0  0  0  0  0  0  0  0  0  0
   -0.7791   -0.1912   -0.3557 C   0  0  0  0  0  0  0  0  0  0  0  0
   -0.3679   -1.1936   -0.4906 H   0  0  0  0  0  0  0  0  0  0  0  0
   -1.5511   -0.0366   -1.1127 H   0  0  0  0  0  0  0  0  0  0  0  0
    0.3502    0.8267   -0.5719 C   0  0  0  0  0  0  0  0  0  0  0  0
   -0.0381    1.8393   -0.4537 H   0  0  0  0  0  0  0  0  0  0  0  0
    1.1369    0.6544    0.1633 H   0  0  0  0  0  0  0  0  0  0  0  0
    0.9294    0.6722   -1.9848 C   0  0  0  0  0  0  0  0  0  0  0  0
    1.2914   -0.3517   -2.1032 H   0  0  0  0  0  0  0  0  0  0  0  0
    0.1310    0.8499   -2.7091 H   0  0  0  0  0  0  0  0  0  0  0  0
    2.0376    1.6181   -2.2295 N   0  3  0  0  0  0  0  0  0  0  0  0
    2.2503    2.2658   -1.4902 H   0  0  0  0  0  0  0  0  0  0  0  0
    2.7739    1.6926   -3.3256 C   0  0  0  0  0  0  0  0  0  0  0  0
    2.5831    0.9014   -4.3439 N   0  0  0  0  0  0  0  0  0  0  0  0
    1.8536    0.2126   -4.2914 H   0  0  0  0  0  0  0  0  0  0  0  0
    3.1506    0.9714   -5.1685 H   0  0  0  0  0  0  0  0  0  0  0  0
    3.7273    2.5753   -3.4214 N   0  0  0  0  0  0  0  0  0  0  0  0
    3.9125    3.2075   -2.6617 H   0  0  0  0  0  0  0  0  0  0  0  0
    4.2835    2.6284   -4.2547 H   0  0  0  0  0  0  0  0  0  0  0  0
   -1.6547    1.3413    1.4779 C   0  0  0  0  0  0  0  0  0  0  0  0
   -2.5654    1.9858    0.9716 O   0  0  0  0  0  0  0  0  0  0  0  0
   -0.8107    1.8504    2.3808 N   0  0  0  0  0  0  0  0  0  0  0  0
   -0.1136    1.2381    2.7719 H   0  0  0  0  0  0  0  0  0  0  0  0
   -0.8954    3.2155    2.9026 C   0  0  0  0  0  0  0  0  0  0  0  0
   -1.8299    3.3430    3.4532 H   0  0  0  0  0  0  0  0  0  0  0  0
   -0.0581    3.4194    3.5712 H   0  0  0  0  0  0  0  0  0  0  0  0
   -0.8804    3.9320    2.0784 H   0  0  0  0  0  0  0  0  0  0  0  0
  5  6  2  0  0  0  0
  5  7  1  0  0  0  0
  2  3  1  0  0  0  0
  2  4  1  0  0  0  0
  2  5  1  0  0  0  0
  1  2  1  0  0  0  0
 29 30  2  0  0  0  0
 29 31  1  0  0  0  0
 26 27  1  0  0  0  0
 26 28  1  0  0  0  0
 23 24  1  0  0  0  0
 23 25  1  0  0  0  0
 22 23  1  0  0  0  0
 22 26  1  0  0  0  0
 20 21  1  0  0  0  0
 20 22  2  0  0  0  0
 17 18  1  0  0  0  0
 17 19  1  0  0  0  0
 17 20  1  0  0  0  0
 14 15  1  0  0  0  0
 14 16  1  0  0  0  0
 14 17  1  0  0  0  0
 11 12  1  0  0  0  0
 11 13  1  0  0  0  0
 11 14  1  0  0  0  0
  9 10  1  0  0  0  0
  9 11  1  0  0  0  0
  9 29  1  0  0  0  0
  7  8  1  0  0  0  0
  7  9  1  0  0  0  0
 33 34  1  0  0  0  0
 33 35  1  0  0  0  0
 33 36  1  0  0  0  0
 31 32  1  0  0  0  0
 31 33  1  0  0  0  0
M  CHG  1  20   1
M  END
$$$$
default_name
  -OEChem-02102213163D

 36 35  0     1  0  0  0  0  0999 V2000
   -4.2256   -3.6731    1.8584 H   0  0  0  0  0  0  0  0  0  0  0  0
   -4.2396   -2.6781    1.4144 C   0  0  0  0  0  0  0  0  0  0  0  0
   -4.9506   -2.0521    1.9514 H   0  0  0  0  0  0  0  0  0  0  0  0
   -4.5266   -2.7521    0.3674 H   0  0  0  0  0  0  0  0  0  0  0  0
   -2.8576   -2.0761    1.5184 C   0  0  0  0  0  0  0  0  0  0  0  0
   -1.9456   -2.7051    2.0404 O   0  0  0  0  0  0  0  0  0  0  0  0
   -2.6926   -0.8481    1.0174 N   0  0  0  0  0  0  0  0  0  0  0  0
   -3.4926   -0.3971    0.5954 H   0  0  0  0  0  0  0  0  0  0  0  0
   -1.4216   -0.1071    1.0434 C   0  0  1  0  0  0  0  0  0  0  0  0
   -0.7579   -0.5878    1.7640 H   0  0  0  0  0  0  0  0  0  0  0  0
   -0.7791   -0.1912   -0.3557 C   0  0  0  0  0  0  0  0  0  0  0  0
   -0.3679   -1.1936   -0.4906 H   0  0  0  0  0  0  0  0  0  0  0  0
   -1.5511   -0.0366   -1.1127 H   0  0  0  0  0  0  0  0  0  0  0  0
    0.3502    0.8267   -0.5719 C   0  0  0  0  0  0  0  0  0  0  0  0
    0.0416    1.8048   -0.2002 H   0  0  0  0  0  0  0  0  0  0  0  0
    1.2390    0.4998   -0.0312 H   0  0  0  0  0  0  0  0  0  0  0  0
    0.6747    0.9371   -2.0679 C   0  0  0  0  0  0  0  0  0  0  0  0
    0.9568   -0.0515   -2.4374 H   0  0  0  0  0  0  0  0  0  0  0  0
   -0.2234    1.2674   -2.5950 H   0  0  0  0  0  0  0  0  0  0  0  0
    1.7747    1.8903   -2.3215 N   0  3  0  0  0  0  0  0  0  0  0  0
    2.1427    2.3783   -1.5229 H   0  0  0  0  0  0  0  0  0  0  0  0
    2.3192    2.1608   -3.4959 C   0  0  0  0  0  0  0  0  0  0  0  0
    1.9184    1.5856   -4.5949 N   0  0  0  0  0  0  0  0  0  0  0  0
    1.1725    0.9143   -4.5453 H   0  0  0  0  0  0  0  0  0  0  0  0
    2.3422    1.8026   -5.4782 H   0  0  0  0  0  0  0  0  0  0  0  0
    3.2884    3.0264   -3.5902 N   0  0  0  0  0  0  0  0  0  0  0  0
    3.6320    3.4957   -2.7701 H   0  0  0  0  0  0  0  0  0  0  0  0
    3.6987    3.2286   -4.4831 H   0  0  0  0  0  0  0  0  0  0  0  0
   -1.6547    1.3413    1.4779 C   0  0  0  0  0  0  0  0  0  0  0  0
   -2.5654    1.9858    0.9716 O   0  0  0  0  0  0  0  0  0  0  0  0
   -0.8107    1.8504    2.3808 N   0  0  0  0  0  0  0  0  0  0  0  0
   -0.1136    1.2381    2.7719 H   0  0  0  0  0  0  0  0  0  0  0  0
   -0.8954    3.2155    2.9026 C   0  0  0  0  0  0  0  0  0  0  0  0
   -1.8299    3.3430    3.4532 H   0  0  0  0  0  0  0  0  0  0  0  0
   -0.0581    3.4194    3.5712 H   0  0  0  0  0  0  0  0  0  0  0  0
   -0.8804    3.9320    2.0784 H   0  0  0  0  0  0  0  0  0  0  0  0
  5  6  2  0  0  0  0
  5  7  1  0  0  0  0
  2  3  1  0  0  0  0
  2  4  1  0  0  0  0
  2  5  1  0  0  0  0
  1  2  1  0  0  0  0
 29 30  2  0  0  0  0
 29 31  1  0  0  0  0
 26 27  1  0  0  0  0
 26 28  1  0  0  0  0
 23 24  1  0  0  0  0
 23 25  1  0  0  0  0
 22 23  1  0  0  0  0
 22 26  1  0  0  0  0
 20 21  1  0  0  0  0
 20 22  2  0  0  0  0
 17 18  1  0  0  0  0
 17 19  1  0  0  0  0
 17 20  1  0  0  0  0
 14 15  1  0  0  0  0
 14 16  1  0  0  0  0
 14 17  1  0  0  0  0
 11 12  1  0  0  0  0
 11 13  1  0  0  0  0
 11 14  1  0  0  0  0
  9 10  1  0  0  0  0
  9 11  1  0  0  0  0
  9 29  1  0  0  0  0
  7  8  1  0  0  0  0
  7  9  1  0  0  0  0
 33 34  1  0  0  0  0
 33 35  1  0  0  0  0
 33 36  1  0  0  0  0
 31 32  1  0  0  0  0
 31 33  1  0  0  0  0
M  CHG  1  20   1
M  END
$$$$
default_name
  -OEChem-02102213163D

 36 35  0     1  0  0  0  0  0999 V2000
   -4.2256   -3.6731    1.8584 H   0  0  0  0  0  0  0  0  0  0  0  0
   -4.2396   -2.6781    1.4144 C   0  0  0  0  0  0  0  0  0  0  0  0
   -4.9506   -2.0521    1.9514 H   0  0  0  0  0  0  0  0  0  0  0  0
   -4.5266   -2.7521    0.3674 H   0  0  0  0  0  0  0  0  0  0  0  0
   -2.8576   -2.0761    1.5184 C   0  0  0  0  0  0  0  0  0  0  0  0
   -1.9456   -2.7051    2.0404 O   0  0  0  0  0  0  0  0  0  0  0  0
   -2.6926   -0.8481    1.0174 N   0  0  0  0  0  0  0  0  0  0  0  0
   -3.4926   -0.3971    0.5954 H   0  0  0  0  0  0  0  0  0  0  0  0
   -1.4216   -0.1071    1.0434 C   0  0  1  0  0  0  0  0  0  0  0  0
   -0.7579   -0.5878    1.7640 H   0  0  0  0  0  0  0  0  0  0  0  0
   -0.7791   -0.1912   -0.3557 C   0  0  0  0  0  0  0  0  0  0  0  0
   -0.3679   -1.1936   -0.4906 H   0  0  0  0  0  0  0  0  0  0  0  0
   -1.5511   -0.0366   -1.1127 H   0  0  0  0  0  0  0  0  0  0  0  0
    0.3502    0.8267   -0.5719 C   0  0  0  0  0  0  0  0  0  0  0  0
    0.1608    1.7203    0.0245 H   0  0  0  0  0  0  0  0  0  0  0  0
    1.2986    0.3837   -0.2661 H   0  0  0  0  0  0  0  0  0  0  0  0
    0.4242    1.2181   -2.0541 C   0  0  0  0  0  0  0  0  0  0  0  0
    0.5873    0.3143   -2.6456 H   0  0  0  0  0  0  0  0  0  0  0  0
   -0.5310    1.6619   -2.3445 H   0  0  0  0  0  0  0  0  0  0  0  0
    1.5149    2.1803   -2.3134 N   0  3  0  0  0  0  0  0  0  0  0  0
    2.0372    2.4971   -1.5145 H   0  0  0  0  0  0  0  0  0  0  0  0
    1.8679    2.6622   -3.4933 C   0  0  0  0  0  0  0  0  0  0  0  0
    1.2582    2.3185   -4.5930 N   0  0  0  0  0  0  0  0  0  0  0  0
    0.4967    1.6653   -4.5402 H   0  0  0  0  0  0  0  0  0  0  0  0
    1.5384    2.6939   -5.4804 H   0  0  0  0  0  0  0  0  0  0  0  0
    2.8520    3.5101   -3.5921 N   0  0  0  0  0  0  0  0  0  0  0  0
    3.3529    3.8050   -2.7717 H   0  0  0  0  0  0  0  0  0  0  0  0
    3.1166    3.8732   -4.4892 H   0  0  0  0  0  0  0  0  0  0  0  0
   -1.6547    1.3413    1.4779 C   0  0  0  0  0  0  0  0  0  0  0  0
   -2.5654    1.9858    0.9716 O   0  0  0  0  0  0  0  0  0  0  0  0
   -0.8107    1.8504    2.3808 N   0  0  0  0  0  0  0  0  0  0  0  0
   -0.1136    1.2381    2.7719 H   0  0  0  0  0  0  0  0  0  0  0  0
   -0.8954    3.2155    2.9026 C   0  0  0  0  0  0  0  0  0  0  0  0
   -1.8299    3.3430    3.4532 H   0  0  0  0  0  0  0  0  0  0  0  0
   -0.0581    3.4194    3.5712 H   0  0  0  0  0  0  0  0  0  0  0  0
   -0.8804    3.9320    2.0784 H   0  0  0  0  0  0  0  0  0  0  0  0
  5  6  2  0  0  0  0
  5  7  1  0  0  0  0
  2  3  1  0  0  0  0
  2  4  1  0  0  0  0
  2  5  1  0  0  0  0
  1  2  1  0  0  0  0
 29 30  2  0  0  0  0
 29 31  1  0  0  0  0
 26 27  1  0  0  0  0
 26 28  1  0  0  0  0
 23 24  1  0  0  0  0
 23 25  1  0  0  0  0
 22 23  1  0  0  0  0
 22 26  1  0  0  0  0
 20 21  1  0  0  0  0
 20 22  2  0  0  0  0
 17 18  1  0  0  0  0
 17 19  1  0  0  0  0
 17 20  1  0  0  0  0
 14 15  1  0  0  0  0
 14 16  1  0  0  0  0
 14 17  1  0  0  0  0
 11 12  1  0  0  0  0
 11 13  1  0  0  0  0
 11 14  1  0  0  0  0
  9 10  1  0  0  0  0
  9 11  1  0  0  0  0
  9 29  1  0  0  0  0
  7  8  1  0  0  0  0
  7  9  1  0  0  0  0
 33 34  1  0  0  0  0
 33 35  1  0  0  0  0
 33 36  1  0  0  0  0
 31 32  1  0  0  0  0
 31 33  1  0  0  0  0
M  CHG  1  20   1
M  END
$$$$
default_name
  -OEChem-02102213163D

 36 35  0     1  0  0  0  0  0999 V2000
   -4.2256   -3.6731    1.8584 H   0  0  0  0  0  0  0  0  0  0  0  0
   -4.2396   -2.6781    1.4144 C   0  0  0  0  0  0  0  0  0  0  0  0
   -4.9506   -2.0521    1.9514 H   0  0  0  0  0  0  0  0  0  0  0  0
   -4.5266   -2.7521    0.3674 H   0  0  0  0  0  0  0  0  0  0  0  0
   -2.8576   -2.0761    1.5184 C   0  0  0  0  0  0  0  0  0  0  0  0
   -1.9456   -2.7051    2.0404 O   0  0  0  0  0  0  0  0  0  0  0  0
   -2.6926   -0.8481    1.0174 N   0  0  0  0  0  0  0  0  0  0  0  0
   -3.4926   -0.3971    0.5954 H   0  0  0  0  0  0  0  0  0  0  0  0
   -1.4216   -0.1071    1.0434 C   0  0  1  0  0  0  0  0  0  0  0  0
   -0.7579   -0.5878    1.7640 H   0  0  0  0  0  0  0  0  0  0  0  0
   -0.7791   -0.1912   -0.3557 C   0  0  0  0  0  0  0  0  0  0  0  0
   -0.3679   -1.1936   -0.4906 H   0  0  0  0  0  0  0  0  0  0  0  0
   -1.5511   -0.0366   -1.1127 H   0  0  0  0  0  0  0  0  0  0  0  0
    0.3502    0.8267   -0.5719 C   0  0  0  0  0  0  0  0  0  0  0  0
    0.3114    1.5915    0.2050 H   0  0  0  0  0  0  0  0  0  0  0  0
    1.3116    0.3142   -0.5252 H   0  0  0  0  0  0  0  0  0  0  0  0
    0.1947    1.4960   -1.9443 C   0  0  0  0  0  0  0  0  0  0  0  0
    0.2080    0.7207   -2.7138 H   0  0  0  0  0  0  0  0  0  0  0  0
   -0.7707    2.0065   -1.9748 H   0  0  0  0  0  0  0  0  0  0  0  0
    1.2759    2.4683   -2.2058 N   0  3  0  0  0  0  0  0  0  0  0  0
    1.9410    2.6141   -1.4658 H   0  0  0  0  0  0  0  0  0  0  0  0
    1.4507    3.1623   -3.3179 C   0  0  0  0  0  0  0  0  0  0  0  0
    0.6475    3.0502   -4.3385 N   0  0  0  0  0  0  0  0  0  0  0  0
   -0.1278    2.4143   -4.2763 H   0  0  0  0  0  0  0  0  0  0  0  0
    0.7942    3.5846   -5.1750 H   0  0  0  0  0  0  0  0  0  0  0  0
    2.4478    3.9937   -3.4270 N   0  0  0  0  0  0  0  0  0  0  0  0
    3.0944    4.1142   -2.6665 H   0  0  0  0  0  0  0  0  0  0  0  0
    2.5768    4.5182   -4.2725 H   0  0  0  0  0  0  0  0  0  0  0  0
   -1.6547    1.3413    1.4779 C   0  0  0  0  0  0  0  0  0  0  0  0
   -2.5654    1.9858    0.9716 O   0  0  0  0  0  0  0  0  0  0  0  0
   -0.8107    1.8504    2.3808 N   0  0  0  0  0  0  0  0  0  0  0  0
   -0.1136    1.2381    2.7719 H   0  0  0  0  0  0  0  0  0  0  0  0
   -0.8954    3.2155    2.9026 C   0  0  0  0  0  0  0  0  0  0  0  0
   -1.8299    3.3430    3.4532 H   0  0  0  0  0  0  0  0  0  0  0  0
   -0.0581    3.4194    3.5712 H   0  0  0  0  0  0  0  0  0  0  0  0
   -0.8804    3.9320    2.0784 H   0  0  0  0  0  0  0  0  0  0  0  0
  5  6  2  0  0  0  0
  5  7  1  0  0  0  0
  2  3  1  0  0  0  0
  2  4  1  0  0  0  0
  2  5  1  0  0  0  0
  1  2  1  0  0  0  0
 29 30  2  0  0  0  0
 29 31  1  0  0  0  0
 26 27  1  0  0  0  0
 26 28  1  0  0  0  0
 23 24  1  0  0  0  0
 23 25  1  0  0  0  0
 22 23  1  0  0  0  0
 22 26  1  0  0  0  0
 20 21  1  0  0  0  0
 20 22  2  0  0  0  0
 17 18  1  0  0  0  0
 17 19  1  0  0  0  0
 17 20  1  0  0  0  0
 14 15  1  0  0  0  0
 14 16  1  0  0  0  0
 14 17  1  0  0  0  0
 11 12  1  0  0  0  0
 11 13  1  0  0  0  0
 11 14  1  0  0  0  0
  9 10  1  0  0  0  0
  9 11  1  0  0  0  0
  9 29  1  0  0  0  0
  7  8  1  0  0  0  0
  7  9  1  0  0  0  0
 33 34  1  0  0  0  0
 33 35  1  0  0  0  0
 33 36  1  0  0  0  0
 31 32  1  0  0  0  0
 31 33  1  0  0  0  0
M  CHG  1  20   1
M  END
$$$$
default_name
  -OEChem-02102213163D

 36 35  0     1  0  0  0  0  0999 V2000
   -4.2256   -3.6731    1.8584 H   0  0  0  0  0  0  0  0  0  0  0  0
   -4.2396   -2.6781    1.4144 C   0  0  0  0  0  0  0  0  0  0  0  0
   -4.9506   -2.0521    1.9514 H   0  0  0  0  0  0  0  0  0  0  0  0
   -4.5266   -2.7521    0.3674 H   0  0  0  0  0  0  0  0  0  0  0  0
   -2.8576   -2.0761    1.5184 C   0  0  0  0  0  0  0  0  0  0  0  0
   -1.9456   -2.7051    2.0404 O   0  0  0  0  0  0  0  0  0  0  0  0
   -2.6926   -0.8481    1.0174 N   0  0  0  0  0  0  0  0  0  0  0  0
   -3.4926   -0.3971    0.5954 H   0  0  0  0  0  0  0  0  0  0  0  0
   -1.4216   -0.1071    1.0434 C   0  0  1  0  0  0  0  0  0  0  0  0
   -0.7579   -0.5878    1.7640 H   0  0  0  0  0  0  0  0  0  0  0  0
   -0.7791   -0.1912   -0.3557 C   0  0  0  0  0  0  0  0  0  0  0  0
   -0.3679   -1.1936   -0.4906 H   0  0  0  0  0  0  0  0  0  0  0  0
   -1.5511   -0.0366   -1.1127 H   0  0  0  0  0  0  0  0  0  0  0  0
    0.3502    0.8267   -0.5719 C   0  0  0  0  0  0  0  0  0  0  0  0
    0.4831    1.4273    0.3290 H   0  0  0  0  0  0  0  0  0  0  0  0
    1.2772    0.2959   -0.7910 H   0  0  0  0  0  0  0  0  0  0  0  0
    0.0021    1.7518   -1.7460 C   0  0  0  0  0  0  0  0  0  0  0  0
   -0.1553    1.1400   -2.6372 H   0  0  0  0  0  0  0  0  0  0  0  0
   -0.9263    2.2776   -1.5108 H   0  0  0  0  0  0  0  0  0  0  0  0
    1.0740    2.7348   -2.0061 N   0  3  0  0  0  0  0  0  0  0  0  0
    1.8608    2.7214   -1.3799 H   0  0  0  0  0  0  0  0  0  0  0  0
    1.0960    3.6273   -2.9818 C   0  0  0  0  0  0  0  0  0  0  0  0
    0.1280    3.7307   -3.8486 N   0  0  0  0  0  0  0  0  0  0  0  0
   -0.6586    3.1103   -3.7718 H   0  0  0  0  0  0  0  0  0  0  0  0
    0.1602    4.4139   -4.5828 H   0  0  0  0  0  0  0  0  0  0  0  0
    2.1033    4.4441   -3.1062 N   0  0  0  0  0  0  0  0  0  0  0  0
    2.8739    4.4023   -2.4617 H   0  0  0  0  0  0  0  0  0  0  0  0
    2.1161    5.1196   -3.8479 H   0  0  0  0  0  0  0  0  0  0  0  0
   -1.6547    1.3413    1.4779 C   0  0  0  0  0  0  0  0  0  0  0  0
   -2.5654    1.9858    0.9716 O   0  0  0  0  0  0  0  0  0  0  0  0
   -0.8107    1.8504    2.3808 N   0  0  0  0  0  0  0  0  0  0  0  0
   -0.1136    1.2381    2.7719 H   0  0  0  0  0  0  0  0  0  0  0  0
   -0.8954    3.2155    2.9026 C   0  0  0  0  0  0  0  0  0  0  0  0
   -1.8299    3.3430    3.4532 H   0  0  0  0  0  0  0  0  0  0  0  0
   -0.0581    3.4194    3.5712 H   0  0  0  0  0  0  0  0  0  0  0  0
   -0.8804    3.9320    2.0784 H   0  0  0  0  0  0  0  0  0  0  0  0
  5  6  2  0  0  0  0
  5  7  1  0  0  0  0
  2  3  1  0  0  0  0
  2  4  1  0  0  0  0
  2  5  1  0  0  0  0
  1  2  1  0  0  0  0
 29 30  2  0  0  0  0
 29 31  1  0  0  0  0
 26 27  1  0  0  0  0
 26 28  1  0  0  0  0
 23 24  1  0  0  0  0
 23 25  1  0  0  0  0
 22 23  1  0  0  0  0
 22 26  1  0  0  0  0
 20 21  1  0  0  0  0
 20 22  2  0  0  0  0
 17 18  1  0  0  0  0
 17 19  1  0  0  0  0
 17 20  1  0  0  0  0
 14 15  1  0  0  0  0
 14 16  1  0  0  0  0
 14 17  1  0  0  0  0
 11 12  1  0  0  0  0
 11 13  1  0  0  0  0
 11 14  1  0  0  0  0
  9 10  1  0  0  0  0
  9 11  1  0  0  0  0
  9 29  1  0  0  0  0
  7  8  1  0  0  0  0
  7  9  1  0  0  0  0
 33 34  1  0  0  0  0
 33 35  1  0  0  0  0
 33 36  1  0  0  0  0
 31 32  1  0  0  0  0
 31 33  1  0  0  0  0
M  CHG  1  20   1
M  END
$$$$
default_name
  -OEChem-02102213163D

 36 35  0     1  0  0  0  0  0999 V2000
   -4.2256   -3.6731    1.8584 H   0  0  0  0  0  0  0  0  0  0  0  0
   -4.2396   -2.6781    1.4144 C   0  0  0  0  0  0  0  0  0  0  0  0
   -4.9506   -2.0521    1.9514 H   0  0  0  0  0  0  0  0  0  0  0  0
   -4.5266   -2.7521    0.3674 H   0  0  0  0  0  0  0  0  0  0  0  0
   -2.8576   -2.0761    1.5184 C   0  0  0  0  0  0  0  0  0  0  0  0
   -1.9456   -2.7051    2.0404 O   0  0  0  0  0  0  0  0  0  0  0  0
   -2.6926   -0.8481    1.0174 N   0  0  0  0  0  0  0  0  0  0  0  0
   -3.4926   -0.3971    0.5954 H   0  0  0  0  0  0  0  0  0  0  0  0
   -1.4216   -0.1071    1.0434 C   0  0  1  0  0  0  0  0  0  0  0  0
   -0.7579   -0.5878    1.7640 H   0  0  0  0  0  0  0  0  0  0  0  0
   -0.7791   -0.1912   -0.3557 C   0  0  0  0  0  0  0  0  0  0  0  0
   -0.3679   -1.1936   -0.4906 H   0  0  0  0  0  0  0  0  0  0  0  0
   -1.5511   -0.0366   -1.1127 H   0  0  0  0  0  0  0  0  0  0  0  0
    0.3502    0.8267   -0.5719 C   0  0  0  0  0  0  0  0  0  0  0  0
    0.6643    1.2389    0.3881 H   0  0  0  0  0  0  0  0  0  0  0  0
    1.1977    0.3300   -1.0454 H   0  0  0  0  0  0  0  0  0  0  0  0
   -0.1406    1.9683   -1.4727 C   0  0  0  0  0  0  0  0  0  0  0  0
   -0.4778    1.5437   -2.4211 H   0  0  0  0  0  0  0  0  0  0  0  0
   -0.9871    2.4569   -0.9844 H   0  0  0  0  0  0  0  0  0  0  0  0
    0.9229    2.9615   -1.7278 N   0  3  0  0  0  0  0  0  0  0  0  0
    1.8019    2.8116   -1.2628 H   0  0  0  0  0  0  0  0  0  0  0  0
    0.8281    4.0253   -2.5077 C   0  0  0  0  0  0  0  0  0  0  0  0
   -0.2650    4.3138   -3.1567 N   0  0  0  0  0  0  0  0  0  0  0  0
   -1.0592    3.7059   -3.0609 H   0  0  0  0  0  0  0  0  0  0  0  0
   -0.3204    5.1253   -3.7442 H   0  0  0  0  0  0  0  0  0  0  0  0
    1.8420    4.8307   -2.6514 N   0  0  0  0  0  0  0  0  0  0  0  0
    2.7066    4.6497   -2.1712 H   0  0  0  0  0  0  0  0  0  0  0  0
    1.7658    5.6365   -3.2441 H   0  0  0  0  0  0  0  0  0  0  0  0
   -1.6547    1.3413    1.4779 C   0  0  0  0  0  0  0  0  0  0  0  0
   -2.5654    1.9858    0.9716 O   0  0  0  0  0  0  0  0  0  0  0  0
   -0.8107    1.8504    2.3808 N   0  0  0  0  0  0  0  0  0  0  0  0
   -0.1136    1.2381    2.7719 H   0  0  0  0  0  0  0  0  0  0  0  0
   -0.8954    3.2155    2.9026 C   0  0  0  0  0  0  0  0  0  0  0  0
   -1.8299    3.3430    3.4532 H   0  0  0  0  0  0  0  0  0  0  0  0
   -0.0581    3.4194    3.5712 H   0  0  0  0  0  0  0  0  0  0  0  0
   -0.8804    3.9320    2.0784 H   0  0  0  0  0  0  0  0  0  0  0  0
  5  6  2  0  0  0  0
  5  7  1  0  0  0  0
  2  3  1  0  0  0  0
  2  4  1  0  0  0  0
  2  5  1  0  0  0  0
  1  2  1  0  0  0  0
 29 30  2  0  0  0  0
 29 31  1  0  0  0  0
 26 27  1  0  0  0  0
 26 28  1  0  0  0  0
 23 24  1  0  0  0  0
 23 25  1  0  0  0  0
 22 23  1  0  0  0  0
 22 26  1  0  0  0  0
 20 21  1  0  0  0  0
 20 22  2  0  0  0  0
 17 18  1  0  0  0  0
 17 19  1  0  0  0  0
 17 20  1  0  0  0  0
 14 15  1  0  0  0  0
 14 16  1  0  0  0  0
 14 17  1  0  0  0  0
 11 12  1  0  0  0  0
 11 13  1  0  0  0  0
 11 14  1  0  0  0  0
  9 10  1  0  0  0  0
  9 11  1  0  0  0  0
  9 29  1  0  0  0  0
  7  8  1  0  0  0  0
  7  9  1  0  0  0  0
 33 34  1  0  0  0  0
 33 35  1  0  0  0  0
 33 36  1  0  0  0  0
 31 32  1  0  0  0  0
 31 33  1  0  0  0  0
M  CHG  1  20   1
M  END
$$$$
default_name
  -OEChem-02102213163D

 36 35  0     1  0  0  0  0  0999 V2000
   -4.2256   -3.6731    1.8584 H   0  0  0  0  0  0  0  0  0  0  0  0
   -4.2396   -2.6781    1.4144 C   0  0  0  0  0  0  0  0  0  0  0  0
   -4.9506   -2.0521    1.9514 H   0  0  0  0  0  0  0  0  0  0  0  0
   -4.5266   -2.7521    0.3674 H   0  0  0  0  0  0  0  0  0  0  0  0
   -2.8576   -2.0761    1.5184 C   0  0  0  0  0  0  0  0  0  0  0  0
   -1.9456   -2.7051    2.0404 O   0  0  0  0  0  0  0  0  0  0  0  0
   -2.6926   -0.8481    1.0174 N   0  0  0  0  0  0  0  0  0  0  0  0
   -3.4926   -0.3971    0.5954 H   0  0  0  0  0  0  0  0  0  0  0  0
   -1.4216   -0.1071    1.0434 C   0  0  1  0  0  0  0  0  0  0  0  0
   -0.7579   -0.5878    1.7640 H   0  0  0  0  0  0  0  0  0  0  0  0
   -0.7791   -0.1912   -0.3557 C   0  0  0  0  0  0  0  0  0  0  0  0
   -0.3679   -1.1936   -0.4906 H   0  0  0  0  0  0  0  0  0  0  0  0
   -1.5511   -0.0366   -1.1127 H   0  0  0  0  0  0  0  0  0  0  0  0
    0.3502    0.8267   -0.5719 C   0  0  0  0  0  0  0  0  0  0  0  0
    0.8425    1.0390    0.3782 H   0  0  0  0  0  0  0  0  0  0  0  0
    1.0786    0.4143   -1.2709 H   0  0  0  0  0  0  0  0  0  0  0  0
   -0.2237    2.1305   -1.1430 C   0  0  0  0  0  0  0  0  0  0  0  0
   -0.7375    1.9043   -2.0802 H   0  0  0  0  0  0  0  0  0  0  0  0
   -0.9490    2.5322   -0.4314 H   0  0  0  0  0  0  0  0  0  0  0  0
    0.8330    3.1330   -1.3899 N   0  3  0  0  0  0  0  0  0  0  0  0
    1.7684    2.8786   -1.1224 H   0  0  0  0  0  0  0  0  0  0  0  0
    0.6650    4.3294   -1.9280 C   0  0  0  0  0  0  0  0  0  0  0  0
   -0.5047    4.7596   -2.3100 N   0  0  0  0  0  0  0  0  0  0  0  0
   -1.3026    4.1606   -2.1921 H   0  0  0  0  0  0  0  0  0  0  0  0
   -0.6149    5.6704   -2.7163 H   0  0  0  0  0  0  0  0  0  0  0  0
    1.6817    5.1270   -2.0938 N   0  0  0  0  0  0  0  0  0  0  0  0
    2.6039    4.8394   -1.8149 H   0  0  0  0  0  0  0  0  0  0  0  0
    1.5499    6.0337   -2.5025 H   0  0  0  0  0  0  0  0  0  0  0  0
   -1.6547    1.3413    1.4779 C   0  0  0  0  0  0  0  0  0  0  0  0
   -2.5654    1.9858    0.9716 O   0  0  0  0  0  0  0  0  0  0  0  0
   -0.8107    1.8504    2.3808 N   0  0  0  0  0  0  0  0  0  0  0  0
   -0.1136    1.2381    2.7719 H   0  0  0  0  0  0  0  0  0  0  0  0
   -0.8954    3.2155    2.9026 C   0  0  0  0  0  0  0  0  0  0  0  0
   -1.8299    3.3430    3.4532 H   0  0  0  0  0  0  0  0  0  0  0  0
   -0.0581    3.4194    3.5712 H   0  0  0  0  0  0  0  0  0  0  0  0
   -0.8804    3.9320    2.0784 H   0  0  0  0  0  0  0  0  0  0  0  0
  5  6  2  0  0  0  0
  5  7  1  0  0  0  0
  2  3  1  0  0  0  0
  2  4  1  0  0  0  0
  2  5  1  0  0  0  0
  1  2  1  0  0  0  0
 29 30  2  0  0  0  0
 29 31  1  0  0  0  0
 26 27  1  0  0  0  0
 26 28  1  0  0  0  0
 23 24  1  0  0  0  0
 23 25  1  0  0  0  0
 22 23  1  0  0  0  0
 22 26  1  0  0  0  0
 20 21  1  0  0  0  0
 20 22  2  0  0  0  0
 17 18  1  0  0  0  0
 17 19  1  0  0  0  0
 17 20  1  0  0  0  0
 14 15  1  0  0  0  0
 14 16  1  0  0  0  0
 14 17  1  0  0  0  0
 11 12  1  0  0  0  0
 11 13  1  0  0  0  0
 11 14  1  0  0  0  0
  9 10  1  0  0  0  0
  9 11  1  0  0  0  0
  9 29  1  0  0  0  0
  7  8  1  0  0  0  0
  7  9  1  0  0  0  0
 33 34  1  0  0  0  0
 33 35  1  0  0  0  0
 33 36  1  0  0  0  0
 31 32  1  0  0  0  0
 31 33  1  0  0  0  0
M  CHG  1  20   1
M  END
$$$$
default_name
  -OEChem-02102213163D

 36 35  0     1  0  0  0  0  0999 V2000
   -4.2256   -3.6731    1.8584 H   0  0  0  0  0  0  0  0  0  0  0  0
   -4.2396   -2.6781    1.4144 C   0  0  0  0  0  0  0  0  0  0  0  0
   -4.9506   -2.0521    1.9514 H   0  0  0  0  0  0  0  0  0  0  0  0
   -4.5266   -2.7521    0.3674 H   0  0  0  0  0  0  0  0  0  0  0  0
   -2.8576   -2.0761    1.5184 C   0  0  0  0  0  0  0  0  0  0  0  0
   -1.9456   -2.7051    2.0404 O   0  0  0  0  0  0  0  0  0  0  0  0
   -2.6926   -0.8481    1.0174 N   0  0  0  0  0  0  0  0  0  0  0  0
   -3.4926   -0.3971    0.5954 H   0  0  0  0  0  0  0  0  0  0  0  0
   -1.4216   -0.1071    1.0434 C   0  0  1  0  0  0  0  0  0  0  0  0
   -0.7579   -0.5878    1.7640 H   0  0  0  0  0  0  0  0  0  0  0  0
   -0.7791   -0.1912   -0.3557 C   0  0  0  0  0  0  0  0  0  0  0  0
   -0.3679   -1.1936   -0.4906 H   0  0  0  0  0  0  0  0  0  0  0  0
   -1.5511   -0.0366   -1.1127 H   0  0  0  0  0  0  0  0  0  0  0  0
    0.3502    0.8267   -0.5719 C   0  0  0  0  0  0  0  0  0  0  0  0
    1.0057    0.8413    0.3000 H   0  0  0  0  0  0  0  0  0  0  0  0
    0.9279    0.5430   -1.4522 H   0  0  0  0  0  0  0  0  0  0  0  0
   -0.2415    2.2275   -0.7794 C   0  0  0  0  0  0  0  0  0  0  0  0
   -0.9167    2.1972   -1.6377 H   0  0  0  0  0  0  0  0  0  0  0  0
   -0.8146    2.4982    0.1106 H   0  0  0  0  0  0  0  0  0  0  0  0
    0.8104    3.2377   -1.0154 N   0  3  0  0  0  0  0  0  0  0  0  0
    1.7626    2.9178   -0.9683 H   0  0  0  0  0  0  0  0  0  0  0  0
    0.6181    4.5186   -1.2823 C   0  0  0  0  0  0  0  0  0  0  0  0
   -0.5747    5.0378   -1.3662 N   0  0  0  0  0  0  0  0  0  0  0  0
   -1.3721    4.4432   -1.2247 H   0  0  0  0  0  0  0  0  0  0  0  0
   -0.7031    6.0120   -1.5692 H   0  0  0  0  0  0  0  0  0  0  0  0
    1.6333    5.3129   -1.4712 N   0  0  0  0  0  0  0  0  0  0  0  0
    2.5727    4.9585   -1.4169 H   0  0  0  0  0  0  0  0  0  0  0  0
    1.4830    6.2840   -1.6735 H   0  0  0  0  0  0  0  0  0  0  0  0
   -1.6547    1.3413    1.4779 C   0  0  0  0  0  0  0  0  0  0  0  0
   -2.5654    1.9858    0.9716 O   0  0  0  0  0  0  0  0  0  0  0  0
   -0.8107    1.8504    2.3808 N   0  0  0  0  0  0  0  0  0  0  0  0
   -0.1136    1.2381    2.7719 H   0  0  0  0  0  0  0  0  0  0  0  0
   -0.8954    3.2155    2.9026 C   0  0  0  0  0  0  0  0  0  0  0  0
   -1.8299    3.3430    3.4532 H   0  0  0  0  0  0  0  0  0  0  0  0
   -0.0581    3.4194    3.5712 H   0  0  0  0  0  0  0  0  0  0  0  0
   -0.8804    3.9320    2.0784 H   0  0  0  0  0  0  0  0  0  0  0  0
  5  6  2  0  0  0  0
  5  7  1  0  0  0  0
  2  3  1  0  0  0  0
  2  4  1  0  0  0  0
  2  5  1  0  0  0  0
  1  2  1  0  0  0  0
 29 30  2  0  0  0  0
 29 31  1  0  0  0  0
 26 27  1  0  0  0  0
 26 28  1  0  0  0  0
 23 24  1  0  0  0  0
 23 25  1  0  0  0  0
 22 23  1  0  0  0  0
 22 26  1  0  0  0  0
 20 21  1  0  0  0  0
 20 22  2  0  0  0  0
 17 18  1  0  0  0  0
 17 19  1  0  0  0  0
 17 20  1  0  0  0  0
 14 15  1  0  0  0  0
 14 16  1  0  0  0  0
 14 17  1  0  0  0  0
 11 12  1  0  0  0  0
 11 13  1  0  0  0  0
 11 14  1  0  0  0  0
  9 10  1  0  0  0  0
  9 11  1  0  0  0  0
  9 29  1  0  0  0  0
  7  8  1  0  0  0  0
  7  9  1  0  0  0  0
 33 34  1  0  0  0  0
 33 35  1  0  0  0  0
 33 36  1  0  0  0  0
 31 32  1  0  0  0  0
 31 33  1  0  0  0  0
M  CHG  1  20   1
M  END
$$$$
default_name
  -OEChem-02102213163D

 36 35  0     1  0  0  0  0  0999 V2000
   -4.2256   -3.6731    1.8584 H   0  0  0  0  0  0  0  0  0  0  0  0
   -4.2396   -2.6781    1.4144 C   0  0  0  0  0  0  0  0  0  0  0  0
   -4.9506   -2.0521    1.9514 H   0  0  0  0  0  0  0  0  0  0  0  0
   -4.5266   -2.7521    0.3674 H   0  0  0  0  0  0  0  0  0  0  0  0
   -2.8576   -2.0761    1.5184 C   0  0  0  0  0  0  0  0  0  0  0  0
   -1.9456   -2.7051    2.0404 O   0  0  0  0  0  0  0  0  0  0  0  0
   -2.6926   -0.8481    1.0174 N   0  0  0  0  0  0  0  0  0  0  0  0
   -3.4926   -0.3971    0.5954 H   0  0  0  0  0  0  0  0  0  0  0  0
   -1.4216   -0.1071    1.0434 C   0  0  1  0  0  0  0  0  0  0  0  0
   -0.7579   -0.5878    1.7640 H   0  0  0  0  0  0  0  0  0  0  0  0
   -0.7791   -0.1912   -0.3557 C   0  0  0  0  0  0  0  0  0  0  0  0
   -0.3679   -1.1936   -0.4906 H   0  0  0  0  0  0  0  0  0  0  0  0
   -1.5511   -0.0366   -1.1127 H   0  0  0  0  0  0  0  0  0  0  0  0
    0.3502    0.8267   -0.5719 C   0  0  0  0  0  0  0  0  0  0  0  0
    1.1427    0.6593    0.1588 H   0  0  0  0  0  0  0  0  0  0  0  0
    0.7559    0.7073   -1.5771 H   0  0  0  0  0  0  0  0  0  0  0  0
   -0.1928    2.2526   -0.4067 C   0  0  0  0  0  0  0  0  0  0  0  0
   -1.0032    2.4024   -1.1238 H   0  0  0  0  0  0  0  0  0  0  0  0
   -0.5930    2.3573    0.6045 H   0  0  0  0  0  0  0  0  0  0  0  0
    0.8566    3.2683   -0.6300 N   0  3  0  0  0  0  0  0  0  0  0  0
    1.7849    2.9265   -0.8110 H   0  0  0  0  0  0  0  0  0  0  0  0
    0.6904    4.5803   -0.6145 C   0  0  0  0  0  0  0  0  0  0  0  0
   -0.4702    5.1294   -0.3896 N   0  0  0  0  0  0  0  0  0  0  0  0
   -1.2629    4.5346   -0.2245 H   0  0  0  0  0  0  0  0  0  0  0  0
   -0.5790    6.1268   -0.3810 H   0  0  0  0  0  0  0  0  0  0  0  0
    1.7002    5.3758   -0.8262 N   0  0  0  0  0  0  0  0  0  0  0  0
    2.6152    4.9990   -1.0045 H   0  0  0  0  0  0  0  0  0  0  0  0
    1.5697    6.3705   -0.8137 H   0  0  0  0  0  0  0  0  0  0  0  0
   -1.6547    1.3413    1.4779 C   0  0  0  0  0  0  0  0  0  0  0  0
   -2.5654    1.9858    0.9716 O   0  0  0  0  0  0  0  0  0  0  0  0
   -0.8107    1.8504    2.3808 N   0  0  0  0  0  0  0  0  0  0  0  0
   -0.1136    1.2381    2.7719 H   0  0  0  0  0  0  0  0  0  0  0  0
   -0.8954    3.2155    2.9026 C   0  0  0  0  0  0  0  0  0  0  0  0
   -1.8299    3.3430    3.4532 H   0  0  0  0  0  0  0  0  0  0  0  0
   -0.0581    3.4194    3.5712 H   0  0  0  0  0  0  0  0  0  0  0  0
   -0.8804    3.9320    2.0784 H   0  0  0  0  0  0  0  0  0  0  0  0
  5  6  2  0  0  0  0
  5  7  1  0  0  0  0
  2  3  1  0  0  0  0
  2  4  1  0  0  0  0
  2  5  1  0  0  0  0
  1  2  1  0  0  0  0
 29 30  2  0  0  0  0
 29 31  1  0  0  0  0
 26 27  1  0  0  0  0
 26 28  1  0  0  0  0
 23 24  1  0  0  0  0
 23 25  1  0  0  0  0
 22 23  1  0  0  0  0
 22 26  1  0  0  0  0
 20 21  1  0  0  0  0
 20 22  2  0  0  0  0
 17 18  1  0  0  0  0
 17 19  1  0  0  0  0
 17 20  1  0  0  0  0
 14 15  1  0  0  0  0
 14 16  1  0  0  0  0
 14 17  1  0  0  0  0
 11 12  1  0  0  0  0
 11 13  1  0  0  0  0
 11 14  1  0  0  0  0
  9 10  1  0  0  0  0
  9 11  1  0  0  0  0
  9 29  1  0  0  0  0
  7  8  1  0  0  0  0
  7  9  1  0  0  0  0
 33 34  1  0  0  0  0
 33 35  1  0  0  0  0
 33 36  1  0  0  0  0
 31 32  1  0  0  0  0
 31 33  1  0  0  0  0
M  CHG  1  20   1
M  END
$$$$
default_name
  -OEChem-02102213163D

 36 35  0     1  0  0  0  0  0999 V2000
   -4.2256   -3.6731    1.8584 H   0  0  0  0  0  0  0  0  0  0  0  0
   -4.2396   -2.6781    1.4144 C   0  0  0  0  0  0  0  0  0  0  0  0
   -4.9506   -2.0521    1.9514 H   0  0  0  0  0  0  0  0  0  0  0  0
   -4.5266   -2.7521    0.3674 H   0  0  0  0  0  0  0  0  0  0  0  0
   -2.8576   -2.0761    1.5184 C   0  0  0  0  0  0  0  0  0  0  0  0
   -1.9456   -2.7051    2.0404 O   0  0  0  0  0  0  0  0  0  0  0  0
   -2.6926   -0.8481    1.0174 N   0  0  0  0  0  0  0  0  0  0  0  0
   -3.4926   -0.3971    0.5954 H   0  0  0  0  0  0  0  0  0  0  0  0
   -1.4216   -0.1071    1.0434 C   0  0  1  0  0  0  0  0  0  0  0  0
   -0.7579   -0.5878    1.7640 H   0  0  0  0  0  0  0  0  0  0  0  0
   -0.7791   -0.1912   -0.3557 C   0  0  0  0  0  0  0  0  0  0  0  0
   -0.3679   -1.1936   -0.4906 H   0  0  0  0  0  0  0  0  0  0  0  0
   -1.5511   -0.0366   -1.1127 H   0  0  0  0  0  0  0  0  0  0  0  0
    0.3502    0.8267   -0.5719 C   0  0  0  0  0  0  0  0  0  0  0  0
    1.2442    0.5054   -0.0357 H   0  0  0  0  0  0  0  0  0  0  0  0
    0.5743    0.8961   -1.6369 H   0  0  0  0  0  0  0  0  0  0  0  0
   -0.0809    2.2042   -0.0503 C   0  0  0  0  0  0  0  0  0  0  0  0
   -0.9912    2.5059   -0.5735 H   0  0  0  0  0  0  0  0  0  0  0  0
   -0.2994    2.1191    1.0168 H   0  0  0  0  0  0  0  0  0  0  0  0
    0.9685    3.2229   -0.2597 N   0  3  0  0  0  0  0  0  0  0  0  0
    1.8337    2.9042   -0.6612 H   0  0  0  0  0  0  0  0  0  0  0  0
    0.8771    4.5101    0.0299 C   0  0  0  0  0  0  0  0  0  0  0  0
   -0.1985    5.0282    0.5532 N   0  0  0  0  0  0  0  0  0  0  0  0
   -0.9826    4.4285    0.7403 H   0  0  0  0  0  0  0  0  0  0  0  0
   -0.2512    6.0071    0.7673 H   0  0  0  0  0  0  0  0  0  0  0  0
    1.8777    5.3113   -0.2027 N   0  0  0  0  0  0  0  0  0  0  0  0
    2.7285    4.9581   -0.6057 H   0  0  0  0  0  0  0  0  0  0  0  0
    1.8042    6.2872    0.0185 H   0  0  0  0  0  0  0  0  0  0  0  0
   -1.6547    1.3413    1.4779 C   0  0  0  0  0  0  0  0  0  0  0  0
   -2.5654    1.9858    0.9716 O   0  0  0  0  0  0  0  0  0  0  0  0
   -0.8107    1.8504    2.3808 N   0  0  0  0  0  0  0  0  0  0  0  0
   -0.1136    1.2381    2.7719 H   0  0  0  0  0  0  0  0  0  0  0  0
   -0.8954    3.2155    2.9026 C   0  0  0  0  0  0  0  0  0  0  0  0
   -1.8299    3.3430    3.4532 H   0  0  0  0  0  0  0  0  0  0  0  0
   -0.0581    3.4194    3.5712 H   0  0  0  0  0  0  0  0  0  0  0  0
   -0.8804    3.9320    2.0784 H   0  0  0  0  0  0  0  0  0  0  0  0
  5  6  2  0  0  0  0
  5  7  1  0  0  0  0
  2  3  1  0  0  0  0
  2  4  1  0  0  0  0
  2  5  1  0  0  0  0
  1  2  1  0  0  0  0
 29 30  2  0  0  0  0
 29 31  1  0  0  0  0
 26 27  1  0  0  0  0
 26 28  1  0  0  0  0
 23 24  1  0  0  0  0
 23 25  1  0  0  0  0
 22 23  1  0  0  0  0
 22 26  1  0  0  0  0
 20 21  1  0  0  0  0
 20 22  2  0  0  0  0
 17 18  1  0  0  0  0
 17 19  1  0  0  0  0
 17 20  1  0  0  0  0
 14 15  1  0  0  0  0
 14 16  1  0  0  0  0
 14 17  1  0  0  0  0
 11 12  1  0  0  0  0
 11 13  1  0  0  0  0
 11 14  1  0  0  0  0
  9 10  1  0  0  0  0
  9 11  1  0  0  0  0
  9 29  1  0  0  0  0
  7  8  1  0  0  0  0
  7  9  1  0  0  0  0
 33 34  1  0  0  0  0
 33 35  1  0  0  0  0
 33 36  1  0  0  0  0
 31 32  1  0  0  0  0
 31 33  1  0  0  0  0
M  CHG  1  20   1
M  END
$$$$
default_name
  -OEChem-02102213163D

 36 35  0     1  0  0  0  0  0999 V2000
   -4.2256   -3.6731    1.8584 H   0  0  0  0  0  0  0  0  0  0  0  0
   -4.2396   -2.6781    1.4144 C   0  0  0  0  0  0  0  0  0  0  0  0
   -4.9506   -2.0521    1.9514 H   0  0  0  0  0  0  0  0  0  0  0  0
   -4.5266   -2.7521    0.3674 H   0  0  0  0  0  0  0  0  0  0  0  0
   -2.8576   -2.0761    1.5184 C   0  0  0  0  0  0  0  0  0  0  0  0
   -1.9456   -2.7051    2.0404 O   0  0  0  0  0  0  0  0  0  0  0  0
   -2.6926   -0.8481    1.0174 N   0  0  0  0  0  0  0  0  0  0  0  0
   -3.4926   -0.3971    0.5954 H   0  0  0  0  0  0  0  0  0  0  0  0
   -1.4216   -0.1071    1.0434 C   0  0  1  0  0  0  0  0  0  0  0  0
   -0.7579   -0.5878    1.7640 H   0  0  0  0  0  0  0  0  0  0  0  0
   -0.7791   -0.1912   -0.3557 C   0  0  0  0  0  0  0  0  0  0  0  0
   -0.3679   -1.1936   -0.4906 H   0  0  0  0  0  0  0  0  0  0  0  0
   -1.5511   -0.0366   -1.1127 H   0  0  0  0  0  0  0  0  0  0  0  0
    0.3502    0.8267   -0.5719 C   0  0  0  0  0  0  0  0  0  0  0  0
    1.3033    0.3900   -0.2702 H   0  0  0  0  0  0  0  0  0  0  0  0
    0.3955    1.0964   -1.6275 H   0  0  0  0  0  0  0  0  0  0  0  0
    0.0866    2.0855    0.2656 C   0  0  0  0  0  0  0  0  0  0  0  0
   -0.8813    2.5008   -0.0243 H   0  0  0  0  0  0  0  0  0  0  0  0
    0.0463    1.7998    1.3194 H   0  0  0  0  0  0  0  0  0  0  0  0
    1.1384    3.1044    0.0701 N   0  3  0  0  0  0  0  0  0  0  0  0
    1.9057    2.8523   -0.5291 H   0  0  0  0  0  0  0  0  0  0  0  0
    1.1654    4.3128    0.6069 C   0  0  0  0  0  0  0  0  0  0  0  0
    0.2221    4.7411    1.3980 N   0  0  0  0  0  0  0  0  0  0  0  0
   -0.5501    4.1322    1.6040 H   0  0  0  0  0  0  0  0  0  0  0  0
    0.2581    5.6609    1.7974 H   0  0  0  0  0  0  0  0  0  0  0  0
    2.1538    5.1239    0.3569 N   0  0  0  0  0  0  0  0  0  0  0  0
    2.9048    4.8385   -0.2477 H   0  0  0  0  0  0  0  0  0  0  0  0
    2.1704    6.0398    0.7662 H   0  0  0  0  0  0  0  0  0  0  0  0
   -1.6547    1.3413    1.4779 C   0  0  0  0  0  0  0  0  0  0  0  0
   -2.5654    1.9858    0.9716 O   0  0  0  0  0  0  0  0  0  0  0  0
   -0.8107    1.8504    2.3808 N   0  0  0  0  0  0  0  0  0  0  0  0
   -0.1136    1.2381    2.7719 H   0  0  0  0  0  0  0  0  0  0  0  0
   -0.8954    3.2155    2.9026 C   0  0  0  0  0  0  0  0  0  0  0  0
   -1.8299    3.3430    3.4532 H   0  0  0  0  0  0  0  0  0  0  0  0
   -0.0581    3.4194    3.5712 H   0  0  0  0  0  0  0  0  0  0  0  0
   -0.8804    3.9320    2.0784 H   0  0  0  0  0  0  0  0  0  0  0  0
  5  6  2  0  0  0  0
  5  7  1  0  0  0  0
  2  3  1  0  0  0  0
  2  4  1  0  0  0  0
  2  5  1  0  0  0  0
  1  2  1  0  0  0  0
 29 30  2  0  0  0  0
 29 31  1  0  0  0  0
 26 27  1  0  0  0  0
 26 28  1  0  0  0  0
 23 24  1  0  0  0  0
 23 25  1  0  0  0  0
 22 23  1  0  0  0  0
 22 26  1  0  0  0  0
 20 21  1  0  0  0  0
 20 22  2  0  0  0  0
 17 18  1  0  0  0  0
 17 19  1  0  0  0  0
 17 20  1  0  0  0  0
 14 15  1  0  0  0  0
 14 16  1  0  0  0  0
 14 17  1  0  0  0  0
 11 12  1  0  0  0  0
 11 13  1  0  0  0  0
 11 14  1  0  0  0  0
  9 10  1  0  0  0  0
  9 11  1  0  0  0  0
  9 29  1  0  0  0  0
  7  8  1  0  0  0  0
  7  9  1  0  0  0  0
 33 34  1  0  0  0  0
 33 35  1  0  0  0  0
 33 36  1  0  0  0  0
 31 32  1  0  0  0  0
 31 33  1  0  0  0  0
M  CHG  1  20   1
M  END
$$$$
default_name
  -OEChem-02102213163D

 36 35  0     1  0  0  0  0  0999 V2000
   -4.2256   -3.6731    1.8584 H   0  0  0  0  0  0  0  0  0  0  0  0
   -4.2396   -2.6781    1.4144 C   0  0  0  0  0  0  0  0  0  0  0  0
   -4.9506   -2.0521    1.9514 H   0  0  0  0  0  0  0  0  0  0  0  0
   -4.5266   -2.7521    0.3674 H   0  0  0  0  0  0  0  0  0  0  0  0
   -2.8576   -2.0761    1.5184 C   0  0  0  0  0  0  0  0  0  0  0  0
   -1.9456   -2.7051    2.0404 O   0  0  0  0  0  0  0  0  0  0  0  0
   -2.6926   -0.8481    1.0174 N   0  0  0  0  0  0  0  0  0  0  0  0
   -3.4926   -0.3971    0.5954 H   0  0  0  0  0  0  0  0  0  0  0  0
   -1.4216   -0.1071    1.0434 C   0  0  1  0  0  0  0  0  0  0  0  0
   -0.7579   -0.5878    1.7640 H   0  0  0  0  0  0  0  0  0  0  0  0
   -0.7791   -0.1912   -0.3557 C   0  0  0  0  0  0  0  0  0  0  0  0
   -0.3679   -1.1936   -0.4906 H   0  0  0  0  0  0  0  0  0  0  0  0
   -1.5511   -0.0366   -1.1127 H   0  0  0  0  0  0  0  0  0  0  0  0
    0.3502    0.8267   -0.5719 C   0  0  0  0  0  0  0  0  0  0  0  0
    1.3159    0.3210   -0.5289 H   0  0  0  0  0  0  0  0  0  0  0  0
    0.2318    1.2946   -1.5497 H   0  0  0  0  0  0  0  0  0  0  0  0
    0.2982    1.9046    0.5194 C   0  0  0  0  0  0  0  0  0  0  0  0
   -0.6812    2.3872    0.4864 H   0  0  0  0  0  0  0  0  0  0  0  0
    0.4205    1.4213    1.4915 H   0  0  0  0  0  0  0  0  0  0  0  0
    1.3548    2.9210    0.3370 N   0  3  0  0  0  0  0  0  0  0  0  0
    1.9961    2.7745   -0.4237 H   0  0  0  0  0  0  0  0  0  0  0  0
    1.5357    4.0019    1.0772 C   0  0  0  0  0  0  0  0  0  0  0  0
    0.7628    4.2876    2.0873 N   0  0  0  0  0  0  0  0  0  0  0  0
    0.0049    3.6659    2.3076 H   0  0  0  0  0  0  0  0  0  0  0  0
    0.9141    5.1118    2.6392 H   0  0  0  0  0  0  0  0  0  0  0  0
    2.5097    4.8263    0.8144 N   0  0  0  0  0  0  0  0  0  0  0  0
    3.1321    4.6484    0.0450 H   0  0  0  0  0  0  0  0  0  0  0  0
    2.6433    5.6451    1.3785 H   0  0  0  0  0  0  0  0  0  0  0  0
   -1.6547    1.3413    1.4779 C   0  0  0  0  0  0  0  0  0  0  0  0
   -2.5654    1.9858    0.9716 O   0  0  0  0  0  0  0  0  0  0  0  0
   -0.8107    1.8504    2.3808 N   0  0  0  0  0  0  0  0  0  0  0  0
   -0.1136    1.2381    2.7719 H   0  0  0  0  0  0  0  0  0  0  0  0
   -0.8954    3.2155    2.9026 C   0  0  0  0  0  0  0  0  0  0  0  0
   -1.8299    3.3430    3.4532 H   0  0  0  0  0  0  0  0  0  0  0  0
   -0.0581    3.4194    3.5712 H   0  0  0  0  0  0  0  0  0  0  0  0
   -0.8804    3.9320    2.0784 H   0  0  0  0  0  0  0  0  0  0  0  0
  5  6  2  0  0  0  0
  5  7  1  0  0  0  0
  2  3  1  0  0  0  0
  2  4  1  0  0  0  0
  2  5  1  0  0  0  0
  1  2  1  0  0  0  0
 29 30  2  0  0  0  0
 29 31  1  0  0  0  0
 26 27  1  0  0  0  0
 26 28  1  0  0  0  0
 23 24  1  0  0  0  0
 23 25  1  0  0  0  0
 22 23  1  0  0  0  0
 22 26  1  0  0  0  0
 20 21  1  0  0  0  0
 20 22  2  0  0  0  0
 17 18  1  0  0  0  0
 17 19  1  0  0  0  0
 17 20  1  0  0  0  0
 14 15  1  0  0  0  0
 14 16  1  0  0  0  0
 14 17  1  0  0  0  0
 11 12  1  0  0  0  0
 11 13  1  0  0  0  0
 11 14  1  0  0  0  0
  9 10  1  0  0  0  0
  9 11  1  0  0  0  0
  9 29  1  0  0  0  0
  7  8  1  0  0  0  0
  7  9  1  0  0  0  0
 33 34  1  0  0  0  0
 33 35  1  0  0  0  0
 33 36  1  0  0  0  0
 31 32  1  0  0  0  0
 31 33  1  0  0  0  0
M  CHG  1  20   1
M  END
$$$$
default_name
  -OEChem-02102213163D

 36 35  0     1  0  0  0  0  0999 V2000
   -4.2256   -3.6731    1.8584 H   0  0  0  0  0  0  0  0  0  0  0  0
   -4.2396   -2.6781    1.4144 C   0  0  0  0  0  0  0  0  0  0  0  0
   -4.9506   -2.0521    1.9514 H   0  0  0  0  0  0  0  0  0  0  0  0
   -4.5266   -2.7521    0.3674 H   0  0  0  0  0  0  0  0  0  0  0  0
   -2.8576   -2.0761    1.5184 C   0  0  0  0  0  0  0  0  0  0  0  0
   -1.9456   -2.7051    2.0404 O   0  0  0  0  0  0  0  0  0  0  0  0
   -2.6926   -0.8481    1.0174 N   0  0  0  0  0  0  0  0  0  0  0  0
   -3.4926   -0.3971    0.5954 H   0  0  0  0  0  0  0  0  0  0  0  0
   -1.4216   -0.1071    1.0434 C   0  0  1  0  0  0  0  0  0  0  0  0
   -0.7579   -0.5878    1.7640 H   0  0  0  0  0  0  0  0  0  0  0  0
   -0.7791   -0.1912   -0.3557 C   0  0  0  0  0  0  0  0  0  0  0  0
   -0.3679   -1.1936   -0.4906 H   0  0  0  0  0  0  0  0  0  0  0  0
   -1.5511   -0.0366   -1.1127 H   0  0  0  0  0  0  0  0  0  0  0  0
    0.3502    0.8267   -0.5719 C   0  0  0  0  0  0  0  0  0  0  0  0
    1.2812    0.3032   -0.7940 H   0  0  0  0  0  0  0  0  0  0  0  0
    0.0942    1.4773   -1.4088 H   0  0  0  0  0  0  0  0  0  0  0  0
    0.5396    1.6739    0.6938 C   0  0  0  0  0  0  0  0  0  0  0  0
   -0.4045    2.1731    0.9237 H   0  0  0  0  0  0  0  0  0  0  0  0
    0.7976    1.0092    1.5216 H   0  0  0  0  0  0  0  0  0  0  0  0
    1.6029    2.6852    0.5227 N   0  3  0  0  0  0  0  0  0  0  0  0
    2.0986    2.6759   -0.3523 H   0  0  0  0  0  0  0  0  0  0  0  0
    1.9627    3.5986    1.4089 C   0  0  0  0  0  0  0  0  0  0  0  0
    1.3867    3.6987    2.5740 N   0  0  0  0  0  0  0  0  0  0  0  0
    0.6448    3.0612    2.8032 H   0  0  0  0  0  0  0  0  0  0  0  0
    1.6722    4.3974    3.2352 H   0  0  0  0  0  0  0  0  0  0  0  0
    2.9210    4.4387    1.1386 N   0  0  0  0  0  0  0  0  0  0  0  0
    3.3951    4.4008    0.2527 H   0  0  0  0  0  0  0  0  0  0  0  0
    3.1908    5.1301    1.8137 H   0  0  0  0  0  0  0  0  0  0  0  0
   -1.6547    1.3413    1.4779 C   0  0  0  0  0  0  0  0  0  0  0  0
   -2.5654    1.9858    0.9716 O   0  0  0  0  0  0  0  0  0  0  0  0
   -0.8107    1.8504    2.3808 N   0  0  0  0  0  0  0  0  0  0  0  0
   -0.1136    1.2381    2.7719 H   0  0  0  0  0  0  0  0  0  0  0  0
   -0.8954    3.2155    2.9026 C   0  0  0  0  0  0  0  0  0  0  0  0
   -1.8299    3.3430    3.4532 H   0  0  0  0  0  0  0  0  0  0  0  0
   -0.0581    3.4194    3.5712 H   0  0  0  0  0  0  0  0  0  0  0  0
   -0.8804    3.9320    2.0784 H   0  0  0  0  0  0  0  0  0  0  0  0
  5  6  2  0  0  0  0
  5  7  1  0  0  0  0
  2  3  1  0  0  0  0
  2  4  1  0  0  0  0
  2  5  1  0  0  0  0
  1  2  1  0  0  0  0
 29 30  2  0  0  0  0
 29 31  1  0  0  0  0
 26 27  1  0  0  0  0
 26 28  1  0  0  0  0
 23 24  1  0  0  0  0
 23 25  1  0  0  0  0
 22 23  1  0  0  0  0
 22 26  1  0  0  0  0
 20 21  1  0  0  0  0
 20 22  2  0  0  0  0
 17 18  1  0  0  0  0
 17 19  1  0  0  0  0
 17 20  1  0  0  0  0
 14 15  1  0  0  0  0
 14 16  1  0  0  0  0
 14 17  1  0  0  0  0
 11 12  1  0  0  0  0
 11 13  1  0  0  0  0
 11 14  1  0  0  0  0
  9 10  1  0  0  0  0
  9 11  1  0  0  0  0
  9 29  1  0  0  0  0
  7  8  1  0  0  0  0
  7  9  1  0  0  0  0
 33 34  1  0  0  0  0
 33 35  1  0  0  0  0
 33 36  1  0  0  0  0
 31 32  1  0  0  0  0
 31 33  1  0  0  0  0
M  CHG  1  20   1
M  END
$$$$
default_name
  -OEChem-02102213163D

 36 35  0     1  0  0  0  0  0999 V2000
   -4.2256   -3.6731    1.8584 H   0  0  0  0  0  0  0  0  0  0  0  0
   -4.2396   -2.6781    1.4144 C   0  0  0  0  0  0  0  0  0  0  0  0
   -4.9506   -2.0521    1.9514 H   0  0  0  0  0  0  0  0  0  0  0  0
   -4.5266   -2.7521    0.3674 H   0  0  0  0  0  0  0  0  0  0  0  0
   -2.8576   -2.0761    1.5184 C   0  0  0  0  0  0  0  0  0  0  0  0
   -1.9456   -2.7051    2.0404 O   0  0  0  0  0  0  0  0  0  0  0  0
   -2.6926   -0.8481    1.0174 N   0  0  0  0  0  0  0  0  0  0  0  0
   -3.4926   -0.3971    0.5954 H   0  0  0  0  0  0  0  0  0  0  0  0
   -1.4216   -0.1071    1.0434 C   0  0  1  0  0  0  0  0  0  0  0  0
   -0.7579   -0.5878    1.7640 H   0  0  0  0  0  0  0  0  0  0  0  0
   -0.7791   -0.1912   -0.3557 C   0  0  0  0  0  0  0  0  0  0  0  0
   -0.3679   -1.1936   -0.4906 H   0  0  0  0  0  0  0  0  0  0  0  0
   -1.5511   -0.0366   -1.1127 H   0  0  0  0  0  0  0  0  0  0  0  0
    0.3502    0.8267   -0.5719 C   0  0  0  0  0  0  0  0  0  0  0  0
    1.2015    0.3377   -1.0476 H   0  0  0  0  0  0  0  0  0  0  0  0
   -0.0079    1.6319   -1.2142 H   0  0  0  0  0  0  0  0  0  0  0  0
    0.7942    1.4090    0.7769 C   0  0  0  0  0  0  0  0  0  0  0  0
   -0.0700    1.8729    1.2578 H   0  0  0  0  0  0  0  0  0  0  0  0
    1.1521    0.5917    1.4075 H   0  0  0  0  0  0  0  0  0  0  0  0
    1.8658    2.4130    0.6146 N   0  3  0  0  0  0  0  0  0  0  0  0
    2.2062    2.5634   -0.3196 H   0  0  0  0  0  0  0  0  0  0  0  0
    2.4174    3.1303    1.5792 C   0  0  0  0  0  0  0  0  0  0  0  0
    2.0515    3.0145    2.8250 N   0  0  0  0  0  0  0  0  0  0  0  0
    1.3258    2.3595    3.0572 H   0  0  0  0  0  0  0  0  0  0  0  0
    2.4806    3.5662    3.5449 H   0  0  0  0  0  0  0  0  0  0  0  0
    3.3598    3.9877    1.3074 N   0  0  0  0  0  0  0  0  0  0  0  0
    3.6756    4.1126    0.3610 H   0  0  0  0  0  0  0  0  0  0  0  0
    3.7755    4.5299    2.0421 H   0  0  0  0  0  0  0  0  0  0  0  0
   -1.6547    1.3413    1.4779 C   0  0  0  0  0  0  0  0  0  0  0  0
   -2.5654    1.9858    0.9716 O   0  0  0  0  0  0  0  0  0  0  0  0
   -0.8107    1.8504    2.3808 N   0  0  0  0  0  0  0  0  0  0  0  0
   -0.1136    1.2381    2.7719 H   0  0  0  0  0  0  0  0  0  0  0  0
   -0.8954    3.2155    2.9026 C   0  0  0  0  0  0  0  0  0  0  0  0
   -1.8299    3.3430    3.4532 H   0  0  0  0  0  0  0  0  0  0  0  0
   -0.0581    3.4194    3.5712 H   0  0  0  0  0  0  0  0  0  0  0  0
   -0.8804    3.9320    2.0784 H   0  0  0  0  0  0  0  0  0  0  0  0
  5  6  2  0  0  0  0
  5  7  1  0  0  0  0
  2  3  1  0  0  0  0
  2  4  1  0  0  0  0
  2  5  1  0  0  0  0
  1  2  1  0  0  0  0
 29 30  2  0  0  0  0
 29 31  1  0  0  0  0
 26 27  1  0  0  0  0
 26 28  1  0  0  0  0
 23 24  1  0  0  0  0
 23 25  1  0  0  0  0
 22 23  1  0  0  0  0
 22 26  1  0  0  0  0
 20 21  1  0  0  0  0
 20 22  2  0  0  0  0
 17 18  1  0  0  0  0
 17 19  1  0  0  0  0
 17 20  1  0  0  0  0
 14 15  1  0  0  0  0
 14 16  1  0  0  0  0
 14 17  1  0  0  0  0
 11 12  1  0  0  0  0
 11 13  1  0  0  0  0
 11 14  1  0  0  0  0
  9 10  1  0  0  0  0
  9 11  1  0  0  0  0
  9 29  1  0  0  0  0
  7  8  1  0  0  0  0
  7  9  1  0  0  0  0
 33 34  1  0  0  0  0
 33 35  1  0  0  0  0
 33 36  1  0  0  0  0
 31 32  1  0  0  0  0
 31 33  1  0  0  0  0
M  CHG  1  20   1
M  END
$$$$
default_name
  -OEChem-02102213163D

 36 35  0     1  0  0  0  0  0999 V2000
   -4.2256   -3.6731    1.8584 H   0  0  0  0  0  0  0  0  0  0  0  0
   -4.2396   -2.6781    1.4144 C   0  0  0  0  0  0  0  0  0  0  0  0
   -4.9506   -2.0521    1.9514 H   0  0  0  0  0  0  0  0  0  0  0  0
   -4.5266   -2.7521    0.3674 H   0  0  0  0  0  0  0  0  0  0  0  0
   -2.8576   -2.0761    1.5184 C   0  0  0  0  0  0  0  0  0  0  0  0
   -1.9456   -2.7051    2.0404 O   0  0  0  0  0  0  0  0  0  0  0  0
   -2.6926   -0.8481    1.0174 N   0  0  0  0  0  0  0  0  0  0  0  0
   -3.4926   -0.3971    0.5954 H   0  0  0  0  0  0  0  0  0  0  0  0
   -1.4216   -0.1071    1.0434 C   0  0  1  0  0  0  0  0  0  0  0  0
   -0.7579   -0.5878    1.7640 H   0  0  0  0  0  0  0  0  0  0  0  0
   -0.7791   -0.1912   -0.3557 C   0  0  0  0  0  0  0  0  0  0  0  0
   -0.3679   -1.1936   -0.4906 H   0  0  0  0  0  0  0  0  0  0  0  0
   -1.5511   -0.0366   -1.1127 H   0  0  0  0  0  0  0  0  0  0  0  0
    0.3502    0.8267   -0.5719 C   0  0  0  0  0  0  0  0  0  0  0  0
    1.0823    0.4222   -1.2723 H   0  0  0  0  0  0  0  0  0  0  0  0
   -0.0675    1.7479   -0.9794 H   0  0  0  0  0  0  0  0  0  0  0  0
    1.0448    1.1280    0.7631 C   0  0  0  0  0  0  0  0  0  0  0  0
    0.2996    1.5072    1.4661 H   0  0  0  0  0  0  0  0  0  0  0  0
    1.4596    0.1972    1.1570 H   0  0  0  0  0  0  0  0  0  0  0  0
    2.1257    2.1230    0.6066 N   0  3  0  0  0  0  0  0  0  0  0  0
    2.3117    2.4446   -0.3280 H   0  0  0  0  0  0  0  0  0  0  0  0
    2.8687    2.6290    1.5766 C   0  0  0  0  0  0  0  0  0  0  0  0
    2.7117    2.2815    2.8231 N   0  0  0  0  0  0  0  0  0  0  0  0
    2.0017    1.6086    3.0520 H   0  0  0  0  0  0  0  0  0  0  0  0
    3.2844    2.6749    3.5471 H   0  0  0  0  0  0  0  0  0  0  0  0
    3.7962    3.5039    1.3093 N   0  0  0  0  0  0  0  0  0  0  0  0
    3.9547    3.8033    0.3626 H   0  0  0  0  0  0  0  0  0  0  0  0
    4.3576    3.8853    2.0482 H   0  0  0  0  0  0  0  0  0  0  0  0
   -1.6547    1.3413    1.4779 C   0  0  0  0  0  0  0  0  0  0  0  0
   -2.5654    1.9858    0.9716 O   0  0  0  0  0  0  0  0  0  0  0  0
   -0.8107    1.8504    2.3808 N   0  0  0  0  0  0  0  0  0  0  0  0
   -0.1136    1.2381    2.7719 H   0  0  0  0  0  0  0  0  0  0  0  0
   -0.8954    3.2155    2.9026 C   0  0  0  0  0  0  0  0  0  0  0  0
   -1.8299    3.3430    3.4532 H   0  0  0  0  0  0  0  0  0  0  0  0
   -0.0581    3.4194    3.5712 H   0  0  0  0  0  0  0  0  0  0  0  0
   -0.8804    3.9320    2.0784 H   0  0  0  0  0  0  0  0  0  0  0  0
  5  6  2  0  0  0  0
  5  7  1  0  0  0  0
  2  3  1  0  0  0  0
  2  4  1  0  0  0  0
  2  5  1  0  0  0  0
  1  2  1  0  0  0  0
 29 30  2  0  0  0  0
 29 31  1  0  0  0  0
 26 27  1  0  0  0  0
 26 28  1  0  0  0  0
 23 24  1  0  0  0  0
 23 25  1  0  0  0  0
 22 23  1  0  0  0  0
 22 26  1  0  0  0  0
 20 21  1  0  0  0  0
 20 22  2  0  0  0  0
 17 18  1  0  0  0  0
 17 19  1  0  0  0  0
 17 20  1  0  0  0  0
 14 15  1  0  0  0  0
 14 16  1  0  0  0  0
 14 17  1  0  0  0  0
 11 12  1  0  0  0  0
 11 13  1  0  0  0  0
 11 14  1  0  0  0  0
  9 10  1  0  0  0  0
  9 11  1  0  0  0  0
  9 29  1  0  0  0  0
  7  8  1  0  0  0  0
  7  9  1  0  0  0  0
 33 34  1  0  0  0  0
 33 35  1  0  0  0  0
 33 36  1  0  0  0  0
 31 32  1  0  0  0  0
 31 33  1  0  0  0  0
M  CHG  1  20   1
M  END
$$$$
default_name
  -OEChem-02102213163D

 36 35  0     1  0  0  0  0  0999 V2000
   -4.2256   -3.6731    1.8584 H   0  0  0  0  0  0  0  0  0  0  0  0
   -4.2396   -2.6781    1.4144 C   0  0  0  0  0  0  0  0  0  0  0  0
   -4.9506   -2.0521    1.9514 H   0  0  0  0  0  0  0  0  0  0  0  0
   -4.5266   -2.7521    0.3674 H   0  0  0  0  0  0  0  0  0  0  0  0
   -2.8576   -2.0761    1.5184 C   0  0  0  0  0  0  0  0  0  0  0  0
   -1.9456   -2.7051    2.0404 O   0  0  0  0  0  0  0  0  0  0  0  0
   -2.6926   -0.8481    1.0174 N   0  0  0  0  0  0  0  0  0  0  0  0
   -3.4926   -0.3971    0.5954 H   0  0  0  0  0  0  0  0  0  0  0  0
   -1.4216   -0.1071    1.0434 C   0  0  1  0  0  0  0  0  0  0  0  0
   -0.7579   -0.5878    1.7640 H   0  0  0  0  0  0  0  0  0  0  0  0
   -0.7791   -0.1912   -0.3557 C   0  0  0  0  0  0  0  0  0  0  0  0
   -0.3679   -1.1936   -0.4906 H   0  0  0  0  0  0  0  0  0  0  0  0
   -1.5511   -0.0366   -1.1127 H   0  0  0  0  0  0  0  0  0  0  0  0
    0.3502    0.8267   -0.5719 C   0  0  0  0  0  0  0  0  0  0  0  0
    0.9317    0.5510   -1.4527 H   0  0  0  0  0  0  0  0  0  0  0  0
   -0.0806    1.8174   -0.7202 H   0  0  0  0  0  0  0  0  0  0  0  0
    1.2742    0.8501    0.6533 C   0  0  0  0  0  0  0  0  0  0  0  0
    0.6789    1.1008    1.5343 H   0  0  0  0  0  0  0  0  0  0  0  0
    1.6994   -0.1474    0.7872 H   0  0  0  0  0  0  0  0  0  0  0  0
    2.3647    1.8350    0.4990 N   0  3  0  0  0  0  0  0  0  0  0  0
    2.4079    2.3276   -0.3767 H   0  0  0  0  0  0  0  0  0  0  0  0
    3.2859    2.1288    1.4012 C   0  0  0  0  0  0  0  0  0  0  0  0
    3.3224    1.5499    2.5686 N   0  0  0  0  0  0  0  0  0  0  0  0
    2.6262    0.8596    2.7882 H   0  0  0  0  0  0  0  0  0  0  0  0
    4.0286    1.7842    3.2418 H   0  0  0  0  0  0  0  0  0  0  0  0
    4.2005    3.0204    1.1442 N   0  0  0  0  0  0  0  0  0  0  0  0
    4.2132    3.4941    0.2574 H   0  0  0  0  0  0  0  0  0  0  0  0
    4.8974    3.2403    1.8315 H   0  0  0  0  0  0  0  0  0  0  0  0
   -1.6547    1.3413    1.4779 C   0  0  0  0  0  0  0  0  0  0  0  0
   -2.5654    1.9858    0.9716 O   0  0  0  0  0  0  0  0  0  0  0  0
   -0.8107    1.8504    2.3808 N   0  0  0  0  0  0  0  0  0  0  0  0
   -0.1136    1.2381    2.7719 H   0  0  0  0  0  0  0  0  0  0  0  0
   -0.8954    3.2155    2.9026 C   0  0  0  0  0  0  0  0  0  0  0  0
   -1.8299    3.3430    3.4532 H   0  0  0  0  0  0  0  0  0  0  0  0
   -0.0581    3.4194    3.5712 H   0  0  0  0  0  0  0  0  0  0  0  0
   -0.8804    3.9320    2.0784 H   0  0  0  0  0  0  0  0  0  0  0  0
  5  6  2  0  0  0  0
  5  7  1  0  0  0  0
  2  3  1  0  0  0  0
  2  4  1  0  0  0  0
  2  5  1  0  0  0  0
  1  2  1  0  0  0  0
 29 30  2  0  0  0  0
 29 31  1  0  0  0  0
 26 27  1  0  0  0  0
 26 28  1  0  0  0  0
 23 24  1  0  0  0  0
 23 25  1  0  0  0  0
 22 23  1  0  0  0  0
 22 26  1  0  0  0  0
 20 21  1  0  0  0  0
 20 22  2  0  0  0  0
 17 18  1  0  0  0  0
 17 19  1  0  0  0  0
 17 20  1  0  0  0  0
 14 15  1  0  0  0  0
 14 16  1  0  0  0  0
 14 17  1  0  0  0  0
 11 12  1  0  0  0  0
 11 13  1  0  0  0  0
 11 14  1  0  0  0  0
  9 10  1  0  0  0  0
  9 11  1  0  0  0  0
  9 29  1  0  0  0  0
  7  8  1  0  0  0  0
  7  9  1  0  0  0  0
 33 34  1  0  0  0  0
 33 35  1  0  0  0  0
 33 36  1  0  0  0  0
 31 32  1  0  0  0  0
 31 33  1  0  0  0  0
M  CHG  1  20   1
M  END
$$$$
default_name
  -OEChem-02102213163D

 36 35  0     1  0  0  0  0  0999 V2000
   -4.2256   -3.6731    1.8584 H   0  0  0  0  0  0  0  0  0  0  0  0
   -4.2396   -2.6781    1.4144 C   0  0  0  0  0  0  0  0  0  0  0  0
   -4.9506   -2.0521    1.9514 H   0  0  0  0  0  0  0  0  0  0  0  0
   -4.5266   -2.7521    0.3674 H   0  0  0  0  0  0  0  0  0  0  0  0
   -2.8576   -2.0761    1.5184 C   0  0  0  0  0  0  0  0  0  0  0  0
   -1.9456   -2.7051    2.0404 O   0  0  0  0  0  0  0  0  0  0  0  0
   -2.6926   -0.8481    1.0174 N   0  0  0  0  0  0  0  0  0  0  0  0
   -3.4926   -0.3971    0.5954 H   0  0  0  0  0  0  0  0  0  0  0  0
   -1.4216   -0.1071    1.0434 C   0  0  1  0  0  0  0  0  0  0  0  0
   -0.7579   -0.5878    1.7640 H   0  0  0  0  0  0  0  0  0  0  0  0
   -0.7791   -0.1912   -0.3557 C   0  0  0  0  0  0  0  0  0  0  0  0
   -0.3679   -1.1936   -0.4906 H   0  0  0  0  0  0  0  0  0  0  0  0
   -1.5511   -0.0366   -1.1127 H   0  0  0  0  0  0  0  0  0  0  0  0
    0.3502    0.8267   -0.5719 C   0  0  0  0  0  0  0  0  0  0  0  0
    0.7600    0.7152   -1.5767 H   0  0  0  0  0  0  0  0  0  0  0  0
   -0.0462    1.8358   -0.4544 H   0  0  0  0  0  0  0  0  0  0  0  0
    1.4669    0.5942    0.4550 C   0  0  0  0  0  0  0  0  0  0  0  0
    1.0422    0.6814    1.4577 H   0  0  0  0  0  0  0  0  0  0  0  0
    1.8550   -0.4185    0.3233 H   0  0  0  0  0  0  0  0  0  0  0  0
    2.5666    1.5685    0.2992 N   0  3  0  0  0  0  0  0  0  0  0  0
    2.4881    2.2203   -0.4626 H   0  0  0  0  0  0  0  0  0  0  0  0
    3.6406    1.6638    1.0650 C   0  0  0  0  0  0  0  0  0  0  0  0
    3.8419    0.8693    2.0787 N   0  0  0  0  0  0  0  0  0  0  0  0
    3.1569    0.1635    2.2836 H   0  0  0  0  0  0  0  0  0  0  0  0
    4.6626    0.9549    2.6496 H   0  0  0  0  0  0  0  0  0  0  0  0
    4.5450    2.5700    0.8234 N   0  0  0  0  0  0  0  0  0  0  0  0
    4.4337    3.2060    0.0526 H   0  0  0  0  0  0  0  0  0  0  0  0
    5.3582    2.6389    1.4069 H   0  0  0  0  0  0  0  0  0  0  0  0
   -1.6547    1.3413    1.4779 C   0  0  0  0  0  0  0  0  0  0  0  0
   -2.5654    1.9858    0.9716 O   0  0  0  0  0  0  0  0  0  0  0  0
   -0.8107    1.8504    2.3808 N   0  0  0  0  0  0  0  0  0  0  0  0
   -0.1136    1.2381    2.7719 H   0  0  0  0  0  0  0  0  0  0  0  0
   -0.8954    3.2155    2.9026 C   0  0  0  0  0  0  0  0  0  0  0  0
   -1.8299    3.3430    3.4532 H   0  0  0  0  0  0  0  0  0  0  0  0
   -0.0581    3.4194    3.5712 H   0  0  0  0  0  0  0  0  0  0  0  0
   -0.8804    3.9320    2.0784 H   0  0  0  0  0  0  0  0  0  0  0  0
  5  6  2  0  0  0  0
  5  7  1  0  0  0  0
  2  3  1  0  0  0  0
  2  4  1  0  0  0  0
  2  5  1  0  0  0  0
  1  2  1  0  0  0  0
 29 30  2  0  0  0  0
 29 31  1  0  0  0  0
 26 27  1  0  0  0  0
 26 28  1  0  0  0  0
 23 24  1  0  0  0  0
 23 25  1  0  0  0  0
 22 23  1  0  0  0  0
 22 26  1  0  0  0  0
 20 21  1  0  0  0  0
 20 22  2  0  0  0  0
 17 18  1  0  0  0  0
 17 19  1  0  0  0  0
 17 20  1  0  0  0  0
 14 15  1  0  0  0  0
 14 16  1  0  0  0  0
 14 17  1  0  0  0  0
 11 12  1  0  0  0  0
 11 13  1  0  0  0  0
 11 14  1  0  0  0  0
  9 10  1  0  0  0  0
  9 11  1  0  0  0  0
  9 29  1  0  0  0  0
  7  8  1  0  0  0  0
  7  9  1  0  0  0  0
 33 34  1  0  0  0  0
 33 35  1  0  0  0  0
 33 36  1  0  0  0  0
 31 32  1  0  0  0  0
 31 33  1  0  0  0  0
M  CHG  1  20   1
M  END
$$$$
default_name
  -OEChem-02102213163D

 36 35  0     1  0  0  0  0  0999 V2000
   -4.2256   -3.6731    1.8584 H   0  0  0  0  0  0  0  0  0  0  0  0
   -4.2396   -2.6781    1.4144 C   0  0  0  0  0  0  0  0  0  0  0  0
   -4.9506   -2.0521    1.9514 H   0  0  0  0  0  0  0  0  0  0  0  0
   -4.5266   -2.7521    0.3674 H   0  0  0  0  0  0  0  0  0  0  0  0
   -2.8576   -2.0761    1.5184 C   0  0  0  0  0  0  0  0  0  0  0  0
   -1.9456   -2.7051    2.0404 O   0  0  0  0  0  0  0  0  0  0  0  0
   -2.6926   -0.8481    1.0174 N   0  0  0  0  0  0  0  0  0  0  0  0
   -3.4926   -0.3971    0.5954 H   0  0  0  0  0  0  0  0  0  0  0  0
   -1.4216   -0.1071    1.0434 C   0  0  1  0  0  0  0  0  0  0  0  0
   -0.7579   -0.5878    1.7640 H   0  0  0  0  0  0  0  0  0  0  0  0
   -0.7791   -0.1912   -0.3557 C   0  0  0  0  0  0  0  0  0  0  0  0
   -0.3679   -1.1936   -0.4906 H   0  0  0  0  0  0  0  0  0  0  0  0
   -1.5511   -0.0366   -1.1127 H   0  0  0  0  0  0  0  0  0  0  0  0
    0.3502    0.8267   -0.5719 C   0  0  0  0  0  0  0  0  0  0  0  0
    0.5788    0.9036   -1.6358 H   0  0  0  0  0  0  0  0  0  0  0  0
    0.0333    1.8016   -0.2001 H   0  0  0  0  0  0  0  0  0  0  0  0
    1.6096    0.3778    0.1817 C   0  0  0  0  0  0  0  0  0  0  0  0
    1.3647    0.2777    1.2416 H   0  0  0  0  0  0  0  0  0  0  0  0
    1.9158   -0.5979   -0.2031 H   0  0  0  0  0  0  0  0  0  0  0  0
    2.7176    1.3418    0.0209 N   0  3  0  0  0  0  0  0  0  0  0  0
    2.5470    2.1301   -0.5797 H   0  0  0  0  0  0  0  0  0  0  0  0
    3.9086    1.2658    0.5910 C   0  0  0  0  0  0  0  0  0  0  0  0
    4.2349    0.2863    1.3868 N   0  0  0  0  0  0  0  0  0  0  0  0
    3.5576   -0.4321    1.5728 H   0  0  0  0  0  0  0  0  0  0  0  0
    5.1432    0.2435    1.8110 H   0  0  0  0  0  0  0  0  0  0  0  0
    4.8063    2.1834    0.3686 N   0  0  0  0  0  0  0  0  0  0  0  0
    4.6009    2.9586   -0.2379 H   0  0  0  0  0  0  0  0  0  0  0  0
    5.7085    2.1220    0.8031 H   0  0  0  0  0  0  0  0  0  0  0  0
   -1.6547    1.3413    1.4779 C   0  0  0  0  0  0  0  0  0  0  0  0
   -2.5654    1.9858    0.9716 O   0  0  0  0  0  0  0  0  0  0  0  0
   -0.8107    1.8504    2.3808 N   0  0  0  0  0  0  0  0  0  0  0  0
   -0.1136    1.2381    2.7719 H   0  0  0  0  0  0  0  0  0  0  0  0
   -0.8954    3.2155    2.9026 C   0  0  0  0  0  0  0  0  0  0  0  0
   -1.8299    3.3430    3.4532 H   0  0  0  0  0  0  0  0  0  0  0  0
   -0.0581    3.4194    3.5712 H   0  0  0  0  0  0  0  0  0  0  0  0
   -0.8804    3.9320    2.0784 H   0  0  0  0  0  0  0  0  0  0  0  0
  5  6  2  0  0  0  0
  5  7  1  0  0  0  0
  2  3  1  0  0  0  0
  2  4  1  0  0  0  0
  2  5  1  0  0  0  0
  1  2  1  0  0  0  0
 29 30  2  0  0  0  0
 29 31  1  0  0  0  0
 26 27  1  0  0  0  0
 26 28  1  0  0  0  0
 23 24  1  0  0  0  0
 23 25  1  0  0  0  0
 22 23  1  0  0  0  0
 22 26  1  0  0  0  0
 20 21  1  0  0  0  0
 20 22  2  0  0  0  0
 17 18  1  0  0  0  0
 17 19  1  0  0  0  0
 17 20  1  0  0  0  0
 14 15  1  0  0  0  0
 14 16  1  0  0  0  0
 14 17  1  0  0  0  0
 11 12  1  0  0  0  0
 11 13  1  0  0  0  0
 11 14  1  0  0  0  0
  9 10  1  0  0  0  0
  9 11  1  0  0  0  0
  9 29  1  0  0  0  0
  7  8  1  0  0  0  0
  7  9  1  0  0  0  0
 33 34  1  0  0  0  0
 33 35  1  0  0  0  0
 33 36  1  0  0  0  0
 31 32  1  0  0  0  0
 31 33  1  0  0  0  0
M  CHG  1  20   1
M  END
$$$$
default_name
  -OEChem-02102213163D

 36 35  0     1  0  0  0  0  0999 V2000
   -4.2256   -3.6731    1.8584 H   0  0  0  0  0  0  0  0  0  0  0  0
   -4.2396   -2.6781    1.4144 C   0  0  0  0  0  0  0  0  0  0  0  0
   -4.9506   -2.0521    1.9514 H   0  0  0  0  0  0  0  0  0  0  0  0
   -4.5266   -2.7521    0.3674 H   0  0  0  0  0  0  0  0  0  0  0  0
   -2.8576   -2.0761    1.5184 C   0  0  0  0  0  0  0  0  0  0  0  0
   -1.9456   -2.7051    2.0404 O   0  0  0  0  0  0  0  0  0  0  0  0
   -2.6926   -0.8481    1.0174 N   0  0  0  0  0  0  0  0  0  0  0  0
   -3.4926   -0.3971    0.5954 H   0  0  0  0  0  0  0  0  0  0  0  0
   -1.4216   -0.1071    1.0434 C   0  0  1  0  0  0  0  0  0  0  0  0
   -0.7579   -0.5878    1.7640 H   0  0  0  0  0  0  0  0  0  0  0  0
   -0.7791   -0.1912   -0.3557 C   0  0  0  0  0  0  0  0  0  0  0  0
   -0.3679   -1.1936   -0.4906 H   0  0  0  0  0  0  0  0  0  0  0  0
   -1.5511   -0.0366   -1.1127 H   0  0  0  0  0  0  0  0  0  0  0  0
    0.3502    0.8267   -0.5719 C   0  0  0  0  0  0  0  0  0  0  0  0
    0.4006    1.1035   -1.6259 H   0  0  0  0  0  0  0  0  0  0  0  0
    0.1525    1.7173    0.0254 H   0  0  0  0  0  0  0  0  0  0  0  0
    1.6927    0.2156   -0.1480 C   0  0  0  0  0  0  0  0  0  0  0  0
    1.6244   -0.0829    0.9006 H   0  0  0  0  0  0  0  0  0  0  0  0
    1.8776   -0.6731   -0.7561 H   0  0  0  0  0  0  0  0  0  0  0  0
    2.8075    1.1702   -0.3170 N   0  3  0  0  0  0  0  0  0  0  0  0
    2.5804    2.0631   -0.7201 H   0  0  0  0  0  0  0  0  0  0  0  0
    4.0716    0.9618    0.0113 C   0  0  0  0  0  0  0  0  0  0  0  0
    4.4746   -0.1595    0.5401 N   0  0  0  0  0  0  0  0  0  0  0  0
    3.8010   -0.8867    0.7040 H   0  0  0  0  0  0  0  0  0  0  0  0
    5.4377   -0.3016    0.7831 H   0  0  0  0  0  0  0  0  0  0  0  0
    4.9666    1.8871   -0.1890 N   0  0  0  0  0  0  0  0  0  0  0  0
    4.7037    2.7689   -0.5942 H   0  0  0  0  0  0  0  0  0  0  0  0
    5.9244    1.7248    0.0615 H   0  0  0  0  0  0  0  0  0  0  0  0
   -1.6547    1.3413    1.4779 C   0  0  0  0  0  0  0  0  0  0  0  0
   -2.5654    1.9858    0.9716 O   0  0  0  0  0  0  0  0  0  0  0  0
   -0.8107    1.8504    2.3808 N   0  0  0  0  0  0  0  0  0  0  0  0
   -0.1136    1.2381    2.7719 H   0  0  0  0  0  0  0  0  0  0  0  0
   -0.8954    3.2155    2.9026 C   0  0  0  0  0  0  0  0  0  0  0  0
   -1.8299    3.3430    3.4532 H   0  0  0  0  0  0  0  0  0  0  0  0
   -0.0581    3.4194    3.5712 H   0  0  0  0  0  0  0  0  0  0  0  0
   -0.8804    3.9320    2.0784 H   0  0  0  0  0  0  0  0  0  0  0  0
  5  6  2  0  0  0  0
  5  7  1  0  0  0  0
  2  3  1  0  0  0  0
  2  4  1  0  0  0  0
  2  5  1  0  0  0  0
  1  2  1  0  0  0  0
 29 30  2  0  0  0  0
 29 31  1  0  0  0  0
 26 27  1  0  0  0  0
 26 28  1  0  0  0  0
 23 24  1  0  0  0  0
 23 25  1  0  0  0  0
 22 23  1  0  0  0  0
 22 26  1  0  0  0  0
 20 21  1  0  0  0  0
 20 22  2  0  0  0  0
 17 18  1  0  0  0  0
 17 19  1  0  0  0  0
 17 20  1  0  0  0  0
 14 15  1  0  0  0  0
 14 16  1  0  0  0  0
 14 17  1  0  0  0  0
 11 12  1  0  0  0  0
 11 13  1  0  0  0  0
 11 14  1  0  0  0  0
  9 10  1  0  0  0  0
  9 11  1  0  0  0  0
  9 29  1  0  0  0  0
  7  8  1  0  0  0  0
  7  9  1  0  0  0  0
 33 34  1  0  0  0  0
 33 35  1  0  0  0  0
 33 36  1  0  0  0  0
 31 32  1  0  0  0  0
 31 33  1  0  0  0  0
M  CHG  1  20   1
M  END
$$$$
default_name
  -OEChem-02102213163D

 36 35  0     1  0  0  0  0  0999 V2000
   -4.2256   -3.6731    1.8584 H   0  0  0  0  0  0  0  0  0  0  0  0
   -4.2396   -2.6781    1.4144 C   0  0  0  0  0  0  0  0  0  0  0  0
   -4.9506   -2.0521    1.9514 H   0  0  0  0  0  0  0  0  0  0  0  0
   -4.5266   -2.7521    0.3674 H   0  0  0  0  0  0  0  0  0  0  0  0
   -2.8576   -2.0761    1.5184 C   0  0  0  0  0  0  0  0  0  0  0  0
   -1.9456   -2.7051    2.0404 O   0  0  0  0  0  0  0  0  0  0  0  0
   -2.6926   -0.8481    1.0174 N   0  0  0  0  0  0  0  0  0  0  0  0
   -3.4926   -0.3971    0.5954 H   0  0  0  0  0  0  0  0  0  0  0  0
   -1.4216   -0.1071    1.0434 C   0  0  1  0  0  0  0  0  0  0  0  0
   -0.7579   -0.5878    1.7640 H   0  0  0  0  0  0  0  0  0  0  0  0
   -0.7791   -0.1912   -0.3557 C   0  0  0  0  0  0  0  0  0  0  0  0
   -0.3679   -1.1936   -0.4906 H   0  0  0  0  0  0  0  0  0  0  0  0
   -1.5511   -0.0366   -1.1127 H   0  0  0  0  0  0  0  0  0  0  0  0
    0.3502    0.8267   -0.5719 C   0  0  0  0  0  0  0  0  0  0  0  0
    0.2374    1.3012   -1.5477 H   0  0  0  0  0  0  0  0  0  0  0  0
    0.3032    1.5886    0.2068 H   0  0  0  0  0  0  0  0  0  0  0  0
    1.7105    0.1186   -0.5116 C   0  0  0  0  0  0  0  0  0  0  0  0
    1.8036   -0.3757    0.4581 H   0  0  0  0  0  0  0  0  0  0  0  0
    1.7432   -0.6391   -1.2981 H   0  0  0  0  0  0  0  0  0  0  0  0
    2.8301    1.0656   -0.6914 N   0  3  0  0  0  0  0  0  0  0  0  0
    2.5863    2.0239   -0.8742 H   0  0  0  0  0  0  0  0  0  0  0  0
    4.1185    0.7725   -0.6344 C   0  0  0  0  0  0  0  0  0  0  0  0
    4.5445   -0.4377   -0.4037 N   0  0  0  0  0  0  0  0  0  0  0  0
    3.8705   -1.1694   -0.2635 H   0  0  0  0  0  0  0  0  0  0  0  0
    5.5259   -0.6432   -0.3640 H   0  0  0  0  0  0  0  0  0  0  0  0
    5.0149    1.7011   -0.8116 N   0  0  0  0  0  0  0  0  0  0  0  0
    4.7349    2.6498   -0.9922 H   0  0  0  0  0  0  0  0  0  0  0  0
    5.9913    1.4745   -0.7675 H   0  0  0  0  0  0  0  0  0  0  0  0
   -1.6547    1.3413    1.4779 C   0  0  0  0  0  0  0  0  0  0  0  0
   -2.5654    1.9858    0.9716 O   0  0  0  0  0  0  0  0  0  0  0  0
   -0.8107    1.8504    2.3808 N   0  0  0  0  0  0  0  0  0  0  0  0
   -0.1136    1.2381    2.7719 H   0  0  0  0  0  0  0  0  0  0  0  0
   -0.8954    3.2155    2.9026 C   0  0  0  0  0  0  0  0  0  0  0  0
   -1.8299    3.3430    3.4532 H   0  0  0  0  0  0  0  0  0  0  0  0
   -0.0581    3.4194    3.5712 H   0  0  0  0  0  0  0  0  0  0  0  0
   -0.8804    3.9320    2.0784 H   0  0  0  0  0  0  0  0  0  0  0  0
  5  6  2  0  0  0  0
  5  7  1  0  0  0  0
  2  3  1  0  0  0  0
  2  4  1  0  0  0  0
  2  5  1  0  0  0  0
  1  2  1  0  0  0  0
 29 30  2  0  0  0  0
 29 31  1  0  0  0  0
 26 27  1  0  0  0  0
 26 28  1  0  0  0  0
 23 24  1  0  0  0  0
 23 25  1  0  0  0  0
 22 23  1  0  0  0  0
 22 26  1  0  0  0  0
 20 21  1  0  0  0  0
 20 22  2  0  0  0  0
 17 18  1  0  0  0  0
 17 19  1  0  0  0  0
 17 20  1  0  0  0  0
 14 15  1  0  0  0  0
 14 16  1  0  0  0  0
 14 17  1  0  0  0  0
 11 12  1  0  0  0  0
 11 13  1  0  0  0  0
 11 14  1  0  0  0  0
  9 10  1  0  0  0  0
  9 11  1  0  0  0  0
  9 29  1  0  0  0  0
  7  8  1  0  0  0  0
  7  9  1  0  0  0  0
 33 34  1  0  0  0  0
 33 35  1  0  0  0  0
 33 36  1  0  0  0  0
 31 32  1  0  0  0  0
 31 33  1  0  0  0  0
M  CHG  1  20   1
M  END
$$$$
default_name
  -OEChem-02102213163D

 36 35  0     1  0  0  0  0  0999 V2000
   -4.2256   -3.6731    1.8584 H   0  0  0  0  0  0  0  0  0  0  0  0
   -4.2396   -2.6781    1.4144 C   0  0  0  0  0  0  0  0  0  0  0  0
   -4.9506   -2.0521    1.9514 H   0  0  0  0  0  0  0  0  0  0  0  0
   -4.5266   -2.7521    0.3674 H   0  0  0  0  0  0  0  0  0  0  0  0
   -2.8576   -2.0761    1.5184 C   0  0  0  0  0  0  0  0  0  0  0  0
   -1.9456   -2.7051    2.0404 O   0  0  0  0  0  0  0  0  0  0  0  0
   -2.6926   -0.8481    1.0174 N   0  0  0  0  0  0  0  0  0  0  0  0
   -3.4926   -0.3971    0.5954 H   0  0  0  0  0  0  0  0  0  0  0  0
   -1.4216   -0.1071    1.0434 C   0  0  1  0  0  0  0  0  0  0  0  0
   -0.7579   -0.5878    1.7640 H   0  0  0  0  0  0  0  0  0  0  0  0
   -0.7791   -0.1912   -0.3557 C   0  0  0  0  0  0  0  0  0  0  0  0
   -0.3679   -1.1936   -0.4906 H   0  0  0  0  0  0  0  0  0  0  0  0
   -1.5511   -0.0366   -1.1127 H   0  0  0  0  0  0  0  0  0  0  0  0
    0.3502    0.8267   -0.5719 C   0  0  0  0  0  0  0  0  0  0  0  0
    0.1004    1.4832   -1.4066 H   0  0  0  0  0  0  0  0  0  0  0  0
    0.4752    1.4243    0.3316 H   0  0  0  0  0  0  0  0  0  0  0  0
    1.6618    0.0934   -0.8843 C   0  0  0  0  0  0  0  0  0  0  0  0
    1.8901   -0.5809   -0.0558 H   0  0  0  0  0  0  0  0  0  0  0  0
    1.5216   -0.4982   -1.7921 H   0  0  0  0  0  0  0  0  0  0  0  0
    2.7839    1.0349   -1.0769 N   0  3  0  0  0  0  0  0  0  0  0  0
    2.5640    2.0152   -1.0315 H   0  0  0  0  0  0  0  0  0  0  0  0
    4.0462    0.7109   -1.3022 C   0  0  0  0  0  0  0  0  0  0  0  0
    4.4401   -0.5293   -1.3803 N   0  0  0  0  0  0  0  0  0  0  0  0
    3.7613   -1.2608   -1.2637 H   0  0  0  0  0  0  0  0  0  0  0  0
    5.4019   -0.7580   -1.5522 H   0  0  0  0  0  0  0  0  0  0  0  0
    4.9481    1.6382   -1.4566 N   0  0  0  0  0  0  0  0  0  0  0  0
    4.6924    2.6093   -1.4046 H   0  0  0  0  0  0  0  0  0  0  0  0
    5.9045    1.3880   -1.6273 H   0  0  0  0  0  0  0  0  0  0  0  0
   -1.6547    1.3413    1.4779 C   0  0  0  0  0  0  0  0  0  0  0  0
   -2.5654    1.9858    0.9716 O   0  0  0  0  0  0  0  0  0  0  0  0
   -0.8107    1.8504    2.3808 N   0  0  0  0  0  0  0  0  0  0  0  0
   -0.1136    1.2381    2.7719 H   0  0  0  0  0  0  0  0  0  0  0  0
   -0.8954    3.2155    2.9026 C   0  0  0  0  0  0  0  0  0  0  0  0
   -1.8299    3.3430    3.4532 H   0  0  0  0  0  0  0  0  0  0  0  0
   -0.0581    3.4194    3.5712 H   0  0  0  0  0  0  0  0  0  0  0  0
   -0.8804    3.9320    2.0784 H   0  0  0  0  0  0  0  0  0  0  0  0
  5  6  2  0  0  0  0
  5  7  1  0  0  0  0
  2  3  1  0  0  0  0
  2  4  1  0  0  0  0
  2  5  1  0  0  0  0
  1  2  1  0  0  0  0
 29 30  2  0  0  0  0
 29 31  1  0  0  0  0
 26 27  1  0  0  0  0
 26 28  1  0  0  0  0
 23 24  1  0  0  0  0
 23 25  1  0  0  0  0
 22 23  1  0  0  0  0
 22 26  1  0  0  0  0
 20 21  1  0  0  0  0
 20 22  2  0  0  0  0
 17 18  1  0  0  0  0
 17 19  1  0  0  0  0
 17 20  1  0  0  0  0
 14 15  1  0  0  0  0
 14 16  1  0  0  0  0
 14 17  1  0  0  0  0
 11 12  1  0  0  0  0
 11 13  1  0  0  0  0
 11 14  1  0  0  0  0
  9 10  1  0  0  0  0
  9 11  1  0  0  0  0
  9 29  1  0  0  0  0
  7  8  1  0  0  0  0
  7  9  1  0  0  0  0
 33 34  1  0  0  0  0
 33 35  1  0  0  0  0
 33 36  1  0  0  0  0
 31 32  1  0  0  0  0
 31 33  1  0  0  0  0
M  CHG  1  20   1
M  END
$$$$
default_name
  -OEChem-02102213163D

 36 35  0     1  0  0  0  0  0999 V2000
   -4.2256   -3.6731    1.8584 H   0  0  0  0  0  0  0  0  0  0  0  0
   -4.2396   -2.6781    1.4144 C   0  0  0  0  0  0  0  0  0  0  0  0
   -4.9506   -2.0521    1.9514 H   0  0  0  0  0  0  0  0  0  0  0  0
   -4.5266   -2.7521    0.3674 H   0  0  0  0  0  0  0  0  0  0  0  0
   -2.8576   -2.0761    1.5184 C   0  0  0  0  0  0  0  0  0  0  0  0
   -1.9456   -2.7051    2.0404 O   0  0  0  0  0  0  0  0  0  0  0  0
   -2.6926   -0.8481    1.0174 N   0  0  0  0  0  0  0  0  0  0  0  0
   -3.4926   -0.3971    0.5954 H   0  0  0  0  0  0  0  0  0  0  0  0
   -1.4216   -0.1071    1.0434 C   0  0  1  0  0  0  0  0  0  0  0  0
   -0.7579   -0.5878    1.7640 H   0  0  0  0  0  0  0  0  0  0  0  0
   -0.7791   -0.1912   -0.3557 C   0  0  0  0  0  0  0  0  0  0  0  0
   -0.3679   -1.1936   -0.4906 H   0  0  0  0  0  0  0  0  0  0  0  0
   -1.5511   -0.0366   -1.1127 H   0  0  0  0  0  0  0  0  0  0  0  0
    0.3502    0.8267   -0.5719 C   0  0  0  0  0  0  0  0  0  0  0  0
   -0.0011    1.6371   -1.2121 H   0  0  0  0  0  0  0  0  0  0  0  0
    0.6568    1.2355    0.3914 H   0  0  0  0  0  0  0  0  0  0  0  0
    1.5499    0.1419   -1.2407 C   0  0  0  0  0  0  0  0  0  0  0  0
    1.8780   -0.6845   -0.6061 H   0  0  0  0  0  0  0  0  0  0  0  0
    1.2280   -0.2600   -2.2044 H   0  0  0  0  0  0  0  0  0  0  0  0
    2.6721    1.0804   -1.4472 N   0  3  0  0  0  0  0  0  0  0  0  0
    2.5152    2.0375   -1.1813 H   0  0  0  0  0  0  0  0  0  0  0  0
    3.8595    0.7811   -1.9466 C   0  0  0  0  0  0  0  0  0  0  0  0
    4.1683   -0.4281   -2.3231 N   0  0  0  0  0  0  0  0  0  0  0  0
    3.4809   -1.1547   -2.2285 H   0  0  0  0  0  0  0  0  0  0  0  0
    5.0740   -0.6383   -2.7005 H   0  0  0  0  0  0  0  0  0  0  0  0
    4.7705    1.7027   -2.0802 N   0  0  0  0  0  0  0  0  0  0  0  0
    4.5791    2.6502   -1.8034 H   0  0  0  0  0  0  0  0  0  0  0  0
    5.6701    1.4713   -2.4595 H   0  0  0  0  0  0  0  0  0  0  0  0
   -1.6547    1.3413    1.4779 C   0  0  0  0  0  0  0  0  0  0  0  0
   -2.5654    1.9858    0.9716 O   0  0  0  0  0  0  0  0  0  0  0  0
   -0.8107    1.8504    2.3808 N   0  0  0  0  0  0  0  0  0  0  0  0
   -0.1136    1.2381    2.7719 H   0  0  0  0  0  0  0  0  0  0  0  0
   -0.8954    3.2155    2.9026 C   0  0  0  0  0  0  0  0  0  0  0  0
   -1.8299    3.3430    3.4532 H   0  0  0  0  0  0  0  0  0  0  0  0
   -0.0581    3.4194    3.5712 H   0  0  0  0  0  0  0  0  0  0  0  0
   -0.8804    3.9320    2.0784 H   0  0  0  0  0  0  0  0  0  0  0  0
  5  6  2  0  0  0  0
  5  7  1  0  0  0  0
  2  3  1  0  0  0  0
  2  4  1  0  0  0  0
  2  5  1  0  0  0  0
  1  2  1  0  0  0  0
 29 30  2  0  0  0  0
 29 31  1  0  0  0  0
 26 27  1  0  0  0  0
 26 28  1  0  0  0  0
 23 24  1  0  0  0  0
 23 25  1  0  0  0  0
 22 23  1  0  0  0  0
 22 26  1  0  0  0  0
 20 21  1  0  0  0  0
 20 22  2  0  0  0  0
 17 18  1  0  0  0  0
 17 19  1  0  0  0  0
 17 20  1  0  0  0  0
 14 15  1  0  0  0  0
 14 16  1  0  0  0  0
 14 17  1  0  0  0  0
 11 12  1  0  0  0  0
 11 13  1  0  0  0  0
 11 14  1  0  0  0  0
  9 10  1  0  0  0  0
  9 11  1  0  0  0  0
  9 29  1  0  0  0  0
  7  8  1  0  0  0  0
  7  9  1  0  0  0  0
 33 34  1  0  0  0  0
 33 35  1  0  0  0  0
 33 36  1  0  0  0  0
 31 32  1  0  0  0  0
 31 33  1  0  0  0  0
M  CHG  1  20   1
M  END
$$$$
default_name
  -OEChem-02102213163D

 36 35  0     1  0  0  0  0  0999 V2000
   -4.2256   -3.6731    1.8584 H   0  0  0  0  0  0  0  0  0  0  0  0
   -4.2396   -2.6781    1.4144 C   0  0  0  0  0  0  0  0  0  0  0  0
   -4.9506   -2.0521    1.9514 H   0  0  0  0  0  0  0  0  0  0  0  0
   -4.5266   -2.7521    0.3674 H   0  0  0  0  0  0  0  0  0  0  0  0
   -2.8576   -2.0761    1.5184 C   0  0  0  0  0  0  0  0  0  0  0  0
   -1.9456   -2.7051    2.0404 O   0  0  0  0  0  0  0  0  0  0  0  0
   -2.6926   -0.8481    1.0174 N   0  0  0  0  0  0  0  0  0  0  0  0
   -3.4926   -0.3971    0.5954 H   0  0  0  0  0  0  0  0  0  0  0  0
   -1.4216   -0.1071    1.0434 C   0  0  1  0  0  0  0  0  0  0  0  0
   -0.7579   -0.5878    1.7640 H   0  0  0  0  0  0  0  0  0  0  0  0
   -0.7791   -0.1912   -0.3557 C   0  0  0  0  0  0  0  0  0  0  0  0
   -0.3679   -1.1936   -0.4906 H   0  0  0  0  0  0  0  0  0  0  0  0
   -1.5511   -0.0366   -1.1127 H   0  0  0  0  0  0  0  0  0  0  0  0
    0.3502    0.8267   -0.5719 C   0  0  0  0  0  0  0  0  0  0  0  0
   -0.0602    1.7525   -0.9775 H   0  0  0  0  0  0  0  0  0  0  0  0
    0.8355    1.0352    0.3821 H   0  0  0  0  0  0  0  0  0  0  0  0
    1.3824    0.2606   -1.5566 C   0  0  0  0  0  0  0  0  0  0  0  0
    1.7682   -0.6793   -1.1552 H   0  0  0  0  0  0  0  0  0  0  0  0
    0.8823    0.0593   -2.5069 H   0  0  0  0  0  0  0  0  0  0  0  0
    2.5021    1.1989   -1.7769 N   0  3  0  0  0  0  0  0  0  0  0  0
    2.4432    2.0894   -1.3134 H   0  0  0  0  0  0  0  0  0  0  0  0
    3.5712    0.9784   -2.5236 C   0  0  0  0  0  0  0  0  0  0  0  0
    3.7478   -0.1410   -3.1680 N   0  0  0  0  0  0  0  0  0  0  0  0
    3.0485   -0.8584   -3.0921 H   0  0  0  0  0  0  0  0  0  0  0  0
    4.5647   -0.2921   -3.7307 H   0  0  0  0  0  0  0  0  0  0  0  0
    4.4945    1.8902   -2.6397 N   0  0  0  0  0  0  0  0  0  0  0  0
    4.4028    2.7698   -2.1614 H   0  0  0  0  0  0  0  0  0  0  0  0
    5.3039    1.7188   -3.2072 H   0  0  0  0  0  0  0  0  0  0  0  0
   -1.6547    1.3413    1.4779 C   0  0  0  0  0  0  0  0  0  0  0  0
   -2.5654    1.9858    0.9716 O   0  0  0  0  0  0  0  0  0  0  0  0
   -0.8107    1.8504    2.3808 N   0  0  0  0  0  0  0  0  0  0  0  0
   -0.1136    1.2381    2.7719 H   0  0  0  0  0  0  0  0  0  0  0  0
   -0.8954    3.2155    2.9026 C   0  0  0  0  0  0  0  0  0  0  0  0
   -1.8299    3.3430    3.4532 H   0  0  0  0  0  0  0  0  0  0  0  0
   -0.0581    3.4194    3.5712 H   0  0  0  0  0  0  0  0  0  0  0  0
   -0.8804    3.9320    2.0784 H   0  0  0  0  0  0  0  0  0  0  0  0
  5  6  2  0  0  0  0
  5  7  1  0  0  0  0
  2  3  1  0  0  0  0
  2  4  1  0  0  0  0
  2  5  1  0  0  0  0
  1  2  1  0  0  0  0
 29 30  2  0  0  0  0
 29 31  1  0  0  0  0
 26 27  1  0  0  0  0
 26 28  1  0  0  0  0
 23 24  1  0  0  0  0
 23 25  1  0  0  0  0
 22 23  1  0  0  0  0
 22 26  1  0  0  0  0
 20 21  1  0  0  0  0
 20 22  2  0  0  0  0
 17 18  1  0  0  0  0
 17 19  1  0  0  0  0
 17 20  1  0  0  0  0
 14 15  1  0  0  0  0
 14 16  1  0  0  0  0
 14 17  1  0  0  0  0
 11 12  1  0  0  0  0
 11 13  1  0  0  0  0
 11 14  1  0  0  0  0
  9 10  1  0  0  0  0
  9 11  1  0  0  0  0
  9 29  1  0  0  0  0
  7  8  1  0  0  0  0
  7  9  1  0  0  0  0
 33 34  1  0  0  0  0
 33 35  1  0  0  0  0
 33 36  1  0  0  0  0
 31 32  1  0  0  0  0
 31 33  1  0  0  0  0
M  CHG  1  20   1
M  END
$$$$
default_name
  -OEChem-02102213163D

 36 35  0     1  0  0  0  0  0999 V2000
   -4.2256   -3.6731    1.8584 H   0  0  0  0  0  0  0  0  0  0  0  0
   -4.2396   -2.6781    1.4144 C   0  0  0  0  0  0  0  0  0  0  0  0
   -4.9506   -2.0521    1.9514 H   0  0  0  0  0  0  0  0  0  0  0  0
   -4.5266   -2.7521    0.3674 H   0  0  0  0  0  0  0  0  0  0  0  0
   -2.8576   -2.0761    1.5184 C   0  0  0  0  0  0  0  0  0  0  0  0
   -1.9456   -2.7051    2.0404 O   0  0  0  0  0  0  0  0  0  0  0  0
   -2.6926   -0.8481    1.0174 N   0  0  0  0  0  0  0  0  0  0  0  0
   -3.4926   -0.3971    0.5954 H   0  0  0  0  0  0  0  0  0  0  0  0
   -1.4216   -0.1071    1.0434 C   0  0  1  0  0  0  0  0  0  0  0  0
   -0.7579   -0.5878    1.7640 H   0  0  0  0  0  0  0  0  0  0  0  0
   -0.7791   -0.1912   -0.3557 C   0  0  0  0  0  0  0  0  0  0  0  0
   -0.3679   -1.1936   -0.4906 H   0  0  0  0  0  0  0  0  0  0  0  0
   -1.5511   -0.0366   -1.1127 H   0  0  0  0  0  0  0  0  0  0  0  0
    0.3502    0.8267   -0.5719 C   0  0  0  0  0  0  0  0  0  0  0  0
   -0.0728    1.8215   -0.7188 H   0  0  0  0  0  0  0  0  0  0  0  0
    0.9993    0.8370    0.3043 H   0  0  0  0  0  0  0  0  0  0  0  0
    1.1708    0.4415   -1.8104 C   0  0  0  0  0  0  0  0  0  0  0  0
    1.5681   -0.5658   -1.6659 H   0  0  0  0  0  0  0  0  0  0  0  0
    0.5082    0.4378   -2.6791 H   0  0  0  0  0  0  0  0  0  0  0  0
    2.2858    1.3823   -2.0438 N   0  3  0  0  0  0  0  0  0  0  0  0
    2.3528    2.1672   -1.4188 H   0  0  0  0  0  0  0  0  0  0  0  0
    3.2009    1.2892   -2.9940 C   0  0  0  0  0  0  0  0  0  0  0  0
    3.2071    0.3125   -3.8572 N   0  0  0  0  0  0  0  0  0  0  0  0
    2.4934   -0.3920   -3.7957 H   0  0  0  0  0  0  0  0  0  0  0  0
    3.9087    0.2570   -4.5724 H   0  0  0  0  0  0  0  0  0  0  0  0
    4.1386    2.1878   -3.0972 N   0  0  0  0  0  0  0  0  0  0  0  0
    4.1754    2.9598   -2.4541 H   0  0  0  0  0  0  0  0  0  0  0  0
    4.8310    2.1134   -3.8195 H   0  0  0  0  0  0  0  0  0  0  0  0
   -1.6547    1.3413    1.4779 C   0  0  0  0  0  0  0  0  0  0  0  0
   -2.5654    1.9858    0.9716 O   0  0  0  0  0  0  0  0  0  0  0  0
   -0.8107    1.8504    2.3808 N   0  0  0  0  0  0  0  0  0  0  0  0
   -0.1136    1.2381    2.7719 H   0  0  0  0  0  0  0  0  0  0  0  0
   -0.8954    3.2155    2.9026 C   0  0  0  0  0  0  0  0  0  0  0  0
   -1.8299    3.3430    3.4532 H   0  0  0  0  0  0  0  0  0  0  0  0
   -0.0581    3.4194    3.5712 H   0  0  0  0  0  0  0  0  0  0  0  0
   -0.8804    3.9320    2.0784 H   0  0  0  0  0  0  0  0  0  0  0  0
  5  6  2  0  0  0  0
  5  7  1  0  0  0  0
  2  3  1  0  0  0  0
  2  4  1  0  0  0  0
  2  5  1  0  0  0  0
  1  2  1  0  0  0  0
 29 30  2  0  0  0  0
 29 31  1  0  0  0  0
 26 27  1  0  0  0  0
 26 28  1  0  0  0  0
 23 24  1  0  0  0  0
 23 25  1  0  0  0  0
 22 23  1  0  0  0  0
 22 26  1  0  0  0  0
 20 21  1  0  0  0  0
 20 22  2  0  0  0  0
 17 18  1  0  0  0  0
 17 19  1  0  0  0  0
 17 20  1  0  0  0  0
 14 15  1  0  0  0  0
 14 16  1  0  0  0  0
 14 17  1  0  0  0  0
 11 12  1  0  0  0  0
 11 13  1  0  0  0  0
 11 14  1  0  0  0  0
  9 10  1  0  0  0  0
  9 11  1  0  0  0  0
  9 29  1  0  0  0  0
  7  8  1  0  0  0  0
  7  9  1  0  0  0  0
 33 34  1  0  0  0  0
 33 35  1  0  0  0  0
 33 36  1  0  0  0  0
 31 32  1  0  0  0  0
 31 33  1  0  0  0  0
M  CHG  1  20   1
M  END
$$$$
