default_name
  -OEChem-02102213163D

 36 35  0     1  0  0  0  0  0999 V2000
   -4.2256   -3.6731    1.8584 H   0  0  0  0  0  0  0  0  0  0  0  0
   -4.2396   -2.6781    1.4144 C   0  0  0  0  0  0  0  0  0  0  0  0
   -4.9506   -2.0521    1.9514 H   0  0  0  0  0  0  0  0  0  0  0  0
   -4.5266   -2.7521    0.3674 H   0  0  0  0  0  0  0  0  0  0  0  0
   -2.8576   -2.0761    1.5184 C   0  0  0  0  0  0  0  0  0  0  0  0
   -1.9456   -2.7051    2.0404 O   0  0  0  0  0  0  0  0  0  0  0  0
   -2.6926   -0.8481    1.0174 N   0  0  0  0  0  0  0  0  0  0  0  0
   -3.4926   -0.3971    0.5954 H   0  0  0  0  0  0  0  0  0  0  0  0
   -1.4216   -0.1071    1.0434 C   0  0  1  0  0  0  0  0  0  0  0  0
   -0.6709   -0.6930    0.5106 H   0  0  0  0  0  0  0  0  0  0  0  0
   -1.6221    1.2315    0.3051 C   0  0  0  0  0  0  0  0  0  0  0  0
   -1.9272    1.0207   -0.7218 H   0  0  0  0  0  0  0  0  0  0  0  0
   -2.4260    1.7896    0.7900 H   0  0  0  0  0  0  0  0  0  0  0  0
   -0.3577    2.1021    0.2636 C   0  0  0  0  0  0  0  0  0  0  0  0
   -0.0380    2.3370    1.2798 H   0  0  0  0  0  0  0  0  0  0  0  0
    0.4376    1.5591   -0.2478 H   0  0  0  0  0  0  0  0  0  0  0  0
   -0.6477    3.4091   -0.4868 C   0  0  0  0  0  0  0  0  0  0  0  0
   -0.9925    3.1637   -1.4940 H   0  0  0  0  0  0  0  0  0  0  0  0
   -1.4438    3.9422    0.0382 H   0  0  0  0  0  0  0  0  0  0  0  0
    0.5501    4.2698   -0.5721 N   0  3  0  0  0  0  0  0  0  0  0  0
    1.3778    3.9395   -0.1060 H   0  0  0  0  0  0  0  0  0  0  0  0
    0.6359    5.4296   -1.2018 C   0  0  0  0  0  0  0  0  0  0  0  0
   -0.3763    5.9497   -1.8375 N   0  0  0  0  0  0  0  0  0  0  0  0
   -1.2483    5.4508   -1.8493 H   0  0  0  0  0  0  0  0  0  0  0  0
   -0.2944    6.8312   -2.3100 H   0  0  0  0  0  0  0  0  0  0  0  0
    1.7541    6.0981   -1.2040 N   0  0  0  0  0  0  0  0  0  0  0  0
    2.5626    5.7373   -0.7275 H   0  0  0  0  0  0  0  0  0  0  0  0
    1.8149    6.9775   -1.6830 H   0  0  0  0  0  0  0  0  0  0  0  0
   -0.9523    0.1012    2.4848 C   0  0  0  0  0  0  0  0  0  0  0  0
    0.2133   -0.1319    2.7814 O   0  0  0  0  0  0  0  0  0  0  0  0
   -1.8684    0.5006    3.3725 N   0  0  0  0  0  0  0  0  0  0  0  0
   -2.7946    0.7048    3.0343 H   0  0  0  0  0  0  0  0  0  0  0  0
   -1.5848    0.7472    4.7873 C   0  0  0  0  0  0  0  0  0  0  0  0
   -0.8819    1.5774    4.8838 H   0  0  0  0  0  0  0  0  0  0  0  0
   -2.5030    0.9948    5.3214 H   0  0  0  0  0  0  0  0  0  0  0  0
   -1.1344   -0.1399    5.2381 H   0  0  0  0  0  0  0  0  0  0  0  0
  5  6  2  0  0  0  0
  5  7  1  0  0  0  0
  2  3  1  0  0  0  0
  2  4  1  0  0  0  0
  2  5  1  0  0  0  0
  1  2  1  0  0  0  0
 29 30  2  0  0  0  0
 29 31  1  0  0  0  0
 26 27  1  0  0  0  0
 26 28  1  0  0  0  0
 23 24  1  0  0  0  0
 23 25  1  0  0  0  0
 22 23  1  0  0  0  0
 22 26  1  0  0  0  0
 20 21  1  0  0  0  0
 20 22  2  0  0  0  0
 17 18  1  0  0  0  0
 17 19  1  0  0  0  0
 17 20  1  0  0  0  0
 14 15  1  0  0  0  0
 14 16  1  0  0  0  0
 14 17  1  0  0  0  0
 11 12  1  0  0  0  0
 11 13  1  0  0  0  0
 11 14  1  0  0  0  0
  9 10  1  0  0  0  0
  9 11  1  0  0  0  0
  9 29  1  0  0  0  0
  7  8  1  0  0  0  0
  7  9  1  0  0  0  0
 33 34  1  0  0  0  0
 33 35  1  0  0  0  0
 33 36  1  0  0  0  0
 31 32  1  0  0  0  0
 31 33  1  0  0  0  0
M  CHG  1  20   1
M  END
$$$$
default_name
  -OEChem-02102213163D

 36 35  0     1  0  0  0  0  0999 V2000
   -4.2256   -3.6731    1.8584 H   0  0  0  0  0  0  0  0  0  0  0  0
   -4.2396   -2.6781    1.4144 C   0  0  0  0  0  0  0  0  0  0  0  0
   -4.9506   -2.0521    1.9514 H   0  0  0  0  0  0  0  0  0  0  0  0
   -4.5266   -2.7521    0.3674 H   0  0  0  0  0  0  0  0  0  0  0  0
   -2.8576   -2.0761    1.5184 C   0  0  0  0  0  0  0  0  0  0  0  0
   -1.9456   -2.7051    2.0404 O   0  0  0  0  0  0  0  0  0  0  0  0
   -2.6926   -0.8481    1.0174 N   0  0  0  0  0  0  0  0  0  0  0  0
   -3.4926   -0.3971    0.5954 H   0  0  0  0  0  0  0  0  0  0  0  0
   -1.4216   -0.1071    1.0434 C   0  0  1  0  0  0  0  0  0  0  0  0
   -0.6709   -0.6930    0.5106 H   0  0  0  0  0  0  0  0  0  0  0  0
   -1.6221    1.2315    0.3051 C   0  0  0  0  0  0  0  0  0  0  0  0
   -1.9272    1.0207   -0.7218 H   0  0  0  0  0  0  0  0  0  0  0  0
   -2.4260    1.7896    0.7900 H   0  0  0  0  0  0  0  0  0  0  0  0
   -0.3577    2.1021    0.2636 C   0  0  0  0  0  0  0  0  0  0  0  0
    0.1122    2.1174    1.2480 H   0  0  0  0  0  0  0  0  0  0  0  0
    0.3418    1.6880   -0.4632 H   0  0  0  0  0  0  0  0  0  0  0  0
   -0.7241    3.5366   -0.1407 C   0  0  0  0  0  0  0  0  0  0  0  0
   -1.2178    3.5090   -1.1148 H   0  0  0  0  0  0  0  0  0  0  0  0
   -1.4226    3.9381    0.5972 H   0  0  0  0  0  0  0  0  0  0  0  0
    0.4677    4.4063   -0.2168 N   0  3  0  0  0  0  0  0  0  0  0  0
    1.3468    3.9915    0.0411 H   0  0  0  0  0  0  0  0  0  0  0  0
    0.4872    5.6745   -0.5911 C   0  0  0  0  0  0  0  0  0  0  0  0
   -0.5948    6.3094   -0.9454 N   0  0  0  0  0  0  0  0  0  0  0  0
   -1.4703    5.8168   -0.9342 H   0  0  0  0  0  0  0  0  0  0  0  0
   -0.5626    7.2721   -1.2265 H   0  0  0  0  0  0  0  0  0  0  0  0
    1.6082    6.3380   -0.6161 N   0  0  0  0  0  0  0  0  0  0  0  0
    2.4691    5.8910   -0.3518 H   0  0  0  0  0  0  0  0  0  0  0  0
    1.6185    7.3000   -0.9008 H   0  0  0  0  0  0  0  0  0  0  0  0
   -0.9523    0.1012    2.4848 C   0  0  0  0  0  0  0  0  0  0  0  0
    0.2133   -0.1319    2.7814 O   0  0  0  0  0  0  0  0  0  0  0  0
   -1.8684    0.5006    3.3725 N   0  0  0  0  0  0  0  0  0  0  0  0
   -2.7946    0.7048    3.0343 H   0  0  0  0  0  0  0  0  0  0  0  0
   -1.5848    0.7472    4.7873 C   0  0  0  0  0  0  0  0  0  0  0  0
   -0.8819    1.5774    4.8838 H   0  0  0  0  0  0  0  0  0  0  0  0
   -2.5030    0.9948    5.3214 H   0  0  0  0  0  0  0  0  0  0  0  0
   -1.1344   -0.1399    5.2381 H   0  0  0  0  0  0  0  0  0  0  0  0
  5  6  2  0  0  0  0
  5  7  1  0  0  0  0
  2  3  1  0  0  0  0
  2  4  1  0  0  0  0
  2  5  1  0  0  0  0
  1  2  1  0  0  0  0
 29 30  2  0  0  0  0
 29 31  1  0  0  0  0
 26 27  1  0  0  0  0
 26 28  1  0  0  0  0
 23 24  1  0  0  0  0
 23 25  1  0  0  0  0
 22 23  1  0  0  0  0
 22 26  1  0  0  0  0
 20 21  1  0  0  0  0
 20 22  2  0  0  0  0
 17 18  1  0  0  0  0
 17 19  1  0  0  0  0
 17 20  1  0  0  0  0
 14 15  1  0  0  0  0
 14 16  1  0  0  0  0
 14 17  1  0  0  0  0
 11 12  1  0  0  0  0
 11 13  1  0  0  0  0
 11 14  1  0  0  0  0
  9 10  1  0  0  0  0
  9 11  1  0  0  0  0
  9 29  1  0  0  0  0
  7  8  1  0  0  0  0
  7  9  1  0  0  0  0
 33 34  1  0  0  0  0
 33 35  1  0  0  0  0
 33 36  1  0  0  0  0
 31 32  1  0  0  0  0
 31 33  1  0  0  0  0
M  CHG  1  20   1
M  END
$$$$
default_name
  -OEChem-02102213163D

 36 35  0     1  0  0  0  0  0999 V2000
   -4.2256   -3.6731    1.8584 H   0  0  0  0  0  0  0  0  0  0  0  0
   -4.2396   -2.6781    1.4144 C   0  0  0  0  0  0  0  0  0  0  0  0
   -4.9506   -2.0521    1.9514 H   0  0  0  0  0  0  0  0  0  0  0  0
   -4.5266   -2.7521    0.3674 H   0  0  0  0  0  0  0  0  0  0  0  0
   -2.8576   -2.0761    1.5184 C   0  0  0  0  0  0  0  0  0  0  0  0
   -1.9456   -2.7051    2.0404 O   0  0  0  0  0  0  0  0  0  0  0  0
   -2.6926   -0.8481    1.0174 N   0  0  0  0  0  0  0  0  0  0  0  0
   -3.4926   -0.3971    0.5954 H   0  0  0  0  0  0  0  0  0  0  0  0
   -1.4216   -0.1071    1.0434 C   0  0  1  0  0  0  0  0  0  0  0  0
   -0.6709   -0.6930    0.5106 H   0  0  0  0  0  0  0  0  0  0  0  0
   -1.6221    1.2315    0.3051 C   0  0  0  0  0  0  0  0  0  0  0  0
   -1.9272    1.0207   -0.7218 H   0  0  0  0  0  0  0  0  0  0  0  0
   -2.4260    1.7896    0.7900 H   0  0  0  0  0  0  0  0  0  0  0  0
   -0.3577    2.1021    0.2636 C   0  0  0  0  0  0  0  0  0  0  0  0
    0.2511    1.9109    1.1484 H   0  0  0  0  0  0  0  0  0  0  0  0
    0.2185    1.8590   -0.6296 H   0  0  0  0  0  0  0  0  0  0  0  0
   -0.7463    3.5865    0.2320 C   0  0  0  0  0  0  0  0  0  0  0  0
   -1.3774    3.7632   -0.6420 H   0  0  0  0  0  0  0  0  0  0  0  0
   -1.3202    3.8149    1.1332 H   0  0  0  0  0  0  0  0  0  0  0  0
    0.4413    4.4630    0.1676 N   0  3  0  0  0  0  0  0  0  0  0  0
    1.3389    4.0105    0.1989 H   0  0  0  0  0  0  0  0  0  0  0  0
    0.4350    5.7821    0.0727 C   0  0  0  0  0  0  0  0  0  0  0  0
   -0.6723    6.4683    0.0251 N   0  0  0  0  0  0  0  0  0  0  0  0
   -1.5479    5.9769    0.0603 H   0  0  0  0  0  0  0  0  0  0  0  0
   -0.6594    7.4691   -0.0465 H   0  0  0  0  0  0  0  0  0  0  0  0
    1.5552    6.4455    0.0243 N   0  0  0  0  0  0  0  0  0  0  0  0
    2.4350    5.9600    0.0576 H   0  0  0  0  0  0  0  0  0  0  0  0
    1.5458    7.4462   -0.0477 H   0  0  0  0  0  0  0  0  0  0  0  0
   -0.9523    0.1012    2.4848 C   0  0  0  0  0  0  0  0  0  0  0  0
    0.2133   -0.1319    2.7814 O   0  0  0  0  0  0  0  0  0  0  0  0
   -1.8684    0.5006    3.3725 N   0  0  0  0  0  0  0  0  0  0  0  0
   -2.7946    0.7048    3.0343 H   0  0  0  0  0  0  0  0  0  0  0  0
   -1.5848    0.7472    4.7873 C   0  0  0  0  0  0  0  0  0  0  0  0
   -0.8819    1.5774    4.8838 H   0  0  0  0  0  0  0  0  0  0  0  0
   -2.5030    0.9948    5.3214 H   0  0  0  0  0  0  0  0  0  0  0  0
   -1.1344   -0.1399    5.2381 H   0  0  0  0  0  0  0  0  0  0  0  0
  5  6  2  0  0  0  0
  5  7  1  0  0  0  0
  2  3  1  0  0  0  0
  2  4  1  0  0  0  0
  2  5  1  0  0  0  0
  1  2  1  0  0  0  0
 29 30  2  0  0  0  0
 29 31  1  0  0  0  0
 26 27  1  0  0  0  0
 26 28  1  0  0  0  0
 23 24  1  0  0  0  0
 23 25  1  0  0  0  0
 22 23  1  0  0  0  0
 22 26  1  0  0  0  0
 20 21  1  0  0  0  0
 20 22  2  0  0  0  0
 17 18  1  0  0  0  0
 17 19  1  0  0  0  0
 17 20  1  0  0  0  0
 14 15  1  0  0  0  0
 14 16  1  0  0  0  0
 14 17  1  0  0  0  0
 11 12  1  0  0  0  0
 11 13  1  0  0  0  0
 11 14  1  0  0  0  0
  9 10  1  0  0  0  0
  9 11  1  0  0  0  0
  9 29  1  0  0  0  0
  7  8  1  0  0  0  0
  7  9  1  0  0  0  0
 33 34  1  0  0  0  0
 33 35  1  0  0  0  0
 33 36  1  0  0  0  0
 31 32  1  0  0  0  0
 31 33  1  0  0  0  0
M  CHG  1  20   1
M  END
$$$$
default_name
  -OEChem-02102213163D

 36 35  0     1  0  0  0  0  0999 V2000
   -4.2256   -3.6731    1.8584 H   0  0  0  0  0  0  0  0  0  0  0  0
   -4.2396   -2.6781    1.4144 C   0  0  0  0  0  0  0  0  0  0  0  0
   -4.9506   -2.0521    1.9514 H   0  0  0  0  0  0  0  0  0  0  0  0
   -4.5266   -2.7521    0.3674 H   0  0  0  0  0  0  0  0  0  0  0  0
   -2.8576   -2.0761    1.5184 C   0  0  0  0  0  0  0  0  0  0  0  0
   -1.9456   -2.7051    2.0404 O   0  0  0  0  0  0  0  0  0  0  0  0
   -2.6926   -0.8481    1.0174 N   0  0  0  0  0  0  0  0  0  0  0  0
   -3.4926   -0.3971    0.5954 H   0  0  0  0  0  0  0  0  0  0  0  0
   -1.4216   -0.1071    1.0434 C   0  0  1  0  0  0  0  0  0  0  0  0
   -0.6709   -0.6930    0.5106 H   0  0  0  0  0  0  0  0  0  0  0  0
   -1.6221    1.2315    0.3051 C   0  0  0  0  0  0  0  0  0  0  0  0
   -1.9272    1.0207   -0.7218 H   0  0  0  0  0  0  0  0  0  0  0  0
   -2.4260    1.7896    0.7900 H   0  0  0  0  0  0  0  0  0  0  0  0
   -0.3577    2.1021    0.2636 C   0  0  0  0  0  0  0  0  0  0  0  0
    0.3692    1.7318    0.9879 H   0  0  0  0  0  0  0  0  0  0  0  0
    0.0762    2.0606   -0.7359 H   0  0  0  0  0  0  0  0  0  0  0  0
   -0.7127    3.5555    0.6060 C   0  0  0  0  0  0  0  0  0  0  0  0
   -1.4603    3.9092   -0.1077 H   0  0  0  0  0  0  0  0  0  0  0  0
   -1.1435    3.5810    1.6097 H   0  0  0  0  0  0  0  0  0  0  0  0
    0.4726    4.4360    0.5549 N   0  3  0  0  0  0  0  0  0  0  0  0
    1.3545    3.9953    0.3565 H   0  0  0  0  0  0  0  0  0  0  0  0
    0.4827    5.7448    0.7445 C   0  0  0  0  0  0  0  0  0  0  0  0
   -0.6037    6.4155    1.0077 N   0  0  0  0  0  0  0  0  0  0  0  0
   -1.4758    5.9201    1.0665 H   0  0  0  0  0  0  0  0  0  0  0  0
   -0.5785    7.4086    1.1494 H   0  0  0  0  0  0  0  0  0  0  0  0
    1.5987    6.4133    0.6736 N   0  0  0  0  0  0  0  0  0  0  0  0
    2.4626    5.9397    0.4728 H   0  0  0  0  0  0  0  0  0  0  0  0
    1.6019    7.4061    0.8181 H   0  0  0  0  0  0  0  0  0  0  0  0
   -0.9523    0.1012    2.4848 C   0  0  0  0  0  0  0  0  0  0  0  0
    0.2133   -0.1319    2.7814 O   0  0  0  0  0  0  0  0  0  0  0  0
   -1.8684    0.5006    3.3725 N   0  0  0  0  0  0  0  0  0  0  0  0
   -2.7946    0.7048    3.0343 H   0  0  0  0  0  0  0  0  0  0  0  0
   -1.5848    0.7472    4.7873 C   0  0  0  0  0  0  0  0  0  0  0  0
   -0.8819    1.5774    4.8838 H   0  0  0  0  0  0  0  0  0  0  0  0
   -2.5030    0.9948    5.3214 H   0  0  0  0  0  0  0  0  0  0  0  0
   -1.1344   -0.1399    5.2381 H   0  0  0  0  0  0  0  0  0  0  0  0
  5  6  2  0  0  0  0
  5  7  1  0  0  0  0
  2  3  1  0  0  0  0
  2  4  1  0  0  0  0
  2  5  1  0  0  0  0
  1  2  1  0  0  0  0
 29 30  2  0  0  0  0
 29 31  1  0  0  0  0
 26 27  1  0  0  0  0
 26 28  1  0  0  0  0
 23 24  1  0  0  0  0
 23 25  1  0  0  0  0
 22 23  1  0  0  0  0
 22 26  1  0  0  0  0
 20 21  1  0  0  0  0
 20 22  2  0  0  0  0
 17 18  1  0  0  0  0
 17 19  1  0  0  0  0
 17 20  1  0  0  0  0
 14 15  1  0  0  0  0
 14 16  1  0  0  0  0
 14 17  1  0  0  0  0
 11 12  1  0  0  0  0
 11 13  1  0  0  0  0
 11 14  1  0  0  0  0
  9 10  1  0  0  0  0
  9 11  1  0  0  0  0
  9 29  1  0  0  0  0
  7  8  1  0  0  0  0
  7  9  1  0  0  0  0
 33 34  1  0  0  0  0
 33 35  1  0  0  0  0
 33 36  1  0  0  0  0
 31 32  1  0  0  0  0
 31 33  1  0  0  0  0
M  CHG  1  20   1
M  END
$$$$
default_name
  -OEChem-02102213163D

 36 35  0     1  0  0  0  0  0999 V2000
   -4.2256   -3.6731    1.8584 H   0  0  0  0  0  0  0  0  0  0  0  0
   -4.2396   -2.6781    1.4144 C   0  0  0  0  0  0  0  0  0  0  0  0
   -4.9506   -2.0521    1.9514 H   0  0  0  0  0  0  0  0  0  0  0  0
   -4.5266   -2.7521    0.3674 H   0  0  0  0  0  0  0  0  0  0  0  0
   -2.8576   -2.0761    1.5184 C   0  0  0  0  0  0  0  0  0  0  0  0
   -1.9456   -2.7051    2.0404 O   0  0  0  0  0  0  0  0  0  0  0  0
   -2.6926   -0.8481    1.0174 N   0  0  0  0  0  0  0  0  0  0  0  0
   -3.4926   -0.3971    0.5954 H   0  0  0  0  0  0  0  0  0  0  0  0
   -1.4216   -0.1071    1.0434 C   0  0  1  0  0  0  0  0  0  0  0  0
   -0.6709   -0.6930    0.5106 H   0  0  0  0  0  0  0  0  0  0  0  0
   -1.6221    1.2315    0.3051 C   0  0  0  0  0  0  0  0  0  0  0  0
   -1.9272    1.0207   -0.7218 H   0  0  0  0  0  0  0  0  0  0  0  0
   -2.4260    1.7896    0.7900 H   0  0  0  0  0  0  0  0  0  0  0  0
   -0.3577    2.1021    0.2636 C   0  0  0  0  0  0  0  0  0  0  0  0
    0.4584    1.5921    0.7773 H   0  0  0  0  0  0  0  0  0  0  0  0
   -0.0754    2.2789   -0.7747 H   0  0  0  0  0  0  0  0  0  0  0  0
   -0.6255    3.4456    0.9556 C   0  0  0  0  0  0  0  0  0  0  0  0
   -1.4611    3.9369    0.4517 H   0  0  0  0  0  0  0  0  0  0  0  0
   -0.9045    3.2523    1.9941 H   0  0  0  0  0  0  0  0  0  0  0  0
    0.5594    4.3273    0.9186 N   0  3  0  0  0  0  0  0  0  0  0  0
    1.3926    3.9470    0.5033 H   0  0  0  0  0  0  0  0  0  0  0  0
    0.6271    5.5654    1.3785 C   0  0  0  0  0  0  0  0  0  0  0  0
   -0.3936    6.1546    1.9356 N   0  0  0  0  0  0  0  0  0  0  0  0
   -1.2589    5.6504    2.0156 H   0  0  0  0  0  0  0  0  0  0  0  0
   -0.3253    7.0947    2.2797 H   0  0  0  0  0  0  0  0  0  0  0  0
    1.7358    6.2434    1.2875 N   0  0  0  0  0  0  0  0  0  0  0  0
    2.5501    5.8315    0.8654 H   0  0  0  0  0  0  0  0  0  0  0  0
    1.7827    7.1825    1.6376 H   0  0  0  0  0  0  0  0  0  0  0  0
   -0.9523    0.1012    2.4848 C   0  0  0  0  0  0  0  0  0  0  0  0
    0.2133   -0.1319    2.7814 O   0  0  0  0  0  0  0  0  0  0  0  0
   -1.8684    0.5006    3.3725 N   0  0  0  0  0  0  0  0  0  0  0  0
   -2.7946    0.7048    3.0343 H   0  0  0  0  0  0  0  0  0  0  0  0
   -1.5848    0.7472    4.7873 C   0  0  0  0  0  0  0  0  0  0  0  0
   -0.8819    1.5774    4.8838 H   0  0  0  0  0  0  0  0  0  0  0  0
   -2.5030    0.9948    5.3214 H   0  0  0  0  0  0  0  0  0  0  0  0
   -1.1344   -0.1399    5.2381 H   0  0  0  0  0  0  0  0  0  0  0  0
  5  6  2  0  0  0  0
  5  7  1  0  0  0  0
  2  3  1  0  0  0  0
  2  4  1  0  0  0  0
  2  5  1  0  0  0  0
  1  2  1  0  0  0  0
 29 30  2  0  0  0  0
 29 31  1  0  0  0  0
 26 27  1  0  0  0  0
 26 28  1  0  0  0  0
 23 24  1  0  0  0  0
 23 25  1  0  0  0  0
 22 23  1  0  0  0  0
 22 26  1  0  0  0  0
 20 21  1  0  0  0  0
 20 22  2  0  0  0  0
 17 18  1  0  0  0  0
 17 19  1  0  0  0  0
 17 20  1  0  0  0  0
 14 15  1  0  0  0  0
 14 16  1  0  0  0  0
 14 17  1  0  0  0  0
 11 12  1  0  0  0  0
 11 13  1  0  0  0  0
 11 14  1  0  0  0  0
  9 10  1  0  0  0  0
  9 11  1  0  0  0  0
  9 29  1  0  0  0  0
  7  8  1  0  0  0  0
  7  9  1  0  0  0  0
 33 34  1  0  0  0  0
 33 35  1  0  0  0  0
 33 36  1  0  0  0  0
 31 32  1  0  0  0  0
 31 33  1  0  0  0  0
M  CHG  1  20   1
M  END
$$$$
default_name
  -OEChem-02102213163D

 36 35  0     1  0  0  0  0  0999 V2000
   -4.2256   -3.6731    1.8584 H   0  0  0  0  0  0  0  0  0  0  0  0
   -4.2396   -2.6781    1.4144 C   0  0  0  0  0  0  0  0  0  0  0  0
   -4.9506   -2.0521    1.9514 H   0  0  0  0  0  0  0  0  0  0  0  0
   -4.5266   -2.7521    0.3674 H   0  0  0  0  0  0  0  0  0  0  0  0
   -2.8576   -2.0761    1.5184 C   0  0  0  0  0  0  0  0  0  0  0  0
   -1.9456   -2.7051    2.0404 O   0  0  0  0  0  0  0  0  0  0  0  0
   -2.6926   -0.8481    1.0174 N   0  0  0  0  0  0  0  0  0  0  0  0
   -3.4926   -0.3971    0.5954 H   0  0  0  0  0  0  0  0  0  0  0  0
   -1.4216   -0.1071    1.0434 C   0  0  1  0  0  0  0  0  0  0  0  0
   -0.6709   -0.6930    0.5106 H   0  0  0  0  0  0  0  0  0  0  0  0
   -1.6221    1.2315    0.3051 C   0  0  0  0  0  0  0  0  0  0  0  0
   -1.9272    1.0207   -0.7218 H   0  0  0  0  0  0  0  0  0  0  0  0
   -2.4260    1.7896    0.7900 H   0  0  0  0  0  0  0  0  0  0  0  0
   -0.3577    2.1021    0.2636 C   0  0  0  0  0  0  0  0  0  0  0  0
    0.5128    1.5015    0.5310 H   0  0  0  0  0  0  0  0  0  0  0  0
   -0.2260    2.4992   -0.7434 H   0  0  0  0  0  0  0  0  0  0  0  0
   -0.4908    3.2644    1.2571 C   0  0  0  0  0  0  0  0  0  0  0  0
   -1.3795    3.8445    0.9981 H   0  0  0  0  0  0  0  0  0  0  0  0
   -0.6196    2.8512    2.2603 H   0  0  0  0  0  0  0  0  0  0  0  0
    0.6959    4.1441    1.2340 N   0  3  0  0  0  0  0  0  0  0  0  0
    1.4506    3.8687    0.6291 H   0  0  0  0  0  0  0  0  0  0  0  0
    0.8583    5.2559    1.9315 C   0  0  0  0  0  0  0  0  0  0  0  0
   -0.0564    5.7035    2.7453 N   0  0  0  0  0  0  0  0  0  0  0  0
   -0.9120    5.1861    2.8431 H   0  0  0  0  0  0  0  0  0  0  0  0
    0.0830    6.5489    3.2676 H   0  0  0  0  0  0  0  0  0  0  0  0
    1.9571    5.9476    1.8242 N   0  0  0  0  0  0  0  0  0  0  0  0
    2.6914    5.6426    1.2088 H   0  0  0  0  0  0  0  0  0  0  0  0
    2.0761    6.7906    2.3550 H   0  0  0  0  0  0  0  0  0  0  0  0
   -0.9523    0.1012    2.4848 C   0  0  0  0  0  0  0  0  0  0  0  0
    0.2133   -0.1319    2.7814 O   0  0  0  0  0  0  0  0  0  0  0  0
   -1.8684    0.5006    3.3725 N   0  0  0  0  0  0  0  0  0  0  0  0
   -2.7946    0.7048    3.0343 H   0  0  0  0  0  0  0  0  0  0  0  0
   -1.5848    0.7472    4.7873 C   0  0  0  0  0  0  0  0  0  0  0  0
   -0.8819    1.5774    4.8838 H   0  0  0  0  0  0  0  0  0  0  0  0
   -2.5030    0.9948    5.3214 H   0  0  0  0  0  0  0  0  0  0  0  0
   -1.1344   -0.1399    5.2381 H   0  0  0  0  0  0  0  0  0  0  0  0
  5  6  2  0  0  0  0
  5  7  1  0  0  0  0
  2  3  1  0  0  0  0
  2  4  1  0  0  0  0
  2  5  1  0  0  0  0
  1  2  1  0  0  0  0
 29 30  2  0  0  0  0
 29 31  1  0  0  0  0
 26 27  1  0  0  0  0
 26 28  1  0  0  0  0
 23 24  1  0  0  0  0
 23 25  1  0  0  0  0
 22 23  1  0  0  0  0
 22 26  1  0  0  0  0
 20 21  1  0  0  0  0
 20 22  2  0  0  0  0
 17 18  1  0  0  0  0
 17 19  1  0  0  0  0
 17 20  1  0  0  0  0
 14 15  1  0  0  0  0
 14 16  1  0  0  0  0
 14 17  1  0  0  0  0
 11 12  1  0  0  0  0
 11 13  1  0  0  0  0
 11 14  1  0  0  0  0
  9 10  1  0  0  0  0
  9 11  1  0  0  0  0
  9 29  1  0  0  0  0
  7  8  1  0  0  0  0
  7  9  1  0  0  0  0
 33 34  1  0  0  0  0
 33 35  1  0  0  0  0
 33 36  1  0  0  0  0
 31 32  1  0  0  0  0
 31 33  1  0  0  0  0
M  CHG  1  20   1
M  END
$$$$
default_name
  -OEChem-02102213163D

 36 35  0     1  0  0  0  0  0999 V2000
   -4.2256   -3.6731    1.8584 H   0  0  0  0  0  0  0  0  0  0  0  0
   -4.2396   -2.6781    1.4144 C   0  0  0  0  0  0  0  0  0  0  0  0
   -4.9506   -2.0521    1.9514 H   0  0  0  0  0  0  0  0  0  0  0  0
   -4.5266   -2.7521    0.3674 H   0  0  0  0  0  0  0  0  0  0  0  0
   -2.8576   -2.0761    1.5184 C   0  0  0  0  0  0  0  0  0  0  0  0
   -1.9456   -2.7051    2.0404 O   0  0  0  0  0  0  0  0  0  0  0  0
   -2.6926   -0.8481    1.0174 N   0  0  0  0  0  0  0  0  0  0  0  0
   -3.4926   -0.3971    0.5954 H   0  0  0  0  0  0  0  0  0  0  0  0
   -1.4216   -0.1071    1.0434 C   0  0  1  0  0  0  0  0  0  0  0  0
   -0.6709   -0.6930    0.5106 H   0  0  0  0  0  0  0  0  0  0  0  0
   -1.6221    1.2315    0.3051 C   0  0  0  0  0  0  0  0  0  0  0  0
   -1.9272    1.0207   -0.7218 H   0  0  0  0  0  0  0  0  0  0  0  0
   -2.4260    1.7896    0.7900 H   0  0  0  0  0  0  0  0  0  0  0  0
   -0.3577    2.1021    0.2636 C   0  0  0  0  0  0  0  0  0  0  0  0
    0.5285    1.4660    0.2658 H   0  0  0  0  0  0  0  0  0  0  0  0
   -0.3654    2.7063   -0.6441 H   0  0  0  0  0  0  0  0  0  0  0  0
   -0.3177    3.0241    1.4900 C   0  0  0  0  0  0  0  0  0  0  0  0
   -1.2212    3.6382    1.4941 H   0  0  0  0  0  0  0  0  0  0  0  0
   -0.3081    2.4050    2.3902 H   0  0  0  0  0  0  0  0  0  0  0  0
    0.8728    3.8990    1.4796 N   0  3  0  0  0  0  0  0  0  0  0  0
    1.5246    3.7659    0.7254 H   0  0  0  0  0  0  0  0  0  0  0  0
    1.1606    4.8376    2.3657 C   0  0  0  0  0  0  0  0  0  0  0  0
    0.3851    5.0928    3.3819 N   0  0  0  0  0  0  0  0  0  0  0  0
   -0.4588    4.5588    3.4926 H   0  0  0  0  0  0  0  0  0  0  0  0
    0.6185    5.8083    4.0455 H   0  0  0  0  0  0  0  0  0  0  0  0
    2.2475    5.5460    2.2470 N   0  0  0  0  0  0  0  0  0  0  0  0
    2.8770    5.3860    1.4795 H   0  0  0  0  0  0  0  0  0  0  0  0
    2.4621    6.2571    2.9215 H   0  0  0  0  0  0  0  0  0  0  0  0
   -0.9523    0.1012    2.4848 C   0  0  0  0  0  0  0  0  0  0  0  0
    0.2133   -0.1319    2.7814 O   0  0  0  0  0  0  0  0  0  0  0  0
   -1.8684    0.5006    3.3725 N   0  0  0  0  0  0  0  0  0  0  0  0
   -2.7946    0.7048    3.0343 H   0  0  0  0  0  0  0  0  0  0  0  0
   -1.5848    0.7472    4.7873 C   0  0  0  0  0  0  0  0  0  0  0  0
   -0.8819    1.5774    4.8838 H   0  0  0  0  0  0  0  0  0  0  0  0
   -2.5030    0.9948    5.3214 H   0  0  0  0  0  0  0  0  0  0  0  0
   -1.1344   -0.1399    5.2381 H   0  0  0  0  0  0  0  0  0  0  0  0
  5  6  2  0  0  0  0
  5  7  1  0  0  0  0
  2  3  1  0  0  0  0
  2  4  1  0  0  0  0
  2  5  1  0  0  0  0
  1  2  1  0  0  0  0
 29 30  2  0  0  0  0
 29 31  1  0  0  0  0
 26 27  1  0  0  0  0
 26 28  1  0  0  0  0
 23 24  1  0  0  0  0
 23 25  1  0  0  0  0
 22 23  1  0  0  0  0
 22 26  1  0  0  0  0
 20 21  1  0  0  0  0
 20 22  2  0  0  0  0
 17 18  1  0  0  0  0
 17 19  1  0  0  0  0
 17 20  1  0  0  0  0
 14 15  1  0  0  0  0
 14 16  1  0  0  0  0
 14 17  1  0  0  0  0
 11 12  1  0  0  0  0
 11 13  1  0  0  0  0
 11 14  1  0  0  0  0
  9 10  1  0  0  0  0
  9 11  1  0  0  0  0
  9 29  1  0  0  0  0
  7  8  1  0  0  0  0
  7  9  1  0  0  0  0
 33 34  1  0  0  0  0
 33 35  1  0  0  0  0
 33 36  1  0  0  0  0
 31 32  1  0  0  0  0
 31 33  1  0  0  0  0
M  CHG  1  20   1
M  END
$$$$
default_name
  -OEChem-02102213163D

 36 35  0     1  0  0  0  0  0999 V2000
   -4.2256   -3.6731    1.8584 H   0  0  0  0  0  0  0  0  0  0  0  0
   -4.2396   -2.6781    1.4144 C   0  0  0  0  0  0  0  0  0  0  0  0
   -4.9506   -2.0521    1.9514 H   0  0  0  0  0  0  0  0  0  0  0  0
   -4.5266   -2.7521    0.3674 H   0  0  0  0  0  0  0  0  0  0  0  0
   -2.8576   -2.0761    1.5184 C   0  0  0  0  0  0  0  0  0  0  0  0
   -1.9456   -2.7051    2.0404 O   0  0  0  0  0  0  0  0  0  0  0  0
   -2.6926   -0.8481    1.0174 N   0  0  0  0  0  0  0  0  0  0  0  0
   -3.4926   -0.3971    0.5954 H   0  0  0  0  0  0  0  0  0  0  0  0
   -1.4216   -0.1071    1.0434 C   0  0  1  0  0  0  0  0  0  0  0  0
   -0.6709   -0.6930    0.5106 H   0  0  0  0  0  0  0  0  0  0  0  0
   -1.6221    1.2315    0.3051 C   0  0  0  0  0  0  0  0  0  0  0  0
   -1.9272    1.0207   -0.7218 H   0  0  0  0  0  0  0  0  0  0  0  0
   -2.4260    1.7896    0.7900 H   0  0  0  0  0  0  0  0  0  0  0  0
   -0.3577    2.1021    0.2636 C   0  0  0  0  0  0  0  0  0  0  0  0
    0.5045    1.4881   -0.0002 H   0  0  0  0  0  0  0  0  0  0  0  0
   -0.4840    2.8861   -0.4837 H   0  0  0  0  0  0  0  0  0  0  0  0
   -0.1180    2.7412    1.6383 C   0  0  0  0  0  0  0  0  0  0  0  0
   -0.9969    3.3321    1.9061 H   0  0  0  0  0  0  0  0  0  0  0  0
    0.0087    1.9442    2.3748 H   0  0  0  0  0  0  0  0  0  0  0  0
    1.0779    3.6086    1.6387 N   0  3  0  0  0  0  0  0  0  0  0  0
    1.6094    3.6456    0.7858 H   0  0  0  0  0  0  0  0  0  0  0  0
    1.5134    4.3388    2.6517 C   0  0  0  0  0  0  0  0  0  0  0  0
    0.9006    4.3641    3.8019 N   0  0  0  0  0  0  0  0  0  0  0  0
    0.0699    3.8114    3.9197 H   0  0  0  0  0  0  0  0  0  0  0  0
    1.2447    4.9235    4.5606 H   0  0  0  0  0  0  0  0  0  0  0  0
    2.5873    5.0659    2.5273 N   0  0  0  0  0  0  0  0  0  0  0  0
    3.0941    5.0792    1.6590 H   0  0  0  0  0  0  0  0  0  0  0  0
    2.9142    5.6184    3.2983 H   0  0  0  0  0  0  0  0  0  0  0  0
   -0.9523    0.1012    2.4848 C   0  0  0  0  0  0  0  0  0  0  0  0
    0.2133   -0.1319    2.7814 O   0  0  0  0  0  0  0  0  0  0  0  0
   -1.8684    0.5006    3.3725 N   0  0  0  0  0  0  0  0  0  0  0  0
   -2.7946    0.7048    3.0343 H   0  0  0  0  0  0  0  0  0  0  0  0
   -1.5848    0.7472    4.7873 C   0  0  0  0  0  0  0  0  0  0  0  0
   -0.8819    1.5774    4.8838 H   0  0  0  0  0  0  0  0  0  0  0  0
   -2.5030    0.9948    5.3214 H   0  0  0  0  0  0  0  0  0  0  0  0
   -1.1344   -0.1399    5.2381 H   0  0  0  0  0  0  0  0  0  0  0  0
  5  6  2  0  0  0  0
  5  7  1  0  0  0  0
  2  3  1  0  0  0  0
  2  4  1  0  0  0  0
  2  5  1  0  0  0  0
  1  2  1  0  0  0  0
 29 30  2  0  0  0  0
 29 31  1  0  0  0  0
 26 27  1  0  0  0  0
 26 28  1  0  0  0  0
 23 24  1  0  0  0  0
 23 25  1  0  0  0  0
 22 23  1  0  0  0  0
 22 26  1  0  0  0  0
 20 21  1  0  0  0  0
 20 22  2  0  0  0  0
 17 18  1  0  0  0  0
 17 19  1  0  0  0  0
 17 20  1  0  0  0  0
 14 15  1  0  0  0  0
 14 16  1  0  0  0  0
 14 17  1  0  0  0  0
 11 12  1  0  0  0  0
 11 13  1  0  0  0  0
 11 14  1  0  0  0  0
  9 10  1  0  0  0  0
  9 11  1  0  0  0  0
  9 29  1  0  0  0  0
  7  8  1  0  0  0  0
  7  9  1  0  0  0  0
 33 34  1  0  0  0  0
 33 35  1  0  0  0  0
 33 36  1  0  0  0  0
 31 32  1  0  0  0  0
 31 33  1  0  0  0  0
M  CHG  1  20   1
M  END
$$$$
default_name
  -OEChem-02102213163D

 36 35  0     1  0  0  0  0  0999 V2000
   -4.2256   -3.6731    1.8584 H   0  0  0  0  0  0  0  0  0  0  0  0
   -4.2396   -2.6781    1.4144 C   0  0  0  0  0  0  0  0  0  0  0  0
   -4.9506   -2.0521    1.9514 H   0  0  0  0  0  0  0  0  0  0  0  0
   -4.5266   -2.7521    0.3674 H   0  0  0  0  0  0  0  0  0  0  0  0
   -2.8576   -2.0761    1.5184 C   0  0  0  0  0  0  0  0  0  0  0  0
   -1.9456   -2.7051    2.0404 O   0  0  0  0  0  0  0  0  0  0  0  0
   -2.6926   -0.8481    1.0174 N   0  0  0  0  0  0  0  0  0  0  0  0
   -3.4926   -0.3971    0.5954 H   0  0  0  0  0  0  0  0  0  0  0  0
   -1.4216   -0.1071    1.0434 C   0  0  1  0  0  0  0  0  0  0  0  0
   -0.6709   -0.6930    0.5106 H   0  0  0  0  0  0  0  0  0  0  0  0
   -1.6221    1.2315    0.3051 C   0  0  0  0  0  0  0  0  0  0  0  0
   -1.9272    1.0207   -0.7218 H   0  0  0  0  0  0  0  0  0  0  0  0
   -2.4260    1.7896    0.7900 H   0  0  0  0  0  0  0  0  0  0  0  0
   -0.3577    2.1021    0.2636 C   0  0  0  0  0  0  0  0  0  0  0  0
    0.4425    1.5664   -0.2489 H   0  0  0  0  0  0  0  0  0  0  0  0
   -0.5737    3.0265   -0.2730 H   0  0  0  0  0  0  0  0  0  0  0  0
    0.0947    2.4349    1.6920 C   0  0  0  0  0  0  0  0  0  0  0  0
   -0.7219    2.9472    2.2059 H   0  0  0  0  0  0  0  0  0  0  0  0
    0.3093    1.5002    2.2153 H   0  0  0  0  0  0  0  0  0  0  0  0
    1.2974    3.2929    1.7004 N   0  3  0  0  0  0  0  0  0  0  0  0
    1.6994    3.5159    0.8059 H   0  0  0  0  0  0  0  0  0  0  0  0
    1.8927    3.7937    2.7698 C   0  0  0  0  0  0  0  0  0  0  0  0
    1.4551    3.5672    3.9767 N   0  0  0  0  0  0  0  0  0  0  0  0
    0.6381    2.9947    4.0955 H   0  0  0  0  0  0  0  0  0  0  0  0
    1.9189    3.9546    4.7777 H   0  0  0  0  0  0  0  0  0  0  0  0
    2.9533    4.5401    2.6459 N   0  0  0  0  0  0  0  0  0  0  0  0
    3.3281    4.7431    1.7352 H   0  0  0  0  0  0  0  0  0  0  0  0
    3.4018    4.9181    3.4598 H   0  0  0  0  0  0  0  0  0  0  0  0
   -0.9523    0.1012    2.4848 C   0  0  0  0  0  0  0  0  0  0  0  0
    0.2133   -0.1319    2.7814 O   0  0  0  0  0  0  0  0  0  0  0  0
   -1.8684    0.5006    3.3725 N   0  0  0  0  0  0  0  0  0  0  0  0
   -2.7946    0.7048    3.0343 H   0  0  0  0  0  0  0  0  0  0  0  0
   -1.5848    0.7472    4.7873 C   0  0  0  0  0  0  0  0  0  0  0  0
   -0.8819    1.5774    4.8838 H   0  0  0  0  0  0  0  0  0  0  0  0
   -2.5030    0.9948    5.3214 H   0  0  0  0  0  0  0  0  0  0  0  0
   -1.1344   -0.1399    5.2381 H   0  0  0  0  0  0  0  0  0  0  0  0
  5  6  2  0  0  0  0
  5  7  1  0  0  0  0
  2  3  1  0  0  0  0
  2  4  1  0  0  0  0
  2  5  1  0  0  0  0
  1  2  1  0  0  0  0
 29 30  2  0  0  0  0
 29 31  1  0  0  0  0
 26 27  1  0  0  0  0
 26 28  1  0  0  0  0
 23 24  1  0  0  0  0
 23 25  1  0  0  0  0
 22 23  1  0  0  0  0
 22 26  1  0  0  0  0
 20 21  1  0  0  0  0
 20 22  2  0  0  0  0
 17 18  1  0  0  0  0
 17 19  1  0  0  0  0
 17 20  1  0  0  0  0
 14 15  1  0  0  0  0
 14 16  1  0  0  0  0
 14 17  1  0  0  0  0
 11 12  1  0  0  0  0
 11 13  1  0  0  0  0
 11 14  1  0  0  0  0
  9 10  1  0  0  0  0
  9 11  1  0  0  0  0
  9 29  1  0  0  0  0
  7  8  1  0  0  0  0
  7  9  1  0  0  0  0
 33 34  1  0  0  0  0
 33 35  1  0  0  0  0
 33 36  1  0  0  0  0
 31 32  1  0  0  0  0
 31 33  1  0  0  0  0
M  CHG  1  20   1
M  END
$$$$
default_name
  -OEChem-02102213163D

 36 35  0     1  0  0  0  0  0999 V2000
   -4.2256   -3.6731    1.8584 H   0  0  0  0  0  0  0  0  0  0  0  0
   -4.2396   -2.6781    1.4144 C   0  0  0  0  0  0  0  0  0  0  0  0
   -4.9506   -2.0521    1.9514 H   0  0  0  0  0  0  0  0  0  0  0  0
   -4.5266   -2.7521    0.3674 H   0  0  0  0  0  0  0  0  0  0  0  0
   -2.8576   -2.0761    1.5184 C   0  0  0  0  0  0  0  0  0  0  0  0
   -1.9456   -2.7051    2.0404 O   0  0  0  0  0  0  0  0  0  0  0  0
   -2.6926   -0.8481    1.0174 N   0  0  0  0  0  0  0  0  0  0  0  0
   -3.4926   -0.3971    0.5954 H   0  0  0  0  0  0  0  0  0  0  0  0
   -1.4216   -0.1071    1.0434 C   0  0  1  0  0  0  0  0  0  0  0  0
   -0.6709   -0.6930    0.5106 H   0  0  0  0  0  0  0  0  0  0  0  0
   -1.6221    1.2315    0.3051 C   0  0  0  0  0  0  0  0  0  0  0  0
   -1.9272    1.0207   -0.7218 H   0  0  0  0  0  0  0  0  0  0  0  0
   -2.4260    1.7896    0.7900 H   0  0  0  0  0  0  0  0  0  0  0  0
   -0.3577    2.1021    0.2636 C   0  0  0  0  0  0  0  0  0  0  0  0
    0.3466    1.6954   -0.4633 H   0  0  0  0  0  0  0  0  0  0  0  0
   -0.6285    3.1179   -0.0263 H   0  0  0  0  0  0  0  0  0  0  0  0
    0.3058    2.1261    1.6473 C   0  0  0  0  0  0  0  0  0  0  0  0
   -0.4151    2.5095    2.3731 H   0  0  0  0  0  0  0  0  0  0  0  0
    0.5731    1.1031    1.9225 H   0  0  0  0  0  0  0  0  0  0  0  0
    1.5162    2.9732    1.6604 N   0  3  0  0  0  0  0  0  0  0  0  0
    1.7883    3.3857    0.7846 H   0  0  0  0  0  0  0  0  0  0  0  0
    2.2726    3.2393    2.7121 C   0  0  0  0  0  0  0  0  0  0  0  0
    2.0107    2.7564    3.8943 N   0  0  0  0  0  0  0  0  0  0  0  0
    1.2070    2.1644    4.0079 H   0  0  0  0  0  0  0  0  0  0  0  0
    2.5953    2.9679    4.6820 H   0  0  0  0  0  0  0  0  0  0  0  0
    3.3205    4.0044    2.5946 N   0  0  0  0  0  0  0  0  0  0  0  0
    3.5629    4.4005    1.7028 H   0  0  0  0  0  0  0  0  0  0  0  0
    3.8916    4.2037    3.3950 H   0  0  0  0  0  0  0  0  0  0  0  0
   -0.9523    0.1012    2.4848 C   0  0  0  0  0  0  0  0  0  0  0  0
    0.2133   -0.1319    2.7814 O   0  0  0  0  0  0  0  0  0  0  0  0
   -1.8684    0.5006    3.3725 N   0  0  0  0  0  0  0  0  0  0  0  0
   -2.7946    0.7048    3.0343 H   0  0  0  0  0  0  0  0  0  0  0  0
   -1.5848    0.7472    4.7873 C   0  0  0  0  0  0  0  0  0  0  0  0
   -0.8819    1.5774    4.8838 H   0  0  0  0  0  0  0  0  0  0  0  0
   -2.5030    0.9948    5.3214 H   0  0  0  0  0  0  0  0  0  0  0  0
   -1.1344   -0.1399    5.2381 H   0  0  0  0  0  0  0  0  0  0  0  0
  5  6  2  0  0  0  0
  5  7  1  0  0  0  0
  2  3  1  0  0  0  0
  2  4  1  0  0  0  0
  2  5  1  0  0  0  0
  1  2  1  0  0  0  0
 29 30  2  0  0  0  0
 29 31  1  0  0  0  0
 26 27  1  0  0  0  0
 26 28  1  0  0  0  0
 23 24  1  0  0  0  0
 23 25  1  0  0  0  0
 22 23  1  0  0  0  0
 22 26  1  0  0  0  0
 20 21  1  0  0  0  0
 20 22  2  0  0  0  0
 17 18  1  0  0  0  0
 17 19  1  0  0  0  0
 17 20  1  0  0  0  0
 14 15  1  0  0  0  0
 14 16  1  0  0  0  0
 14 17  1  0  0  0  0
 11 12  1  0  0  0  0
 11 13  1  0  0  0  0
 11 14  1  0  0  0  0
  9 10  1  0  0  0  0
  9 11  1  0  0  0  0
  9 29  1  0  0  0  0
  7  8  1  0  0  0  0
  7  9  1  0  0  0  0
 33 34  1  0  0  0  0
 33 35  1  0  0  0  0
 33 36  1  0  0  0  0
 31 32  1  0  0  0  0
 31 33  1  0  0  0  0
M  CHG  1  20   1
M  END
$$$$
default_name
  -OEChem-02102213163D

 36 35  0     1  0  0  0  0  0999 V2000
   -4.2256   -3.6731    1.8584 H   0  0  0  0  0  0  0  0  0  0  0  0
   -4.2396   -2.6781    1.4144 C   0  0  0  0  0  0  0  0  0  0  0  0
   -4.9506   -2.0521    1.9514 H   0  0  0  0  0  0  0  0  0  0  0  0
   -4.5266   -2.7521    0.3674 H   0  0  0  0  0  0  0  0  0  0  0  0
   -2.8576   -2.0761    1.5184 C   0  0  0  0  0  0  0  0  0  0  0  0
   -1.9456   -2.7051    2.0404 O   0  0  0  0  0  0  0  0  0  0  0  0
   -2.6926   -0.8481    1.0174 N   0  0  0  0  0  0  0  0  0  0  0  0
   -3.4926   -0.3971    0.5954 H   0  0  0  0  0  0  0  0  0  0  0  0
   -1.4216   -0.1071    1.0434 C   0  0  1  0  0  0  0  0  0  0  0  0
   -0.6709   -0.6930    0.5106 H   0  0  0  0  0  0  0  0  0  0  0  0
   -1.6221    1.2315    0.3051 C   0  0  0  0  0  0  0  0  0  0  0  0
   -1.9272    1.0207   -0.7218 H   0  0  0  0  0  0  0  0  0  0  0  0
   -2.4260    1.7896    0.7900 H   0  0  0  0  0  0  0  0  0  0  0  0
   -0.3577    2.1021    0.2636 C   0  0  0  0  0  0  0  0  0  0  0  0
    0.2234    1.8664   -0.6289 H   0  0  0  0  0  0  0  0  0  0  0  0
   -0.6446    3.1539    0.2394 H   0  0  0  0  0  0  0  0  0  0  0  0
    0.5011    1.8359    1.5075 C   0  0  0  0  0  0  0  0  0  0  0  0
   -0.0972    2.0490    2.3963 H   0  0  0  0  0  0  0  0  0  0  0  0
    0.7822    0.7802    1.5164 H   0  0  0  0  0  0  0  0  0  0  0  0
    1.7195    2.6714    1.5216 N   0  3  0  0  0  0  0  0  0  0  0  0
    1.8702    3.2639    0.7232 H   0  0  0  0  0  0  0  0  0  0  0  0
    2.6272    2.7134    2.4825 C   0  0  0  0  0  0  0  0  0  0  0  0
    2.5297    1.9868    3.5604 N   0  0  0  0  0  0  0  0  0  0  0  0
    1.7378    1.3771    3.6628 H   0  0  0  0  0  0  0  0  0  0  0  0
    3.2277    2.0304    4.2800 H   0  0  0  0  0  0  0  0  0  0  0  0
    3.6640    3.4952    2.3771 N   0  0  0  0  0  0  0  0  0  0  0  0
    3.7826    4.0749    1.5641 H   0  0  0  0  0  0  0  0  0  0  0  0
    4.3502    3.5241    3.1084 H   0  0  0  0  0  0  0  0  0  0  0  0
   -0.9523    0.1012    2.4848 C   0  0  0  0  0  0  0  0  0  0  0  0
    0.2133   -0.1319    2.7814 O   0  0  0  0  0  0  0  0  0  0  0  0
   -1.8684    0.5006    3.3725 N   0  0  0  0  0  0  0  0  0  0  0  0
   -2.7946    0.7048    3.0343 H   0  0  0  0  0  0  0  0  0  0  0  0
   -1.5848    0.7472    4.7873 C   0  0  0  0  0  0  0  0  0  0  0  0
   -0.8819    1.5774    4.8838 H   0  0  0  0  0  0  0  0  0  0  0  0
   -2.5030    0.9948    5.3214 H   0  0  0  0  0  0  0  0  0  0  0  0
   -1.1344   -0.1399    5.2381 H   0  0  0  0  0  0  0  0  0  0  0  0
  5  6  2  0  0  0  0
  5  7  1  0  0  0  0
  2  3  1  0  0  0  0
  2  4  1  0  0  0  0
  2  5  1  0  0  0  0
  1  2  1  0  0  0  0
 29 30  2  0  0  0  0
 29 31  1  0  0  0  0
 26 27  1  0  0  0  0
 26 28  1  0  0  0  0
 23 24  1  0  0  0  0
 23 25  1  0  0  0  0
 22 23  1  0  0  0  0
 22 26  1  0  0  0  0
 20 21  1  0  0  0  0
 20 22  2  0  0  0  0
 17 18  1  0  0  0  0
 17 19  1  0  0  0  0
 17 20  1  0  0  0  0
 14 15  1  0  0  0  0
 14 16  1  0  0  0  0
 14 17  1  0  0  0  0
 11 12  1  0  0  0  0
 11 13  1  0  0  0  0
 11 14  1  0  0  0  0
  9 10  1  0  0  0  0
  9 11  1  0  0  0  0
  9 29  1  0  0  0  0
  7  8  1  0  0  0  0
  7  9  1  0  0  0  0
 33 34  1  0  0  0  0
 33 35  1  0  0  0  0
 33 36  1  0  0  0  0
 31 32  1  0  0  0  0
 31 33  1  0  0  0  0
M  CHG  1  20   1
M  END
$$$$
default_name
  -OEChem-02102213163D

 36 35  0     1  0  0  0  0  0999 V2000
   -4.2256   -3.6731    1.8584 H   0  0  0  0  0  0  0  0  0  0  0  0
   -4.2396   -2.6781    1.4144 C   0  0  0  0  0  0  0  0  0  0  0  0
   -4.9506   -2.0521    1.9514 H   0  0  0  0  0  0  0  0  0  0  0  0
   -4.5266   -2.7521    0.3674 H   0  0  0  0  0  0  0  0  0  0  0  0
   -2.8576   -2.0761    1.5184 C   0  0  0  0  0  0  0  0  0  0  0  0
   -1.9456   -2.7051    2.0404 O   0  0  0  0  0  0  0  0  0  0  0  0
   -2.6926   -0.8481    1.0174 N   0  0  0  0  0  0  0  0  0  0  0  0
   -3.4926   -0.3971    0.5954 H   0  0  0  0  0  0  0  0  0  0  0  0
   -1.4216   -0.1071    1.0434 C   0  0  1  0  0  0  0  0  0  0  0  0
   -0.6709   -0.6930    0.5106 H   0  0  0  0  0  0  0  0  0  0  0  0
   -1.6221    1.2315    0.3051 C   0  0  0  0  0  0  0  0  0  0  0  0
   -1.9272    1.0207   -0.7218 H   0  0  0  0  0  0  0  0  0  0  0  0
   -2.4260    1.7896    0.7900 H   0  0  0  0  0  0  0  0  0  0  0  0
   -0.3577    2.1021    0.2636 C   0  0  0  0  0  0  0  0  0  0  0  0
    0.0814    2.0677   -0.7344 H   0  0  0  0  0  0  0  0  0  0  0  0
   -0.6209    3.1322    0.5061 H   0  0  0  0  0  0  0  0  0  0  0  0
    0.6671    1.5840    1.2819 C   0  0  0  0  0  0  0  0  0  0  0  0
    0.2101    1.5969    2.2740 H   0  0  0  0  0  0  0  0  0  0  0  0
    0.9222    0.5533    1.0246 H   0  0  0  0  0  0  0  0  0  0  0  0
    1.8933    2.4080    1.2934 N   0  3  0  0  0  0  0  0  0  0  0  0
    1.9394    3.1587    0.6259 H   0  0  0  0  0  0  0  0  0  0  0  0
    2.9323    2.2519    2.0967 C   0  0  0  0  0  0  0  0  0  0  0  0
    2.9766    1.3110    2.9978 N   0  0  0  0  0  0  0  0  0  0  0  0
    2.1944    0.6864    3.0839 H   0  0  0  0  0  0  0  0  0  0  0  0
    3.7730    1.2060    3.5991 H   0  0  0  0  0  0  0  0  0  0  0  0
    3.9602    3.0474    2.0081 N   0  0  0  0  0  0  0  0  0  0  0  0
    3.9722    3.7884    1.3285 H   0  0  0  0  0  0  0  0  0  0  0  0
    4.7463    2.9255    2.6194 H   0  0  0  0  0  0  0  0  0  0  0  0
   -0.9523    0.1012    2.4848 C   0  0  0  0  0  0  0  0  0  0  0  0
    0.2133   -0.1319    2.7814 O   0  0  0  0  0  0  0  0  0  0  0  0
   -1.8684    0.5006    3.3725 N   0  0  0  0  0  0  0  0  0  0  0  0
   -2.7946    0.7048    3.0343 H   0  0  0  0  0  0  0  0  0  0  0  0
   -1.5848    0.7472    4.7873 C   0  0  0  0  0  0  0  0  0  0  0  0
   -0.8819    1.5774    4.8838 H   0  0  0  0  0  0  0  0  0  0  0  0
   -2.5030    0.9948    5.3214 H   0  0  0  0  0  0  0  0  0  0  0  0
   -1.1344   -0.1399    5.2381 H   0  0  0  0  0  0  0  0  0  0  0  0
  5  6  2  0  0  0  0
  5  7  1  0  0  0  0
  2  3  1  0  0  0  0
  2  4  1  0  0  0  0
  2  5  1  0  0  0  0
  1  2  1  0  0  0  0
 29 30  2  0  0  0  0
 29 31  1  0  0  0  0
 26 27  1  0  0  0  0
 26 28  1  0  0  0  0
 23 24  1  0  0  0  0
 23 25  1  0  0  0  0
 22 23  1  0  0  0  0
 22 26  1  0  0  0  0
 20 21  1  0  0  0  0
 20 22  2  0  0  0  0
 17 18  1  0  0  0  0
 17 19  1  0  0  0  0
 17 20  1  0  0  0  0
 14 15  1  0  0  0  0
 14 16  1  0  0  0  0
 14 17  1  0  0  0  0
 11 12  1  0  0  0  0
 11 13  1  0  0  0  0
 11 14  1  0  0  0  0
  9 10  1  0  0  0  0
  9 11  1  0  0  0  0
  9 29  1  0  0  0  0
  7  8  1  0  0  0  0
  7  9  1  0  0  0  0
 33 34  1  0  0  0  0
 33 35  1  0  0  0  0
 33 36  1  0  0  0  0
 31 32  1  0  0  0  0
 31 33  1  0  0  0  0
M  CHG  1  20   1
M  END
$$$$
default_name
  -OEChem-02102213163D

 36 35  0     1  0  0  0  0  0999 V2000
   -4.2256   -3.6731    1.8584 H   0  0  0  0  0  0  0  0  0  0  0  0
   -4.2396   -2.6781    1.4144 C   0  0  0  0  0  0  0  0  0  0  0  0
   -4.9506   -2.0521    1.9514 H   0  0  0  0  0  0  0  0  0  0  0  0
   -4.5266   -2.7521    0.3674 H   0  0  0  0  0  0  0  0  0  0  0  0
   -2.8576   -2.0761    1.5184 C   0  0  0  0  0  0  0  0  0  0  0  0
   -1.9456   -2.7051    2.0404 O   0  0  0  0  0  0  0  0  0  0  0  0
   -2.6926   -0.8481    1.0174 N   0  0  0  0  0  0  0  0  0  0  0  0
   -3.4926   -0.3971    0.5954 H   0  0  0  0  0  0  0  0  0  0  0  0
   -1.4216   -0.1071    1.0434 C   0  0  1  0  0  0  0  0  0  0  0  0
   -0.6709   -0.6930    0.5106 H   0  0  0  0  0  0  0  0  0  0  0  0
   -1.6221    1.2315    0.3051 C   0  0  0  0  0  0  0  0  0  0  0  0
   -1.9272    1.0207   -0.7218 H   0  0  0  0  0  0  0  0  0  0  0  0
   -2.4260    1.7896    0.7900 H   0  0  0  0  0  0  0  0  0  0  0  0
   -0.3577    2.1021    0.2636 C   0  0  0  0  0  0  0  0  0  0  0  0
   -0.0699    2.2856   -0.7725 H   0  0  0  0  0  0  0  0  0  0  0  0
   -0.5591    3.0542    0.7556 H   0  0  0  0  0  0  0  0  0  0  0  0
    0.7926    1.3876    0.9859 C   0  0  0  0  0  0  0  0  0  0  0  0
    0.4857    1.1842    2.0144 H   0  0  0  0  0  0  0  0  0  0  0  0
    0.9838    0.4380    0.4807 H   0  0  0  0  0  0  0  0  0  0  0  0
    2.0260    2.2010    0.9914 N   0  3  0  0  0  0  0  0  0  0  0  0
    1.9913    3.0774    0.4993 H   0  0  0  0  0  0  0  0  0  0  0  0
    3.1672    1.8862    1.5808 C   0  0  0  0  0  0  0  0  0  0  0  0
    3.3210    0.7750    2.2447 N   0  0  0  0  0  0  0  0  0  0  0  0
    2.5457    0.1395    2.3105 H   0  0  0  0  0  0  0  0  0  0  0  0
    4.1940    0.5511    2.6858 H   0  0  0  0  0  0  0  0  0  0  0  0
    4.1891    2.6914    1.5127 N   0  0  0  0  0  0  0  0  0  0  0  0
    4.1187    3.5605    1.0120 H   0  0  0  0  0  0  0  0  0  0  0  0
    5.0531    2.4487    1.9614 H   0  0  0  0  0  0  0  0  0  0  0  0
   -0.9523    0.1012    2.4848 C   0  0  0  0  0  0  0  0  0  0  0  0
    0.2133   -0.1319    2.7814 O   0  0  0  0  0  0  0  0  0  0  0  0
   -1.8684    0.5006    3.3725 N   0  0  0  0  0  0  0  0  0  0  0  0
   -2.7946    0.7048    3.0343 H   0  0  0  0  0  0  0  0  0  0  0  0
   -1.5848    0.7472    4.7873 C   0  0  0  0  0  0  0  0  0  0  0  0
   -0.8819    1.5774    4.8838 H   0  0  0  0  0  0  0  0  0  0  0  0
   -2.5030    0.9948    5.3214 H   0  0  0  0  0  0  0  0  0  0  0  0
   -1.1344   -0.1399    5.2381 H   0  0  0  0  0  0  0  0  0  0  0  0
  5  6  2  0  0  0  0
  5  7  1  0  0  0  0
  2  3  1  0  0  0  0
  2  4  1  0  0  0  0
  2  5  1  0  0  0  0
  1  2  1  0  0  0  0
 29 30  2  0  0  0  0
 29 31  1  0  0  0  0
 26 27  1  0  0  0  0
 26 28  1  0  0  0  0
 23 24  1  0  0  0  0
 23 25  1  0  0  0  0
 22 23  1  0  0  0  0
 22 26  1  0  0  0  0
 20 21  1  0  0  0  0
 20 22  2  0  0  0  0
 17 18  1  0  0  0  0
 17 19  1  0  0  0  0
 17 20  1  0  0  0  0
 14 15  1  0  0  0  0
 14 16  1  0  0  0  0
 14 17  1  0  0  0  0
 11 12  1  0  0  0  0
 11 13  1  0  0  0  0
 11 14  1  0  0  0  0
  9 10  1  0  0  0  0
  9 11  1  0  0  0  0
  9 29  1  0  0  0  0
  7  8  1  0  0  0  0
  7  9  1  0  0  0  0
 33 34  1  0  0  0  0
 33 35  1  0  0  0  0
 33 36  1  0  0  0  0
 31 32  1  0  0  0  0
 31 33  1  0  0  0  0
M  CHG  1  20   1
M  END
$$$$
default_name
  -OEChem-02102213163D

 36 35  0     1  0  0  0  0  0999 V2000
   -4.2256   -3.6731    1.8584 H   0  0  0  0  0  0  0  0  0  0  0  0
   -4.2396   -2.6781    1.4144 C   0  0  0  0  0  0  0  0  0  0  0  0
   -4.9506   -2.0521    1.9514 H   0  0  0  0  0  0  0  0  0  0  0  0
   -4.5266   -2.7521    0.3674 H   0  0  0  0  0  0  0  0  0  0  0  0
   -2.8576   -2.0761    1.5184 C   0  0  0  0  0  0  0  0  0  0  0  0
   -1.9456   -2.7051    2.0404 O   0  0  0  0  0  0  0  0  0  0  0  0
   -2.6926   -0.8481    1.0174 N   0  0  0  0  0  0  0  0  0  0  0  0
   -3.4926   -0.3971    0.5954 H   0  0  0  0  0  0  0  0  0  0  0  0
   -1.4216   -0.1071    1.0434 C   0  0  1  0  0  0  0  0  0  0  0  0
   -0.6709   -0.6930    0.5106 H   0  0  0  0  0  0  0  0  0  0  0  0
   -1.6221    1.2315    0.3051 C   0  0  0  0  0  0  0  0  0  0  0  0
   -1.9272    1.0207   -0.7218 H   0  0  0  0  0  0  0  0  0  0  0  0
   -2.4260    1.7896    0.7900 H   0  0  0  0  0  0  0  0  0  0  0  0
   -0.3577    2.1021    0.2636 C   0  0  0  0  0  0  0  0  0  0  0  0
   -0.2201    2.5052   -0.7407 H   0  0  0  0  0  0  0  0  0  0  0  0
   -0.4632    2.9253    0.9710 H   0  0  0  0  0  0  0  0  0  0  0  0
    0.8691    1.2601    0.6398 C   0  0  0  0  0  0  0  0  0  0  0  0
    0.7110    0.8390    1.6353 H   0  0  0  0  0  0  0  0  0  0  0  0
    0.9627    0.4420   -0.0783 H   0  0  0  0  0  0  0  0  0  0  0  0
    2.1083    2.0645    0.6360 N   0  3  0  0  0  0  0  0  0  0  0  0
    2.0222    3.0254    0.3521 H   0  0  0  0  0  0  0  0  0  0  0  0
    3.3159    1.6412    0.9702 C   0  0  0  0  0  0  0  0  0  0  0  0
    3.5395    0.4153    1.3525 N   0  0  0  0  0  0  0  0  0  0  0  0
    2.7676   -0.2265    1.3954 H   0  0  0  0  0  0  0  0  0  0  0  0
    4.4621    0.1101    1.6023 H   0  0  0  0  0  0  0  0  0  0  0  0
    4.3351    2.4515    0.9248 N   0  0  0  0  0  0  0  0  0  0  0  0
    4.2122    3.4068    0.6363 H   0  0  0  0  0  0  0  0  0  0  0  0
    5.2494    2.1263    1.1792 H   0  0  0  0  0  0  0  0  0  0  0  0
   -0.9523    0.1012    2.4848 C   0  0  0  0  0  0  0  0  0  0  0  0
    0.2133   -0.1319    2.7814 O   0  0  0  0  0  0  0  0  0  0  0  0
   -1.8684    0.5006    3.3725 N   0  0  0  0  0  0  0  0  0  0  0  0
   -2.7946    0.7048    3.0343 H   0  0  0  0  0  0  0  0  0  0  0  0
   -1.5848    0.7472    4.7873 C   0  0  0  0  0  0  0  0  0  0  0  0
   -0.8819    1.5774    4.8838 H   0  0  0  0  0  0  0  0  0  0  0  0
   -2.5030    0.9948    5.3214 H   0  0  0  0  0  0  0  0  0  0  0  0
   -1.1344   -0.1399    5.2381 H   0  0  0  0  0  0  0  0  0  0  0  0
  5  6  2  0  0  0  0
  5  7  1  0  0  0  0
  2  3  1  0  0  0  0
  2  4  1  0  0  0  0
  2  5  1  0  0  0  0
  1  2  1  0  0  0  0
 29 30  2  0  0  0  0
 29 31  1  0  0  0  0
 26 27  1  0  0  0  0
 26 28  1  0  0  0  0
 23 24  1  0  0  0  0
 23 25  1  0  0  0  0
 22 23  1  0  0  0  0
 22 26  1  0  0  0  0
 20 21  1  0  0  0  0
 20 22  2  0  0  0  0
 17 18  1  0  0  0  0
 17 19  1  0  0  0  0
 17 20  1  0  0  0  0
 14 15  1  0  0  0  0
 14 16  1  0  0  0  0
 14 17  1  0  0  0  0
 11 12  1  0  0  0  0
 11 13  1  0  0  0  0
 11 14  1  0  0  0  0
  9 10  1  0  0  0  0
  9 11  1  0  0  0  0
  9 29  1  0  0  0  0
  7  8  1  0  0  0  0
  7  9  1  0  0  0  0
 33 34  1  0  0  0  0
 33 35  1  0  0  0  0
 33 36  1  0  0  0  0
 31 32  1  0  0  0  0
 31 33  1  0  0  0  0
M  CHG  1  20   1
M  END
$$$$
default_name
  -OEChem-02102213163D

 36 35  0     1  0  0  0  0  0999 V2000
   -4.2256   -3.6731    1.8584 H   0  0  0  0  0  0  0  0  0  0  0  0
   -4.2396   -2.6781    1.4144 C   0  0  0  0  0  0  0  0  0  0  0  0
   -4.9506   -2.0521    1.9514 H   0  0  0  0  0  0  0  0  0  0  0  0
   -4.5266   -2.7521    0.3674 H   0  0  0  0  0  0  0  0  0  0  0  0
   -2.8576   -2.0761    1.5184 C   0  0  0  0  0  0  0  0  0  0  0  0
   -1.9456   -2.7051    2.0404 O   0  0  0  0  0  0  0  0  0  0  0  0
   -2.6926   -0.8481    1.0174 N   0  0  0  0  0  0  0  0  0  0  0  0
   -3.4926   -0.3971    0.5954 H   0  0  0  0  0  0  0  0  0  0  0  0
   -1.4216   -0.1071    1.0434 C   0  0  1  0  0  0  0  0  0  0  0  0
   -0.6709   -0.6930    0.5106 H   0  0  0  0  0  0  0  0  0  0  0  0
   -1.6221    1.2315    0.3051 C   0  0  0  0  0  0  0  0  0  0  0  0
   -1.9272    1.0207   -0.7218 H   0  0  0  0  0  0  0  0  0  0  0  0
   -2.4260    1.7896    0.7900 H   0  0  0  0  0  0  0  0  0  0  0  0
   -0.3577    2.1021    0.2636 C   0  0  0  0  0  0  0  0  0  0  0  0
   -0.3590    2.7116   -0.6411 H   0  0  0  0  0  0  0  0  0  0  0  0
   -0.3400    2.7543    1.1374 H   0  0  0  0  0  0  0  0  0  0  0  0
    0.8912    1.2102    0.2670 C   0  0  0  0  0  0  0  0  0  0  0  0
    0.8706    0.5847    1.1624 H   0  0  0  0  0  0  0  0  0  0  0  0
    0.8602    0.5652   -0.6143 H   0  0  0  0  0  0  0  0  0  0  0  0
    2.1347    2.0078    0.2516 N   0  3  0  0  0  0  0  0  0  0  0  0
    2.0302    3.0064    0.1943 H   0  0  0  0  0  0  0  0  0  0  0  0
    3.3681    1.5337    0.3063 C   0  0  0  0  0  0  0  0  0  0  0  0
    3.6170    0.2564    0.3821 N   0  0  0  0  0  0  0  0  0  0  0  0
    2.8452   -0.3866    0.4009 H   0  0  0  0  0  0  0  0  0  0  0  0
    4.5590   -0.0868    0.4224 H   0  0  0  0  0  0  0  0  0  0  0  0
    4.3881    2.3440    0.2844 N   0  0  0  0  0  0  0  0  0  0  0  0
    4.2463    3.3378    0.2269 H   0  0  0  0  0  0  0  0  0  0  0  0
    5.3221    1.9801    0.3262 H   0  0  0  0  0  0  0  0  0  0  0  0
   -0.9523    0.1012    2.4848 C   0  0  0  0  0  0  0  0  0  0  0  0
    0.2133   -0.1319    2.7814 O   0  0  0  0  0  0  0  0  0  0  0  0
   -1.8684    0.5006    3.3725 N   0  0  0  0  0  0  0  0  0  0  0  0
   -2.7946    0.7048    3.0343 H   0  0  0  0  0  0  0  0  0  0  0  0
   -1.5848    0.7472    4.7873 C   0  0  0  0  0  0  0  0  0  0  0  0
   -0.8819    1.5774    4.8838 H   0  0  0  0  0  0  0  0  0  0  0  0
   -2.5030    0.9948    5.3214 H   0  0  0  0  0  0  0  0  0  0  0  0
   -1.1344   -0.1399    5.2381 H   0  0  0  0  0  0  0  0  0  0  0  0
  5  6  2  0  0  0  0
  5  7  1  0  0  0  0
  2  3  1  0  0  0  0
  2  4  1  0  0  0  0
  2  5  1  0  0  0  0
  1  2  1  0  0  0  0
 29 30  2  0  0  0  0
 29 31  1  0  0  0  0
 26 27  1  0  0  0  0
 26 28  1  0  0  0  0
 23 24  1  0  0  0  0
 23 25  1  0  0  0  0
 22 23  1  0  0  0  0
 22 26  1  0  0  0  0
 20 21  1  0  0  0  0
 20 22  2  0  0  0  0
 17 18  1  0  0  0  0
 17 19  1  0  0  0  0
 17 20  1  0  0  0  0
 14 15  1  0  0  0  0
 14 16  1  0  0  0  0
 14 17  1  0  0  0  0
 11 12  1  0  0  0  0
 11 13  1  0  0  0  0
 11 14  1  0  0  0  0
  9 10  1  0  0  0  0
  9 11  1  0  0  0  0
  9 29  1  0  0  0  0
  7  8  1  0  0  0  0
  7  9  1  0  0  0  0
 33 34  1  0  0  0  0
 33 35  1  0  0  0  0
 33 36  1  0  0  0  0
 31 32  1  0  0  0  0
 31 33  1  0  0  0  0
M  CHG  1  20   1
M  END
$$$$
default_name
  -OEChem-02102213163D

 36 35  0     1  0  0  0  0  0999 V2000
   -4.2256   -3.6731    1.8584 H   0  0  0  0  0  0  0  0  0  0  0  0
   -4.2396   -2.6781    1.4144 C   0  0  0  0  0  0  0  0  0  0  0  0
   -4.9506   -2.0521    1.9514 H   0  0  0  0  0  0  0  0  0  0  0  0
   -4.5266   -2.7521    0.3674 H   0  0  0  0  0  0  0  0  0  0  0  0
   -2.8576   -2.0761    1.5184 C   0  0  0  0  0  0  0  0  0  0  0  0
   -1.9456   -2.7051    2.0404 O   0  0  0  0  0  0  0  0  0  0  0  0
   -2.6926   -0.8481    1.0174 N   0  0  0  0  0  0  0  0  0  0  0  0
   -3.4926   -0.3971    0.5954 H   0  0  0  0  0  0  0  0  0  0  0  0
   -1.4216   -0.1071    1.0434 C   0  0  1  0  0  0  0  0  0  0  0  0
   -0.6709   -0.6930    0.5106 H   0  0  0  0  0  0  0  0  0  0  0  0
   -1.6221    1.2315    0.3051 C   0  0  0  0  0  0  0  0  0  0  0  0
   -1.9272    1.0207   -0.7218 H   0  0  0  0  0  0  0  0  0  0  0  0
   -2.4260    1.7896    0.7900 H   0  0  0  0  0  0  0  0  0  0  0  0
   -0.3577    2.1021    0.2636 C   0  0  0  0  0  0  0  0  0  0  0  0
   -0.4771    2.8908   -0.4805 H   0  0  0  0  0  0  0  0  0  0  0  0
   -0.1977    2.5527    1.2437 H   0  0  0  0  0  0  0  0  0  0  0  0
    0.8576    1.2412   -0.1069 C   0  0  0  0  0  0  0  0  0  0  0  0
    0.9536    0.4388    0.6281 H   0  0  0  0  0  0  0  0  0  0  0  0
    0.6835    0.7992   -1.0908 H   0  0  0  0  0  0  0  0  0  0  0  0
    2.1035    2.0348   -0.1356 N   0  3  0  0  0  0  0  0  0  0  0  0
    2.0145    3.0216    0.0367 H   0  0  0  0  0  0  0  0  0  0  0  0
    3.3204    1.5710   -0.3655 C   0  0  0  0  0  0  0  0  0  0  0  0
    3.5484    0.3092   -0.6006 N   0  0  0  0  0  0  0  0  0  0  0  0
    2.7731   -0.3298   -0.6052 H   0  0  0  0  0  0  0  0  0  0  0  0
    4.4781   -0.0263   -0.7735 H   0  0  0  0  0  0  0  0  0  0  0  0
    4.3445    2.3763   -0.3648 N   0  0  0  0  0  0  0  0  0  0  0  0
    4.2187    3.3581   -0.1882 H   0  0  0  0  0  0  0  0  0  0  0  0
    5.2661    2.0202   -0.5396 H   0  0  0  0  0  0  0  0  0  0  0  0
   -0.9523    0.1012    2.4848 C   0  0  0  0  0  0  0  0  0  0  0  0
    0.2133   -0.1319    2.7814 O   0  0  0  0  0  0  0  0  0  0  0  0
   -1.8684    0.5006    3.3725 N   0  0  0  0  0  0  0  0  0  0  0  0
   -2.7946    0.7048    3.0343 H   0  0  0  0  0  0  0  0  0  0  0  0
   -1.5848    0.7472    4.7873 C   0  0  0  0  0  0  0  0  0  0  0  0
   -0.8819    1.5774    4.8838 H   0  0  0  0  0  0  0  0  0  0  0  0
   -2.5030    0.9948    5.3214 H   0  0  0  0  0  0  0  0  0  0  0  0
   -1.1344   -0.1399    5.2381 H   0  0  0  0  0  0  0  0  0  0  0  0
  5  6  2  0  0  0  0
  5  7  1  0  0  0  0
  2  3  1  0  0  0  0
  2  4  1  0  0  0  0
  2  5  1  0  0  0  0
  1  2  1  0  0  0  0
 29 30  2  0  0  0  0
 29 31  1  0  0  0  0
 26 27  1  0  0  0  0
 26 28  1  0  0  0  0
 23 24  1  0  0  0  0
 23 25  1  0  0  0  0
 22 23  1  0  0  0  0
 22 26  1  0  0  0  0
 20 21  1  0  0  0  0
 20 22  2  0  0  0  0
 17 18  1  0  0  0  0
 17 19  1  0  0  0  0
 17 20  1  0  0  0  0
 14 15  1  0  0  0  0
 14 16  1  0  0  0  0
 14 17  1  0  0  0  0
 11 12  1  0  0  0  0
 11 13  1  0  0  0  0
 11 14  1  0  0  0  0
  9 10  1  0  0  0  0
  9 11  1  0  0  0  0
  9 29  1  0  0  0  0
  7  8  1  0  0  0  0
  7  9  1  0  0  0  0
 33 34  1  0  0  0  0
 33 35  1  0  0  0  0
 33 36  1  0  0  0  0
 31 32  1  0  0  0  0
 31 33  1  0  0  0  0
M  CHG  1  20   1
M  END
$$$$
default_name
  -OEChem-02102213163D

 36 35  0     1  0  0  0  0  0999 V2000
   -4.2256   -3.6731    1.8584 H   0  0  0  0  0  0  0  0  0  0  0  0
   -4.2396   -2.6781    1.4144 C   0  0  0  0  0  0  0  0  0  0  0  0
   -4.9506   -2.0521    1.9514 H   0  0  0  0  0  0  0  0  0  0  0  0
   -4.5266   -2.7521    0.3674 H   0  0  0  0  0  0  0  0  0  0  0  0
   -2.8576   -2.0761    1.5184 C   0  0  0  0  0  0  0  0  0  0  0  0
   -1.9456   -2.7051    2.0404 O   0  0  0  0  0  0  0  0  0  0  0  0
   -2.6926   -0.8481    1.0174 N   0  0  0  0  0  0  0  0  0  0  0  0
   -3.4926   -0.3971    0.5954 H   0  0  0  0  0  0  0  0  0  0  0  0
   -1.4216   -0.1071    1.0434 C   0  0  1  0  0  0  0  0  0  0  0  0
   -0.6709   -0.6930    0.5106 H   0  0  0  0  0  0  0  0  0  0  0  0
   -1.6221    1.2315    0.3051 C   0  0  0  0  0  0  0  0  0  0  0  0
   -1.9272    1.0207   -0.7218 H   0  0  0  0  0  0  0  0  0  0  0  0
   -2.4260    1.7896    0.7900 H   0  0  0  0  0  0  0  0  0  0  0  0
   -0.3577    2.1021    0.2636 C   0  0  0  0  0  0  0  0  0  0  0  0
   -0.5664    3.0305   -0.2699 H   0  0  0  0  0  0  0  0  0  0  0  0
   -0.0460    2.3344    1.2825 H   0  0  0  0  0  0  0  0  0  0  0  0
    0.7704    1.3511   -0.4565 C   0  0  0  0  0  0  0  0  0  0  0  0
    0.9543    0.4111    0.0687 H   0  0  0  0  0  0  0  0  0  0  0  0
    0.4445    1.1279   -1.4752 H   0  0  0  0  0  0  0  0  0  0  0  0
    2.0166    2.1436   -0.4993 N   0  3  0  0  0  0  0  0  0  0  0  0
    1.9764    3.0699   -0.1100 H   0  0  0  0  0  0  0  0  0  0  0  0
    3.1760    1.7504   -0.9995 C   0  0  0  0  0  0  0  0  0  0  0  0
    3.3383    0.5701   -1.5284 N   0  0  0  0  0  0  0  0  0  0  0  0
    2.5562   -0.0601   -1.5544 H   0  0  0  0  0  0  0  0  0  0  0  0
    4.2249    0.2875   -1.9039 H   0  0  0  0  0  0  0  0  0  0  0  0
    4.2075    2.5461   -0.9787 N   0  0  0  0  0  0  0  0  0  0  0  0
    4.1313    3.4663   -0.5809 H   0  0  0  0  0  0  0  0  0  0  0  0
    5.0852    2.2438   -1.3592 H   0  0  0  0  0  0  0  0  0  0  0  0
   -0.9523    0.1012    2.4848 C   0  0  0  0  0  0  0  0  0  0  0  0
    0.2133   -0.1319    2.7814 O   0  0  0  0  0  0  0  0  0  0  0  0
   -1.8684    0.5006    3.3725 N   0  0  0  0  0  0  0  0  0  0  0  0
   -2.7946    0.7048    3.0343 H   0  0  0  0  0  0  0  0  0  0  0  0
   -1.5848    0.7472    4.7873 C   0  0  0  0  0  0  0  0  0  0  0  0
   -0.8819    1.5774    4.8838 H   0  0  0  0  0  0  0  0  0  0  0  0
   -2.5030    0.9948    5.3214 H   0  0  0  0  0  0  0  0  0  0  0  0
   -1.1344   -0.1399    5.2381 H   0  0  0  0  0  0  0  0  0  0  0  0
  5  6  2  0  0  0  0
  5  7  1  0  0  0  0
  2  3  1  0  0  0  0
  2  4  1  0  0  0  0
  2  5  1  0  0  0  0
  1  2  1  0  0  0  0
 29 30  2  0  0  0  0
 29 31  1  0  0  0  0
 26 27  1  0  0  0  0
 26 28  1  0  0  0  0
 23 24  1  0  0  0  0
 23 25  1  0  0  0  0
 22 23  1  0  0  0  0
 22 26  1  0  0  0  0
 20 21  1  0  0  0  0
 20 22  2  0  0  0  0
 17 18  1  0  0  0  0
 17 19  1  0  0  0  0
 17 20  1  0  0  0  0
 14 15  1  0  0  0  0
 14 16  1  0  0  0  0
 14 17  1  0  0  0  0
 11 12  1  0  0  0  0
 11 13  1  0  0  0  0
 11 14  1  0  0  0  0
  9 10  1  0  0  0  0
  9 11  1  0  0  0  0
  9 29  1  0  0  0  0
  7  8  1  0  0  0  0
  7  9  1  0  0  0  0
 33 34  1  0  0  0  0
 33 35  1  0  0  0  0
 33 36  1  0  0  0  0
 31 32  1  0  0  0  0
 31 33  1  0  0  0  0
M  CHG  1  20   1
M  END
$$$$
default_name
  -OEChem-02102213163D

 36 35  0     1  0  0  0  0  0999 V2000
   -4.2256   -3.6731    1.8584 H   0  0  0  0  0  0  0  0  0  0  0  0
   -4.2396   -2.6781    1.4144 C   0  0  0  0  0  0  0  0  0  0  0  0
   -4.9506   -2.0521    1.9514 H   0  0  0  0  0  0  0  0  0  0  0  0
   -4.5266   -2.7521    0.3674 H   0  0  0  0  0  0  0  0  0  0  0  0
   -2.8576   -2.0761    1.5184 C   0  0  0  0  0  0  0  0  0  0  0  0
   -1.9456   -2.7051    2.0404 O   0  0  0  0  0  0  0  0  0  0  0  0
   -2.6926   -0.8481    1.0174 N   0  0  0  0  0  0  0  0  0  0  0  0
   -3.4926   -0.3971    0.5954 H   0  0  0  0  0  0  0  0  0  0  0  0
   -1.4216   -0.1071    1.0434 C   0  0  1  0  0  0  0  0  0  0  0  0
   -0.6709   -0.6930    0.5106 H   0  0  0  0  0  0  0  0  0  0  0  0
   -1.6221    1.2315    0.3051 C   0  0  0  0  0  0  0  0  0  0  0  0
   -1.9272    1.0207   -0.7218 H   0  0  0  0  0  0  0  0  0  0  0  0
   -2.4260    1.7896    0.7900 H   0  0  0  0  0  0  0  0  0  0  0  0
   -0.3577    2.1021    0.2636 C   0  0  0  0  0  0  0  0  0  0  0  0
   -0.6207    3.1211   -0.0236 H   0  0  0  0  0  0  0  0  0  0  0  0
    0.1046    2.1141    1.2512 H   0  0  0  0  0  0  0  0  0  0  0  0
    0.6357    1.5324   -0.7581 C   0  0  0  0  0  0  0  0  0  0  0  0
    0.8727    0.5035   -0.4776 H   0  0  0  0  0  0  0  0  0  0  0  0
    0.1596    1.5290   -1.7414 H   0  0  0  0  0  0  0  0  0  0  0  0
    1.8801    2.3268   -0.8147 N   0  3  0  0  0  0  0  0  0  0  0  0
    1.9184    3.1482   -0.2358 H   0  0  0  0  0  0  0  0  0  0  0  0
    2.9448    2.0599   -1.5525 C   0  0  0  0  0  0  0  0  0  0  0  0
    3.0011    1.0212   -2.3382 N   0  0  0  0  0  0  0  0  0  0  0  0
    2.2093    0.4042   -2.3819 H   0  0  0  0  0  0  0  0  0  0  0  0
    3.8166    0.8334   -2.8917 H   0  0  0  0  0  0  0  0  0  0  0  0
    3.9861    2.8419   -1.5154 N   0  0  0  0  0  0  0  0  0  0  0  0
    3.9899    3.6552   -0.9242 H   0  0  0  0  0  0  0  0  0  0  0  0
    4.7918    2.6357   -2.0766 H   0  0  0  0  0  0  0  0  0  0  0  0
   -0.9523    0.1012    2.4848 C   0  0  0  0  0  0  0  0  0  0  0  0
    0.2133   -0.1319    2.7814 O   0  0  0  0  0  0  0  0  0  0  0  0
   -1.8684    0.5006    3.3725 N   0  0  0  0  0  0  0  0  0  0  0  0
   -2.7946    0.7048    3.0343 H   0  0  0  0  0  0  0  0  0  0  0  0
   -1.5848    0.7472    4.7873 C   0  0  0  0  0  0  0  0  0  0  0  0
   -0.8819    1.5774    4.8838 H   0  0  0  0  0  0  0  0  0  0  0  0
   -2.5030    0.9948    5.3214 H   0  0  0  0  0  0  0  0  0  0  0  0
   -1.1344   -0.1399    5.2381 H   0  0  0  0  0  0  0  0  0  0  0  0
  5  6  2  0  0  0  0
  5  7  1  0  0  0  0
  2  3  1  0  0  0  0
  2  4  1  0  0  0  0
  2  5  1  0  0  0  0
  1  2  1  0  0  0  0
 29 30  2  0  0  0  0
 29 31  1  0  0  0  0
 26 27  1  0  0  0  0
 26 28  1  0  0  0  0
 23 24  1  0  0  0  0
 23 25  1  0  0  0  0
 22 23  1  0  0  0  0
 22 26  1  0  0  0  0
 20 21  1  0  0  0  0
 20 22  2  0  0  0  0
 17 18  1  0  0  0  0
 17 19  1  0  0  0  0
 17 20  1  0  0  0  0
 14 15  1  0  0  0  0
 14 16  1  0  0  0  0
 14 17  1  0  0  0  0
 11 12  1  0  0  0  0
 11 13  1  0  0  0  0
 11 14  1  0  0  0  0
  9 10  1  0  0  0  0
  9 11  1  0  0  0  0
  9 29  1  0  0  0  0
  7  8  1  0  0  0  0
  7  9  1  0  0  0  0
 33 34  1  0  0  0  0
 33 35  1  0  0  0  0
 33 36  1  0  0  0  0
 31 32  1  0  0  0  0
 31 33  1  0  0  0  0
M  CHG  1  20   1
M  END
$$$$
default_name
  -OEChem-02102213163D

 36 35  0     1  0  0  0  0  0999 V2000
   -4.2256   -3.6731    1.8584 H   0  0  0  0  0  0  0  0  0  0  0  0
   -4.2396   -2.6781    1.4144 C   0  0  0  0  0  0  0  0  0  0  0  0
   -4.9506   -2.0521    1.9514 H   0  0  0  0  0  0  0  0  0  0  0  0
   -4.5266   -2.7521    0.3674 H   0  0  0  0  0  0  0  0  0  0  0  0
   -2.8576   -2.0761    1.5184 C   0  0  0  0  0  0  0  0  0  0  0  0
   -1.9456   -2.7051    2.0404 O   0  0  0  0  0  0  0  0  0  0  0  0
   -2.6926   -0.8481    1.0174 N   0  0  0  0  0  0  0  0  0  0  0  0
   -3.4926   -0.3971    0.5954 H   0  0  0  0  0  0  0  0  0  0  0  0
   -1.4216   -0.1071    1.0434 C   0  0  1  0  0  0  0  0  0  0  0  0
   -0.6709   -0.6930    0.5106 H   0  0  0  0  0  0  0  0  0  0  0  0
   -1.6221    1.2315    0.3051 C   0  0  0  0  0  0  0  0  0  0  0  0
   -1.9272    1.0207   -0.7218 H   0  0  0  0  0  0  0  0  0  0  0  0
   -2.4260    1.7896    0.7900 H   0  0  0  0  0  0  0  0  0  0  0  0
   -0.3577    2.1021    0.2636 C   0  0  0  0  0  0  0  0  0  0  0  0
   -0.6364    3.1566    0.2415 H   0  0  0  0  0  0  0  0  0  0  0  0
    0.2439    1.9070    1.1519 H   0  0  0  0  0  0  0  0  0  0  0  0
    0.4626    1.7726   -0.9909 C   0  0  0  0  0  0  0  0  0  0  0  0
    0.7144    0.7098   -0.9737 H   0  0  0  0  0  0  0  0  0  0  0  0
   -0.1519    1.9752   -1.8713 H   0  0  0  0  0  0  0  0  0  0  0  0
    1.7033    2.5719   -1.0604 N   0  3  0  0  0  0  0  0  0  0  0  0
    1.8445    3.2510   -0.3322 H   0  0  0  0  0  0  0  0  0  0  0  0
    2.6425    2.4782   -1.9867 C   0  0  0  0  0  0  0  0  0  0  0  0
    2.5596    1.6319   -2.9747 N   0  0  0  0  0  0  0  0  0  0  0  0
    1.7561    1.0315   -3.0313 H   0  0  0  0  0  0  0  0  0  0  0  0
    3.2811    1.5739   -3.6697 H   0  0  0  0  0  0  0  0  0  0  0  0
    3.6957    3.2435   -1.9383 N   0  0  0  0  0  0  0  0  0  0  0  0
    3.8044    3.9118   -1.1949 H   0  0  0  0  0  0  0  0  0  0  0  0
    4.4059    3.1692   -2.6430 H   0  0  0  0  0  0  0  0  0  0  0  0
   -0.9523    0.1012    2.4848 C   0  0  0  0  0  0  0  0  0  0  0  0
    0.2133   -0.1319    2.7814 O   0  0  0  0  0  0  0  0  0  0  0  0
   -1.8684    0.5006    3.3725 N   0  0  0  0  0  0  0  0  0  0  0  0
   -2.7946    0.7048    3.0343 H   0  0  0  0  0  0  0  0  0  0  0  0
   -1.5848    0.7472    4.7873 C   0  0  0  0  0  0  0  0  0  0  0  0
   -0.8819    1.5774    4.8838 H   0  0  0  0  0  0  0  0  0  0  0  0
   -2.5030    0.9948    5.3214 H   0  0  0  0  0  0  0  0  0  0  0  0
   -1.1344   -0.1399    5.2381 H   0  0  0  0  0  0  0  0  0  0  0  0
  5  6  2  0  0  0  0
  5  7  1  0  0  0  0
  2  3  1  0  0  0  0
  2  4  1  0  0  0  0
  2  5  1  0  0  0  0
  1  2  1  0  0  0  0
 29 30  2  0  0  0  0
 29 31  1  0  0  0  0
 26 27  1  0  0  0  0
 26 28  1  0  0  0  0
 23 24  1  0  0  0  0
 23 25  1  0  0  0  0
 22 23  1  0  0  0  0
 22 26  1  0  0  0  0
 20 21  1  0  0  0  0
 20 22  2  0  0  0  0
 17 18  1  0  0  0  0
 17 19  1  0  0  0  0
 17 20  1  0  0  0  0
 14 15  1  0  0  0  0
 14 16  1  0  0  0  0
 14 17  1  0  0  0  0
 11 12  1  0  0  0  0
 11 13  1  0  0  0  0
 11 14  1  0  0  0  0
  9 10  1  0  0  0  0
  9 11  1  0  0  0  0
  9 29  1  0  0  0  0
  7  8  1  0  0  0  0
  7  9  1  0  0  0  0
 33 34  1  0  0  0  0
 33 35  1  0  0  0  0
 33 36  1  0  0  0  0
 31 32  1  0  0  0  0
 31 33  1  0  0  0  0
M  CHG  1  20   1
M  END
$$$$
default_name
  -OEChem-02102213163D

 36 35  0     1  0  0  0  0  0999 V2000
   -4.2256   -3.6731    1.8584 H   0  0  0  0  0  0  0  0  0  0  0  0
   -4.2396   -2.6781    1.4144 C   0  0  0  0  0  0  0  0  0  0  0  0
   -4.9506   -2.0521    1.9514 H   0  0  0  0  0  0  0  0  0  0  0  0
   -4.5266   -2.7521    0.3674 H   0  0  0  0  0  0  0  0  0  0  0  0
   -2.8576   -2.0761    1.5184 C   0  0  0  0  0  0  0  0  0  0  0  0
   -1.9456   -2.7051    2.0404 O   0  0  0  0  0  0  0  0  0  0  0  0
   -2.6926   -0.8481    1.0174 N   0  0  0  0  0  0  0  0  0  0  0  0
   -3.4926   -0.3971    0.5954 H   0  0  0  0  0  0  0  0  0  0  0  0
   -1.4216   -0.1071    1.0434 C   0  0  1  0  0  0  0  0  0  0  0  0
   -0.6709   -0.6930    0.5106 H   0  0  0  0  0  0  0  0  0  0  0  0
   -1.6221    1.2315    0.3051 C   0  0  0  0  0  0  0  0  0  0  0  0
   -1.9272    1.0207   -0.7218 H   0  0  0  0  0  0  0  0  0  0  0  0
   -2.4260    1.7896    0.7900 H   0  0  0  0  0  0  0  0  0  0  0  0
   -0.3577    2.1021    0.2636 C   0  0  0  0  0  0  0  0  0  0  0  0
   -0.6125    3.1344    0.5075 H   0  0  0  0  0  0  0  0  0  0  0  0
    0.3625    1.7272    0.9915 H   0  0  0  0  0  0  0  0  0  0  0  0
    0.2629    2.0556   -1.1392 C   0  0  0  0  0  0  0  0  0  0  0  0
    0.4901    1.0158   -1.3857 H   0  0  0  0  0  0  0  0  0  0  0  0
   -0.4687    2.4360   -1.8559 H   0  0  0  0  0  0  0  0  0  0  0  0
    1.4981    2.8622   -1.2194 N   0  3  0  0  0  0  0  0  0  0  0  0
    1.7596    3.3713   -0.3925 H   0  0  0  0  0  0  0  0  0  0  0  0
    2.2896    2.9770   -2.2727 C   0  0  0  0  0  0  0  0  0  0  0  0
    2.0441    2.3606   -3.3947 N   0  0  0  0  0  0  0  0  0  0  0  0
    1.2274    1.7789   -3.4585 H   0  0  0  0  0  0  0  0  0  0  0  0
    2.6549    2.4588   -4.1847 H   0  0  0  0  0  0  0  0  0  0  0  0
    3.3559    3.7236   -2.2185 N   0  0  0  0  0  0  0  0  0  0  0  0
    3.5872    4.2186   -1.3745 H   0  0  0  0  0  0  0  0  0  0  0  0
    3.9537    3.8078   -3.0198 H   0  0  0  0  0  0  0  0  0  0  0  0
   -0.9523    0.1012    2.4848 C   0  0  0  0  0  0  0  0  0  0  0  0
    0.2133   -0.1319    2.7814 O   0  0  0  0  0  0  0  0  0  0  0  0
   -1.8684    0.5006    3.3725 N   0  0  0  0  0  0  0  0  0  0  0  0
   -2.7946    0.7048    3.0343 H   0  0  0  0  0  0  0  0  0  0  0  0
   -1.5848    0.7472    4.7873 C   0  0  0  0  0  0  0  0  0  0  0  0
   -0.8819    1.5774    4.8838 H   0  0  0  0  0  0  0  0  0  0  0  0
   -2.5030    0.9948    5.3214 H   0  0  0  0  0  0  0  0  0  0  0  0
   -1.1344   -0.1399    5.2381 H   0  0  0  0  0  0  0  0  0  0  0  0
  5  6  2  0  0  0  0
  5  7  1  0  0  0  0
  2  3  1  0  0  0  0
  2  4  1  0  0  0  0
  2  5  1  0  0  0  0
  1  2  1  0  0  0  0
 29 30  2  0  0  0  0
 29 31  1  0  0  0  0
 26 27  1  0  0  0  0
 26 28  1  0  0  0  0
 23 24  1  0  0  0  0
 23 25  1  0  0  0  0
 22 23  1  0  0  0  0
 22 26  1  0  0  0  0
 20 21  1  0  0  0  0
 20 22  2  0  0  0  0
 17 18  1  0  0  0  0
 17 19  1  0  0  0  0
 17 20  1  0  0  0  0
 14 15  1  0  0  0  0
 14 16  1  0  0  0  0
 14 17  1  0  0  0  0
 11 12  1  0  0  0  0
 11 13  1  0  0  0  0
 11 14  1  0  0  0  0
  9 10  1  0  0  0  0
  9 11  1  0  0  0  0
  9 29  1  0  0  0  0
  7  8  1  0  0  0  0
  7  9  1  0  0  0  0
 33 34  1  0  0  0  0
 33 35  1  0  0  0  0
 33 36  1  0  0  0  0
 31 32  1  0  0  0  0
 31 33  1  0  0  0  0
M  CHG  1  20   1
M  END
$$$$
default_name
  -OEChem-02102213163D

 36 35  0     1  0  0  0  0  0999 V2000
   -4.2256   -3.6731    1.8584 H   0  0  0  0  0  0  0  0  0  0  0  0
   -4.2396   -2.6781    1.4144 C   0  0  0  0  0  0  0  0  0  0  0  0
   -4.9506   -2.0521    1.9514 H   0  0  0  0  0  0  0  0  0  0  0  0
   -4.5266   -2.7521    0.3674 H   0  0  0  0  0  0  0  0  0  0  0  0
   -2.8576   -2.0761    1.5184 C   0  0  0  0  0  0  0  0  0  0  0  0
   -1.9456   -2.7051    2.0404 O   0  0  0  0  0  0  0  0  0  0  0  0
   -2.6926   -0.8481    1.0174 N   0  0  0  0  0  0  0  0  0  0  0  0
   -3.4926   -0.3971    0.5954 H   0  0  0  0  0  0  0  0  0  0  0  0
   -1.4216   -0.1071    1.0434 C   0  0  1  0  0  0  0  0  0  0  0  0
   -0.6709   -0.6930    0.5106 H   0  0  0  0  0  0  0  0  0  0  0  0
   -1.6221    1.2315    0.3051 C   0  0  0  0  0  0  0  0  0  0  0  0
   -1.9272    1.0207   -0.7218 H   0  0  0  0  0  0  0  0  0  0  0  0
   -2.4260    1.7896    0.7900 H   0  0  0  0  0  0  0  0  0  0  0  0
   -0.3577    2.1021    0.2636 C   0  0  0  0  0  0  0  0  0  0  0  0
   -0.5504    3.0562    0.7562 H   0  0  0  0  0  0  0  0  0  0  0  0
    0.4523    1.5868    0.7807 H   0  0  0  0  0  0  0  0  0  0  0  0
    0.0503    2.3618   -1.1929 C   0  0  0  0  0  0  0  0  0  0  0  0
    0.2152    1.4008   -1.6855 H   0  0  0  0  0  0  0  0  0  0  0  0
   -0.7693    2.8800   -1.6964 H   0  0  0  0  0  0  0  0  0  0  0  0
    1.2787    3.1779   -1.2811 N   0  3  0  0  0  0  0  0  0  0  0  0
    1.6697    3.5010   -0.4127 H   0  0  0  0  0  0  0  0  0  0  0  0
    1.9104    3.5221   -2.3908 C   0  0  0  0  0  0  0  0  0  0  0  0
    1.4896    3.1575   -3.5695 N   0  0  0  0  0  0  0  0  0  0  0  0
    0.6592    2.5956   -3.6343 H   0  0  0  0  0  0  0  0  0  0  0  0
    1.9807    3.4276   -4.4018 H   0  0  0  0  0  0  0  0  0  0  0  0
    2.9899    4.2494   -2.3371 N   0  0  0  0  0  0  0  0  0  0  0  0
    3.3532    4.5547   -1.4506 H   0  0  0  0  0  0  0  0  0  0  0  0
    3.4661    4.5082   -3.1814 H   0  0  0  0  0  0  0  0  0  0  0  0
   -0.9523    0.1012    2.4848 C   0  0  0  0  0  0  0  0  0  0  0  0
    0.2133   -0.1319    2.7814 O   0  0  0  0  0  0  0  0  0  0  0  0
   -1.8684    0.5006    3.3725 N   0  0  0  0  0  0  0  0  0  0  0  0
   -2.7946    0.7048    3.0343 H   0  0  0  0  0  0  0  0  0  0  0  0
   -1.5848    0.7472    4.7873 C   0  0  0  0  0  0  0  0  0  0  0  0
   -0.8819    1.5774    4.8838 H   0  0  0  0  0  0  0  0  0  0  0  0
   -2.5030    0.9948    5.3214 H   0  0  0  0  0  0  0  0  0  0  0  0
   -1.1344   -0.1399    5.2381 H   0  0  0  0  0  0  0  0  0  0  0  0
  5  6  2  0  0  0  0
  5  7  1  0  0  0  0
  2  3  1  0  0  0  0
  2  4  1  0  0  0  0
  2  5  1  0  0  0  0
  1  2  1  0  0  0  0
 29 30  2  0  0  0  0
 29 31  1  0  0  0  0
 26 27  1  0  0  0  0
 26 28  1  0  0  0  0
 23 24  1  0  0  0  0
 23 25  1  0  0  0  0
 22 23  1  0  0  0  0
 22 26  1  0  0  0  0
 20 21  1  0  0  0  0
 20 22  2  0  0  0  0
 17 18  1  0  0  0  0
 17 19  1  0  0  0  0
 17 20  1  0  0  0  0
 14 15  1  0  0  0  0
 14 16  1  0  0  0  0
 14 17  1  0  0  0  0
 11 12  1  0  0  0  0
 11 13  1  0  0  0  0
 11 14  1  0  0  0  0
  9 10  1  0  0  0  0
  9 11  1  0  0  0  0
  9 29  1  0  0  0  0
  7  8  1  0  0  0  0
  7  9  1  0  0  0  0
 33 34  1  0  0  0  0
 33 35  1  0  0  0  0
 33 36  1  0  0  0  0
 31 32  1  0  0  0  0
 31 33  1  0  0  0  0
M  CHG  1  20   1
M  END
$$$$
default_name
  -OEChem-02102213163D

 36 35  0     1  0  0  0  0  0999 V2000
   -4.2256   -3.6731    1.8584 H   0  0  0  0  0  0  0  0  0  0  0  0
   -4.2396   -2.6781    1.4144 C   0  0  0  0  0  0  0  0  0  0  0  0
   -4.9506   -2.0521    1.9514 H   0  0  0  0  0  0  0  0  0  0  0  0
   -4.5266   -2.7521    0.3674 H   0  0  0  0  0  0  0  0  0  0  0  0
   -2.8576   -2.0761    1.5184 C   0  0  0  0  0  0  0  0  0  0  0  0
   -1.9456   -2.7051    2.0404 O   0  0  0  0  0  0  0  0  0  0  0  0
   -2.6926   -0.8481    1.0174 N   0  0  0  0  0  0  0  0  0  0  0  0
   -3.4926   -0.3971    0.5954 H   0  0  0  0  0  0  0  0  0  0  0  0
   -1.4216   -0.1071    1.0434 C   0  0  1  0  0  0  0  0  0  0  0  0
   -0.6709   -0.6930    0.5106 H   0  0  0  0  0  0  0  0  0  0  0  0
   -1.6221    1.2315    0.3051 C   0  0  0  0  0  0  0  0  0  0  0  0
   -1.9272    1.0207   -0.7218 H   0  0  0  0  0  0  0  0  0  0  0  0
   -2.4260    1.7896    0.7900 H   0  0  0  0  0  0  0  0  0  0  0  0
   -0.3577    2.1021    0.2636 C   0  0  0  0  0  0  0  0  0  0  0  0
   -0.4546    2.9272    0.9707 H   0  0  0  0  0  0  0  0  0  0  0  0
    0.5071    1.4955    0.5341 H   0  0  0  0  0  0  0  0  0  0  0  0
   -0.1609    2.6706   -1.1483 C   0  0  0  0  0  0  0  0  0  0  0  0
   -0.0917    1.8385   -1.8527 H   0  0  0  0  0  0  0  0  0  0  0  0
   -1.0331    3.2771   -1.4036 H   0  0  0  0  0  0  0  0  0  0  0  0
    1.0598    3.4976   -1.2412 N   0  3  0  0  0  0  0  0  0  0  0  0
    1.5807    3.6312   -0.3913 H   0  0  0  0  0  0  0  0  0  0  0  0
    1.5305    4.0765   -2.3331 C   0  0  0  0  0  0  0  0  0  0  0  0
    0.9340    3.9683   -3.4871 N   0  0  0  0  0  0  0  0  0  0  0  0
    0.0904    3.4259   -3.5466 H   0  0  0  0  0  0  0  0  0  0  0  0
    1.3043    4.4144   -4.3061 H   0  0  0  0  0  0  0  0  0  0  0  0
    2.6227    4.7852   -2.2858 N   0  0  0  0  0  0  0  0  0  0  0  0
    3.1184    4.8973   -1.4183 H   0  0  0  0  0  0  0  0  0  0  0  0
    2.9763    5.2226   -3.1166 H   0  0  0  0  0  0  0  0  0  0  0  0
   -0.9523    0.1012    2.4848 C   0  0  0  0  0  0  0  0  0  0  0  0
    0.2133   -0.1319    2.7814 O   0  0  0  0  0  0  0  0  0  0  0  0
   -1.8684    0.5006    3.3725 N   0  0  0  0  0  0  0  0  0  0  0  0
   -2.7946    0.7048    3.0343 H   0  0  0  0  0  0  0  0  0  0  0  0
   -1.5848    0.7472    4.7873 C   0  0  0  0  0  0  0  0  0  0  0  0
   -0.8819    1.5774    4.8838 H   0  0  0  0  0  0  0  0  0  0  0  0
   -2.5030    0.9948    5.3214 H   0  0  0  0  0  0  0  0  0  0  0  0
   -1.1344   -0.1399    5.2381 H   0  0  0  0  0  0  0  0  0  0  0  0
  5  6  2  0  0  0  0
  5  7  1  0  0  0  0
  2  3  1  0  0  0  0
  2  4  1  0  0  0  0
  2  5  1  0  0  0  0
  1  2  1  0  0  0  0
 29 30  2  0  0  0  0
 29 31  1  0  0  0  0
 26 27  1  0  0  0  0
 26 28  1  0  0  0  0
 23 24  1  0  0  0  0
 23 25  1  0  0  0  0
 22 23  1  0  0  0  0
 22 26  1  0  0  0  0
 20 21  1  0  0  0  0
 20 22  2  0  0  0  0
 17 18  1  0  0  0  0
 17 19  1  0  0  0  0
 17 20  1  0  0  0  0
 14 15  1  0  0  0  0
 14 16  1  0  0  0  0
 14 17  1  0  0  0  0
 11 12  1  0  0  0  0
 11 13  1  0  0  0  0
 11 14  1  0  0  0  0
  9 10  1  0  0  0  0
  9 11  1  0  0  0  0
  9 29  1  0  0  0  0
  7  8  1  0  0  0  0
  7  9  1  0  0  0  0
 33 34  1  0  0  0  0
 33 35  1  0  0  0  0
 33 36  1  0  0  0  0
 31 32  1  0  0  0  0
 31 33  1  0  0  0  0
M  CHG  1  20   1
M  END
$$$$
default_name
  -OEChem-02102213163D

 36 35  0     1  0  0  0  0  0999 V2000
   -4.2256   -3.6731    1.8584 H   0  0  0  0  0  0  0  0  0  0  0  0
   -4.2396   -2.6781    1.4144 C   0  0  0  0  0  0  0  0  0  0  0  0
   -4.9506   -2.0521    1.9514 H   0  0  0  0  0  0  0  0  0  0  0  0
   -4.5266   -2.7521    0.3674 H   0  0  0  0  0  0  0  0  0  0  0  0
   -2.8576   -2.0761    1.5184 C   0  0  0  0  0  0  0  0  0  0  0  0
   -1.9456   -2.7051    2.0404 O   0  0  0  0  0  0  0  0  0  0  0  0
   -2.6926   -0.8481    1.0174 N   0  0  0  0  0  0  0  0  0  0  0  0
   -3.4926   -0.3971    0.5954 H   0  0  0  0  0  0  0  0  0  0  0  0
   -1.4216   -0.1071    1.0434 C   0  0  1  0  0  0  0  0  0  0  0  0
   -0.6709   -0.6930    0.5106 H   0  0  0  0  0  0  0  0  0  0  0  0
   -1.6221    1.2315    0.3051 C   0  0  0  0  0  0  0  0  0  0  0  0
   -1.9272    1.0207   -0.7218 H   0  0  0  0  0  0  0  0  0  0  0  0
   -2.4260    1.7896    0.7900 H   0  0  0  0  0  0  0  0  0  0  0  0
   -0.3577    2.1021    0.2636 C   0  0  0  0  0  0  0  0  0  0  0  0
   -0.3314    2.7562    1.1363 H   0  0  0  0  0  0  0  0  0  0  0  0
    0.5232    1.4594    0.2684 H   0  0  0  0  0  0  0  0  0  0  0  0
   -0.3561    2.9608   -1.0084 C   0  0  0  0  0  0  0  0  0  0  0  0
   -0.4096    2.2990   -1.8759 H   0  0  0  0  0  0  0  0  0  0  0  0
   -1.2421    3.6000   -0.9975 H   0  0  0  0  0  0  0  0  0  0  0  0
    0.8566    3.7994   -1.1024 N   0  3  0  0  0  0  0  0  0  0  0  0
    1.4988    3.7530   -0.3299 H   0  0  0  0  0  0  0  0  0  0  0  0
    1.1759    4.6024   -2.1035 C   0  0  0  0  0  0  0  0  0  0  0  0
    0.4150    4.7379   -3.1532 N   0  0  0  0  0  0  0  0  0  0  0  0
   -0.4405    4.2132   -3.2016 H   0  0  0  0  0  0  0  0  0  0  0  0
    0.6719    5.3519   -3.9041 H   0  0  0  0  0  0  0  0  0  0  0  0
    2.2792    5.2943   -2.0683 N   0  0  0  0  0  0  0  0  0  0  0  0
    2.8987    5.2229   -1.2796 H   0  0  0  0  0  0  0  0  0  0  0  0
    2.5177    5.9022   -2.8300 H   0  0  0  0  0  0  0  0  0  0  0  0
   -0.9523    0.1012    2.4848 C   0  0  0  0  0  0  0  0  0  0  0  0
    0.2133   -0.1319    2.7814 O   0  0  0  0  0  0  0  0  0  0  0  0
   -1.8684    0.5006    3.3725 N   0  0  0  0  0  0  0  0  0  0  0  0
   -2.7946    0.7048    3.0343 H   0  0  0  0  0  0  0  0  0  0  0  0
   -1.5848    0.7472    4.7873 C   0  0  0  0  0  0  0  0  0  0  0  0
   -0.8819    1.5774    4.8838 H   0  0  0  0  0  0  0  0  0  0  0  0
   -2.5030    0.9948    5.3214 H   0  0  0  0  0  0  0  0  0  0  0  0
   -1.1344   -0.1399    5.2381 H   0  0  0  0  0  0  0  0  0  0  0  0
  5  6  2  0  0  0  0
  5  7  1  0  0  0  0
  2  3  1  0  0  0  0
  2  4  1  0  0  0  0
  2  5  1  0  0  0  0
  1  2  1  0  0  0  0
 29 30  2  0  0  0  0
 29 31  1  0  0  0  0
 26 27  1  0  0  0  0
 26 28  1  0  0  0  0
 23 24  1  0  0  0  0
 23 25  1  0  0  0  0
 22 23  1  0  0  0  0
 22 26  1  0  0  0  0
 20 21  1  0  0  0  0
 20 22  2  0  0  0  0
 17 18  1  0  0  0  0
 17 19  1  0  0  0  0
 17 20  1  0  0  0  0
 14 15  1  0  0  0  0
 14 16  1  0  0  0  0
 14 17  1  0  0  0  0
 11 12  1  0  0  0  0
 11 13  1  0  0  0  0
 11 14  1  0  0  0  0
  9 10  1  0  0  0  0
  9 11  1  0  0  0  0
  9 29  1  0  0  0  0
  7  8  1  0  0  0  0
  7  9  1  0  0  0  0
 33 34  1  0  0  0  0
 33 35  1  0  0  0  0
 33 36  1  0  0  0  0
 31 32  1  0  0  0  0
 31 33  1  0  0  0  0
M  CHG  1  20   1
M  END
$$$$
default_name
  -OEChem-02102213163D

 36 35  0     1  0  0  0  0  0999 V2000
   -4.2256   -3.6731    1.8584 H   0  0  0  0  0  0  0  0  0  0  0  0
   -4.2396   -2.6781    1.4144 C   0  0  0  0  0  0  0  0  0  0  0  0
   -4.9506   -2.0521    1.9514 H   0  0  0  0  0  0  0  0  0  0  0  0
   -4.5266   -2.7521    0.3674 H   0  0  0  0  0  0  0  0  0  0  0  0
   -2.8576   -2.0761    1.5184 C   0  0  0  0  0  0  0  0  0  0  0  0
   -1.9456   -2.7051    2.0404 O   0  0  0  0  0  0  0  0  0  0  0  0
   -2.6926   -0.8481    1.0174 N   0  0  0  0  0  0  0  0  0  0  0  0
   -3.4926   -0.3971    0.5954 H   0  0  0  0  0  0  0  0  0  0  0  0
   -1.4216   -0.1071    1.0434 C   0  0  1  0  0  0  0  0  0  0  0  0
   -0.6709   -0.6930    0.5106 H   0  0  0  0  0  0  0  0  0  0  0  0
   -1.6221    1.2315    0.3051 C   0  0  0  0  0  0  0  0  0  0  0  0
   -1.9272    1.0207   -0.7218 H   0  0  0  0  0  0  0  0  0  0  0  0
   -2.4260    1.7896    0.7900 H   0  0  0  0  0  0  0  0  0  0  0  0
   -0.3577    2.1021    0.2636 C   0  0  0  0  0  0  0  0  0  0  0  0
   -0.1893    2.5549    1.2417 H   0  0  0  0  0  0  0  0  0  0  0  0
    0.4995    1.4811    0.0017 H   0  0  0  0  0  0  0  0  0  0  0  0
   -0.5222    3.2127   -0.7828 C   0  0  0  0  0  0  0  0  0  0  0  0
   -0.7168    2.7510   -1.7536 H   0  0  0  0  0  0  0  0  0  0  0  0
   -1.3822    3.8269   -0.5057 H   0  0  0  0  0  0  0  0  0  0  0  0
    0.6827    4.0628   -0.8742 N   0  3  0  0  0  0  0  0  0  0  0  0
    1.4296    3.8582   -0.2326 H   0  0  0  0  0  0  0  0  0  0  0  0
    0.8708    5.0639   -1.7176 C   0  0  0  0  0  0  0  0  0  0  0  0
   -0.0319    5.4137   -2.5906 N   0  0  0  0  0  0  0  0  0  0  0  0
   -0.8971    4.9039   -2.6227 H   0  0  0  0  0  0  0  0  0  0  0  0
    0.1266    6.1762   -3.2233 H   0  0  0  0  0  0  0  0  0  0  0  0
    1.9830    5.7421   -1.6993 N   0  0  0  0  0  0  0  0  0  0  0  0
    2.7092    5.5094   -1.0439 H   0  0  0  0  0  0  0  0  0  0  0  0
    2.1216    6.5008   -2.3410 H   0  0  0  0  0  0  0  0  0  0  0  0
   -0.9523    0.1012    2.4848 C   0  0  0  0  0  0  0  0  0  0  0  0
    0.2133   -0.1319    2.7814 O   0  0  0  0  0  0  0  0  0  0  0  0
   -1.8684    0.5006    3.3725 N   0  0  0  0  0  0  0  0  0  0  0  0
   -2.7946    0.7048    3.0343 H   0  0  0  0  0  0  0  0  0  0  0  0
   -1.5848    0.7472    4.7873 C   0  0  0  0  0  0  0  0  0  0  0  0
   -0.8819    1.5774    4.8838 H   0  0  0  0  0  0  0  0  0  0  0  0
   -2.5030    0.9948    5.3214 H   0  0  0  0  0  0  0  0  0  0  0  0
   -1.1344   -0.1399    5.2381 H   0  0  0  0  0  0  0  0  0  0  0  0
  5  6  2  0  0  0  0
  5  7  1  0  0  0  0
  2  3  1  0  0  0  0
  2  4  1  0  0  0  0
  2  5  1  0  0  0  0
  1  2  1  0  0  0  0
 29 30  2  0  0  0  0
 29 31  1  0  0  0  0
 26 27  1  0  0  0  0
 26 28  1  0  0  0  0
 23 24  1  0  0  0  0
 23 25  1  0  0  0  0
 22 23  1  0  0  0  0
 22 26  1  0  0  0  0
 20 21  1  0  0  0  0
 20 22  2  0  0  0  0
 17 18  1  0  0  0  0
 17 19  1  0  0  0  0
 17 20  1  0  0  0  0
 14 15  1  0  0  0  0
 14 16  1  0  0  0  0
 14 17  1  0  0  0  0
 11 12  1  0  0  0  0
 11 13  1  0  0  0  0
 11 14  1  0  0  0  0
  9 10  1  0  0  0  0
  9 11  1  0  0  0  0
  9 29  1  0  0  0  0
  7  8  1  0  0  0  0
  7  9  1  0  0  0  0
 33 34  1  0  0  0  0
 33 35  1  0  0  0  0
 33 36  1  0  0  0  0
 31 32  1  0  0  0  0
 31 33  1  0  0  0  0
M  CHG  1  20   1
M  END
$$$$
default_name
  -OEChem-02102213163D

 36 35  0     1  0  0  0  0  0999 V2000
   -4.2256   -3.6731    1.8584 H   0  0  0  0  0  0  0  0  0  0  0  0
   -4.2396   -2.6781    1.4144 C   0  0  0  0  0  0  0  0  0  0  0  0
   -4.9506   -2.0521    1.9514 H   0  0  0  0  0  0  0  0  0  0  0  0
   -4.5266   -2.7521    0.3674 H   0  0  0  0  0  0  0  0  0  0  0  0
   -2.8576   -2.0761    1.5184 C   0  0  0  0  0  0  0  0  0  0  0  0
   -1.9456   -2.7051    2.0404 O   0  0  0  0  0  0  0  0  0  0  0  0
   -2.6926   -0.8481    1.0174 N   0  0  0  0  0  0  0  0  0  0  0  0
   -3.4926   -0.3971    0.5954 H   0  0  0  0  0  0  0  0  0  0  0  0
   -1.4216   -0.1071    1.0434 C   0  0  1  0  0  0  0  0  0  0  0  0
   -0.6709   -0.6930    0.5106 H   0  0  0  0  0  0  0  0  0  0  0  0
   -1.6221    1.2315    0.3051 C   0  0  0  0  0  0  0  0  0  0  0  0
   -2.1753    1.0414   -0.6168 H   0  0  0  0  0  0  0  0  0  0  0  0
   -2.2221    1.8971    0.9295 H   0  0  0  0  0  0  0  0  0  0  0  0
   -0.3049    1.9325   -0.0583 C   0  0  0  0  0  0  0  0  0  0  0  0
    0.2628    2.1443    0.8488 H   0  0  0  0  0  0  0  0  0  0  0  0
    0.2825    1.2823   -0.7074 H   0  0  0  0  0  0  0  0  0  0  0  0
   -0.5985    3.2509   -0.7871 C   0  0  0  0  0  0  0  0  0  0  0  0
   -1.1896    3.0320   -1.6793 H   0  0  0  0  0  0  0  0  0  0  0  0
   -1.1848    3.8915   -0.1241 H   0  0  0  0  0  0  0  0  0  0  0  0
    0.6432    3.9496   -1.1779 N   0  3  0  0  0  0  0  0  0  0  0  0
    1.5092    3.5255   -0.8925 H   0  0  0  0  0  0  0  0  0  0  0  0
    0.7226    5.0765   -1.8656 C   0  0  0  0  0  0  0  0  0  0  0  0
   -0.3375    5.7092   -2.2842 N   0  0  0  0  0  0  0  0  0  0  0  0
   -1.2428    5.3257   -2.0777 H   0  0  0  0  0  0  0  0  0  0  0  0
   -0.2597    6.5636   -2.8046 H   0  0  0  0  0  0  0  0  0  0  0  0
    1.8831    5.5964   -2.1486 N   0  0  0  0  0  0  0  0  0  0  0  0
    2.7293    5.1446   -1.8473 H   0  0  0  0  0  0  0  0  0  0  0  0
    1.9388    6.4514   -2.6706 H   0  0  0  0  0  0  0  0  0  0  0  0
   -0.9523    0.1012    2.4848 C   0  0  0  0  0  0  0  0  0  0  0  0
    0.2133   -0.1319    2.7814 O   0  0  0  0  0  0  0  0  0  0  0  0
   -1.8684    0.5006    3.3725 N   0  0  0  0  0  0  0  0  0  0  0  0
   -2.7946    0.7048    3.0343 H   0  0  0  0  0  0  0  0  0  0  0  0
   -1.5848    0.7472    4.7873 C   0  0  0  0  0  0  0  0  0  0  0  0
   -0.8819    1.5774    4.8838 H   0  0  0  0  0  0  0  0  0  0  0  0
   -2.5030    0.9948    5.3214 H   0  0  0  0  0  0  0  0  0  0  0  0
   -1.1344   -0.1399    5.2381 H   0  0  0  0  0  0  0  0  0  0  0  0
  5  6  2  0  0  0  0
  5  7  1  0  0  0  0
  2  3  1  0  0  0  0
  2  4  1  0  0  0  0
  2  5  1  0  0  0  0
  1  2  1  0  0  0  0
 29 30  2  0  0  0  0
 29 31  1  0  0  0  0
 26 27  1  0  0  0  0
 26 28  1  0  0  0  0
 23 24  1  0  0  0  0
 23 25  1  0  0  0  0
 22 23  1  0  0  0  0
 22 26  1  0  0  0  0
 20 21  1  0  0  0  0
 20 22  2  0  0  0  0
 17 18  1  0  0  0  0
 17 19  1  0  0  0  0
 17 20  1  0  0  0  0
 14 15  1  0  0  0  0
 14 16  1  0  0  0  0
 14 17  1  0  0  0  0
 11 12  1  0  0  0  0
 11 13  1  0  0  0  0
 11 14  1  0  0  0  0
  9 10  1  0  0  0  0
  9 11  1  0  0  0  0
  9 29  1  0  0  0  0
  7  8  1  0  0  0  0
  7  9  1  0  0  0  0
 33 34  1  0  0  0  0
 33 35  1  0  0  0  0
 33 36  1  0  0  0  0
 31 32  1  0  0  0  0
 31 33  1  0  0  0  0
M  CHG  1  20   1
M  END
$$$$
default_name
  -OEChem-02102213163D

 36 35  0     1  0  0  0  0  0999 V2000
   -4.2256   -3.6731    1.8584 H   0  0  0  0  0  0  0  0  0  0  0  0
   -4.2396   -2.6781    1.4144 C   0  0  0  0  0  0  0  0  0  0  0  0
   -4.9506   -2.0521    1.9514 H   0  0  0  0  0  0  0  0  0  0  0  0
   -4.5266   -2.7521    0.3674 H   0  0  0  0  0  0  0  0  0  0  0  0
   -2.8576   -2.0761    1.5184 C   0  0  0  0  0  0  0  0  0  0  0  0
   -1.9456   -2.7051    2.0404 O   0  0  0  0  0  0  0  0  0  0  0  0
   -2.6926   -0.8481    1.0174 N   0  0  0  0  0  0  0  0  0  0  0  0
   -3.4926   -0.3971    0.5954 H   0  0  0  0  0  0  0  0  0  0  0  0
   -1.4216   -0.1071    1.0434 C   0  0  1  0  0  0  0  0  0  0  0  0
   -0.6709   -0.6930    0.5106 H   0  0  0  0  0  0  0  0  0  0  0  0
   -1.6221    1.2315    0.3051 C   0  0  0  0  0  0  0  0  0  0  0  0
   -2.1753    1.0414   -0.6168 H   0  0  0  0  0  0  0  0  0  0  0  0
   -2.2221    1.8971    0.9295 H   0  0  0  0  0  0  0  0  0  0  0  0
   -0.3049    1.9325   -0.0583 C   0  0  0  0  0  0  0  0  0  0  0  0
    0.3744    1.9067    0.7949 H   0  0  0  0  0  0  0  0  0  0  0  0
    0.1565    1.4182   -0.9019 H   0  0  0  0  0  0  0  0  0  0  0  0
   -0.5785    3.3938   -0.4391 C   0  0  0  0  0  0  0  0  0  0  0  0
   -1.2799    3.4105   -1.2764 H   0  0  0  0  0  0  0  0  0  0  0  0
   -1.0380    3.8957    0.4157 H   0  0  0  0  0  0  0  0  0  0  0  0
    0.6606    4.1024   -0.8200 N   0  3  0  0  0  0  0  0  0  0  0  0
    1.5189    3.5838   -0.7448 H   0  0  0  0  0  0  0  0  0  0  0  0
    0.7468    5.3503   -1.2496 C   0  0  0  0  0  0  0  0  0  0  0  0
   -0.3030    6.1112   -1.3840 N   0  0  0  0  0  0  0  0  0  0  0  0
   -1.2059    5.7348   -1.1547 H   0  0  0  0  0  0  0  0  0  0  0  0
   -0.2200    7.0562   -1.7110 H   0  0  0  0  0  0  0  0  0  0  0  0
    1.9042    5.8645   -1.5551 N   0  0  0  0  0  0  0  0  0  0  0  0
    2.7426    5.3163   -1.4680 H   0  0  0  0  0  0  0  0  0  0  0  0
    1.9652    6.8115   -1.8806 H   0  0  0  0  0  0  0  0  0  0  0  0
   -0.9523    0.1012    2.4848 C   0  0  0  0  0  0  0  0  0  0  0  0
    0.2133   -0.1319    2.7814 O   0  0  0  0  0  0  0  0  0  0  0  0
   -1.8684    0.5006    3.3725 N   0  0  0  0  0  0  0  0  0  0  0  0
   -2.7946    0.7048    3.0343 H   0  0  0  0  0  0  0  0  0  0  0  0
   -1.5848    0.7472    4.7873 C   0  0  0  0  0  0  0  0  0  0  0  0
   -0.8819    1.5774    4.8838 H   0  0  0  0  0  0  0  0  0  0  0  0
   -2.5030    0.9948    5.3214 H   0  0  0  0  0  0  0  0  0  0  0  0
   -1.1344   -0.1399    5.2381 H   0  0  0  0  0  0  0  0  0  0  0  0
  5  6  2  0  0  0  0
  5  7  1  0  0  0  0
  2  3  1  0  0  0  0
  2  4  1  0  0  0  0
  2  5  1  0  0  0  0
  1  2  1  0  0  0  0
 29 30  2  0  0  0  0
 29 31  1  0  0  0  0
 26 27  1  0  0  0  0
 26 28  1  0  0  0  0
 23 24  1  0  0  0  0
 23 25  1  0  0  0  0
 22 23  1  0  0  0  0
 22 26  1  0  0  0  0
 20 21  1  0  0  0  0
 20 22  2  0  0  0  0
 17 18  1  0  0  0  0
 17 19  1  0  0  0  0
 17 20  1  0  0  0  0
 14 15  1  0  0  0  0
 14 16  1  0  0  0  0
 14 17  1  0  0  0  0
 11 12  1  0  0  0  0
 11 13  1  0  0  0  0
 11 14  1  0  0  0  0
  9 10  1  0  0  0  0
  9 11  1  0  0  0  0
  9 29  1  0  0  0  0
  7  8  1  0  0  0  0
  7  9  1  0  0  0  0
 33 34  1  0  0  0  0
 33 35  1  0  0  0  0
 33 36  1  0  0  0  0
 31 32  1  0  0  0  0
 31 33  1  0  0  0  0
M  CHG  1  20   1
M  END
$$$$
default_name
  -OEChem-02102213163D

 36 35  0     1  0  0  0  0  0999 V2000
   -4.2256   -3.6731    1.8584 H   0  0  0  0  0  0  0  0  0  0  0  0
   -4.2396   -2.6781    1.4144 C   0  0  0  0  0  0  0  0  0  0  0  0
   -4.9506   -2.0521    1.9514 H   0  0  0  0  0  0  0  0  0  0  0  0
   -4.5266   -2.7521    0.3674 H   0  0  0  0  0  0  0  0  0  0  0  0
   -2.8576   -2.0761    1.5184 C   0  0  0  0  0  0  0  0  0  0  0  0
   -1.9456   -2.7051    2.0404 O   0  0  0  0  0  0  0  0  0  0  0  0
   -2.6926   -0.8481    1.0174 N   0  0  0  0  0  0  0  0  0  0  0  0
   -3.4926   -0.3971    0.5954 H   0  0  0  0  0  0  0  0  0  0  0  0
   -1.4216   -0.1071    1.0434 C   0  0  1  0  0  0  0  0  0  0  0  0
   -0.6709   -0.6930    0.5106 H   0  0  0  0  0  0  0  0  0  0  0  0
   -1.6221    1.2315    0.3051 C   0  0  0  0  0  0  0  0  0  0  0  0
   -2.1753    1.0414   -0.6168 H   0  0  0  0  0  0  0  0  0  0  0  0
   -2.2221    1.8971    0.9295 H   0  0  0  0  0  0  0  0  0  0  0  0
   -0.3049    1.9325   -0.0583 C   0  0  0  0  0  0  0  0  0  0  0  0
    0.4612    1.6823    0.6769 H   0  0  0  0  0  0  0  0  0  0  0  0
    0.0202    1.6004   -1.0448 H   0  0  0  0  0  0  0  0  0  0  0  0
   -0.5094    3.4535   -0.0736 C   0  0  0  0  0  0  0  0  0  0  0  0
   -1.2964    3.6923   -0.7927 H   0  0  0  0  0  0  0  0  0  0  0  0
   -0.8322    3.7708    0.9207 H   0  0  0  0  0  0  0  0  0  0  0  0
    0.7291    4.1695   -0.4426 N   0  3  0  0  0  0  0  0  0  0  0  0
    1.5493    3.6068   -0.5903 H   0  0  0  0  0  0  0  0  0  0  0  0
    0.8598    5.4765   -0.5967 C   0  0  0  0  0  0  0  0  0  0  0  0
   -0.1388    6.2975   -0.4294 N   0  0  0  0  0  0  0  0  0  0  0  0
   -1.0360    5.9228   -0.1767 H   0  0  0  0  0  0  0  0  0  0  0  0
   -0.0224    7.2869   -0.5499 H   0  0  0  0  0  0  0  0  0  0  0  0
    2.0112    5.9903   -0.9248 N   0  0  0  0  0  0  0  0  0  0  0  0
    2.8108    5.3971   -1.0651 H   0  0  0  0  0  0  0  0  0  0  0  0
    2.1060    6.9823   -1.0408 H   0  0  0  0  0  0  0  0  0  0  0  0
   -0.9523    0.1012    2.4848 C   0  0  0  0  0  0  0  0  0  0  0  0
    0.2133   -0.1319    2.7814 O   0  0  0  0  0  0  0  0  0  0  0  0
   -1.8684    0.5006    3.3725 N   0  0  0  0  0  0  0  0  0  0  0  0
   -2.7946    0.7048    3.0343 H   0  0  0  0  0  0  0  0  0  0  0  0
   -1.5848    0.7472    4.7873 C   0  0  0  0  0  0  0  0  0  0  0  0
   -0.8819    1.5774    4.8838 H   0  0  0  0  0  0  0  0  0  0  0  0
   -2.5030    0.9948    5.3214 H   0  0  0  0  0  0  0  0  0  0  0  0
   -1.1344   -0.1399    5.2381 H   0  0  0  0  0  0  0  0  0  0  0  0
  5  6  2  0  0  0  0
  5  7  1  0  0  0  0
  2  3  1  0  0  0  0
  2  4  1  0  0  0  0
  2  5  1  0  0  0  0
  1  2  1  0  0  0  0
 29 30  2  0  0  0  0
 29 31  1  0  0  0  0
 26 27  1  0  0  0  0
 26 28  1  0  0  0  0
 23 24  1  0  0  0  0
 23 25  1  0  0  0  0
 22 23  1  0  0  0  0
 22 26  1  0  0  0  0
 20 21  1  0  0  0  0
 20 22  2  0  0  0  0
 17 18  1  0  0  0  0
 17 19  1  0  0  0  0
 17 20  1  0  0  0  0
 14 15  1  0  0  0  0
 14 16  1  0  0  0  0
 14 17  1  0  0  0  0
 11 12  1  0  0  0  0
 11 13  1  0  0  0  0
 11 14  1  0  0  0  0
  9 10  1  0  0  0  0
  9 11  1  0  0  0  0
  9 29  1  0  0  0  0
  7  8  1  0  0  0  0
  7  9  1  0  0  0  0
 33 34  1  0  0  0  0
 33 35  1  0  0  0  0
 33 36  1  0  0  0  0
 31 32  1  0  0  0  0
 31 33  1  0  0  0  0
M  CHG  1  20   1
M  END
$$$$
default_name
  -OEChem-02102213163D

 36 35  0     1  0  0  0  0  0999 V2000
   -4.2256   -3.6731    1.8584 H   0  0  0  0  0  0  0  0  0  0  0  0
   -4.2396   -2.6781    1.4144 C   0  0  0  0  0  0  0  0  0  0  0  0
   -4.9506   -2.0521    1.9514 H   0  0  0  0  0  0  0  0  0  0  0  0
   -4.5266   -2.7521    0.3674 H   0  0  0  0  0  0  0  0  0  0  0  0
   -2.8576   -2.0761    1.5184 C   0  0  0  0  0  0  0  0  0  0  0  0
   -1.9456   -2.7051    2.0404 O   0  0  0  0  0  0  0  0  0  0  0  0
   -2.6926   -0.8481    1.0174 N   0  0  0  0  0  0  0  0  0  0  0  0
   -3.4926   -0.3971    0.5954 H   0  0  0  0  0  0  0  0  0  0  0  0
   -1.4216   -0.1071    1.0434 C   0  0  1  0  0  0  0  0  0  0  0  0
   -0.6709   -0.6930    0.5106 H   0  0  0  0  0  0  0  0  0  0  0  0
   -1.6221    1.2315    0.3051 C   0  0  0  0  0  0  0  0  0  0  0  0
   -2.1753    1.0414   -0.6168 H   0  0  0  0  0  0  0  0  0  0  0  0
   -2.2221    1.8971    0.9295 H   0  0  0  0  0  0  0  0  0  0  0  0
   -0.3049    1.9325   -0.0583 C   0  0  0  0  0  0  0  0  0  0  0  0
    0.5174    1.4865    0.5028 H   0  0  0  0  0  0  0  0  0  0  0  0
   -0.1172    1.8163   -1.1262 H   0  0  0  0  0  0  0  0  0  0  0  0
   -0.3958    3.4257    0.2845 C   0  0  0  0  0  0  0  0  0  0  0  0
   -1.2378    3.8580   -0.2609 H   0  0  0  0  0  0  0  0  0  0  0  0
   -0.5815    3.5256    1.3565 H   0  0  0  0  0  0  0  0  0  0  0  0
    0.8439    4.1464   -0.0712 N   0  3  0  0  0  0  0  0  0  0  0  0
    1.5984    3.5928   -0.4395 H   0  0  0  0  0  0  0  0  0  0  0  0
    1.0538    5.4466    0.0487 C   0  0  0  0  0  0  0  0  0  0  0  0
    0.1441    6.2556    0.5147 N   0  0  0  0  0  0  0  0  0  0  0  0
   -0.7450    5.8769    0.7897 H   0  0  0  0  0  0  0  0  0  0  0  0
    0.3198    7.2398    0.5995 H   0  0  0  0  0  0  0  0  0  0  0  0
    2.1967    5.9654   -0.3008 N   0  0  0  0  0  0  0  0  0  0  0  0
    2.9292    5.3815   -0.6660 H   0  0  0  0  0  0  0  0  0  0  0  0
    2.3517    6.9523   -0.2083 H   0  0  0  0  0  0  0  0  0  0  0  0
   -0.9523    0.1012    2.4848 C   0  0  0  0  0  0  0  0  0  0  0  0
    0.2133   -0.1319    2.7814 O   0  0  0  0  0  0  0  0  0  0  0  0
   -1.8684    0.5006    3.3725 N   0  0  0  0  0  0  0  0  0  0  0  0
   -2.7946    0.7048    3.0343 H   0  0  0  0  0  0  0  0  0  0  0  0
   -1.5848    0.7472    4.7873 C   0  0  0  0  0  0  0  0  0  0  0  0
   -0.8819    1.5774    4.8838 H   0  0  0  0  0  0  0  0  0  0  0  0
   -2.5030    0.9948    5.3214 H   0  0  0  0  0  0  0  0  0  0  0  0
   -1.1344   -0.1399    5.2381 H   0  0  0  0  0  0  0  0  0  0  0  0
  5  6  2  0  0  0  0
  5  7  1  0  0  0  0
  2  3  1  0  0  0  0
  2  4  1  0  0  0  0
  2  5  1  0  0  0  0
  1  2  1  0  0  0  0
 29 30  2  0  0  0  0
 29 31  1  0  0  0  0
 26 27  1  0  0  0  0
 26 28  1  0  0  0  0
 23 24  1  0  0  0  0
 23 25  1  0  0  0  0
 22 23  1  0  0  0  0
 22 26  1  0  0  0  0
 20 21  1  0  0  0  0
 20 22  2  0  0  0  0
 17 18  1  0  0  0  0
 17 19  1  0  0  0  0
 17 20  1  0  0  0  0
 14 15  1  0  0  0  0
 14 16  1  0  0  0  0
 14 17  1  0  0  0  0
 11 12  1  0  0  0  0
 11 13  1  0  0  0  0
 11 14  1  0  0  0  0
  9 10  1  0  0  0  0
  9 11  1  0  0  0  0
  9 29  1  0  0  0  0
  7  8  1  0  0  0  0
  7  9  1  0  0  0  0
 33 34  1  0  0  0  0
 33 35  1  0  0  0  0
 33 36  1  0  0  0  0
 31 32  1  0  0  0  0
 31 33  1  0  0  0  0
M  CHG  1  20   1
M  END
$$$$
default_name
  -OEChem-02102213163D

 36 35  0     1  0  0  0  0  0999 V2000
   -4.2256   -3.6731    1.8584 H   0  0  0  0  0  0  0  0  0  0  0  0
   -4.2396   -2.6781    1.4144 C   0  0  0  0  0  0  0  0  0  0  0  0
   -4.9506   -2.0521    1.9514 H   0  0  0  0  0  0  0  0  0  0  0  0
   -4.5266   -2.7521    0.3674 H   0  0  0  0  0  0  0  0  0  0  0  0
   -2.8576   -2.0761    1.5184 C   0  0  0  0  0  0  0  0  0  0  0  0
   -1.9456   -2.7051    2.0404 O   0  0  0  0  0  0  0  0  0  0  0  0
   -2.6926   -0.8481    1.0174 N   0  0  0  0  0  0  0  0  0  0  0  0
   -3.4926   -0.3971    0.5954 H   0  0  0  0  0  0  0  0  0  0  0  0
   -1.4216   -0.1071    1.0434 C   0  0  1  0  0  0  0  0  0  0  0  0
   -0.6709   -0.6930    0.5106 H   0  0  0  0  0  0  0  0  0  0  0  0
   -1.6221    1.2315    0.3051 C   0  0  0  0  0  0  0  0  0  0  0  0
   -2.1753    1.0414   -0.6168 H   0  0  0  0  0  0  0  0  0  0  0  0
   -2.2221    1.8971    0.9295 H   0  0  0  0  0  0  0  0  0  0  0  0
   -0.3049    1.9325   -0.0583 C   0  0  0  0  0  0  0  0  0  0  0  0
    0.5391    1.3325    0.2845 H   0  0  0  0  0  0  0  0  0  0  0  0
   -0.2463    2.0515   -1.1407 H   0  0  0  0  0  0  0  0  0  0  0  0
   -0.2455    3.3124    0.6108 C   0  0  0  0  0  0  0  0  0  0  0  0
   -1.1083    3.8965    0.2827 H   0  0  0  0  0  0  0  0  0  0  0  0
   -0.3028    3.1766    1.6934 H   0  0  0  0  0  0  0  0  0  0  0  0
    0.9973    4.0345    0.2689 N   0  3  0  0  0  0  0  0  0  0  0  0
    1.6627    3.5428   -0.3028 H   0  0  0  0  0  0  0  0  0  0  0  0
    1.3156    5.2625    0.6424 C   0  0  0  0  0  0  0  0  0  0  0  0
    0.5263    5.9881    1.3839 N   0  0  0  0  0  0  0  0  0  0  0  0
   -0.3524    5.6002    1.6785 H   0  0  0  0  0  0  0  0  0  0  0  0
    0.7833    6.9183    1.6589 H   0  0  0  0  0  0  0  0  0  0  0  0
    2.4480    5.7915    0.2746 N   0  0  0  0  0  0  0  0  0  0  0  0
    3.0898    5.2707   -0.2979 H   0  0  0  0  0  0  0  0  0  0  0  0
    2.6856    6.7234    0.5602 H   0  0  0  0  0  0  0  0  0  0  0  0
   -0.9523    0.1012    2.4848 C   0  0  0  0  0  0  0  0  0  0  0  0
    0.2133   -0.1319    2.7814 O   0  0  0  0  0  0  0  0  0  0  0  0
   -1.8684    0.5006    3.3725 N   0  0  0  0  0  0  0  0  0  0  0  0
   -2.7946    0.7048    3.0343 H   0  0  0  0  0  0  0  0  0  0  0  0
   -1.5848    0.7472    4.7873 C   0  0  0  0  0  0  0  0  0  0  0  0
   -0.8819    1.5774    4.8838 H   0  0  0  0  0  0  0  0  0  0  0  0
   -2.5030    0.9948    5.3214 H   0  0  0  0  0  0  0  0  0  0  0  0
   -1.1344   -0.1399    5.2381 H   0  0  0  0  0  0  0  0  0  0  0  0
  5  6  2  0  0  0  0
  5  7  1  0  0  0  0
  2  3  1  0  0  0  0
  2  4  1  0  0  0  0
  2  5  1  0  0  0  0
  1  2  1  0  0  0  0
 29 30  2  0  0  0  0
 29 31  1  0  0  0  0
 26 27  1  0  0  0  0
 26 28  1  0  0  0  0
 23 24  1  0  0  0  0
 23 25  1  0  0  0  0
 22 23  1  0  0  0  0
 22 26  1  0  0  0  0
 20 21  1  0  0  0  0
 20 22  2  0  0  0  0
 17 18  1  0  0  0  0
 17 19  1  0  0  0  0
 17 20  1  0  0  0  0
 14 15  1  0  0  0  0
 14 16  1  0  0  0  0
 14 17  1  0  0  0  0
 11 12  1  0  0  0  0
 11 13  1  0  0  0  0
 11 14  1  0  0  0  0
  9 10  1  0  0  0  0
  9 11  1  0  0  0  0
  9 29  1  0  0  0  0
  7  8  1  0  0  0  0
  7  9  1  0  0  0  0
 33 34  1  0  0  0  0
 33 35  1  0  0  0  0
 33 36  1  0  0  0  0
 31 32  1  0  0  0  0
 31 33  1  0  0  0  0
M  CHG  1  20   1
M  END
$$$$
default_name
  -OEChem-02102213163D

 36 35  0     1  0  0  0  0  0999 V2000
   -4.2256   -3.6731    1.8584 H   0  0  0  0  0  0  0  0  0  0  0  0
   -4.2396   -2.6781    1.4144 C   0  0  0  0  0  0  0  0  0  0  0  0
   -4.9506   -2.0521    1.9514 H   0  0  0  0  0  0  0  0  0  0  0  0
   -4.5266   -2.7521    0.3674 H   0  0  0  0  0  0  0  0  0  0  0  0
   -2.8576   -2.0761    1.5184 C   0  0  0  0  0  0  0  0  0  0  0  0
   -1.9456   -2.7051    2.0404 O   0  0  0  0  0  0  0  0  0  0  0  0
   -2.6926   -0.8481    1.0174 N   0  0  0  0  0  0  0  0  0  0  0  0
   -3.4926   -0.3971    0.5954 H   0  0  0  0  0  0  0  0  0  0  0  0
   -1.4216   -0.1071    1.0434 C   0  0  1  0  0  0  0  0  0  0  0  0
   -0.6709   -0.6930    0.5106 H   0  0  0  0  0  0  0  0  0  0  0  0
   -1.6221    1.2315    0.3051 C   0  0  0  0  0  0  0  0  0  0  0  0
   -2.1753    1.0414   -0.6168 H   0  0  0  0  0  0  0  0  0  0  0  0
   -2.2221    1.8971    0.9295 H   0  0  0  0  0  0  0  0  0  0  0  0
   -0.3049    1.9325   -0.0583 C   0  0  0  0  0  0  0  0  0  0  0  0
    0.5249    1.2308    0.0370 H   0  0  0  0  0  0  0  0  0  0  0  0
   -0.3584    2.2897   -1.0872 H   0  0  0  0  0  0  0  0  0  0  0  0
   -0.0686    3.1213    0.8831 C   0  0  0  0  0  0  0  0  0  0  0  0
   -0.9166    3.8051    0.8009 H   0  0  0  0  0  0  0  0  0  0  0  0
   -0.0151    2.7476    1.9084 H   0  0  0  0  0  0  0  0  0  0  0  0
    1.1787    3.8415    0.5544 N   0  3  0  0  0  0  0  0  0  0  0  0
    1.7379    3.4603   -0.1895 H   0  0  0  0  0  0  0  0  0  0  0  0
    1.6274    4.9369    1.1442 C   0  0  0  0  0  0  0  0  0  0  0  0
    0.9817    5.5134    2.1189 N   0  0  0  0  0  0  0  0  0  0  0  0
    0.1148    5.1116    2.4293 H   0  0  0  0  0  0  0  0  0  0  0  0
    1.3364    6.3441    2.5560 H   0  0  0  0  0  0  0  0  0  0  0  0
    2.7481    5.4803    0.7621 N   0  0  0  0  0  0  0  0  0  0  0  0
    3.2816    5.0720    0.0140 H   0  0  0  0  0  0  0  0  0  0  0  0
    3.0848    6.3113    1.2122 H   0  0  0  0  0  0  0  0  0  0  0  0
   -0.9523    0.1012    2.4848 C   0  0  0  0  0  0  0  0  0  0  0  0
    0.2133   -0.1319    2.7814 O   0  0  0  0  0  0  0  0  0  0  0  0
   -1.8684    0.5006    3.3725 N   0  0  0  0  0  0  0  0  0  0  0  0
   -2.7946    0.7048    3.0343 H   0  0  0  0  0  0  0  0  0  0  0  0
   -1.5848    0.7472    4.7873 C   0  0  0  0  0  0  0  0  0  0  0  0
   -0.8819    1.5774    4.8838 H   0  0  0  0  0  0  0  0  0  0  0  0
   -2.5030    0.9948    5.3214 H   0  0  0  0  0  0  0  0  0  0  0  0
   -1.1344   -0.1399    5.2381 H   0  0  0  0  0  0  0  0  0  0  0  0
  5  6  2  0  0  0  0
  5  7  1  0  0  0  0
  2  3  1  0  0  0  0
  2  4  1  0  0  0  0
  2  5  1  0  0  0  0
  1  2  1  0  0  0  0
 29 30  2  0  0  0  0
 29 31  1  0  0  0  0
 26 27  1  0  0  0  0
 26 28  1  0  0  0  0
 23 24  1  0  0  0  0
 23 25  1  0  0  0  0
 22 23  1  0  0  0  0
 22 26  1  0  0  0  0
 20 21  1  0  0  0  0
 20 22  2  0  0  0  0
 17 18  1  0  0  0  0
 17 19  1  0  0  0  0
 17 20  1  0  0  0  0
 14 15  1  0  0  0  0
 14 16  1  0  0  0  0
 14 17  1  0  0  0  0
 11 12  1  0  0  0  0
 11 13  1  0  0  0  0
 11 14  1  0  0  0  0
  9 10  1  0  0  0  0
  9 11  1  0  0  0  0
  9 29  1  0  0  0  0
  7  8  1  0  0  0  0
  7  9  1  0  0  0  0
 33 34  1  0  0  0  0
 33 35  1  0  0  0  0
 33 36  1  0  0  0  0
 31 32  1  0  0  0  0
 31 33  1  0  0  0  0
M  CHG  1  20   1
M  END
$$$$
default_name
  -OEChem-02102213163D

 36 35  0     1  0  0  0  0  0999 V2000
   -4.2256   -3.6731    1.8584 H   0  0  0  0  0  0  0  0  0  0  0  0
   -4.2396   -2.6781    1.4144 C   0  0  0  0  0  0  0  0  0  0  0  0
   -4.9506   -2.0521    1.9514 H   0  0  0  0  0  0  0  0  0  0  0  0
   -4.5266   -2.7521    0.3674 H   0  0  0  0  0  0  0  0  0  0  0  0
   -2.8576   -2.0761    1.5184 C   0  0  0  0  0  0  0  0  0  0  0  0
   -1.9456   -2.7051    2.0404 O   0  0  0  0  0  0  0  0  0  0  0  0
   -2.6926   -0.8481    1.0174 N   0  0  0  0  0  0  0  0  0  0  0  0
   -3.4926   -0.3971    0.5954 H   0  0  0  0  0  0  0  0  0  0  0  0
   -1.4216   -0.1071    1.0434 C   0  0  1  0  0  0  0  0  0  0  0  0
   -0.6709   -0.6930    0.5106 H   0  0  0  0  0  0  0  0  0  0  0  0
   -1.6221    1.2315    0.3051 C   0  0  0  0  0  0  0  0  0  0  0  0
   -2.1753    1.0414   -0.6168 H   0  0  0  0  0  0  0  0  0  0  0  0
   -2.2221    1.8971    0.9295 H   0  0  0  0  0  0  0  0  0  0  0  0
   -0.3049    1.9325   -0.0583 C   0  0  0  0  0  0  0  0  0  0  0  0
    0.4757    1.1885   -0.2230 H   0  0  0  0  0  0  0  0  0  0  0  0
   -0.4457    2.5148   -0.9695 H   0  0  0  0  0  0  0  0  0  0  0  0
    0.1226    2.8655    1.0828 C   0  0  0  0  0  0  0  0  0  0  0  0
   -0.6759    3.5900    1.2586 H   0  0  0  0  0  0  0  0  0  0  0  0
    0.2618    2.2679    1.9868 H   0  0  0  0  0  0  0  0  0  0  0  0
    1.3759    3.5807    0.7659 N   0  3  0  0  0  0  0  0  0  0  0  0
    1.8189    3.3508   -0.1072 H   0  0  0  0  0  0  0  0  0  0  0  0
    1.9679    4.4919    1.5198 C   0  0  0  0  0  0  0  0  0  0  0  0
    1.4794    4.8639    2.6697 N   0  0  0  0  0  0  0  0  0  0  0  0
    0.6248    4.4444    2.9908 H   0  0  0  0  0  0  0  0  0  0  0  0
    1.9415    5.5565    3.2297 H   0  0  0  0  0  0  0  0  0  0  0  0
    3.0765    5.0532    1.1284 N   0  0  0  0  0  0  0  0  0  0  0  0
    3.4915    4.7991    0.2485 H   0  0  0  0  0  0  0  0  0  0  0  0
    3.5222    5.7441    1.7033 H   0  0  0  0  0  0  0  0  0  0  0  0
   -0.9523    0.1012    2.4848 C   0  0  0  0  0  0  0  0  0  0  0  0
    0.2133   -0.1319    2.7814 O   0  0  0  0  0  0  0  0  0  0  0  0
   -1.8684    0.5006    3.3725 N   0  0  0  0  0  0  0  0  0  0  0  0
   -2.7946    0.7048    3.0343 H   0  0  0  0  0  0  0  0  0  0  0  0
   -1.5848    0.7472    4.7873 C   0  0  0  0  0  0  0  0  0  0  0  0
   -0.8819    1.5774    4.8838 H   0  0  0  0  0  0  0  0  0  0  0  0
   -2.5030    0.9948    5.3214 H   0  0  0  0  0  0  0  0  0  0  0  0
   -1.1344   -0.1399    5.2381 H   0  0  0  0  0  0  0  0  0  0  0  0
  5  6  2  0  0  0  0
  5  7  1  0  0  0  0
  2  3  1  0  0  0  0
  2  4  1  0  0  0  0
  2  5  1  0  0  0  0
  1  2  1  0  0  0  0
 29 30  2  0  0  0  0
 29 31  1  0  0  0  0
 26 27  1  0  0  0  0
 26 28  1  0  0  0  0
 23 24  1  0  0  0  0
 23 25  1  0  0  0  0
 22 23  1  0  0  0  0
 22 26  1  0  0  0  0
 20 21  1  0  0  0  0
 20 22  2  0  0  0  0
 17 18  1  0  0  0  0
 17 19  1  0  0  0  0
 17 20  1  0  0  0  0
 14 15  1  0  0  0  0
 14 16  1  0  0  0  0
 14 17  1  0  0  0  0
 11 12  1  0  0  0  0
 11 13  1  0  0  0  0
 11 14  1  0  0  0  0
  9 10  1  0  0  0  0
  9 11  1  0  0  0  0
  9 29  1  0  0  0  0
  7  8  1  0  0  0  0
  7  9  1  0  0  0  0
 33 34  1  0  0  0  0
 33 35  1  0  0  0  0
 33 36  1  0  0  0  0
 31 32  1  0  0  0  0
 31 33  1  0  0  0  0
M  CHG  1  20   1
M  END
$$$$
default_name
  -OEChem-02102213163D

 36 35  0     1  0  0  0  0  0999 V2000
   -4.2256   -3.6731    1.8584 H   0  0  0  0  0  0  0  0  0  0  0  0
   -4.2396   -2.6781    1.4144 C   0  0  0  0  0  0  0  0  0  0  0  0
   -4.9506   -2.0521    1.9514 H   0  0  0  0  0  0  0  0  0  0  0  0
   -4.5266   -2.7521    0.3674 H   0  0  0  0  0  0  0  0  0  0  0  0
   -2.8576   -2.0761    1.5184 C   0  0  0  0  0  0  0  0  0  0  0  0
   -1.9456   -2.7051    2.0404 O   0  0  0  0  0  0  0  0  0  0  0  0
   -2.6926   -0.8481    1.0174 N   0  0  0  0  0  0  0  0  0  0  0  0
   -3.4926   -0.3971    0.5954 H   0  0  0  0  0  0  0  0  0  0  0  0
   -1.4216   -0.1071    1.0434 C   0  0  1  0  0  0  0  0  0  0  0  0
   -0.6709   -0.6930    0.5106 H   0  0  0  0  0  0  0  0  0  0  0  0
   -1.6221    1.2315    0.3051 C   0  0  0  0  0  0  0  0  0  0  0  0
   -2.1753    1.0414   -0.6168 H   0  0  0  0  0  0  0  0  0  0  0  0
   -2.2221    1.8971    0.9295 H   0  0  0  0  0  0  0  0  0  0  0  0
   -0.3049    1.9325   -0.0583 C   0  0  0  0  0  0  0  0  0  0  0  0
    0.3949    1.2083   -0.4778 H   0  0  0  0  0  0  0  0  0  0  0  0
   -0.5023    2.7115   -0.7954 H   0  0  0  0  0  0  0  0  0  0  0  0
    0.3153    2.5623    1.1963 C   0  0  0  0  0  0  0  0  0  0  0  0
   -0.4024    3.2658    1.6244 H   0  0  0  0  0  0  0  0  0  0  0  0
    0.5092    1.7702    1.9234 H   0  0  0  0  0  0  0  0  0  0  0  0
    1.5754    3.2697    0.8890 N   0  3  0  0  0  0  0  0  0  0  0  0
    1.9001    3.2218   -0.0616 H   0  0  0  0  0  0  0  0  0  0  0  0
    2.3138    3.9578    1.7435 C   0  0  0  0  0  0  0  0  0  0  0  0
    1.9855    4.0837    2.9988 N   0  0  0  0  0  0  0  0  0  0  0  0
    1.1430    3.6440    3.3248 H   0  0  0  0  0  0  0  0  0  0  0  0
    2.5573    4.6091    3.6342 H   0  0  0  0  0  0  0  0  0  0  0  0
    3.4108    4.5392    1.3486 N   0  0  0  0  0  0  0  0  0  0  0  0
    3.7053    4.4706    0.3897 H   0  0  0  0  0  0  0  0  0  0  0  0
    3.9680    5.0603    2.0002 H   0  0  0  0  0  0  0  0  0  0  0  0
   -0.9523    0.1012    2.4848 C   0  0  0  0  0  0  0  0  0  0  0  0
    0.2133   -0.1319    2.7814 O   0  0  0  0  0  0  0  0  0  0  0  0
   -1.8684    0.5006    3.3725 N   0  0  0  0  0  0  0  0  0  0  0  0
   -2.7946    0.7048    3.0343 H   0  0  0  0  0  0  0  0  0  0  0  0
   -1.5848    0.7472    4.7873 C   0  0  0  0  0  0  0  0  0  0  0  0
   -0.8819    1.5774    4.8838 H   0  0  0  0  0  0  0  0  0  0  0  0
   -2.5030    0.9948    5.3214 H   0  0  0  0  0  0  0  0  0  0  0  0
   -1.1344   -0.1399    5.2381 H   0  0  0  0  0  0  0  0  0  0  0  0
  5  6  2  0  0  0  0
  5  7  1  0  0  0  0
  2  3  1  0  0  0  0
  2  4  1  0  0  0  0
  2  5  1  0  0  0  0
  1  2  1  0  0  0  0
 29 30  2  0  0  0  0
 29 31  1  0  0  0  0
 26 27  1  0  0  0  0
 26 28  1  0  0  0  0
 23 24  1  0  0  0  0
 23 25  1  0  0  0  0
 22 23  1  0  0  0  0
 22 26  1  0  0  0  0
 20 21  1  0  0  0  0
 20 22  2  0  0  0  0
 17 18  1  0  0  0  0
 17 19  1  0  0  0  0
 17 20  1  0  0  0  0
 14 15  1  0  0  0  0
 14 16  1  0  0  0  0
 14 17  1  0  0  0  0
 11 12  1  0  0  0  0
 11 13  1  0  0  0  0
 11 14  1  0  0  0  0
  9 10  1  0  0  0  0
  9 11  1  0  0  0  0
  9 29  1  0  0  0  0
  7  8  1  0  0  0  0
  7  9  1  0  0  0  0
 33 34  1  0  0  0  0
 33 35  1  0  0  0  0
 33 36  1  0  0  0  0
 31 32  1  0  0  0  0
 31 33  1  0  0  0  0
M  CHG  1  20   1
M  END
$$$$
default_name
  -OEChem-02102213163D

 36 35  0     1  0  0  0  0  0999 V2000
   -4.2256   -3.6731    1.8584 H   0  0  0  0  0  0  0  0  0  0  0  0
   -4.2396   -2.6781    1.4144 C   0  0  0  0  0  0  0  0  0  0  0  0
   -4.9506   -2.0521    1.9514 H   0  0  0  0  0  0  0  0  0  0  0  0
   -4.5266   -2.7521    0.3674 H   0  0  0  0  0  0  0  0  0  0  0  0
   -2.8576   -2.0761    1.5184 C   0  0  0  0  0  0  0  0  0  0  0  0
   -1.9456   -2.7051    2.0404 O   0  0  0  0  0  0  0  0  0  0  0  0
   -2.6926   -0.8481    1.0174 N   0  0  0  0  0  0  0  0  0  0  0  0
   -3.4926   -0.3971    0.5954 H   0  0  0  0  0  0  0  0  0  0  0  0
   -1.4216   -0.1071    1.0434 C   0  0  1  0  0  0  0  0  0  0  0  0
   -0.6709   -0.6930    0.5106 H   0  0  0  0  0  0  0  0  0  0  0  0
   -1.6221    1.2315    0.3051 C   0  0  0  0  0  0  0  0  0  0  0  0
   -2.1753    1.0414   -0.6168 H   0  0  0  0  0  0  0  0  0  0  0  0
   -2.2221    1.8971    0.9295 H   0  0  0  0  0  0  0  0  0  0  0  0
   -0.3049    1.9325   -0.0583 C   0  0  0  0  0  0  0  0  0  0  0  0
    0.2879    1.2890   -0.7099 H   0  0  0  0  0  0  0  0  0  0  0  0
   -0.5244    2.8662   -0.5770 H   0  0  0  0  0  0  0  0  0  0  0  0
    0.4962    2.2325    1.2159 C   0  0  0  0  0  0  0  0  0  0  0  0
   -0.1149    2.8548    1.8736 H   0  0  0  0  0  0  0  0  0  0  0  0
    0.7101    1.2883    1.7224 H   0  0  0  0  0  0  0  0  0  0  0  0
    1.7636    2.9297    0.9153 N   0  3  0  0  0  0  0  0  0  0  0  0
    1.9760    3.0821   -0.0558 H   0  0  0  0  0  0  0  0  0  0  0  0
    2.6417    3.3711    1.8002 C   0  0  0  0  0  0  0  0  0  0  0  0
    2.4653    3.2260    3.0836 N   0  0  0  0  0  0  0  0  0  0  0  0
    1.6339    2.7650    3.4086 H   0  0  0  0  0  0  0  0  0  0  0  0
    3.1419    3.5665    3.7418 H   0  0  0  0  0  0  0  0  0  0  0  0
    3.7283    3.9733    1.4077 N   0  0  0  0  0  0  0  0  0  0  0  0
    3.9084    4.1089    0.4279 H   0  0  0  0  0  0  0  0  0  0  0  0
    4.3918    4.3067    2.0824 H   0  0  0  0  0  0  0  0  0  0  0  0
   -0.9523    0.1012    2.4848 C   0  0  0  0  0  0  0  0  0  0  0  0
    0.2133   -0.1319    2.7814 O   0  0  0  0  0  0  0  0  0  0  0  0
   -1.8684    0.5006    3.3725 N   0  0  0  0  0  0  0  0  0  0  0  0
   -2.7946    0.7048    3.0343 H   0  0  0  0  0  0  0  0  0  0  0  0
   -1.5848    0.7472    4.7873 C   0  0  0  0  0  0  0  0  0  0  0  0
   -0.8819    1.5774    4.8838 H   0  0  0  0  0  0  0  0  0  0  0  0
   -2.5030    0.9948    5.3214 H   0  0  0  0  0  0  0  0  0  0  0  0
   -1.1344   -0.1399    5.2381 H   0  0  0  0  0  0  0  0  0  0  0  0
  5  6  2  0  0  0  0
  5  7  1  0  0  0  0
  2  3  1  0  0  0  0
  2  4  1  0  0  0  0
  2  5  1  0  0  0  0
  1  2  1  0  0  0  0
 29 30  2  0  0  0  0
 29 31  1  0  0  0  0
 26 27  1  0  0  0  0
 26 28  1  0  0  0  0
 23 24  1  0  0  0  0
 23 25  1  0  0  0  0
 22 23  1  0  0  0  0
 22 26  1  0  0  0  0
 20 21  1  0  0  0  0
 20 22  2  0  0  0  0
 17 18  1  0  0  0  0
 17 19  1  0  0  0  0
 17 20  1  0  0  0  0
 14 15  1  0  0  0  0
 14 16  1  0  0  0  0
 14 17  1  0  0  0  0
 11 12  1  0  0  0  0
 11 13  1  0  0  0  0
 11 14  1  0  0  0  0
  9 10  1  0  0  0  0
  9 11  1  0  0  0  0
  9 29  1  0  0  0  0
  7  8  1  0  0  0  0
  7  9  1  0  0  0  0
 33 34  1  0  0  0  0
 33 35  1  0  0  0  0
 33 36  1  0  0  0  0
 31 32  1  0  0  0  0
 31 33  1  0  0  0  0
M  CHG  1  20   1
M  END
$$$$
default_name
  -OEChem-02102213163D

 36 35  0     1  0  0  0  0  0999 V2000
   -4.2256   -3.6731    1.8584 H   0  0  0  0  0  0  0  0  0  0  0  0
   -4.2396   -2.6781    1.4144 C   0  0  0  0  0  0  0  0  0  0  0  0
   -4.9506   -2.0521    1.9514 H   0  0  0  0  0  0  0  0  0  0  0  0
   -4.5266   -2.7521    0.3674 H   0  0  0  0  0  0  0  0  0  0  0  0
   -2.8576   -2.0761    1.5184 C   0  0  0  0  0  0  0  0  0  0  0  0
   -1.9456   -2.7051    2.0404 O   0  0  0  0  0  0  0  0  0  0  0  0
   -2.6926   -0.8481    1.0174 N   0  0  0  0  0  0  0  0  0  0  0  0
   -3.4926   -0.3971    0.5954 H   0  0  0  0  0  0  0  0  0  0  0  0
   -1.4216   -0.1071    1.0434 C   0  0  1  0  0  0  0  0  0  0  0  0
   -0.6709   -0.6930    0.5106 H   0  0  0  0  0  0  0  0  0  0  0  0
   -1.6221    1.2315    0.3051 C   0  0  0  0  0  0  0  0  0  0  0  0
   -2.1753    1.0414   -0.6168 H   0  0  0  0  0  0  0  0  0  0  0  0
   -2.2221    1.8971    0.9295 H   0  0  0  0  0  0  0  0  0  0  0  0
   -0.3049    1.9325   -0.0583 C   0  0  0  0  0  0  0  0  0  0  0  0
    0.1621    1.4250   -0.9035 H   0  0  0  0  0  0  0  0  0  0  0  0
   -0.5105    2.9686   -0.3290 H   0  0  0  0  0  0  0  0  0  0  0  0
    0.6531    1.8984    1.1402 C   0  0  0  0  0  0  0  0  0  0  0  0
    0.1671    2.3848    1.9890 H   0  0  0  0  0  0  0  0  0  0  0  0
    0.8510    0.8552    1.3976 H   0  0  0  0  0  0  0  0  0  0  0  0
    1.9277    2.5840    0.8430 N   0  3  0  0  0  0  0  0  0  0  0  0
    2.0415    2.9412   -0.0901 H   0  0  0  0  0  0  0  0  0  0  0  0
    2.9292    2.7717    1.6860 C   0  0  0  0  0  0  0  0  0  0  0  0
    2.8863    2.3493    2.9185 N   0  0  0  0  0  0  0  0  0  0  0  0
    2.0641    1.8672    3.2363 H   0  0  0  0  0  0  0  0  0  0  0  0
    3.6554    2.4997    3.5452 H   0  0  0  0  0  0  0  0  0  0  0  0
    4.0073    3.3941    1.3017 N   0  0  0  0  0  0  0  0  0  0  0  0
    4.0869    3.7386    0.3605 H   0  0  0  0  0  0  0  0  0  0  0  0
    4.7647    3.5345    1.9445 H   0  0  0  0  0  0  0  0  0  0  0  0
   -0.9523    0.1012    2.4848 C   0  0  0  0  0  0  0  0  0  0  0  0
    0.2133   -0.1319    2.7814 O   0  0  0  0  0  0  0  0  0  0  0  0
   -1.8684    0.5006    3.3725 N   0  0  0  0  0  0  0  0  0  0  0  0
   -2.7946    0.7048    3.0343 H   0  0  0  0  0  0  0  0  0  0  0  0
   -1.5848    0.7472    4.7873 C   0  0  0  0  0  0  0  0  0  0  0  0
   -0.8819    1.5774    4.8838 H   0  0  0  0  0  0  0  0  0  0  0  0
   -2.5030    0.9948    5.3214 H   0  0  0  0  0  0  0  0  0  0  0  0
   -1.1344   -0.1399    5.2381 H   0  0  0  0  0  0  0  0  0  0  0  0
  5  6  2  0  0  0  0
  5  7  1  0  0  0  0
  2  3  1  0  0  0  0
  2  4  1  0  0  0  0
  2  5  1  0  0  0  0
  1  2  1  0  0  0  0
 29 30  2  0  0  0  0
 29 31  1  0  0  0  0
 26 27  1  0  0  0  0
 26 28  1  0  0  0  0
 23 24  1  0  0  0  0
 23 25  1  0  0  0  0
 22 23  1  0  0  0  0
 22 26  1  0  0  0  0
 20 21  1  0  0  0  0
 20 22  2  0  0  0  0
 17 18  1  0  0  0  0
 17 19  1  0  0  0  0
 17 20  1  0  0  0  0
 14 15  1  0  0  0  0
 14 16  1  0  0  0  0
 14 17  1  0  0  0  0
 11 12  1  0  0  0  0
 11 13  1  0  0  0  0
 11 14  1  0  0  0  0
  9 10  1  0  0  0  0
  9 11  1  0  0  0  0
  9 29  1  0  0  0  0
  7  8  1  0  0  0  0
  7  9  1  0  0  0  0
 33 34  1  0  0  0  0
 33 35  1  0  0  0  0
 33 36  1  0  0  0  0
 31 32  1  0  0  0  0
 31 33  1  0  0  0  0
M  CHG  1  20   1
M  END
$$$$
default_name
  -OEChem-02102213163D

 36 35  0     1  0  0  0  0  0999 V2000
   -4.2256   -3.6731    1.8584 H   0  0  0  0  0  0  0  0  0  0  0  0
   -4.2396   -2.6781    1.4144 C   0  0  0  0  0  0  0  0  0  0  0  0
   -4.9506   -2.0521    1.9514 H   0  0  0  0  0  0  0  0  0  0  0  0
   -4.5266   -2.7521    0.3674 H   0  0  0  0  0  0  0  0  0  0  0  0
   -2.8576   -2.0761    1.5184 C   0  0  0  0  0  0  0  0  0  0  0  0
   -1.9456   -2.7051    2.0404 O   0  0  0  0  0  0  0  0  0  0  0  0
   -2.6926   -0.8481    1.0174 N   0  0  0  0  0  0  0  0  0  0  0  0
   -3.4926   -0.3971    0.5954 H   0  0  0  0  0  0  0  0  0  0  0  0
   -1.4216   -0.1071    1.0434 C   0  0  1  0  0  0  0  0  0  0  0  0
   -0.6709   -0.6930    0.5106 H   0  0  0  0  0  0  0  0  0  0  0  0
   -1.6221    1.2315    0.3051 C   0  0  0  0  0  0  0  0  0  0  0  0
   -2.1753    1.0414   -0.6168 H   0  0  0  0  0  0  0  0  0  0  0  0
   -2.2221    1.8971    0.9295 H   0  0  0  0  0  0  0  0  0  0  0  0
   -0.3049    1.9325   -0.0583 C   0  0  0  0  0  0  0  0  0  0  0  0
    0.0260    1.6070   -1.0456 H   0  0  0  0  0  0  0  0  0  0  0  0
   -0.4614    3.0116   -0.0684 H   0  0  0  0  0  0  0  0  0  0  0  0
    0.7753    1.5830    0.9744 C   0  0  0  0  0  0  0  0  0  0  0  0
    0.4243    1.8880    1.9629 H   0  0  0  0  0  0  0  0  0  0  0  0
    0.9222    0.5003    0.9710 H   0  0  0  0  0  0  0  0  0  0  0  0
    2.0564    2.2560    0.6770 N   0  3  0  0  0  0  0  0  0  0  0  0
    2.0921    2.8087   -0.1623 H   0  0  0  0  0  0  0  0  0  0  0  0
    3.1567    2.2004    1.4086 C   0  0  0  0  0  0  0  0  0  0  0  0
    3.2197    1.5134    2.5147 N   0  0  0  0  0  0  0  0  0  0  0  0
    2.4044    1.0120    2.8199 H   0  0  0  0  0  0  0  0  0  0  0  0
    4.0628    1.4814    3.0579 H   0  0  0  0  0  0  0  0  0  0  0  0
    4.2287    2.8412    1.0378 N   0  0  0  0  0  0  0  0  0  0  0  0
    4.2286    3.3849    0.1921 H   0  0  0  0  0  0  0  0  0  0  0  0
    5.0613    2.7964    1.5958 H   0  0  0  0  0  0  0  0  0  0  0  0
   -0.9523    0.1012    2.4848 C   0  0  0  0  0  0  0  0  0  0  0  0
    0.2133   -0.1319    2.7814 O   0  0  0  0  0  0  0  0  0  0  0  0
   -1.8684    0.5006    3.3725 N   0  0  0  0  0  0  0  0  0  0  0  0
   -2.7946    0.7048    3.0343 H   0  0  0  0  0  0  0  0  0  0  0  0
   -1.5848    0.7472    4.7873 C   0  0  0  0  0  0  0  0  0  0  0  0
   -0.8819    1.5774    4.8838 H   0  0  0  0  0  0  0  0  0  0  0  0
   -2.5030    0.9948    5.3214 H   0  0  0  0  0  0  0  0  0  0  0  0
   -1.1344   -0.1399    5.2381 H   0  0  0  0  0  0  0  0  0  0  0  0
  5  6  2  0  0  0  0
  5  7  1  0  0  0  0
  2  3  1  0  0  0  0
  2  4  1  0  0  0  0
  2  5  1  0  0  0  0
  1  2  1  0  0  0  0
 29 30  2  0  0  0  0
 29 31  1  0  0  0  0
 26 27  1  0  0  0  0
 26 28  1  0  0  0  0
 23 24  1  0  0  0  0
 23 25  1  0  0  0  0
 22 23  1  0  0  0  0
 22 26  1  0  0  0  0
 20 21  1  0  0  0  0
 20 22  2  0  0  0  0
 17 18  1  0  0  0  0
 17 19  1  0  0  0  0
 17 20  1  0  0  0  0
 14 15  1  0  0  0  0
 14 16  1  0  0  0  0
 14 17  1  0  0  0  0
 11 12  1  0  0  0  0
 11 13  1  0  0  0  0
 11 14  1  0  0  0  0
  9 10  1  0  0  0  0
  9 11  1  0  0  0  0
  9 29  1  0  0  0  0
  7  8  1  0  0  0  0
  7  9  1  0  0  0  0
 33 34  1  0  0  0  0
 33 35  1  0  0  0  0
 33 36  1  0  0  0  0
 31 32  1  0  0  0  0
 31 33  1  0  0  0  0
M  CHG  1  20   1
M  END
$$$$
default_name
  -OEChem-02102213163D

 36 35  0     1  0  0  0  0  0999 V2000
   -4.2256   -3.6731    1.8584 H   0  0  0  0  0  0  0  0  0  0  0  0
   -4.2396   -2.6781    1.4144 C   0  0  0  0  0  0  0  0  0  0  0  0
   -4.9506   -2.0521    1.9514 H   0  0  0  0  0  0  0  0  0  0  0  0
   -4.5266   -2.7521    0.3674 H   0  0  0  0  0  0  0  0  0  0  0  0
   -2.8576   -2.0761    1.5184 C   0  0  0  0  0  0  0  0  0  0  0  0
   -1.9456   -2.7051    2.0404 O   0  0  0  0  0  0  0  0  0  0  0  0
   -2.6926   -0.8481    1.0174 N   0  0  0  0  0  0  0  0  0  0  0  0
   -3.4926   -0.3971    0.5954 H   0  0  0  0  0  0  0  0  0  0  0  0
   -1.4216   -0.1071    1.0434 C   0  0  1  0  0  0  0  0  0  0  0  0
   -0.6709   -0.6930    0.5106 H   0  0  0  0  0  0  0  0  0  0  0  0
   -1.6221    1.2315    0.3051 C   0  0  0  0  0  0  0  0  0  0  0  0
   -2.1753    1.0414   -0.6168 H   0  0  0  0  0  0  0  0  0  0  0  0
   -2.2221    1.8971    0.9295 H   0  0  0  0  0  0  0  0  0  0  0  0
   -0.3049    1.9325   -0.0583 C   0  0  0  0  0  0  0  0  0  0  0  0
   -0.1111    1.8227   -1.1262 H   0  0  0  0  0  0  0  0  0  0  0  0
   -0.3806    2.9922    0.1871 H   0  0  0  0  0  0  0  0  0  0  0  0
    0.8543    1.3076    0.7298 C   0  0  0  0  0  0  0  0  0  0  0  0
    0.6392    1.3981    1.7970 H   0  0  0  0  0  0  0  0  0  0  0  0
    0.9188    0.2479    0.4718 H   0  0  0  0  0  0  0  0  0  0  0  0
    2.1410    1.9682    0.4287 N   0  3  0  0  0  0  0  0  0  0  0  0
    2.1243    2.6937   -0.2675 H   0  0  0  0  0  0  0  0  0  0  0  0
    3.3087    1.6963    0.9871 C   0  0  0  0  0  0  0  0  0  0  0  0
    3.4429    0.7752    1.8996 N   0  0  0  0  0  0  0  0  0  0  0  0
    2.6314    0.2575    2.1875 H   0  0  0  0  0  0  0  0  0  0  0  0
    4.3364    0.5811    2.3130 H   0  0  0  0  0  0  0  0  0  0  0  0
    4.3776    2.3520    0.6340 N   0  0  0  0  0  0  0  0  0  0  0  0
    4.3240    3.0720   -0.0659 H   0  0  0  0  0  0  0  0  0  0  0  0
    5.2614    2.1426    1.0601 H   0  0  0  0  0  0  0  0  0  0  0  0
   -0.9523    0.1012    2.4848 C   0  0  0  0  0  0  0  0  0  0  0  0
    0.2133   -0.1319    2.7814 O   0  0  0  0  0  0  0  0  0  0  0  0
   -1.8684    0.5006    3.3725 N   0  0  0  0  0  0  0  0  0  0  0  0
   -2.7946    0.7048    3.0343 H   0  0  0  0  0  0  0  0  0  0  0  0
   -1.5848    0.7472    4.7873 C   0  0  0  0  0  0  0  0  0  0  0  0
   -0.8819    1.5774    4.8838 H   0  0  0  0  0  0  0  0  0  0  0  0
   -2.5030    0.9948    5.3214 H   0  0  0  0  0  0  0  0  0  0  0  0
   -1.1344   -0.1399    5.2381 H   0  0  0  0  0  0  0  0  0  0  0  0
  5  6  2  0  0  0  0
  5  7  1  0  0  0  0
  2  3  1  0  0  0  0
  2  4  1  0  0  0  0
  2  5  1  0  0  0  0
  1  2  1  0  0  0  0
 29 30  2  0  0  0  0
 29 31  1  0  0  0  0
 26 27  1  0  0  0  0
 26 28  1  0  0  0  0
 23 24  1  0  0  0  0
 23 25  1  0  0  0  0
 22 23  1  0  0  0  0
 22 26  1  0  0  0  0
 20 21  1  0  0  0  0
 20 22  2  0  0  0  0
 17 18  1  0  0  0  0
 17 19  1  0  0  0  0
 17 20  1  0  0  0  0
 14 15  1  0  0  0  0
 14 16  1  0  0  0  0
 14 17  1  0  0  0  0
 11 12  1  0  0  0  0
 11 13  1  0  0  0  0
 11 14  1  0  0  0  0
  9 10  1  0  0  0  0
  9 11  1  0  0  0  0
  9 29  1  0  0  0  0
  7  8  1  0  0  0  0
  7  9  1  0  0  0  0
 33 34  1  0  0  0  0
 33 35  1  0  0  0  0
 33 36  1  0  0  0  0
 31 32  1  0  0  0  0
 31 33  1  0  0  0  0
M  CHG  1  20   1
M  END
$$$$
default_name
  -OEChem-02102213163D

 36 35  0     1  0  0  0  0  0999 V2000
   -4.2256   -3.6731    1.8584 H   0  0  0  0  0  0  0  0  0  0  0  0
   -4.2396   -2.6781    1.4144 C   0  0  0  0  0  0  0  0  0  0  0  0
   -4.9506   -2.0521    1.9514 H   0  0  0  0  0  0  0  0  0  0  0  0
   -4.5266   -2.7521    0.3674 H   0  0  0  0  0  0  0  0  0  0  0  0
   -2.8576   -2.0761    1.5184 C   0  0  0  0  0  0  0  0  0  0  0  0
   -1.9456   -2.7051    2.0404 O   0  0  0  0  0  0  0  0  0  0  0  0
   -2.6926   -0.8481    1.0174 N   0  0  0  0  0  0  0  0  0  0  0  0
   -3.4926   -0.3971    0.5954 H   0  0  0  0  0  0  0  0  0  0  0  0
   -1.4216   -0.1071    1.0434 C   0  0  1  0  0  0  0  0  0  0  0  0
   -0.6709   -0.6930    0.5106 H   0  0  0  0  0  0  0  0  0  0  0  0
   -1.6221    1.2315    0.3051 C   0  0  0  0  0  0  0  0  0  0  0  0
   -2.1753    1.0414   -0.6168 H   0  0  0  0  0  0  0  0  0  0  0  0
   -2.2221    1.8971    0.9295 H   0  0  0  0  0  0  0  0  0  0  0  0
   -0.3049    1.9325   -0.0583 C   0  0  0  0  0  0  0  0  0  0  0  0
   -0.2398    2.0574   -1.1401 H   0  0  0  0  0  0  0  0  0  0  0  0
   -0.2736    2.9119    0.4200 H   0  0  0  0  0  0  0  0  0  0  0  0
    0.8849    1.0910    0.4231 C   0  0  0  0  0  0  0  0  0  0  0  0
    0.7972    0.9486    1.5026 H   0  0  0  0  0  0  0  0  0  0  0  0
    0.8410    0.1151   -0.0660 H   0  0  0  0  0  0  0  0  0  0  0  0
    2.1759    1.7401    0.1150 N   0  3  0  0  0  0  0  0  0  0  0  0
    2.1360    2.6040   -0.3984 H   0  0  0  0  0  0  0  0  0  0  0  0
    3.3748    1.2936    0.4500 C   0  0  0  0  0  0  0  0  0  0  0  0
    3.5406    0.1849    1.1153 N   0  0  0  0  0  0  0  0  0  0  0  0
    2.7298   -0.3449    1.3824 H   0  0  0  0  0  0  0  0  0  0  0  0
    4.4575   -0.1400    1.3613 H   0  0  0  0  0  0  0  0  0  0  0  0
    4.4437    1.9601    0.1177 N   0  0  0  0  0  0  0  0  0  0  0  0
    4.3664    2.8212   -0.3957 H   0  0  0  0  0  0  0  0  0  0  0  0
    5.3513    1.6178    0.3739 H   0  0  0  0  0  0  0  0  0  0  0  0
   -0.9523    0.1012    2.4848 C   0  0  0  0  0  0  0  0  0  0  0  0
    0.2133   -0.1319    2.7814 O   0  0  0  0  0  0  0  0  0  0  0  0
   -1.8684    0.5006    3.3725 N   0  0  0  0  0  0  0  0  0  0  0  0
   -2.7946    0.7048    3.0343 H   0  0  0  0  0  0  0  0  0  0  0  0
   -1.5848    0.7472    4.7873 C   0  0  0  0  0  0  0  0  0  0  0  0
   -0.8819    1.5774    4.8838 H   0  0  0  0  0  0  0  0  0  0  0  0
   -2.5030    0.9948    5.3214 H   0  0  0  0  0  0  0  0  0  0  0  0
   -1.1344   -0.1399    5.2381 H   0  0  0  0  0  0  0  0  0  0  0  0
  5  6  2  0  0  0  0
  5  7  1  0  0  0  0
  2  3  1  0  0  0  0
  2  4  1  0  0  0  0
  2  5  1  0  0  0  0
  1  2  1  0  0  0  0
 29 30  2  0  0  0  0
 29 31  1  0  0  0  0
 26 27  1  0  0  0  0
 26 28  1  0  0  0  0
 23 24  1  0  0  0  0
 23 25  1  0  0  0  0
 22 23  1  0  0  0  0
 22 26  1  0  0  0  0
 20 21  1  0  0  0  0
 20 22  2  0  0  0  0
 17 18  1  0  0  0  0
 17 19  1  0  0  0  0
 17 20  1  0  0  0  0
 14 15  1  0  0  0  0
 14 16  1  0  0  0  0
 14 17  1  0  0  0  0
 11 12  1  0  0  0  0
 11 13  1  0  0  0  0
 11 14  1  0  0  0  0
  9 10  1  0  0  0  0
  9 11  1  0  0  0  0
  9 29  1  0  0  0  0
  7  8  1  0  0  0  0
  7  9  1  0  0  0  0
 33 34  1  0  0  0  0
 33 35  1  0  0  0  0
 33 36  1  0  0  0  0
 31 32  1  0  0  0  0
 31 33  1  0  0  0  0
M  CHG  1  20   1
M  END
$$$$
default_name
  -OEChem-02102213163D

 36 35  0     1  0  0  0  0  0999 V2000
   -4.2256   -3.6731    1.8584 H   0  0  0  0  0  0  0  0  0  0  0  0
   -4.2396   -2.6781    1.4144 C   0  0  0  0  0  0  0  0  0  0  0  0
   -4.9506   -2.0521    1.9514 H   0  0  0  0  0  0  0  0  0  0  0  0
   -4.5266   -2.7521    0.3674 H   0  0  0  0  0  0  0  0  0  0  0  0
   -2.8576   -2.0761    1.5184 C   0  0  0  0  0  0  0  0  0  0  0  0
   -1.9456   -2.7051    2.0404 O   0  0  0  0  0  0  0  0  0  0  0  0
   -2.6926   -0.8481    1.0174 N   0  0  0  0  0  0  0  0  0  0  0  0
   -3.4926   -0.3971    0.5954 H   0  0  0  0  0  0  0  0  0  0  0  0
   -1.4216   -0.1071    1.0434 C   0  0  1  0  0  0  0  0  0  0  0  0
   -0.6709   -0.6930    0.5106 H   0  0  0  0  0  0  0  0  0  0  0  0
   -1.6221    1.2315    0.3051 C   0  0  0  0  0  0  0  0  0  0  0  0
   -2.1753    1.0414   -0.6168 H   0  0  0  0  0  0  0  0  0  0  0  0
   -2.2221    1.8971    0.9295 H   0  0  0  0  0  0  0  0  0  0  0  0
   -0.3049    1.9325   -0.0583 C   0  0  0  0  0  0  0  0  0  0  0  0
   -0.3514    2.2950   -1.0862 H   0  0  0  0  0  0  0  0  0  0  0  0
   -0.1476    2.7760    0.6145 H   0  0  0  0  0  0  0  0  0  0  0  0
    0.8650    0.9481    0.0751 C   0  0  0  0  0  0  0  0  0  0  0  0
    0.8875    0.5701    1.0998 H   0  0  0  0  0  0  0  0  0  0  0  0
    0.6943    0.1109   -0.6058 H   0  0  0  0  0  0  0  0  0  0  0  0
    2.1584    1.5873   -0.2428 N   0  3  0  0  0  0  0  0  0  0  0  0
    2.1262    2.5456   -0.5461 H   0  0  0  0  0  0  0  0  0  0  0  0
    3.3505    1.0198   -0.1660 C   0  0  0  0  0  0  0  0  0  0  0  0
    3.5061   -0.2170    0.2152 N   0  0  0  0  0  0  0  0  0  0  0  0
    2.6928   -0.7540    0.4594 H   0  0  0  0  0  0  0  0  0  0  0  0
    4.4179   -0.6327    0.2676 H   0  0  0  0  0  0  0  0  0  0  0  0
    4.4226    1.6921   -0.4758 N   0  0  0  0  0  0  0  0  0  0  0  0
    4.3531    2.6495   -0.7750 H   0  0  0  0  0  0  0  0  0  0  0  0
    5.3250    1.2578   -0.4160 H   0  0  0  0  0  0  0  0  0  0  0  0
   -0.9523    0.1012    2.4848 C   0  0  0  0  0  0  0  0  0  0  0  0
    0.2133   -0.1319    2.7814 O   0  0  0  0  0  0  0  0  0  0  0  0
   -1.8684    0.5006    3.3725 N   0  0  0  0  0  0  0  0  0  0  0  0
   -2.7946    0.7048    3.0343 H   0  0  0  0  0  0  0  0  0  0  0  0
   -1.5848    0.7472    4.7873 C   0  0  0  0  0  0  0  0  0  0  0  0
   -0.8819    1.5774    4.8838 H   0  0  0  0  0  0  0  0  0  0  0  0
   -2.5030    0.9948    5.3214 H   0  0  0  0  0  0  0  0  0  0  0  0
   -1.1344   -0.1399    5.2381 H   0  0  0  0  0  0  0  0  0  0  0  0
  5  6  2  0  0  0  0
  5  7  1  0  0  0  0
  2  3  1  0  0  0  0
  2  4  1  0  0  0  0
  2  5  1  0  0  0  0
  1  2  1  0  0  0  0
 29 30  2  0  0  0  0
 29 31  1  0  0  0  0
 26 27  1  0  0  0  0
 26 28  1  0  0  0  0
 23 24  1  0  0  0  0
 23 25  1  0  0  0  0
 22 23  1  0  0  0  0
 22 26  1  0  0  0  0
 20 21  1  0  0  0  0
 20 22  2  0  0  0  0
 17 18  1  0  0  0  0
 17 19  1  0  0  0  0
 17 20  1  0  0  0  0
 14 15  1  0  0  0  0
 14 16  1  0  0  0  0
 14 17  1  0  0  0  0
 11 12  1  0  0  0  0
 11 13  1  0  0  0  0
 11 14  1  0  0  0  0
  9 10  1  0  0  0  0
  9 11  1  0  0  0  0
  9 29  1  0  0  0  0
  7  8  1  0  0  0  0
  7  9  1  0  0  0  0
 33 34  1  0  0  0  0
 33 35  1  0  0  0  0
 33 36  1  0  0  0  0
 31 32  1  0  0  0  0
 31 33  1  0  0  0  0
M  CHG  1  20   1
M  END
$$$$
default_name
  -OEChem-02102213163D

 36 35  0     1  0  0  0  0  0999 V2000
   -4.2256   -3.6731    1.8584 H   0  0  0  0  0  0  0  0  0  0  0  0
   -4.2396   -2.6781    1.4144 C   0  0  0  0  0  0  0  0  0  0  0  0
   -4.9506   -2.0521    1.9514 H   0  0  0  0  0  0  0  0  0  0  0  0
   -4.5266   -2.7521    0.3674 H   0  0  0  0  0  0  0  0  0  0  0  0
   -2.8576   -2.0761    1.5184 C   0  0  0  0  0  0  0  0  0  0  0  0
   -1.9456   -2.7051    2.0404 O   0  0  0  0  0  0  0  0  0  0  0  0
   -2.6926   -0.8481    1.0174 N   0  0  0  0  0  0  0  0  0  0  0  0
   -3.4926   -0.3971    0.5954 H   0  0  0  0  0  0  0  0  0  0  0  0
   -1.4216   -0.1071    1.0434 C   0  0  1  0  0  0  0  0  0  0  0  0
   -0.6709   -0.6930    0.5106 H   0  0  0  0  0  0  0  0  0  0  0  0
   -1.6221    1.2315    0.3051 C   0  0  0  0  0  0  0  0  0  0  0  0
   -2.1753    1.0414   -0.6168 H   0  0  0  0  0  0  0  0  0  0  0  0
   -2.2221    1.8971    0.9295 H   0  0  0  0  0  0  0  0  0  0  0  0
   -0.3049    1.9325   -0.0583 C   0  0  0  0  0  0  0  0  0  0  0  0
   -0.4382    2.5194   -0.9682 H   0  0  0  0  0  0  0  0  0  0  0  0
   -0.0112    2.5939    0.7574 H   0  0  0  0  0  0  0  0  0  0  0  0
    0.7958    0.8885   -0.2904 C   0  0  0  0  0  0  0  0  0  0  0  0
    0.9039    0.2884    0.6160 H   0  0  0  0  0  0  0  0  0  0  0  0
    0.4885    0.2357   -1.1108 H   0  0  0  0  0  0  0  0  0  0  0  0
    2.0900    1.5202   -0.6203 N   0  3  0  0  0  0  0  0  0  0  0  0
    2.0958    2.5227   -0.7006 H   0  0  0  0  0  0  0  0  0  0  0  0
    3.2375    0.8936   -0.8189 C   0  0  0  0  0  0  0  0  0  0  0  0
    3.3419   -0.4034   -0.7395 N   0  0  0  0  0  0  0  0  0  0  0  0
    2.5230   -0.9420   -0.5186 H   0  0  0  0  0  0  0  0  0  0  0  0
    4.2203   -0.8633   -0.8935 H   0  0  0  0  0  0  0  0  0  0  0  0
    4.3156    1.5663   -1.1060 N   0  0  0  0  0  0  0  0  0  0  0  0
    4.2849    2.5687   -1.1780 H   0  0  0  0  0  0  0  0  0  0  0  0
    5.1842    1.0869   -1.2559 H   0  0  0  0  0  0  0  0  0  0  0  0
   -0.9523    0.1012    2.4848 C   0  0  0  0  0  0  0  0  0  0  0  0
    0.2133   -0.1319    2.7814 O   0  0  0  0  0  0  0  0  0  0  0  0
   -1.8684    0.5006    3.3725 N   0  0  0  0  0  0  0  0  0  0  0  0
   -2.7946    0.7048    3.0343 H   0  0  0  0  0  0  0  0  0  0  0  0
   -1.5848    0.7472    4.7873 C   0  0  0  0  0  0  0  0  0  0  0  0
   -0.8819    1.5774    4.8838 H   0  0  0  0  0  0  0  0  0  0  0  0
   -2.5030    0.9948    5.3214 H   0  0  0  0  0  0  0  0  0  0  0  0
   -1.1344   -0.1399    5.2381 H   0  0  0  0  0  0  0  0  0  0  0  0
  5  6  2  0  0  0  0
  5  7  1  0  0  0  0
  2  3  1  0  0  0  0
  2  4  1  0  0  0  0
  2  5  1  0  0  0  0
  1  2  1  0  0  0  0
 29 30  2  0  0  0  0
 29 31  1  0  0  0  0
 26 27  1  0  0  0  0
 26 28  1  0  0  0  0
 23 24  1  0  0  0  0
 23 25  1  0  0  0  0
 22 23  1  0  0  0  0
 22 26  1  0  0  0  0
 20 21  1  0  0  0  0
 20 22  2  0  0  0  0
 17 18  1  0  0  0  0
 17 19  1  0  0  0  0
 17 20  1  0  0  0  0
 14 15  1  0  0  0  0
 14 16  1  0  0  0  0
 14 17  1  0  0  0  0
 11 12  1  0  0  0  0
 11 13  1  0  0  0  0
 11 14  1  0  0  0  0
  9 10  1  0  0  0  0
  9 11  1  0  0  0  0
  9 29  1  0  0  0  0
  7  8  1  0  0  0  0
  7  9  1  0  0  0  0
 33 34  1  0  0  0  0
 33 35  1  0  0  0  0
 33 36  1  0  0  0  0
 31 32  1  0  0  0  0
 31 33  1  0  0  0  0
M  CHG  1  20   1
M  END
$$$$
default_name
  -OEChem-02102213163D

 36 35  0     1  0  0  0  0  0999 V2000
   -4.2256   -3.6731    1.8584 H   0  0  0  0  0  0  0  0  0  0  0  0
   -4.2396   -2.6781    1.4144 C   0  0  0  0  0  0  0  0  0  0  0  0
   -4.9506   -2.0521    1.9514 H   0  0  0  0  0  0  0  0  0  0  0  0
   -4.5266   -2.7521    0.3674 H   0  0  0  0  0  0  0  0  0  0  0  0
   -2.8576   -2.0761    1.5184 C   0  0  0  0  0  0  0  0  0  0  0  0
   -1.9456   -2.7051    2.0404 O   0  0  0  0  0  0  0  0  0  0  0  0
   -2.6926   -0.8481    1.0174 N   0  0  0  0  0  0  0  0  0  0  0  0
   -3.4926   -0.3971    0.5954 H   0  0  0  0  0  0  0  0  0  0  0  0
   -1.4216   -0.1071    1.0434 C   0  0  1  0  0  0  0  0  0  0  0  0
   -0.6709   -0.6930    0.5106 H   0  0  0  0  0  0  0  0  0  0  0  0
   -1.6221    1.2315    0.3051 C   0  0  0  0  0  0  0  0  0  0  0  0
   -2.1753    1.0414   -0.6168 H   0  0  0  0  0  0  0  0  0  0  0  0
   -2.2221    1.8971    0.9295 H   0  0  0  0  0  0  0  0  0  0  0  0
   -0.3049    1.9325   -0.0583 C   0  0  0  0  0  0  0  0  0  0  0  0
   -0.4944    2.7153   -0.7941 H   0  0  0  0  0  0  0  0  0  0  0  0
    0.1262    2.3779    0.8388 H   0  0  0  0  0  0  0  0  0  0  0  0
    0.6822    0.9163   -0.6485 C   0  0  0  0  0  0  0  0  0  0  0  0
    0.8454    0.1226    0.0842 H   0  0  0  0  0  0  0  0  0  0  0  0
    0.2377    0.4810   -1.5466 H   0  0  0  0  0  0  0  0  0  0  0  0
    1.9751    1.5434   -0.9917 N   0  3  0  0  0  0  0  0  0  0  0  0
    2.0468    2.5366   -0.8513 H   0  0  0  0  0  0  0  0  0  0  0  0
    3.0435    0.9235   -1.4643 C   0  0  0  0  0  0  0  0  0  0  0  0
    3.0590   -0.3614   -1.6835 N   0  0  0  0  0  0  0  0  0  0  0  0
    2.2319   -0.8961   -1.4850 H   0  0  0  0  0  0  0  0  0  0  0  0
    3.8781   -0.8163   -2.0429 H   0  0  0  0  0  0  0  0  0  0  0  0
    4.1302    1.5912   -1.7301 N   0  0  0  0  0  0  0  0  0  0  0  0
    4.1665    2.5843   -1.5771 H   0  0  0  0  0  0  0  0  0  0  0  0
    4.9384    1.1169   -2.0884 H   0  0  0  0  0  0  0  0  0  0  0  0
   -0.9523    0.1012    2.4848 C   0  0  0  0  0  0  0  0  0  0  0  0
    0.2133   -0.1319    2.7814 O   0  0  0  0  0  0  0  0  0  0  0  0
   -1.8684    0.5006    3.3725 N   0  0  0  0  0  0  0  0  0  0  0  0
   -2.7946    0.7048    3.0343 H   0  0  0  0  0  0  0  0  0  0  0  0
   -1.5848    0.7472    4.7873 C   0  0  0  0  0  0  0  0  0  0  0  0
   -0.8819    1.5774    4.8838 H   0  0  0  0  0  0  0  0  0  0  0  0
   -2.5030    0.9948    5.3214 H   0  0  0  0  0  0  0  0  0  0  0  0
   -1.1344   -0.1399    5.2381 H   0  0  0  0  0  0  0  0  0  0  0  0
  5  6  2  0  0  0  0
  5  7  1  0  0  0  0
  2  3  1  0  0  0  0
  2  4  1  0  0  0  0
  2  5  1  0  0  0  0
  1  2  1  0  0  0  0
 29 30  2  0  0  0  0
 29 31  1  0  0  0  0
 26 27  1  0  0  0  0
 26 28  1  0  0  0  0
 23 24  1  0  0  0  0
 23 25  1  0  0  0  0
 22 23  1  0  0  0  0
 22 26  1  0  0  0  0
 20 21  1  0  0  0  0
 20 22  2  0  0  0  0
 17 18  1  0  0  0  0
 17 19  1  0  0  0  0
 17 20  1  0  0  0  0
 14 15  1  0  0  0  0
 14 16  1  0  0  0  0
 14 17  1  0  0  0  0
 11 12  1  0  0  0  0
 11 13  1  0  0  0  0
 11 14  1  0  0  0  0
  9 10  1  0  0  0  0
  9 11  1  0  0  0  0
  9 29  1  0  0  0  0
  7  8  1  0  0  0  0
  7  9  1  0  0  0  0
 33 34  1  0  0  0  0
 33 35  1  0  0  0  0
 33 36  1  0  0  0  0
 31 32  1  0  0  0  0
 31 33  1  0  0  0  0
M  CHG  1  20   1
M  END
$$$$
default_name
  -OEChem-02102213163D

 36 35  0     1  0  0  0  0  0999 V2000
   -4.2256   -3.6731    1.8584 H   0  0  0  0  0  0  0  0  0  0  0  0
   -4.2396   -2.6781    1.4144 C   0  0  0  0  0  0  0  0  0  0  0  0
   -4.9506   -2.0521    1.9514 H   0  0  0  0  0  0  0  0  0  0  0  0
   -4.5266   -2.7521    0.3674 H   0  0  0  0  0  0  0  0  0  0  0  0
   -2.8576   -2.0761    1.5184 C   0  0  0  0  0  0  0  0  0  0  0  0
   -1.9456   -2.7051    2.0404 O   0  0  0  0  0  0  0  0  0  0  0  0
   -2.6926   -0.8481    1.0174 N   0  0  0  0  0  0  0  0  0  0  0  0
   -3.4926   -0.3971    0.5954 H   0  0  0  0  0  0  0  0  0  0  0  0
   -1.4216   -0.1071    1.0434 C   0  0  1  0  0  0  0  0  0  0  0  0
   -0.6709   -0.6930    0.5106 H   0  0  0  0  0  0  0  0  0  0  0  0
   -1.6221    1.2315    0.3051 C   0  0  0  0  0  0  0  0  0  0  0  0
   -2.1753    1.0414   -0.6168 H   0  0  0  0  0  0  0  0  0  0  0  0
   -2.2221    1.8971    0.9295 H   0  0  0  0  0  0  0  0  0  0  0  0
   -0.3049    1.9325   -0.0583 C   0  0  0  0  0  0  0  0  0  0  0  0
   -0.5162    2.8693   -0.5758 H   0  0  0  0  0  0  0  0  0  0  0  0
    0.2553    2.1428    0.8533 H   0  0  0  0  0  0  0  0  0  0  0  0
    0.5319    1.0295   -0.9748 C   0  0  0  0  0  0  0  0  0  0  0  0
    0.7159    0.0841   -0.4593 H   0  0  0  0  0  0  0  0  0  0  0  0
   -0.0410    0.8300   -1.8835 H   0  0  0  0  0  0  0  0  0  0  0  0
    1.8218    1.6553   -1.3318 N   0  3  0  0  0  0  0  0  0  0  0  0
    1.9825    2.5866   -0.9880 H   0  0  0  0  0  0  0  0  0  0  0  0
    2.7817    1.1075   -2.0581 C   0  0  0  0  0  0  0  0  0  0  0  0
    2.6768   -0.0940   -2.5527 N   0  0  0  0  0  0  0  0  0  0  0  0
    1.8394   -0.6194   -2.3738 H   0  0  0  0  0  0  0  0  0  0  0  0
    3.4146   -0.4947   -3.1022 H   0  0  0  0  0  0  0  0  0  0  0  0
    3.8788    1.7651   -2.3055 N   0  0  0  0  0  0  0  0  0  0  0  0
    4.0059    2.6951   -1.9451 H   0  0  0  0  0  0  0  0  0  0  0  0
    4.6046    1.3458   -2.8568 H   0  0  0  0  0  0  0  0  0  0  0  0
   -0.9523    0.1012    2.4848 C   0  0  0  0  0  0  0  0  0  0  0  0
    0.2133   -0.1319    2.7814 O   0  0  0  0  0  0  0  0  0  0  0  0
   -1.8684    0.5006    3.3725 N   0  0  0  0  0  0  0  0  0  0  0  0
   -2.7946    0.7048    3.0343 H   0  0  0  0  0  0  0  0  0  0  0  0
   -1.5848    0.7472    4.7873 C   0  0  0  0  0  0  0  0  0  0  0  0
   -0.8819    1.5774    4.8838 H   0  0  0  0  0  0  0  0  0  0  0  0
   -2.5030    0.9948    5.3214 H   0  0  0  0  0  0  0  0  0  0  0  0
   -1.1344   -0.1399    5.2381 H   0  0  0  0  0  0  0  0  0  0  0  0
  5  6  2  0  0  0  0
  5  7  1  0  0  0  0
  2  3  1  0  0  0  0
  2  4  1  0  0  0  0
  2  5  1  0  0  0  0
  1  2  1  0  0  0  0
 29 30  2  0  0  0  0
 29 31  1  0  0  0  0
 26 27  1  0  0  0  0
 26 28  1  0  0  0  0
 23 24  1  0  0  0  0
 23 25  1  0  0  0  0
 22 23  1  0  0  0  0
 22 26  1  0  0  0  0
 20 21  1  0  0  0  0
 20 22  2  0  0  0  0
 17 18  1  0  0  0  0
 17 19  1  0  0  0  0
 17 20  1  0  0  0  0
 14 15  1  0  0  0  0
 14 16  1  0  0  0  0
 14 17  1  0  0  0  0
 11 12  1  0  0  0  0
 11 13  1  0  0  0  0
 11 14  1  0  0  0  0
  9 10  1  0  0  0  0
  9 11  1  0  0  0  0
  9 29  1  0  0  0  0
  7  8  1  0  0  0  0
  7  9  1  0  0  0  0
 33 34  1  0  0  0  0
 33 35  1  0  0  0  0
 33 36  1  0  0  0  0
 31 32  1  0  0  0  0
 31 33  1  0  0  0  0
M  CHG  1  20   1
M  END
$$$$
default_name
  -OEChem-02102213163D

 36 35  0     1  0  0  0  0  0999 V2000
   -4.2256   -3.6731    1.8584 H   0  0  0  0  0  0  0  0  0  0  0  0
   -4.2396   -2.6781    1.4144 C   0  0  0  0  0  0  0  0  0  0  0  0
   -4.9506   -2.0521    1.9514 H   0  0  0  0  0  0  0  0  0  0  0  0
   -4.5266   -2.7521    0.3674 H   0  0  0  0  0  0  0  0  0  0  0  0
   -2.8576   -2.0761    1.5184 C   0  0  0  0  0  0  0  0  0  0  0  0
   -1.9456   -2.7051    2.0404 O   0  0  0  0  0  0  0  0  0  0  0  0
   -2.6926   -0.8481    1.0174 N   0  0  0  0  0  0  0  0  0  0  0  0
   -3.4926   -0.3971    0.5954 H   0  0  0  0  0  0  0  0  0  0  0  0
   -1.4216   -0.1071    1.0434 C   0  0  1  0  0  0  0  0  0  0  0  0
   -0.6709   -0.6930    0.5106 H   0  0  0  0  0  0  0  0  0  0  0  0
   -1.6221    1.2315    0.3051 C   0  0  0  0  0  0  0  0  0  0  0  0
   -2.1753    1.0414   -0.6168 H   0  0  0  0  0  0  0  0  0  0  0  0
   -2.2221    1.8971    0.9295 H   0  0  0  0  0  0  0  0  0  0  0  0
   -0.3049    1.9325   -0.0583 C   0  0  0  0  0  0  0  0  0  0  0  0
   -0.5019    2.9709   -0.3283 H   0  0  0  0  0  0  0  0  0  0  0  0
    0.3673    1.9045    0.7998 H   0  0  0  0  0  0  0  0  0  0  0  0
    0.3551    1.2206   -1.2471 C   0  0  0  0  0  0  0  0  0  0  0  0
    0.5242    0.1756   -0.9776 H   0  0  0  0  0  0  0  0  0  0  0  0
   -0.3286    1.2590   -2.0985 H   0  0  0  0  0  0  0  0  0  0  0  0
    1.6403    1.8482   -1.6173 N   0  3  0  0  0  0  0  0  0  0  0  0
    1.9073    2.6691   -1.1014 H   0  0  0  0  0  0  0  0  0  0  0  0
    2.4699    1.4331   -2.5598 C   0  0  0  0  0  0  0  0  0  0  0  0
    2.2214    0.3807   -3.2877 N   0  0  0  0  0  0  0  0  0  0  0  0
    1.3722   -0.1308   -3.1246 H   0  0  0  0  0  0  0  0  0  0  0  0
    2.8615    0.0794   -3.9993 H   0  0  0  0  0  0  0  0  0  0  0  0
    3.5787    2.0763   -2.7929 N   0  0  0  0  0  0  0  0  0  0  0  0
    3.8142    2.8938   -2.2570 H   0  0  0  0  0  0  0  0  0  0  0  0
    4.2053    1.7579   -3.5089 H   0  0  0  0  0  0  0  0  0  0  0  0
   -0.9523    0.1012    2.4848 C   0  0  0  0  0  0  0  0  0  0  0  0
    0.2133   -0.1319    2.7814 O   0  0  0  0  0  0  0  0  0  0  0  0
   -1.8684    0.5006    3.3725 N   0  0  0  0  0  0  0  0  0  0  0  0
   -2.7946    0.7048    3.0343 H   0  0  0  0  0  0  0  0  0  0  0  0
   -1.5848    0.7472    4.7873 C   0  0  0  0  0  0  0  0  0  0  0  0
   -0.8819    1.5774    4.8838 H   0  0  0  0  0  0  0  0  0  0  0  0
   -2.5030    0.9948    5.3214 H   0  0  0  0  0  0  0  0  0  0  0  0
   -1.1344   -0.1399    5.2381 H   0  0  0  0  0  0  0  0  0  0  0  0
  5  6  2  0  0  0  0
  5  7  1  0  0  0  0
  2  3  1  0  0  0  0
  2  4  1  0  0  0  0
  2  5  1  0  0  0  0
  1  2  1  0  0  0  0
 29 30  2  0  0  0  0
 29 31  1  0  0  0  0
 26 27  1  0  0  0  0
 26 28  1  0  0  0  0
 23 24  1  0  0  0  0
 23 25  1  0  0  0  0
 22 23  1  0  0  0  0
 22 26  1  0  0  0  0
 20 21  1  0  0  0  0
 20 22  2  0  0  0  0
 17 18  1  0  0  0  0
 17 19  1  0  0  0  0
 17 20  1  0  0  0  0
 14 15  1  0  0  0  0
 14 16  1  0  0  0  0
 14 17  1  0  0  0  0
 11 12  1  0  0  0  0
 11 13  1  0  0  0  0
 11 14  1  0  0  0  0
  9 10  1  0  0  0  0
  9 11  1  0  0  0  0
  9 29  1  0  0  0  0
  7  8  1  0  0  0  0
  7  9  1  0  0  0  0
 33 34  1  0  0  0  0
 33 35  1  0  0  0  0
 33 36  1  0  0  0  0
 31 32  1  0  0  0  0
 31 33  1  0  0  0  0
M  CHG  1  20   1
M  END
$$$$
default_name
  -OEChem-02102213163D

 36 35  0     1  0  0  0  0  0999 V2000
   -4.2256   -3.6731    1.8584 H   0  0  0  0  0  0  0  0  0  0  0  0
   -4.2396   -2.6781    1.4144 C   0  0  0  0  0  0  0  0  0  0  0  0
   -4.9506   -2.0521    1.9514 H   0  0  0  0  0  0  0  0  0  0  0  0
   -4.5266   -2.7521    0.3674 H   0  0  0  0  0  0  0  0  0  0  0  0
   -2.8576   -2.0761    1.5184 C   0  0  0  0  0  0  0  0  0  0  0  0
   -1.9456   -2.7051    2.0404 O   0  0  0  0  0  0  0  0  0  0  0  0
   -2.6926   -0.8481    1.0174 N   0  0  0  0  0  0  0  0  0  0  0  0
   -3.4926   -0.3971    0.5954 H   0  0  0  0  0  0  0  0  0  0  0  0
   -1.4216   -0.1071    1.0434 C   0  0  1  0  0  0  0  0  0  0  0  0
   -0.6709   -0.6930    0.5106 H   0  0  0  0  0  0  0  0  0  0  0  0
   -1.6221    1.2315    0.3051 C   0  0  0  0  0  0  0  0  0  0  0  0
   -2.1753    1.0414   -0.6168 H   0  0  0  0  0  0  0  0  0  0  0  0
   -2.2221    1.8971    0.9295 H   0  0  0  0  0  0  0  0  0  0  0  0
   -0.3049    1.9325   -0.0583 C   0  0  0  0  0  0  0  0  0  0  0  0
   -0.4527    3.0132   -0.0682 H   0  0  0  0  0  0  0  0  0  0  0  0
    0.4546    1.6794    0.6820 H   0  0  0  0  0  0  0  0  0  0  0  0
    0.1638    1.4765   -1.4468 C   0  0  0  0  0  0  0  0  0  0  0  0
    0.2834    0.3907   -1.4352 H   0  0  0  0  0  0  0  0  0  0  0  0
   -0.6055    1.7386   -2.1769 H   0  0  0  0  0  0  0  0  0  0  0  0
    1.4431    2.1091   -1.8288 N   0  3  0  0  0  0  0  0  0  0  0  0
    1.8263    2.7786   -1.1836 H   0  0  0  0  0  0  0  0  0  0  0  0
    2.1295    1.8782   -2.9354 C   0  0  0  0  0  0  0  0  0  0  0  0
    1.7237    1.0303   -3.8386 N   0  0  0  0  0  0  0  0  0  0  0  0
    0.8621    0.5365   -3.6861 H   0  0  0  0  0  0  0  0  0  0  0  0
    2.2564    0.8670   -4.6731 H   0  0  0  0  0  0  0  0  0  0  0  0
    3.2503    2.5034   -3.1592 N   0  0  0  0  0  0  0  0  0  0  0  0
    3.6042    3.1667   -2.4916 H   0  0  0  0  0  0  0  0  0  0  0  0
    3.7679    2.3252   -4.0000 H   0  0  0  0  0  0  0  0  0  0  0  0
   -0.9523    0.1012    2.4848 C   0  0  0  0  0  0  0  0  0  0  0  0
    0.2133   -0.1319    2.7814 O   0  0  0  0  0  0  0  0  0  0  0  0
   -1.8684    0.5006    3.3725 N   0  0  0  0  0  0  0  0  0  0  0  0
   -2.7946    0.7048    3.0343 H   0  0  0  0  0  0  0  0  0  0  0  0
   -1.5848    0.7472    4.7873 C   0  0  0  0  0  0  0  0  0  0  0  0
   -0.8819    1.5774    4.8838 H   0  0  0  0  0  0  0  0  0  0  0  0
   -2.5030    0.9948    5.3214 H   0  0  0  0  0  0  0  0  0  0  0  0
   -1.1344   -0.1399    5.2381 H   0  0  0  0  0  0  0  0  0  0  0  0
  5  6  2  0  0  0  0
  5  7  1  0  0  0  0
  2  3  1  0  0  0  0
  2  4  1  0  0  0  0
  2  5  1  0  0  0  0
  1  2  1  0  0  0  0
 29 30  2  0  0  0  0
 29 31  1  0  0  0  0
 26 27  1  0  0  0  0
 26 28  1  0  0  0  0
 23 24  1  0  0  0  0
 23 25  1  0  0  0  0
 22 23  1  0  0  0  0
 22 26  1  0  0  0  0
 20 21  1  0  0  0  0
 20 22  2  0  0  0  0
 17 18  1  0  0  0  0
 17 19  1  0  0  0  0
 17 20  1  0  0  0  0
 14 15  1  0  0  0  0
 14 16  1  0  0  0  0
 14 17  1  0  0  0  0
 11 12  1  0  0  0  0
 11 13  1  0  0  0  0
 11 14  1  0  0  0  0
  9 10  1  0  0  0  0
  9 11  1  0  0  0  0
  9 29  1  0  0  0  0
  7  8  1  0  0  0  0
  7  9  1  0  0  0  0
 33 34  1  0  0  0  0
 33 35  1  0  0  0  0
 33 36  1  0  0  0  0
 31 32  1  0  0  0  0
 31 33  1  0  0  0  0
M  CHG  1  20   1
M  END
$$$$
default_name
  -OEChem-02102213163D

 36 35  0     1  0  0  0  0  0999 V2000
   -4.2256   -3.6731    1.8584 H   0  0  0  0  0  0  0  0  0  0  0  0
   -4.2396   -2.6781    1.4144 C   0  0  0  0  0  0  0  0  0  0  0  0
   -4.9506   -2.0521    1.9514 H   0  0  0  0  0  0  0  0  0  0  0  0
   -4.5266   -2.7521    0.3674 H   0  0  0  0  0  0  0  0  0  0  0  0
   -2.8576   -2.0761    1.5184 C   0  0  0  0  0  0  0  0  0  0  0  0
   -1.9456   -2.7051    2.0404 O   0  0  0  0  0  0  0  0  0  0  0  0
   -2.6926   -0.8481    1.0174 N   0  0  0  0  0  0  0  0  0  0  0  0
   -3.4926   -0.3971    0.5954 H   0  0  0  0  0  0  0  0  0  0  0  0
   -1.4216   -0.1071    1.0434 C   0  0  1  0  0  0  0  0  0  0  0  0
   -0.6709   -0.6930    0.5106 H   0  0  0  0  0  0  0  0  0  0  0  0
   -1.6221    1.2315    0.3051 C   0  0  0  0  0  0  0  0  0  0  0  0
   -2.1753    1.0414   -0.6168 H   0  0  0  0  0  0  0  0  0  0  0  0
   -2.2221    1.8971    0.9295 H   0  0  0  0  0  0  0  0  0  0  0  0
   -0.3049    1.9325   -0.0583 C   0  0  0  0  0  0  0  0  0  0  0  0
   -0.3719    2.9934    0.1865 H   0  0  0  0  0  0  0  0  0  0  0  0
    0.5113    1.4828    0.5080 H   0  0  0  0  0  0  0  0  0  0  0  0
   -0.0289    1.7796   -1.5603 C   0  0  0  0  0  0  0  0  0  0  0  0
    0.0100    0.7148   -1.8011 H   0  0  0  0  0  0  0  0  0  0  0  0
   -0.8529    2.2364   -2.1135 H   0  0  0  0  0  0  0  0  0  0  0  0
    1.2436    2.4201   -1.9519 N   0  3  0  0  0  0  0  0  0  0  0  0
    1.7451    2.9076   -1.2292 H   0  0  0  0  0  0  0  0  0  0  0  0
    1.7835    2.4122   -3.1591 C   0  0  0  0  0  0  0  0  0  0  0  0
    1.2176    1.8105   -4.1676 N   0  0  0  0  0  0  0  0  0  0  0  0
    0.3440    1.3369   -4.0201 H   0  0  0  0  0  0  0  0  0  0  0  0
    1.6406    1.8144   -5.0775 H   0  0  0  0  0  0  0  0  0  0  0  0
    2.9160    3.0174   -3.3795 N   0  0  0  0  0  0  0  0  0  0  0  0
    3.3904    3.4951   -2.6327 H   0  0  0  0  0  0  0  0  0  0  0  0
    3.3221    3.0089   -4.2968 H   0  0  0  0  0  0  0  0  0  0  0  0
   -0.9523    0.1012    2.4848 C   0  0  0  0  0  0  0  0  0  0  0  0
    0.2133   -0.1319    2.7814 O   0  0  0  0  0  0  0  0  0  0  0  0
   -1.8684    0.5006    3.3725 N   0  0  0  0  0  0  0  0  0  0  0  0
   -2.7946    0.7048    3.0343 H   0  0  0  0  0  0  0  0  0  0  0  0
   -1.5848    0.7472    4.7873 C   0  0  0  0  0  0  0  0  0  0  0  0
   -0.8819    1.5774    4.8838 H   0  0  0  0  0  0  0  0  0  0  0  0
   -2.5030    0.9948    5.3214 H   0  0  0  0  0  0  0  0  0  0  0  0
   -1.1344   -0.1399    5.2381 H   0  0  0  0  0  0  0  0  0  0  0  0
  5  6  2  0  0  0  0
  5  7  1  0  0  0  0
  2  3  1  0  0  0  0
  2  4  1  0  0  0  0
  2  5  1  0  0  0  0
  1  2  1  0  0  0  0
 29 30  2  0  0  0  0
 29 31  1  0  0  0  0
 26 27  1  0  0  0  0
 26 28  1  0  0  0  0
 23 24  1  0  0  0  0
 23 25  1  0  0  0  0
 22 23  1  0  0  0  0
 22 26  1  0  0  0  0
 20 21  1  0  0  0  0
 20 22  2  0  0  0  0
 17 18  1  0  0  0  0
 17 19  1  0  0  0  0
 17 20  1  0  0  0  0
 14 15  1  0  0  0  0
 14 16  1  0  0  0  0
 14 17  1  0  0  0  0
 11 12  1  0  0  0  0
 11 13  1  0  0  0  0
 11 14  1  0  0  0  0
  9 10  1  0  0  0  0
  9 11  1  0  0  0  0
  9 29  1  0  0  0  0
  7  8  1  0  0  0  0
  7  9  1  0  0  0  0
 33 34  1  0  0  0  0
 33 35  1  0  0  0  0
 33 36  1  0  0  0  0
 31 32  1  0  0  0  0
 31 33  1  0  0  0  0
M  CHG  1  20   1
M  END
$$$$
default_name
  -OEChem-02102213163D

 36 35  0     1  0  0  0  0  0999 V2000
   -4.2256   -3.6731    1.8584 H   0  0  0  0  0  0  0  0  0  0  0  0
   -4.2396   -2.6781    1.4144 C   0  0  0  0  0  0  0  0  0  0  0  0
   -4.9506   -2.0521    1.9514 H   0  0  0  0  0  0  0  0  0  0  0  0
   -4.5266   -2.7521    0.3674 H   0  0  0  0  0  0  0  0  0  0  0  0
   -2.8576   -2.0761    1.5184 C   0  0  0  0  0  0  0  0  0  0  0  0
   -1.9456   -2.7051    2.0404 O   0  0  0  0  0  0  0  0  0  0  0  0
   -2.6926   -0.8481    1.0174 N   0  0  0  0  0  0  0  0  0  0  0  0
   -3.4926   -0.3971    0.5954 H   0  0  0  0  0  0  0  0  0  0  0  0
   -1.4216   -0.1071    1.0434 C   0  0  1  0  0  0  0  0  0  0  0  0
   -0.6709   -0.6930    0.5106 H   0  0  0  0  0  0  0  0  0  0  0  0
   -1.6221    1.2315    0.3051 C   0  0  0  0  0  0  0  0  0  0  0  0
   -2.1753    1.0414   -0.6168 H   0  0  0  0  0  0  0  0  0  0  0  0
   -2.2221    1.8971    0.9295 H   0  0  0  0  0  0  0  0  0  0  0  0
   -0.3049    1.9325   -0.0583 C   0  0  0  0  0  0  0  0  0  0  0  0
   -0.2649    2.9128    0.4186 H   0  0  0  0  0  0  0  0  0  0  0  0
    0.5334    1.3280    0.2895 H   0  0  0  0  0  0  0  0  0  0  0  0
   -0.2098    2.1095   -1.5799 C   0  0  0  0  0  0  0  0  0  0  0  0
   -0.2775    1.1258   -2.0502 H   0  0  0  0  0  0  0  0  0  0  0  0
   -1.0539    2.7182   -1.9125 H   0  0  0  0  0  0  0  0  0  0  0  0
    1.0554    2.7600   -1.9782 N   0  3  0  0  0  0  0  0  0  0  0  0
    1.6691    3.0473   -1.2351 H   0  0  0  0  0  0  0  0  0  0  0  0
    1.4556    2.9990   -3.2158 C   0  0  0  0  0  0  0  0  0  0  0  0
    0.7378    2.6682   -4.2525 N   0  0  0  0  0  0  0  0  0  0  0  0
   -0.1469    2.2159   -4.1038 H   0  0  0  0  0  0  0  0  0  0  0  0
    1.0560    2.8571   -5.1851 H   0  0  0  0  0  0  0  0  0  0  0  0
    2.5985    3.5833   -3.4386 N   0  0  0  0  0  0  0  0  0  0  0  0
    3.1874    3.8569   -2.6709 H   0  0  0  0  0  0  0  0  0  0  0  0
    2.8983    3.7626   -4.3791 H   0  0  0  0  0  0  0  0  0  0  0  0
   -0.9523    0.1012    2.4848 C   0  0  0  0  0  0  0  0  0  0  0  0
    0.2133   -0.1319    2.7814 O   0  0  0  0  0  0  0  0  0  0  0  0
   -1.8684    0.5006    3.3725 N   0  0  0  0  0  0  0  0  0  0  0  0
   -2.7946    0.7048    3.0343 H   0  0  0  0  0  0  0  0  0  0  0  0
   -1.5848    0.7472    4.7873 C   0  0  0  0  0  0  0  0  0  0  0  0
   -0.8819    1.5774    4.8838 H   0  0  0  0  0  0  0  0  0  0  0  0
   -2.5030    0.9948    5.3214 H   0  0  0  0  0  0  0  0  0  0  0  0
   -1.1344   -0.1399    5.2381 H   0  0  0  0  0  0  0  0  0  0  0  0
  5  6  2  0  0  0  0
  5  7  1  0  0  0  0
  2  3  1  0  0  0  0
  2  4  1  0  0  0  0
  2  5  1  0  0  0  0
  1  2  1  0  0  0  0
 29 30  2  0  0  0  0
 29 31  1  0  0  0  0
 26 27  1  0  0  0  0
 26 28  1  0  0  0  0
 23 24  1  0  0  0  0
 23 25  1  0  0  0  0
 22 23  1  0  0  0  0
 22 26  1  0  0  0  0
 20 21  1  0  0  0  0
 20 22  2  0  0  0  0
 17 18  1  0  0  0  0
 17 19  1  0  0  0  0
 17 20  1  0  0  0  0
 14 15  1  0  0  0  0
 14 16  1  0  0  0  0
 14 17  1  0  0  0  0
 11 12  1  0  0  0  0
 11 13  1  0  0  0  0
 11 14  1  0  0  0  0
  9 10  1  0  0  0  0
  9 11  1  0  0  0  0
  9 29  1  0  0  0  0
  7  8  1  0  0  0  0
  7  9  1  0  0  0  0
 33 34  1  0  0  0  0
 33 35  1  0  0  0  0
 33 36  1  0  0  0  0
 31 32  1  0  0  0  0
 31 33  1  0  0  0  0
M  CHG  1  20   1
M  END
$$$$
default_name
  -OEChem-02102213163D

 36 35  0     1  0  0  0  0  0999 V2000
   -4.2256   -3.6731    1.8584 H   0  0  0  0  0  0  0  0  0  0  0  0
   -4.2396   -2.6781    1.4144 C   0  0  0  0  0  0  0  0  0  0  0  0
   -4.9506   -2.0521    1.9514 H   0  0  0  0  0  0  0  0  0  0  0  0
   -4.5266   -2.7521    0.3674 H   0  0  0  0  0  0  0  0  0  0  0  0
   -2.8576   -2.0761    1.5184 C   0  0  0  0  0  0  0  0  0  0  0  0
   -1.9456   -2.7051    2.0404 O   0  0  0  0  0  0  0  0  0  0  0  0
   -2.6926   -0.8481    1.0174 N   0  0  0  0  0  0  0  0  0  0  0  0
   -3.4926   -0.3971    0.5954 H   0  0  0  0  0  0  0  0  0  0  0  0
   -1.4216   -0.1071    1.0434 C   0  0  1  0  0  0  0  0  0  0  0  0
   -0.6709   -0.6930    0.5106 H   0  0  0  0  0  0  0  0  0  0  0  0
   -1.6221    1.2315    0.3051 C   0  0  0  0  0  0  0  0  0  0  0  0
   -2.1753    1.0414   -0.6168 H   0  0  0  0  0  0  0  0  0  0  0  0
   -2.2221    1.8971    0.9295 H   0  0  0  0  0  0  0  0  0  0  0  0
   -0.3049    1.9325   -0.0583 C   0  0  0  0  0  0  0  0  0  0  0  0
   -0.1391    2.7768    0.6123 H   0  0  0  0  0  0  0  0  0  0  0  0
    0.5194    1.2256    0.0416 H   0  0  0  0  0  0  0  0  0  0  0  0
   -0.3667    2.4435   -1.5042 C   0  0  0  0  0  0  0  0  0  0  0  0
   -0.5595    1.5958   -2.1657 H   0  0  0  0  0  0  0  0  0  0  0  0
   -1.1947    3.1513   -1.5877 H   0  0  0  0  0  0  0  0  0  0  0  0
    0.8914    3.1058   -1.9059 N   0  3  0  0  0  0  0  0  0  0  0  0
    1.6036    3.1882   -1.2007 H   0  0  0  0  0  0  0  0  0  0  0  0
    1.1681    3.5984   -3.1016 C   0  0  0  0  0  0  0  0  0  0  0  0
    0.3168    3.5448   -4.0873 N   0  0  0  0  0  0  0  0  0  0  0  0
   -0.5772    3.1136   -3.9316 H   0  0  0  0  0  0  0  0  0  0  0  0
    0.5425    3.9239   -4.9886 H   0  0  0  0  0  0  0  0  0  0  0  0
    2.3196    4.1624   -3.3326 N   0  0  0  0  0  0  0  0  0  0  0  0
    3.0089    4.2272   -2.6035 H   0  0  0  0  0  0  0  0  0  0  0  0
    2.5254    4.5348   -4.2412 H   0  0  0  0  0  0  0  0  0  0  0  0
   -0.9523    0.1012    2.4848 C   0  0  0  0  0  0  0  0  0  0  0  0
    0.2133   -0.1319    2.7814 O   0  0  0  0  0  0  0  0  0  0  0  0
   -1.8684    0.5006    3.3725 N   0  0  0  0  0  0  0  0  0  0  0  0
   -2.7946    0.7048    3.0343 H   0  0  0  0  0  0  0  0  0  0  0  0
   -1.5848    0.7472    4.7873 C   0  0  0  0  0  0  0  0  0  0  0  0
   -0.8819    1.5774    4.8838 H   0  0  0  0  0  0  0  0  0  0  0  0
   -2.5030    0.9948    5.3214 H   0  0  0  0  0  0  0  0  0  0  0  0
   -1.1344   -0.1399    5.2381 H   0  0  0  0  0  0  0  0  0  0  0  0
  5  6  2  0  0  0  0
  5  7  1  0  0  0  0
  2  3  1  0  0  0  0
  2  4  1  0  0  0  0
  2  5  1  0  0  0  0
  1  2  1  0  0  0  0
 29 30  2  0  0  0  0
 29 31  1  0  0  0  0
 26 27  1  0  0  0  0
 26 28  1  0  0  0  0
 23 24  1  0  0  0  0
 23 25  1  0  0  0  0
 22 23  1  0  0  0  0
 22 26  1  0  0  0  0
 20 21  1  0  0  0  0
 20 22  2  0  0  0  0
 17 18  1  0  0  0  0
 17 19  1  0  0  0  0
 17 20  1  0  0  0  0
 14 15  1  0  0  0  0
 14 16  1  0  0  0  0
 14 17  1  0  0  0  0
 11 12  1  0  0  0  0
 11 13  1  0  0  0  0
 11 14  1  0  0  0  0
  9 10  1  0  0  0  0
  9 11  1  0  0  0  0
  9 29  1  0  0  0  0
  7  8  1  0  0  0  0
  7  9  1  0  0  0  0
 33 34  1  0  0  0  0
 33 35  1  0  0  0  0
 33 36  1  0  0  0  0
 31 32  1  0  0  0  0
 31 33  1  0  0  0  0
M  CHG  1  20   1
M  END
$$$$
default_name
  -OEChem-02102213163D

 36 35  0     1  0  0  0  0  0999 V2000
   -4.2256   -3.6731    1.8584 H   0  0  0  0  0  0  0  0  0  0  0  0
   -4.2396   -2.6781    1.4144 C   0  0  0  0  0  0  0  0  0  0  0  0
   -4.9506   -2.0521    1.9514 H   0  0  0  0  0  0  0  0  0  0  0  0
   -4.5266   -2.7521    0.3674 H   0  0  0  0  0  0  0  0  0  0  0  0
   -2.8576   -2.0761    1.5184 C   0  0  0  0  0  0  0  0  0  0  0  0
   -1.9456   -2.7051    2.0404 O   0  0  0  0  0  0  0  0  0  0  0  0
   -2.6926   -0.8481    1.0174 N   0  0  0  0  0  0  0  0  0  0  0  0
   -3.4926   -0.3971    0.5954 H   0  0  0  0  0  0  0  0  0  0  0  0
   -1.4216   -0.1071    1.0434 C   0  0  1  0  0  0  0  0  0  0  0  0
   -0.6709   -0.6930    0.5106 H   0  0  0  0  0  0  0  0  0  0  0  0
   -1.6221    1.2315    0.3051 C   0  0  0  0  0  0  0  0  0  0  0  0
   -2.1753    1.0414   -0.6168 H   0  0  0  0  0  0  0  0  0  0  0  0
   -2.2221    1.8971    0.9295 H   0  0  0  0  0  0  0  0  0  0  0  0
   -0.3049    1.9325   -0.0583 C   0  0  0  0  0  0  0  0  0  0  0  0
   -0.0030    2.5947    0.7543 H   0  0  0  0  0  0  0  0  0  0  0  0
    0.4704    1.1827   -0.2190 H   0  0  0  0  0  0  0  0  0  0  0  0
   -0.4888    2.7590   -1.3384 C   0  0  0  0  0  0  0  0  0  0  0  0
   -0.8167    2.0926   -2.1396 H   0  0  0  0  0  0  0  0  0  0  0  0
   -1.2659    3.5062   -1.1611 H   0  0  0  0  0  0  0  0  0  0  0  0
    0.7627    3.4337   -1.7399 N   0  3  0  0  0  0  0  0  0  0  0  0
    1.5530    3.3207   -1.1285 H   0  0  0  0  0  0  0  0  0  0  0  0
    0.9406    4.1696   -2.8243 C   0  0  0  0  0  0  0  0  0  0  0  0
   -0.0166    4.3808   -3.6835 N   0  0  0  0  0  0  0  0  0  0  0  0
   -0.9174    3.9689   -3.5151 H   0  0  0  0  0  0  0  0  0  0  0  0
    0.1351    4.9421   -4.5013 H   0  0  0  0  0  0  0  0  0  0  0  0
    2.0981    4.7154   -3.0687 N   0  0  0  0  0  0  0  0  0  0  0  0
    2.8672    4.5809   -2.4351 H   0  0  0  0  0  0  0  0  0  0  0  0
    2.2288    5.2729   -3.8925 H   0  0  0  0  0  0  0  0  0  0  0  0
   -0.9523    0.1012    2.4848 C   0  0  0  0  0  0  0  0  0  0  0  0
    0.2133   -0.1319    2.7814 O   0  0  0  0  0  0  0  0  0  0  0  0
   -1.8684    0.5006    3.3725 N   0  0  0  0  0  0  0  0  0  0  0  0
   -2.7946    0.7048    3.0343 H   0  0  0  0  0  0  0  0  0  0  0  0
   -1.5848    0.7472    4.7873 C   0  0  0  0  0  0  0  0  0  0  0  0
   -0.8819    1.5774    4.8838 H   0  0  0  0  0  0  0  0  0  0  0  0
   -2.5030    0.9948    5.3214 H   0  0  0  0  0  0  0  0  0  0  0  0
   -1.1344   -0.1399    5.2381 H   0  0  0  0  0  0  0  0  0  0  0  0
  5  6  2  0  0  0  0
  5  7  1  0  0  0  0
  2  3  1  0  0  0  0
  2  4  1  0  0  0  0
  2  5  1  0  0  0  0
  1  2  1  0  0  0  0
 29 30  2  0  0  0  0
 29 31  1  0  0  0  0
 26 27  1  0  0  0  0
 26 28  1  0  0  0  0
 23 24  1  0  0  0  0
 23 25  1  0  0  0  0
 22 23  1  0  0  0  0
 22 26  1  0  0  0  0
 20 21  1  0  0  0  0
 20 22  2  0  0  0  0
 17 18  1  0  0  0  0
 17 19  1  0  0  0  0
 17 20  1  0  0  0  0
 14 15  1  0  0  0  0
 14 16  1  0  0  0  0
 14 17  1  0  0  0  0
 11 12  1  0  0  0  0
 11 13  1  0  0  0  0
 11 14  1  0  0  0  0
  9 10  1  0  0  0  0
  9 11  1  0  0  0  0
  9 29  1  0  0  0  0
  7  8  1  0  0  0  0
  7  9  1  0  0  0  0
 33 34  1  0  0  0  0
 33 35  1  0  0  0  0
 33 36  1  0  0  0  0
 31 32  1  0  0  0  0
 31 33  1  0  0  0  0
M  CHG  1  20   1
M  END
$$$$
default_name
  -OEChem-02102213163D

 36 35  0     1  0  0  0  0  0999 V2000
   -4.2256   -3.6731    1.8584 H   0  0  0  0  0  0  0  0  0  0  0  0
   -4.2396   -2.6781    1.4144 C   0  0  0  0  0  0  0  0  0  0  0  0
   -4.9506   -2.0521    1.9514 H   0  0  0  0  0  0  0  0  0  0  0  0
   -4.5266   -2.7521    0.3674 H   0  0  0  0  0  0  0  0  0  0  0  0
   -2.8576   -2.0761    1.5184 C   0  0  0  0  0  0  0  0  0  0  0  0
   -1.9456   -2.7051    2.0404 O   0  0  0  0  0  0  0  0  0  0  0  0
   -2.6926   -0.8481    1.0174 N   0  0  0  0  0  0  0  0  0  0  0  0
   -3.4926   -0.3971    0.5954 H   0  0  0  0  0  0  0  0  0  0  0  0
   -1.4216   -0.1071    1.0434 C   0  0  1  0  0  0  0  0  0  0  0  0
   -0.6709   -0.6930    0.5106 H   0  0  0  0  0  0  0  0  0  0  0  0
   -1.6221    1.2315    0.3051 C   0  0  0  0  0  0  0  0  0  0  0  0
   -2.1753    1.0414   -0.6168 H   0  0  0  0  0  0  0  0  0  0  0  0
   -2.2221    1.8971    0.9295 H   0  0  0  0  0  0  0  0  0  0  0  0
   -0.3049    1.9325   -0.0583 C   0  0  0  0  0  0  0  0  0  0  0  0
    0.1341    2.3790    0.8349 H   0  0  0  0  0  0  0  0  0  0  0  0
    0.3896    1.2020   -0.4745 H   0  0  0  0  0  0  0  0  0  0  0  0
   -0.5679    3.0343   -1.0938 C   0  0  0  0  0  0  0  0  0  0  0  0
   -1.0316    2.5825   -1.9737 H   0  0  0  0  0  0  0  0  0  0  0  0
   -1.2625    3.7587   -0.6619 H   0  0  0  0  0  0  0  0  0  0  0  0
    0.6780    3.7216   -1.4916 N   0  3  0  0  0  0  0  0  0  0  0  0
    1.5208    3.4357   -1.0234 H   0  0  0  0  0  0  0  0  0  0  0  0
    0.7887    4.6738   -2.4027 C   0  0  0  0  0  0  0  0  0  0  0  0
   -0.2398    5.1190   -3.0685 N   0  0  0  0  0  0  0  0  0  0  0  0
   -1.1445    4.7234   -2.8828 H   0  0  0  0  0  0  0  0  0  0  0  0
   -0.1385    5.8425   -3.7563 H   0  0  0  0  0  0  0  0  0  0  0  0
    1.9492    5.2045   -2.6648 N   0  0  0  0  0  0  0  0  0  0  0  0
    2.7718    4.8938   -2.1772 H   0  0  0  0  0  0  0  0  0  0  0  0
    2.0288    5.9266   -3.3568 H   0  0  0  0  0  0  0  0  0  0  0  0
   -0.9523    0.1012    2.4848 C   0  0  0  0  0  0  0  0  0  0  0  0
    0.2133   -0.1319    2.7814 O   0  0  0  0  0  0  0  0  0  0  0  0
   -1.8684    0.5006    3.3725 N   0  0  0  0  0  0  0  0  0  0  0  0
   -2.7946    0.7048    3.0343 H   0  0  0  0  0  0  0  0  0  0  0  0
   -1.5848    0.7472    4.7873 C   0  0  0  0  0  0  0  0  0  0  0  0
   -0.8819    1.5774    4.8838 H   0  0  0  0  0  0  0  0  0  0  0  0
   -2.5030    0.9948    5.3214 H   0  0  0  0  0  0  0  0  0  0  0  0
   -1.1344   -0.1399    5.2381 H   0  0  0  0  0  0  0  0  0  0  0  0
  5  6  2  0  0  0  0
  5  7  1  0  0  0  0
  2  3  1  0  0  0  0
  2  4  1  0  0  0  0
  2  5  1  0  0  0  0
  1  2  1  0  0  0  0
 29 30  2  0  0  0  0
 29 31  1  0  0  0  0
 26 27  1  0  0  0  0
 26 28  1  0  0  0  0
 23 24  1  0  0  0  0
 23 25  1  0  0  0  0
 22 23  1  0  0  0  0
 22 26  1  0  0  0  0
 20 21  1  0  0  0  0
 20 22  2  0  0  0  0
 17 18  1  0  0  0  0
 17 19  1  0  0  0  0
 17 20  1  0  0  0  0
 14 15  1  0  0  0  0
 14 16  1  0  0  0  0
 14 17  1  0  0  0  0
 11 12  1  0  0  0  0
 11 13  1  0  0  0  0
 11 14  1  0  0  0  0
  9 10  1  0  0  0  0
  9 11  1  0  0  0  0
  9 29  1  0  0  0  0
  7  8  1  0  0  0  0
  7  9  1  0  0  0  0
 33 34  1  0  0  0  0
 33 35  1  0  0  0  0
 33 36  1  0  0  0  0
 31 32  1  0  0  0  0
 31 33  1  0  0  0  0
M  CHG  1  20   1
M  END
$$$$
default_name
  -OEChem-02102213163D

 36 35  0     1  0  0  0  0  0999 V2000
   -4.2256   -3.6731    1.8584 H   0  0  0  0  0  0  0  0  0  0  0  0
   -4.2396   -2.6781    1.4144 C   0  0  0  0  0  0  0  0  0  0  0  0
   -4.9506   -2.0521    1.9514 H   0  0  0  0  0  0  0  0  0  0  0  0
   -4.5266   -2.7521    0.3674 H   0  0  0  0  0  0  0  0  0  0  0  0
   -2.8576   -2.0761    1.5184 C   0  0  0  0  0  0  0  0  0  0  0  0
   -1.9456   -2.7051    2.0404 O   0  0  0  0  0  0  0  0  0  0  0  0
   -2.6926   -0.8481    1.0174 N   0  0  0  0  0  0  0  0  0  0  0  0
   -3.4926   -0.3971    0.5954 H   0  0  0  0  0  0  0  0  0  0  0  0
   -1.4216   -0.1071    1.0434 C   0  0  1  0  0  0  0  0  0  0  0  0
   -0.6709   -0.6930    0.5106 H   0  0  0  0  0  0  0  0  0  0  0  0
   -1.6221    1.2315    0.3051 C   0  0  0  0  0  0  0  0  0  0  0  0
   -2.3887    1.0958   -0.4604 H   0  0  0  0  0  0  0  0  0  0  0  0
   -1.9804    1.9804    1.0149 H   0  0  0  0  0  0  0  0  0  0  0  0
   -0.3473    1.7512   -0.3755 C   0  0  0  0  0  0  0  0  0  0  0  0
    0.4326    1.9064    0.3713 H   0  0  0  0  0  0  0  0  0  0  0  0
   -0.0048    1.0188   -1.1072 H   0  0  0  0  0  0  0  0  0  0  0  0
   -0.6380    3.0819   -1.0828 C   0  0  0  0  0  0  0  0  0  0  0  0
   -1.4380    2.9230   -1.8095 H   0  0  0  0  0  0  0  0  0  0  0  0
   -0.9773    3.8049   -0.3373 H   0  0  0  0  0  0  0  0  0  0  0  0
    0.5574    3.6085   -1.7731 N   0  3  0  0  0  0  0  0  0  0  0  0
    1.4081    3.0827   -1.6677 H   0  0  0  0  0  0  0  0  0  0  0  0
    0.6134    4.7023   -2.5143 C   0  0  0  0  0  0  0  0  0  0  0  0
   -0.4301    5.4570   -2.7162 N   0  0  0  0  0  0  0  0  0  0  0  0
   -1.3044    5.1964   -2.2953 H   0  0  0  0  0  0  0  0  0  0  0  0
   -0.3704    6.2841   -3.2812 H   0  0  0  0  0  0  0  0  0  0  0  0
    1.7333    5.0641   -3.0731 N   0  0  0  0  0  0  0  0  0  0  0  0
    2.5653    4.5138   -2.9465 H   0  0  0  0  0  0  0  0  0  0  0  0
    1.7714    5.8946   -3.6347 H   0  0  0  0  0  0  0  0  0  0  0  0
   -0.9523    0.1012    2.4848 C   0  0  0  0  0  0  0  0  0  0  0  0
    0.2133   -0.1319    2.7814 O   0  0  0  0  0  0  0  0  0  0  0  0
   -1.8684    0.5006    3.3725 N   0  0  0  0  0  0  0  0  0  0  0  0
   -2.7946    0.7048    3.0343 H   0  0  0  0  0  0  0  0  0  0  0  0
   -1.5848    0.7472    4.7873 C   0  0  0  0  0  0  0  0  0  0  0  0
   -0.8819    1.5774    4.8838 H   0  0  0  0  0  0  0  0  0  0  0  0
   -2.5030    0.9948    5.3214 H   0  0  0  0  0  0  0  0  0  0  0  0
   -1.1344   -0.1399    5.2381 H   0  0  0  0  0  0  0  0  0  0  0  0
  5  6  2  0  0  0  0
  5  7  1  0  0  0  0
  2  3  1  0  0  0  0
  2  4  1  0  0  0  0
  2  5  1  0  0  0  0
  1  2  1  0  0  0  0
 29 30  2  0  0  0  0
 29 31  1  0  0  0  0
 26 27  1  0  0  0  0
 26 28  1  0  0  0  0
 23 24  1  0  0  0  0
 23 25  1  0  0  0  0
 22 23  1  0  0  0  0
 22 26  1  0  0  0  0
 20 21  1  0  0  0  0
 20 22  2  0  0  0  0
 17 18  1  0  0  0  0
 17 19  1  0  0  0  0
 17 20  1  0  0  0  0
 14 15  1  0  0  0  0
 14 16  1  0  0  0  0
 14 17  1  0  0  0  0
 11 12  1  0  0  0  0
 11 13  1  0  0  0  0
 11 14  1  0  0  0  0
  9 10  1  0  0  0  0
  9 11  1  0  0  0  0
  9 29  1  0  0  0  0
  7  8  1  0  0  0  0
  7  9  1  0  0  0  0
 33 34  1  0  0  0  0
 33 35  1  0  0  0  0
 33 36  1  0  0  0  0
 31 32  1  0  0  0  0
 31 33  1  0  0  0  0
M  CHG  1  20   1
M  END
$$$$
default_name
  -OEChem-02102213163D

 36 35  0     1  0  0  0  0  0999 V2000
   -4.2256   -3.6731    1.8584 H   0  0  0  0  0  0  0  0  0  0  0  0
   -4.2396   -2.6781    1.4144 C   0  0  0  0  0  0  0  0  0  0  0  0
   -4.9506   -2.0521    1.9514 H   0  0  0  0  0  0  0  0  0  0  0  0
   -4.5266   -2.7521    0.3674 H   0  0  0  0  0  0  0  0  0  0  0  0
   -2.8576   -2.0761    1.5184 C   0  0  0  0  0  0  0  0  0  0  0  0
   -1.9456   -2.7051    2.0404 O   0  0  0  0  0  0  0  0  0  0  0  0
   -2.6926   -0.8481    1.0174 N   0  0  0  0  0  0  0  0  0  0  0  0
   -3.4926   -0.3971    0.5954 H   0  0  0  0  0  0  0  0  0  0  0  0
   -1.4216   -0.1071    1.0434 C   0  0  1  0  0  0  0  0  0  0  0  0
   -0.6709   -0.6930    0.5106 H   0  0  0  0  0  0  0  0  0  0  0  0
   -1.6221    1.2315    0.3051 C   0  0  0  0  0  0  0  0  0  0  0  0
   -2.3887    1.0958   -0.4604 H   0  0  0  0  0  0  0  0  0  0  0  0
   -1.9804    1.9804    1.0149 H   0  0  0  0  0  0  0  0  0  0  0  0
   -0.3473    1.7512   -0.3755 C   0  0  0  0  0  0  0  0  0  0  0  0
    0.4997    1.6555    0.3053 H   0  0  0  0  0  0  0  0  0  0  0  0
   -0.1544    1.1658   -1.2751 H   0  0  0  0  0  0  0  0  0  0  0  0
   -0.5226    3.2278   -0.7552 C   0  0  0  0  0  0  0  0  0  0  0  0
   -1.3885    3.3177   -1.4153 H   0  0  0  0  0  0  0  0  0  0  0  0
   -0.7126    3.8008    0.1554 H   0  0  0  0  0  0  0  0  0  0  0  0
    0.6737    3.7647   -1.4359 N   0  3  0  0  0  0  0  0  0  0  0  0
    1.4580    3.1422   -1.5288 H   0  0  0  0  0  0  0  0  0  0  0  0
    0.8094    4.9827   -1.9330 C   0  0  0  0  0  0  0  0  0  0  0  0
   -0.1444    5.8688   -1.8666 N   0  0  0  0  0  0  0  0  0  0  0  0
   -1.0101    5.6154   -1.4243 H   0  0  0  0  0  0  0  0  0  0  0  0
   -0.0248    6.7889   -2.2486 H   0  0  0  0  0  0  0  0  0  0  0  0
    1.9205    5.3387   -2.5127 N   0  0  0  0  0  0  0  0  0  0  0  0
    2.6848    4.6897   -2.5883 H   0  0  0  0  0  0  0  0  0  0  0  0
    2.0193    6.2637   -2.8886 H   0  0  0  0  0  0  0  0  0  0  0  0
   -0.9523    0.1012    2.4848 C   0  0  0  0  0  0  0  0  0  0  0  0
    0.2133   -0.1319    2.7814 O   0  0  0  0  0  0  0  0  0  0  0  0
   -1.8684    0.5006    3.3725 N   0  0  0  0  0  0  0  0  0  0  0  0
   -2.7946    0.7048    3.0343 H   0  0  0  0  0  0  0  0  0  0  0  0
   -1.5848    0.7472    4.7873 C   0  0  0  0  0  0  0  0  0  0  0  0
   -0.8819    1.5774    4.8838 H   0  0  0  0  0  0  0  0  0  0  0  0
   -2.5030    0.9948    5.3214 H   0  0  0  0  0  0  0  0  0  0  0  0
   -1.1344   -0.1399    5.2381 H   0  0  0  0  0  0  0  0  0  0  0  0
  5  6  2  0  0  0  0
  5  7  1  0  0  0  0
  2  3  1  0  0  0  0
  2  4  1  0  0  0  0
  2  5  1  0  0  0  0
  1  2  1  0  0  0  0
 29 30  2  0  0  0  0
 29 31  1  0  0  0  0
 26 27  1  0  0  0  0
 26 28  1  0  0  0  0
 23 24  1  0  0  0  0
 23 25  1  0  0  0  0
 22 23  1  0  0  0  0
 22 26  1  0  0  0  0
 20 21  1  0  0  0  0
 20 22  2  0  0  0  0
 17 18  1  0  0  0  0
 17 19  1  0  0  0  0
 17 20  1  0  0  0  0
 14 15  1  0  0  0  0
 14 16  1  0  0  0  0
 14 17  1  0  0  0  0
 11 12  1  0  0  0  0
 11 13  1  0  0  0  0
 11 14  1  0  0  0  0
  9 10  1  0  0  0  0
  9 11  1  0  0  0  0
  9 29  1  0  0  0  0
  7  8  1  0  0  0  0
  7  9  1  0  0  0  0
 33 34  1  0  0  0  0
 33 35  1  0  0  0  0
 33 36  1  0  0  0  0
 31 32  1  0  0  0  0
 31 33  1  0  0  0  0
M  CHG  1  20   1
M  END
$$$$
default_name
  -OEChem-02102213163D

 36 35  0     1  0  0  0  0  0999 V2000
   -4.2256   -3.6731    1.8584 H   0  0  0  0  0  0  0  0  0  0  0  0
   -4.2396   -2.6781    1.4144 C   0  0  0  0  0  0  0  0  0  0  0  0
   -4.9506   -2.0521    1.9514 H   0  0  0  0  0  0  0  0  0  0  0  0
   -4.5266   -2.7521    0.3674 H   0  0  0  0  0  0  0  0  0  0  0  0
   -2.8576   -2.0761    1.5184 C   0  0  0  0  0  0  0  0  0  0  0  0
   -1.9456   -2.7051    2.0404 O   0  0  0  0  0  0  0  0  0  0  0  0
   -2.6926   -0.8481    1.0174 N   0  0  0  0  0  0  0  0  0  0  0  0
   -3.4926   -0.3971    0.5954 H   0  0  0  0  0  0  0  0  0  0  0  0
   -1.4216   -0.1071    1.0434 C   0  0  1  0  0  0  0  0  0  0  0  0
   -0.6709   -0.6930    0.5106 H   0  0  0  0  0  0  0  0  0  0  0  0
   -1.6221    1.2315    0.3051 C   0  0  0  0  0  0  0  0  0  0  0  0
   -2.3887    1.0958   -0.4604 H   0  0  0  0  0  0  0  0  0  0  0  0
   -1.9804    1.9804    1.0149 H   0  0  0  0  0  0  0  0  0  0  0  0
   -0.3473    1.7512   -0.3755 C   0  0  0  0  0  0  0  0  0  0  0  0
    0.5299    1.4196    0.1818 H   0  0  0  0  0  0  0  0  0  0  0  0
   -0.2967    1.3611   -1.3925 H   0  0  0  0  0  0  0  0  0  0  0  0
   -0.3657    3.2853   -0.4176 C   0  0  0  0  0  0  0  0  0  0  0  0
   -1.2608    3.6086   -0.9540 H   0  0  0  0  0  0  0  0  0  0  0  0
   -0.4141    3.6606    0.6073 H   0  0  0  0  0  0  0  0  0  0  0  0
    0.8335    3.8299   -1.0868 N   0  3  0  0  0  0  0  0  0  0  0  0
    1.5252    3.1641   -1.3862 H   0  0  0  0  0  0  0  0  0  0  0  0
    1.0819    5.1062   -1.3284 C   0  0  0  0  0  0  0  0  0  0  0  0
    0.2533    6.0512   -0.9825 N   0  0  0  0  0  0  0  0  0  0  0  0
   -0.6016    5.7992   -0.5188 H   0  0  0  0  0  0  0  0  0  0  0  0
    0.4573    7.0150   -1.1731 H   0  0  0  0  0  0  0  0  0  0  0  0
    2.1820    5.4621   -1.9288 N   0  0  0  0  0  0  0  0  0  0  0  0
    2.8518    4.7690   -2.2150 H   0  0  0  0  0  0  0  0  0  0  0  0
    2.3664    6.4315   -2.1103 H   0  0  0  0  0  0  0  0  0  0  0  0
   -0.9523    0.1012    2.4848 C   0  0  0  0  0  0  0  0  0  0  0  0
    0.2133   -0.1319    2.7814 O   0  0  0  0  0  0  0  0  0  0  0  0
   -1.8684    0.5006    3.3725 N   0  0  0  0  0  0  0  0  0  0  0  0
   -2.7946    0.7048    3.0343 H   0  0  0  0  0  0  0  0  0  0  0  0
   -1.5848    0.7472    4.7873 C   0  0  0  0  0  0  0  0  0  0  0  0
   -0.8819    1.5774    4.8838 H   0  0  0  0  0  0  0  0  0  0  0  0
   -2.5030    0.9948    5.3214 H   0  0  0  0  0  0  0  0  0  0  0  0
   -1.1344   -0.1399    5.2381 H   0  0  0  0  0  0  0  0  0  0  0  0
  5  6  2  0  0  0  0
  5  7  1  0  0  0  0
  2  3  1  0  0  0  0
  2  4  1  0  0  0  0
  2  5  1  0  0  0  0
  1  2  1  0  0  0  0
 29 30  2  0  0  0  0
 29 31  1  0  0  0  0
 26 27  1  0  0  0  0
 26 28  1  0  0  0  0
 23 24  1  0  0  0  0
 23 25  1  0  0  0  0
 22 23  1  0  0  0  0
 22 26  1  0  0  0  0
 20 21  1  0  0  0  0
 20 22  2  0  0  0  0
 17 18  1  0  0  0  0
 17 19  1  0  0  0  0
 17 20  1  0  0  0  0
 14 15  1  0  0  0  0
 14 16  1  0  0  0  0
 14 17  1  0  0  0  0
 11 12  1  0  0  0  0
 11 13  1  0  0  0  0
 11 14  1  0  0  0  0
  9 10  1  0  0  0  0
  9 11  1  0  0  0  0
  9 29  1  0  0  0  0
  7  8  1  0  0  0  0
  7  9  1  0  0  0  0
 33 34  1  0  0  0  0
 33 35  1  0  0  0  0
 33 36  1  0  0  0  0
 31 32  1  0  0  0  0
 31 33  1  0  0  0  0
M  CHG  1  20   1
M  END
$$$$
default_name
  -OEChem-02102213163D

 36 35  0     1  0  0  0  0  0999 V2000
   -4.2256   -3.6731    1.8584 H   0  0  0  0  0  0  0  0  0  0  0  0
   -4.2396   -2.6781    1.4144 C   0  0  0  0  0  0  0  0  0  0  0  0
   -4.9506   -2.0521    1.9514 H   0  0  0  0  0  0  0  0  0  0  0  0
   -4.5266   -2.7521    0.3674 H   0  0  0  0  0  0  0  0  0  0  0  0
   -2.8576   -2.0761    1.5184 C   0  0  0  0  0  0  0  0  0  0  0  0
   -1.9456   -2.7051    2.0404 O   0  0  0  0  0  0  0  0  0  0  0  0
   -2.6926   -0.8481    1.0174 N   0  0  0  0  0  0  0  0  0  0  0  0
   -3.4926   -0.3971    0.5954 H   0  0  0  0  0  0  0  0  0  0  0  0
   -1.4216   -0.1071    1.0434 C   0  0  1  0  0  0  0  0  0  0  0  0
   -0.6709   -0.6930    0.5106 H   0  0  0  0  0  0  0  0  0  0  0  0
   -1.6221    1.2315    0.3051 C   0  0  0  0  0  0  0  0  0  0  0  0
   -2.3887    1.0958   -0.4604 H   0  0  0  0  0  0  0  0  0  0  0  0
   -1.9804    1.9804    1.0149 H   0  0  0  0  0  0  0  0  0  0  0  0
   -0.3473    1.7512   -0.3755 C   0  0  0  0  0  0  0  0  0  0  0  0
    0.5212    1.2148    0.0092 H   0  0  0  0  0  0  0  0  0  0  0  0
   -0.4221    1.5912   -1.4516 H   0  0  0  0  0  0  0  0  0  0  0  0
   -0.1781    3.2502   -0.0928 C   0  0  0  0  0  0  0  0  0  0  0  0
   -1.0637    3.7759   -0.4572 H   0  0  0  0  0  0  0  0  0  0  0  0
   -0.1023    3.3939    0.9876 H   0  0  0  0  0  0  0  0  0  0  0  0
    1.0260    3.7995   -0.7496 N   0  3  0  0  0  0  0  0  0  0  0  0
    1.6051    3.1469   -1.2497 H   0  0  0  0  0  0  0  0  0  0  0  0
    1.4122    5.0643   -0.7418 C   0  0  0  0  0  0  0  0  0  0  0  0
    0.7358    5.9918   -0.1242 N   0  0  0  0  0  0  0  0  0  0  0  0
   -0.1066    5.7353    0.3596 H   0  0  0  0  0  0  0  0  0  0  0  0
    1.0431    6.9470   -0.1278 H   0  0  0  0  0  0  0  0  0  0  0  0
    2.4998    5.4259   -1.3612 N   0  0  0  0  0  0  0  0  0  0  0  0
    3.0549    4.7462   -1.8520 H   0  0  0  0  0  0  0  0  0  0  0  0
    2.7892    6.3865   -1.3529 H   0  0  0  0  0  0  0  0  0  0  0  0
   -0.9523    0.1012    2.4848 C   0  0  0  0  0  0  0  0  0  0  0  0
    0.2133   -0.1319    2.7814 O   0  0  0  0  0  0  0  0  0  0  0  0
   -1.8684    0.5006    3.3725 N   0  0  0  0  0  0  0  0  0  0  0  0
   -2.7946    0.7048    3.0343 H   0  0  0  0  0  0  0  0  0  0  0  0
   -1.5848    0.7472    4.7873 C   0  0  0  0  0  0  0  0  0  0  0  0
   -0.8819    1.5774    4.8838 H   0  0  0  0  0  0  0  0  0  0  0  0
   -2.5030    0.9948    5.3214 H   0  0  0  0  0  0  0  0  0  0  0  0
   -1.1344   -0.1399    5.2381 H   0  0  0  0  0  0  0  0  0  0  0  0
  5  6  2  0  0  0  0
  5  7  1  0  0  0  0
  2  3  1  0  0  0  0
  2  4  1  0  0  0  0
  2  5  1  0  0  0  0
  1  2  1  0  0  0  0
 29 30  2  0  0  0  0
 29 31  1  0  0  0  0
 26 27  1  0  0  0  0
 26 28  1  0  0  0  0
 23 24  1  0  0  0  0
 23 25  1  0  0  0  0
 22 23  1  0  0  0  0
 22 26  1  0  0  0  0
 20 21  1  0  0  0  0
 20 22  2  0  0  0  0
 17 18  1  0  0  0  0
 17 19  1  0  0  0  0
 17 20  1  0  0  0  0
 14 15  1  0  0  0  0
 14 16  1  0  0  0  0
 14 17  1  0  0  0  0
 11 12  1  0  0  0  0
 11 13  1  0  0  0  0
 11 14  1  0  0  0  0
  9 10  1  0  0  0  0
  9 11  1  0  0  0  0
  9 29  1  0  0  0  0
  7  8  1  0  0  0  0
  7  9  1  0  0  0  0
 33 34  1  0  0  0  0
 33 35  1  0  0  0  0
 33 36  1  0  0  0  0
 31 32  1  0  0  0  0
 31 33  1  0  0  0  0
M  CHG  1  20   1
M  END
$$$$
default_name
  -OEChem-02102213163D

 36 35  0     1  0  0  0  0  0999 V2000
   -4.2256   -3.6731    1.8584 H   0  0  0  0  0  0  0  0  0  0  0  0
   -4.2396   -2.6781    1.4144 C   0  0  0  0  0  0  0  0  0  0  0  0
   -4.9506   -2.0521    1.9514 H   0  0  0  0  0  0  0  0  0  0  0  0
   -4.5266   -2.7521    0.3674 H   0  0  0  0  0  0  0  0  0  0  0  0
   -2.8576   -2.0761    1.5184 C   0  0  0  0  0  0  0  0  0  0  0  0
   -1.9456   -2.7051    2.0404 O   0  0  0  0  0  0  0  0  0  0  0  0
   -2.6926   -0.8481    1.0174 N   0  0  0  0  0  0  0  0  0  0  0  0
   -3.4926   -0.3971    0.5954 H   0  0  0  0  0  0  0  0  0  0  0  0
   -1.4216   -0.1071    1.0434 C   0  0  1  0  0  0  0  0  0  0  0  0
   -0.6709   -0.6930    0.5106 H   0  0  0  0  0  0  0  0  0  0  0  0
   -1.6221    1.2315    0.3051 C   0  0  0  0  0  0  0  0  0  0  0  0
   -2.3887    1.0958   -0.4604 H   0  0  0  0  0  0  0  0  0  0  0  0
   -1.9804    1.9804    1.0149 H   0  0  0  0  0  0  0  0  0  0  0  0
   -0.3473    1.7512   -0.3755 C   0  0  0  0  0  0  0  0  0  0  0  0
    0.4742    1.0550   -0.2008 H   0  0  0  0  0  0  0  0  0  0  0  0
   -0.5219    1.8406   -1.4481 H   0  0  0  0  0  0  0  0  0  0  0  0
    0.0277    3.1250    0.1969 C   0  0  0  0  0  0  0  0  0  0  0  0
   -0.8106    3.8081    0.0414 H   0  0  0  0  0  0  0  0  0  0  0  0
    0.2015    3.0187    1.2702 H   0  0  0  0  0  0  0  0  0  0  0  0
    1.2379    3.6756   -0.4472 N   0  3  0  0  0  0  0  0  0  0  0  0
    1.6923    3.0918   -1.1285 H   0  0  0  0  0  0  0  0  0  0  0  0
    1.7778    4.8599   -0.2131 C   0  0  0  0  0  0  0  0  0  0  0  0
    1.2702    5.6947    0.6499 N   0  0  0  0  0  0  0  0  0  0  0  0
    0.4412    5.4281    1.1509 H   0  0  0  0  0  0  0  0  0  0  0  0
    1.6927    6.5896    0.8160 H   0  0  0  0  0  0  0  0  0  0  0  0
    2.8523    5.2325   -0.8486 N   0  0  0  0  0  0  0  0  0  0  0  0
    3.2803    4.6229   -1.5241 H   0  0  0  0  0  0  0  0  0  0  0  0
    3.2587    6.1319   -0.6680 H   0  0  0  0  0  0  0  0  0  0  0  0
   -0.9523    0.1012    2.4848 C   0  0  0  0  0  0  0  0  0  0  0  0
    0.2133   -0.1319    2.7814 O   0  0  0  0  0  0  0  0  0  0  0  0
   -1.8684    0.5006    3.3725 N   0  0  0  0  0  0  0  0  0  0  0  0
   -2.7946    0.7048    3.0343 H   0  0  0  0  0  0  0  0  0  0  0  0
   -1.5848    0.7472    4.7873 C   0  0  0  0  0  0  0  0  0  0  0  0
   -0.8819    1.5774    4.8838 H   0  0  0  0  0  0  0  0  0  0  0  0
   -2.5030    0.9948    5.3214 H   0  0  0  0  0  0  0  0  0  0  0  0
   -1.1344   -0.1399    5.2381 H   0  0  0  0  0  0  0  0  0  0  0  0
  5  6  2  0  0  0  0
  5  7  1  0  0  0  0
  2  3  1  0  0  0  0
  2  4  1  0  0  0  0
  2  5  1  0  0  0  0
  1  2  1  0  0  0  0
 29 30  2  0  0  0  0
 29 31  1  0  0  0  0
 26 27  1  0  0  0  0
 26 28  1  0  0  0  0
 23 24  1  0  0  0  0
 23 25  1  0  0  0  0
 22 23  1  0  0  0  0
 22 26  1  0  0  0  0
 20 21  1  0  0  0  0
 20 22  2  0  0  0  0
 17 18  1  0  0  0  0
 17 19  1  0  0  0  0
 17 20  1  0  0  0  0
 14 15  1  0  0  0  0
 14 16  1  0  0  0  0
 14 17  1  0  0  0  0
 11 12  1  0  0  0  0
 11 13  1  0  0  0  0
 11 14  1  0  0  0  0
  9 10  1  0  0  0  0
  9 11  1  0  0  0  0
  9 29  1  0  0  0  0
  7  8  1  0  0  0  0
  7  9  1  0  0  0  0
 33 34  1  0  0  0  0
 33 35  1  0  0  0  0
 33 36  1  0  0  0  0
 31 32  1  0  0  0  0
 31 33  1  0  0  0  0
M  CHG  1  20   1
M  END
$$$$
default_name
  -OEChem-02102213163D

 36 35  0     1  0  0  0  0  0999 V2000
   -4.2256   -3.6731    1.8584 H   0  0  0  0  0  0  0  0  0  0  0  0
   -4.2396   -2.6781    1.4144 C   0  0  0  0  0  0  0  0  0  0  0  0
   -4.9506   -2.0521    1.9514 H   0  0  0  0  0  0  0  0  0  0  0  0
   -4.5266   -2.7521    0.3674 H   0  0  0  0  0  0  0  0  0  0  0  0
   -2.8576   -2.0761    1.5184 C   0  0  0  0  0  0  0  0  0  0  0  0
   -1.9456   -2.7051    2.0404 O   0  0  0  0  0  0  0  0  0  0  0  0
   -2.6926   -0.8481    1.0174 N   0  0  0  0  0  0  0  0  0  0  0  0
   -3.4926   -0.3971    0.5954 H   0  0  0  0  0  0  0  0  0  0  0  0
   -1.4216   -0.1071    1.0434 C   0  0  1  0  0  0  0  0  0  0  0  0
   -0.6709   -0.6930    0.5106 H   0  0  0  0  0  0  0  0  0  0  0  0
   -1.6221    1.2315    0.3051 C   0  0  0  0  0  0  0  0  0  0  0  0
   -2.3887    1.0958   -0.4604 H   0  0  0  0  0  0  0  0  0  0  0  0
   -1.9804    1.9804    1.0149 H   0  0  0  0  0  0  0  0  0  0  0  0
   -0.3473    1.7512   -0.3755 C   0  0  0  0  0  0  0  0  0  0  0  0
    0.3921    0.9512   -0.4338 H   0  0  0  0  0  0  0  0  0  0  0  0
   -0.5895    2.0922   -1.3825 H   0  0  0  0  0  0  0  0  0  0  0  0
    0.2374    2.9182    0.4318 C   0  0  0  0  0  0  0  0  0  0  0  0
   -0.5188    3.7030    0.5078 H   0  0  0  0  0  0  0  0  0  0  0  0
    0.4768    2.5608    1.4361 H   0  0  0  0  0  0  0  0  0  0  0  0
    1.4549    3.4666   -0.2004 N   0  3  0  0  0  0  0  0  0  0  0  0
    1.7808    3.0026   -1.0310 H   0  0  0  0  0  0  0  0  0  0  0  0
    2.1539    4.5070    0.2217 C   0  0  0  0  0  0  0  0  0  0  0  0
    1.8201    5.1801    1.2869 N   0  0  0  0  0  0  0  0  0  0  0  0
    1.0044    4.8985    1.8014 H   0  0  0  0  0  0  0  0  0  0  0  0
    2.3618    5.9671    1.5938 H   0  0  0  0  0  0  0  0  0  0  0  0
    3.2156    4.8951   -0.4259 N   0  0  0  0  0  0  0  0  0  0  0  0
    3.5125    4.4075   -1.2535 H   0  0  0  0  0  0  0  0  0  0  0  0
    3.7429    5.6849   -0.1023 H   0  0  0  0  0  0  0  0  0  0  0  0
   -0.9523    0.1012    2.4848 C   0  0  0  0  0  0  0  0  0  0  0  0
    0.2133   -0.1319    2.7814 O   0  0  0  0  0  0  0  0  0  0  0  0
   -1.8684    0.5006    3.3725 N   0  0  0  0  0  0  0  0  0  0  0  0
   -2.7946    0.7048    3.0343 H   0  0  0  0  0  0  0  0  0  0  0  0
   -1.5848    0.7472    4.7873 C   0  0  0  0  0  0  0  0  0  0  0  0
   -0.8819    1.5774    4.8838 H   0  0  0  0  0  0  0  0  0  0  0  0
   -2.5030    0.9948    5.3214 H   0  0  0  0  0  0  0  0  0  0  0  0
   -1.1344   -0.1399    5.2381 H   0  0  0  0  0  0  0  0  0  0  0  0
  5  6  2  0  0  0  0
  5  7  1  0  0  0  0
  2  3  1  0  0  0  0
  2  4  1  0  0  0  0
  2  5  1  0  0  0  0
  1  2  1  0  0  0  0
 29 30  2  0  0  0  0
 29 31  1  0  0  0  0
 26 27  1  0  0  0  0
 26 28  1  0  0  0  0
 23 24  1  0  0  0  0
 23 25  1  0  0  0  0
 22 23  1  0  0  0  0
 22 26  1  0  0  0  0
 20 21  1  0  0  0  0
 20 22  2  0  0  0  0
 17 18  1  0  0  0  0
 17 19  1  0  0  0  0
 17 20  1  0  0  0  0
 14 15  1  0  0  0  0
 14 16  1  0  0  0  0
 14 17  1  0  0  0  0
 11 12  1  0  0  0  0
 11 13  1  0  0  0  0
 11 14  1  0  0  0  0
  9 10  1  0  0  0  0
  9 11  1  0  0  0  0
  9 29  1  0  0  0  0
  7  8  1  0  0  0  0
  7  9  1  0  0  0  0
 33 34  1  0  0  0  0
 33 35  1  0  0  0  0
 33 36  1  0  0  0  0
 31 32  1  0  0  0  0
 31 33  1  0  0  0  0
M  CHG  1  20   1
M  END
$$$$
default_name
  -OEChem-02102213163D

 36 35  0     1  0  0  0  0  0999 V2000
   -4.2256   -3.6731    1.8584 H   0  0  0  0  0  0  0  0  0  0  0  0
   -4.2396   -2.6781    1.4144 C   0  0  0  0  0  0  0  0  0  0  0  0
   -4.9506   -2.0521    1.9514 H   0  0  0  0  0  0  0  0  0  0  0  0
   -4.5266   -2.7521    0.3674 H   0  0  0  0  0  0  0  0  0  0  0  0
   -2.8576   -2.0761    1.5184 C   0  0  0  0  0  0  0  0  0  0  0  0
   -1.9456   -2.7051    2.0404 O   0  0  0  0  0  0  0  0  0  0  0  0
   -2.6926   -0.8481    1.0174 N   0  0  0  0  0  0  0  0  0  0  0  0
   -3.4926   -0.3971    0.5954 H   0  0  0  0  0  0  0  0  0  0  0  0
   -1.4216   -0.1071    1.0434 C   0  0  1  0  0  0  0  0  0  0  0  0
   -0.6709   -0.6930    0.5106 H   0  0  0  0  0  0  0  0  0  0  0  0
   -1.6221    1.2315    0.3051 C   0  0  0  0  0  0  0  0  0  0  0  0
   -2.3887    1.0958   -0.4604 H   0  0  0  0  0  0  0  0  0  0  0  0
   -1.9804    1.9804    1.0149 H   0  0  0  0  0  0  0  0  0  0  0  0
   -0.3473    1.7512   -0.3755 C   0  0  0  0  0  0  0  0  0  0  0  0
    0.2805    0.9105   -0.6741 H   0  0  0  0  0  0  0  0  0  0  0  0
   -0.6201    2.3289   -1.2592 H   0  0  0  0  0  0  0  0  0  0  0  0
    0.4368    2.6440    0.5959 C   0  0  0  0  0  0  0  0  0  0  0  0
   -0.2081    3.4678    0.9101 H   0  0  0  0  0  0  0  0  0  0  0  0
    0.7046    2.0513    1.4738 H   0  0  0  0  0  0  0  0  0  0  0  0
    1.6621    3.1869   -0.0259 N   0  3  0  0  0  0  0  0  0  0  0  0
    1.8646    2.8853   -0.9636 H   0  0  0  0  0  0  0  0  0  0  0  0
    2.5147    4.0295    0.5329 C   0  0  0  0  0  0  0  0  0  0  0  0
    2.3481    4.4832    1.7436 N   0  0  0  0  0  0  0  0  0  0  0  0
    1.5446    4.1826    2.2665 H   0  0  0  0  0  0  0  0  0  0  0  0
    3.0049    5.1219    2.1529 H   0  0  0  0  0  0  0  0  0  0  0  0
    3.5648    4.4368   -0.1218 N   0  0  0  0  0  0  0  0  0  0  0  0
    3.7358    4.1147   -1.0588 H   0  0  0  0  0  0  0  0  0  0  0  0
    4.2090    5.0761    0.3058 H   0  0  0  0  0  0  0  0  0  0  0  0
   -0.9523    0.1012    2.4848 C   0  0  0  0  0  0  0  0  0  0  0  0
    0.2133   -0.1319    2.7814 O   0  0  0  0  0  0  0  0  0  0  0  0
   -1.8684    0.5006    3.3725 N   0  0  0  0  0  0  0  0  0  0  0  0
   -2.7946    0.7048    3.0343 H   0  0  0  0  0  0  0  0  0  0  0  0
   -1.5848    0.7472    4.7873 C   0  0  0  0  0  0  0  0  0  0  0  0
   -0.8819    1.5774    4.8838 H   0  0  0  0  0  0  0  0  0  0  0  0
   -2.5030    0.9948    5.3214 H   0  0  0  0  0  0  0  0  0  0  0  0
   -1.1344   -0.1399    5.2381 H   0  0  0  0  0  0  0  0  0  0  0  0
  5  6  2  0  0  0  0
  5  7  1  0  0  0  0
  2  3  1  0  0  0  0
  2  4  1  0  0  0  0
  2  5  1  0  0  0  0
  1  2  1  0  0  0  0
 29 30  2  0  0  0  0
 29 31  1  0  0  0  0
 26 27  1  0  0  0  0
 26 28  1  0  0  0  0
 23 24  1  0  0  0  0
 23 25  1  0  0  0  0
 22 23  1  0  0  0  0
 22 26  1  0  0  0  0
 20 21  1  0  0  0  0
 20 22  2  0  0  0  0
 17 18  1  0  0  0  0
 17 19  1  0  0  0  0
 17 20  1  0  0  0  0
 14 15  1  0  0  0  0
 14 16  1  0  0  0  0
 14 17  1  0  0  0  0
 11 12  1  0  0  0  0
 11 13  1  0  0  0  0
 11 14  1  0  0  0  0
  9 10  1  0  0  0  0
  9 11  1  0  0  0  0
  9 29  1  0  0  0  0
  7  8  1  0  0  0  0
  7  9  1  0  0  0  0
 33 34  1  0  0  0  0
 33 35  1  0  0  0  0
 33 36  1  0  0  0  0
 31 32  1  0  0  0  0
 31 33  1  0  0  0  0
M  CHG  1  20   1
M  END
$$$$
default_name
  -OEChem-02102213163D

 36 35  0     1  0  0  0  0  0999 V2000
   -4.2256   -3.6731    1.8584 H   0  0  0  0  0  0  0  0  0  0  0  0
   -4.2396   -2.6781    1.4144 C   0  0  0  0  0  0  0  0  0  0  0  0
   -4.9506   -2.0521    1.9514 H   0  0  0  0  0  0  0  0  0  0  0  0
   -4.5266   -2.7521    0.3674 H   0  0  0  0  0  0  0  0  0  0  0  0
   -2.8576   -2.0761    1.5184 C   0  0  0  0  0  0  0  0  0  0  0  0
   -1.9456   -2.7051    2.0404 O   0  0  0  0  0  0  0  0  0  0  0  0
   -2.6926   -0.8481    1.0174 N   0  0  0  0  0  0  0  0  0  0  0  0
   -3.4926   -0.3971    0.5954 H   0  0  0  0  0  0  0  0  0  0  0  0
   -1.4216   -0.1071    1.0434 C   0  0  1  0  0  0  0  0  0  0  0  0
   -0.6709   -0.6930    0.5106 H   0  0  0  0  0  0  0  0  0  0  0  0
   -1.6221    1.2315    0.3051 C   0  0  0  0  0  0  0  0  0  0  0  0
   -2.3887    1.0958   -0.4604 H   0  0  0  0  0  0  0  0  0  0  0  0
   -1.9804    1.9804    1.0149 H   0  0  0  0  0  0  0  0  0  0  0  0
   -0.3473    1.7512   -0.3755 C   0  0  0  0  0  0  0  0  0  0  0  0
    0.1469    0.9355   -0.9051 H   0  0  0  0  0  0  0  0  0  0  0  0
   -0.6117    2.5345   -1.0865 H   0  0  0  0  0  0  0  0  0  0  0  0
    0.6124    2.3209    0.6780 C   0  0  0  0  0  0  0  0  0  0  0  0
    0.1003    3.1186    1.2210 H   0  0  0  0  0  0  0  0  0  0  0  0
    0.8695    1.5249    1.3807 H   0  0  0  0  0  0  0  0  0  0  0  0
    1.8455    2.8554    0.0645 N   0  3  0  0  0  0  0  0  0  0  0  0
    1.9379    2.7479   -0.9311 H   0  0  0  0  0  0  0  0  0  0  0  0
    2.8357    3.4600    0.6993 C   0  0  0  0  0  0  0  0  0  0  0  0
    2.8181    3.6512    1.9886 N   0  0  0  0  0  0  0  0  0  0  0  0
    2.0250    3.3293    2.5147 H   0  0  0  0  0  0  0  0  0  0  0  0
    3.5780    4.1116    2.4550 H   0  0  0  0  0  0  0  0  0  0  0  0
    3.8762    3.8886    0.0428 N   0  0  0  0  0  0  0  0  0  0  0  0
    3.9350    3.7644   -0.9532 H   0  0  0  0  0  0  0  0  0  0  0  0
    4.6251    4.3469    0.5283 H   0  0  0  0  0  0  0  0  0  0  0  0
   -0.9523    0.1012    2.4848 C   0  0  0  0  0  0  0  0  0  0  0  0
    0.2133   -0.1319    2.7814 O   0  0  0  0  0  0  0  0  0  0  0  0
   -1.8684    0.5006    3.3725 N   0  0  0  0  0  0  0  0  0  0  0  0
   -2.7946    0.7048    3.0343 H   0  0  0  0  0  0  0  0  0  0  0  0
   -1.5848    0.7472    4.7873 C   0  0  0  0  0  0  0  0  0  0  0  0
   -0.8819    1.5774    4.8838 H   0  0  0  0  0  0  0  0  0  0  0  0
   -2.5030    0.9948    5.3214 H   0  0  0  0  0  0  0  0  0  0  0  0
   -1.1344   -0.1399    5.2381 H   0  0  0  0  0  0  0  0  0  0  0  0
  5  6  2  0  0  0  0
  5  7  1  0  0  0  0
  2  3  1  0  0  0  0
  2  4  1  0  0  0  0
  2  5  1  0  0  0  0
  1  2  1  0  0  0  0
 29 30  2  0  0  0  0
 29 31  1  0  0  0  0
 26 27  1  0  0  0  0
 26 28  1  0  0  0  0
 23 24  1  0  0  0  0
 23 25  1  0  0  0  0
 22 23  1  0  0  0  0
 22 26  1  0  0  0  0
 20 21  1  0  0  0  0
 20 22  2  0  0  0  0
 17 18  1  0  0  0  0
 17 19  1  0  0  0  0
 17 20  1  0  0  0  0
 14 15  1  0  0  0  0
 14 16  1  0  0  0  0
 14 17  1  0  0  0  0
 11 12  1  0  0  0  0
 11 13  1  0  0  0  0
 11 14  1  0  0  0  0
  9 10  1  0  0  0  0
  9 11  1  0  0  0  0
  9 29  1  0  0  0  0
  7  8  1  0  0  0  0
  7  9  1  0  0  0  0
 33 34  1  0  0  0  0
 33 35  1  0  0  0  0
 33 36  1  0  0  0  0
 31 32  1  0  0  0  0
 31 33  1  0  0  0  0
M  CHG  1  20   1
M  END
$$$$
default_name
  -OEChem-02102213163D

 36 35  0     1  0  0  0  0  0999 V2000
   -4.2256   -3.6731    1.8584 H   0  0  0  0  0  0  0  0  0  0  0  0
   -4.2396   -2.6781    1.4144 C   0  0  0  0  0  0  0  0  0  0  0  0
   -4.9506   -2.0521    1.9514 H   0  0  0  0  0  0  0  0  0  0  0  0
   -4.5266   -2.7521    0.3674 H   0  0  0  0  0  0  0  0  0  0  0  0
   -2.8576   -2.0761    1.5184 C   0  0  0  0  0  0  0  0  0  0  0  0
   -1.9456   -2.7051    2.0404 O   0  0  0  0  0  0  0  0  0  0  0  0
   -2.6926   -0.8481    1.0174 N   0  0  0  0  0  0  0  0  0  0  0  0
   -3.4926   -0.3971    0.5954 H   0  0  0  0  0  0  0  0  0  0  0  0
   -1.4216   -0.1071    1.0434 C   0  0  1  0  0  0  0  0  0  0  0  0
   -0.6709   -0.6930    0.5106 H   0  0  0  0  0  0  0  0  0  0  0  0
   -1.6221    1.2315    0.3051 C   0  0  0  0  0  0  0  0  0  0  0  0
   -2.3887    1.0958   -0.4604 H   0  0  0  0  0  0  0  0  0  0  0  0
   -1.9804    1.9804    1.0149 H   0  0  0  0  0  0  0  0  0  0  0  0
   -0.3473    1.7512   -0.3755 C   0  0  0  0  0  0  0  0  0  0  0  0
    0.0006    1.0246   -1.1111 H   0  0  0  0  0  0  0  0  0  0  0  0
   -0.5649    2.6951   -0.8763 H   0  0  0  0  0  0  0  0  0  0  0  0
    0.7521    1.9711    0.6726 C   0  0  0  0  0  0  0  0  0  0  0  0
    0.3853    2.6792    1.4193 H   0  0  0  0  0  0  0  0  0  0  0  0
    0.9603    1.0175    1.1634 H   0  0  0  0  0  0  0  0  0  0  0  0
    1.9925    2.4947    0.0645 N   0  3  0  0  0  0  0  0  0  0  0  0
    1.9959    2.5997   -0.9357 H   0  0  0  0  0  0  0  0  0  0  0  0
    3.0950    2.8374    0.7096 C   0  0  0  0  0  0  0  0  0  0  0  0
    3.1982    2.7411    2.0055 N   0  0  0  0  0  0  0  0  0  0  0  0
    2.4129    2.3965    2.5290 H   0  0  0  0  0  0  0  0  0  0  0  0
    4.0422    3.0051    2.4795 H   0  0  0  0  0  0  0  0  0  0  0  0
    4.1284    3.2881    0.0567 N   0  0  0  0  0  0  0  0  0  0  0  0
    4.0965    3.3805   -0.9440 H   0  0  0  0  0  0  0  0  0  0  0  0
    4.9628    3.5470    0.5501 H   0  0  0  0  0  0  0  0  0  0  0  0
   -0.9523    0.1012    2.4848 C   0  0  0  0  0  0  0  0  0  0  0  0
    0.2133   -0.1319    2.7814 O   0  0  0  0  0  0  0  0  0  0  0  0
   -1.8684    0.5006    3.3725 N   0  0  0  0  0  0  0  0  0  0  0  0
   -2.7946    0.7048    3.0343 H   0  0  0  0  0  0  0  0  0  0  0  0
   -1.5848    0.7472    4.7873 C   0  0  0  0  0  0  0  0  0  0  0  0
   -0.8819    1.5774    4.8838 H   0  0  0  0  0  0  0  0  0  0  0  0
   -2.5030    0.9948    5.3214 H   0  0  0  0  0  0  0  0  0  0  0  0
   -1.1344   -0.1399    5.2381 H   0  0  0  0  0  0  0  0  0  0  0  0
  5  6  2  0  0  0  0
  5  7  1  0  0  0  0
  2  3  1  0  0  0  0
  2  4  1  0  0  0  0
  2  5  1  0  0  0  0
  1  2  1  0  0  0  0
 29 30  2  0  0  0  0
 29 31  1  0  0  0  0
 26 27  1  0  0  0  0
 26 28  1  0  0  0  0
 23 24  1  0  0  0  0
 23 25  1  0  0  0  0
 22 23  1  0  0  0  0
 22 26  1  0  0  0  0
 20 21  1  0  0  0  0
 20 22  2  0  0  0  0
 17 18  1  0  0  0  0
 17 19  1  0  0  0  0
 17 20  1  0  0  0  0
 14 15  1  0  0  0  0
 14 16  1  0  0  0  0
 14 17  1  0  0  0  0
 11 12  1  0  0  0  0
 11 13  1  0  0  0  0
 11 14  1  0  0  0  0
  9 10  1  0  0  0  0
  9 11  1  0  0  0  0
  9 29  1  0  0  0  0
  7  8  1  0  0  0  0
  7  9  1  0  0  0  0
 33 34  1  0  0  0  0
 33 35  1  0  0  0  0
 33 36  1  0  0  0  0
 31 32  1  0  0  0  0
 31 33  1  0  0  0  0
M  CHG  1  20   1
M  END
$$$$
default_name
  -OEChem-02102213163D

 36 35  0     1  0  0  0  0  0999 V2000
   -4.2256   -3.6731    1.8584 H   0  0  0  0  0  0  0  0  0  0  0  0
   -4.2396   -2.6781    1.4144 C   0  0  0  0  0  0  0  0  0  0  0  0
   -4.9506   -2.0521    1.9514 H   0  0  0  0  0  0  0  0  0  0  0  0
   -4.5266   -2.7521    0.3674 H   0  0  0  0  0  0  0  0  0  0  0  0
   -2.8576   -2.0761    1.5184 C   0  0  0  0  0  0  0  0  0  0  0  0
   -1.9456   -2.7051    2.0404 O   0  0  0  0  0  0  0  0  0  0  0  0
   -2.6926   -0.8481    1.0174 N   0  0  0  0  0  0  0  0  0  0  0  0
   -3.4926   -0.3971    0.5954 H   0  0  0  0  0  0  0  0  0  0  0  0
   -1.4216   -0.1071    1.0434 C   0  0  1  0  0  0  0  0  0  0  0  0
   -0.6709   -0.6930    0.5106 H   0  0  0  0  0  0  0  0  0  0  0  0
   -1.6221    1.2315    0.3051 C   0  0  0  0  0  0  0  0  0  0  0  0
   -2.3887    1.0958   -0.4604 H   0  0  0  0  0  0  0  0  0  0  0  0
   -1.9804    1.9804    1.0149 H   0  0  0  0  0  0  0  0  0  0  0  0
   -0.3473    1.7512   -0.3755 C   0  0  0  0  0  0  0  0  0  0  0  0
   -0.1486    1.1718   -1.2782 H   0  0  0  0  0  0  0  0  0  0  0  0
   -0.4829    2.7996   -0.6428 H   0  0  0  0  0  0  0  0  0  0  0  0
    0.8464    1.6184    0.5799 C   0  0  0  0  0  0  0  0  0  0  0  0
    0.6276    2.1794    1.4914 H   0  0  0  0  0  0  0  0  0  0  0  0
    0.9708    0.5637    0.8364 H   0  0  0  0  0  0  0  0  0  0  0  0
    2.0932    2.1295   -0.0259 N   0  3  0  0  0  0  0  0  0  0  0  0
    2.0345    2.4510   -0.9770 H   0  0  0  0  0  0  0  0  0  0  0  0
    3.2750    2.2041    0.5630 C   0  0  0  0  0  0  0  0  0  0  0  0
    3.4623    1.8148    1.7929 N   0  0  0  0  0  0  0  0  0  0  0  0
    2.6819    1.4480    2.3085 H   0  0  0  0  0  0  0  0  0  0  0  0
    4.3658    1.8778    2.2248 H   0  0  0  0  0  0  0  0  0  0  0  0
    4.3045    2.6761   -0.0809 N   0  0  0  0  0  0  0  0  0  0  0  0
    4.2092    2.9891   -1.0316 H   0  0  0  0  0  0  0  0  0  0  0  0
    5.1992    2.7310    0.3697 H   0  0  0  0  0  0  0  0  0  0  0  0
   -0.9523    0.1012    2.4848 C   0  0  0  0  0  0  0  0  0  0  0  0
    0.2133   -0.1319    2.7814 O   0  0  0  0  0  0  0  0  0  0  0  0
   -1.8684    0.5006    3.3725 N   0  0  0  0  0  0  0  0  0  0  0  0
   -2.7946    0.7048    3.0343 H   0  0  0  0  0  0  0  0  0  0  0  0
   -1.5848    0.7472    4.7873 C   0  0  0  0  0  0  0  0  0  0  0  0
   -0.8819    1.5774    4.8838 H   0  0  0  0  0  0  0  0  0  0  0  0
   -2.5030    0.9948    5.3214 H   0  0  0  0  0  0  0  0  0  0  0  0
   -1.1344   -0.1399    5.2381 H   0  0  0  0  0  0  0  0  0  0  0  0
  5  6  2  0  0  0  0
  5  7  1  0  0  0  0
  2  3  1  0  0  0  0
  2  4  1  0  0  0  0
  2  5  1  0  0  0  0
  1  2  1  0  0  0  0
 29 30  2  0  0  0  0
 29 31  1  0  0  0  0
 26 27  1  0  0  0  0
 26 28  1  0  0  0  0
 23 24  1  0  0  0  0
 23 25  1  0  0  0  0
 22 23  1  0  0  0  0
 22 26  1  0  0  0  0
 20 21  1  0  0  0  0
 20 22  2  0  0  0  0
 17 18  1  0  0  0  0
 17 19  1  0  0  0  0
 17 20  1  0  0  0  0
 14 15  1  0  0  0  0
 14 16  1  0  0  0  0
 14 17  1  0  0  0  0
 11 12  1  0  0  0  0
 11 13  1  0  0  0  0
 11 14  1  0  0  0  0
  9 10  1  0  0  0  0
  9 11  1  0  0  0  0
  9 29  1  0  0  0  0
  7  8  1  0  0  0  0
  7  9  1  0  0  0  0
 33 34  1  0  0  0  0
 33 35  1  0  0  0  0
 33 36  1  0  0  0  0
 31 32  1  0  0  0  0
 31 33  1  0  0  0  0
M  CHG  1  20   1
M  END
$$$$
default_name
  -OEChem-02102213163D

 36 35  0     1  0  0  0  0  0999 V2000
   -4.2256   -3.6731    1.8584 H   0  0  0  0  0  0  0  0  0  0  0  0
   -4.2396   -2.6781    1.4144 C   0  0  0  0  0  0  0  0  0  0  0  0
   -4.9506   -2.0521    1.9514 H   0  0  0  0  0  0  0  0  0  0  0  0
   -4.5266   -2.7521    0.3674 H   0  0  0  0  0  0  0  0  0  0  0  0
   -2.8576   -2.0761    1.5184 C   0  0  0  0  0  0  0  0  0  0  0  0
   -1.9456   -2.7051    2.0404 O   0  0  0  0  0  0  0  0  0  0  0  0
   -2.6926   -0.8481    1.0174 N   0  0  0  0  0  0  0  0  0  0  0  0
   -3.4926   -0.3971    0.5954 H   0  0  0  0  0  0  0  0  0  0  0  0
   -1.4216   -0.1071    1.0434 C   0  0  1  0  0  0  0  0  0  0  0  0
   -0.6709   -0.6930    0.5106 H   0  0  0  0  0  0  0  0  0  0  0  0
   -1.6221    1.2315    0.3051 C   0  0  0  0  0  0  0  0  0  0  0  0
   -2.3887    1.0958   -0.4604 H   0  0  0  0  0  0  0  0  0  0  0  0
   -1.9804    1.9804    1.0149 H   0  0  0  0  0  0  0  0  0  0  0  0
   -0.3473    1.7512   -0.3755 C   0  0  0  0  0  0  0  0  0  0  0  0
   -0.2905    1.3669   -1.3949 H   0  0  0  0  0  0  0  0  0  0  0  0
   -0.3712    2.8411   -0.4020 H   0  0  0  0  0  0  0  0  0  0  0  0
    0.8890    1.2867    0.4064 C   0  0  0  0  0  0  0  0  0  0  0  0
    0.8106    1.6533    1.4325 H   0  0  0  0  0  0  0  0  0  0  0  0
    0.9002    0.1943    0.4222 H   0  0  0  0  0  0  0  0  0  0  0  0
    2.1406    1.7846   -0.2005 N   0  3  0  0  0  0  0  0  0  0  0  0
    2.0511    2.3118   -1.0522 H   0  0  0  0  0  0  0  0  0  0  0  0
    3.3633    1.6032    0.2696 C   0  0  0  0  0  0  0  0  0  0  0  0
    3.5926    0.9354    1.3654 N   0  0  0  0  0  0  0  0  0  0  0  0
    2.8135    0.5483    1.8681 H   0  0  0  0  0  0  0  0  0  0  0  0
    4.5268    0.8065    1.7083 H   0  0  0  0  0  0  0  0  0  0  0  0
    4.3922    2.0943   -0.3607 N   0  0  0  0  0  0  0  0  0  0  0  0
    4.2656    2.6170   -1.2102 H   0  0  0  0  0  0  0  0  0  0  0  0
    5.3181    1.9544   -0.0006 H   0  0  0  0  0  0  0  0  0  0  0  0
   -0.9523    0.1012    2.4848 C   0  0  0  0  0  0  0  0  0  0  0  0
    0.2133   -0.1319    2.7814 O   0  0  0  0  0  0  0  0  0  0  0  0
   -1.8684    0.5006    3.3725 N   0  0  0  0  0  0  0  0  0  0  0  0
   -2.7946    0.7048    3.0343 H   0  0  0  0  0  0  0  0  0  0  0  0
   -1.5848    0.7472    4.7873 C   0  0  0  0  0  0  0  0  0  0  0  0
   -0.8819    1.5774    4.8838 H   0  0  0  0  0  0  0  0  0  0  0  0
   -2.5030    0.9948    5.3214 H   0  0  0  0  0  0  0  0  0  0  0  0
   -1.1344   -0.1399    5.2381 H   0  0  0  0  0  0  0  0  0  0  0  0
  5  6  2  0  0  0  0
  5  7  1  0  0  0  0
  2  3  1  0  0  0  0
  2  4  1  0  0  0  0
  2  5  1  0  0  0  0
  1  2  1  0  0  0  0
 29 30  2  0  0  0  0
 29 31  1  0  0  0  0
 26 27  1  0  0  0  0
 26 28  1  0  0  0  0
 23 24  1  0  0  0  0
 23 25  1  0  0  0  0
 22 23  1  0  0  0  0
 22 26  1  0  0  0  0
 20 21  1  0  0  0  0
 20 22  2  0  0  0  0
 17 18  1  0  0  0  0
 17 19  1  0  0  0  0
 17 20  1  0  0  0  0
 14 15  1  0  0  0  0
 14 16  1  0  0  0  0
 14 17  1  0  0  0  0
 11 12  1  0  0  0  0
 11 13  1  0  0  0  0
 11 14  1  0  0  0  0
  9 10  1  0  0  0  0
  9 11  1  0  0  0  0
  9 29  1  0  0  0  0
  7  8  1  0  0  0  0
  7  9  1  0  0  0  0
 33 34  1  0  0  0  0
 33 35  1  0  0  0  0
 33 36  1  0  0  0  0
 31 32  1  0  0  0  0
 31 33  1  0  0  0  0
M  CHG  1  20   1
M  END
$$$$
default_name
  -OEChem-02102213163D

 36 35  0     1  0  0  0  0  0999 V2000
   -4.2256   -3.6731    1.8584 H   0  0  0  0  0  0  0  0  0  0  0  0
   -4.2396   -2.6781    1.4144 C   0  0  0  0  0  0  0  0  0  0  0  0
   -4.9506   -2.0521    1.9514 H   0  0  0  0  0  0  0  0  0  0  0  0
   -4.5266   -2.7521    0.3674 H   0  0  0  0  0  0  0  0  0  0  0  0
   -2.8576   -2.0761    1.5184 C   0  0  0  0  0  0  0  0  0  0  0  0
   -1.9456   -2.7051    2.0404 O   0  0  0  0  0  0  0  0  0  0  0  0
   -2.6926   -0.8481    1.0174 N   0  0  0  0  0  0  0  0  0  0  0  0
   -3.4926   -0.3971    0.5954 H   0  0  0  0  0  0  0  0  0  0  0  0
   -1.4216   -0.1071    1.0434 C   0  0  1  0  0  0  0  0  0  0  0  0
   -0.6709   -0.6930    0.5106 H   0  0  0  0  0  0  0  0  0  0  0  0
   -1.6221    1.2315    0.3051 C   0  0  0  0  0  0  0  0  0  0  0  0
   -2.3887    1.0958   -0.4604 H   0  0  0  0  0  0  0  0  0  0  0  0
   -1.9804    1.9804    1.0149 H   0  0  0  0  0  0  0  0  0  0  0  0
   -0.3473    1.7512   -0.3755 C   0  0  0  0  0  0  0  0  0  0  0  0
   -0.4154    1.5968   -1.4532 H   0  0  0  0  0  0  0  0  0  0  0  0
   -0.2375    2.8165   -0.1703 H   0  0  0  0  0  0  0  0  0  0  0  0
    0.8768    0.9988    0.1638 C   0  0  0  0  0  0  0  0  0  0  0  0
    0.9219    1.1369    1.2465 H   0  0  0  0  0  0  0  0  0  0  0  0
    0.7533   -0.0653   -0.0511 H   0  0  0  0  0  0  0  0  0  0  0  0
    2.1315    1.4836   -0.4474 N   0  3  0  0  0  0  0  0  0  0  0  0
    2.0445    2.1915   -1.1563 H   0  0  0  0  0  0  0  0  0  0  0  0
    3.3540    1.0756   -0.1506 C   0  0  0  0  0  0  0  0  0  0  0  0
    3.5801    0.1628    0.7522 N   0  0  0  0  0  0  0  0  0  0  0  0
    2.7989   -0.2412    1.2379 H   0  0  0  0  0  0  0  0  0  0  0  0
    4.5141   -0.1357    0.9651 H   0  0  0  0  0  0  0  0  0  0  0  0
    4.3858    1.5824   -0.7637 N   0  0  0  0  0  0  0  0  0  0  0  0
    4.2617    2.2895   -1.4676 H   0  0  0  0  0  0  0  0  0  0  0  0
    5.3115    1.2701   -0.5355 H   0  0  0  0  0  0  0  0  0  0  0  0
   -0.9523    0.1012    2.4848 C   0  0  0  0  0  0  0  0  0  0  0  0
    0.2133   -0.1319    2.7814 O   0  0  0  0  0  0  0  0  0  0  0  0
   -1.8684    0.5006    3.3725 N   0  0  0  0  0  0  0  0  0  0  0  0
   -2.7946    0.7048    3.0343 H   0  0  0  0  0  0  0  0  0  0  0  0
   -1.5848    0.7472    4.7873 C   0  0  0  0  0  0  0  0  0  0  0  0
   -0.8819    1.5774    4.8838 H   0  0  0  0  0  0  0  0  0  0  0  0
   -2.5030    0.9948    5.3214 H   0  0  0  0  0  0  0  0  0  0  0  0
   -1.1344   -0.1399    5.2381 H   0  0  0  0  0  0  0  0  0  0  0  0
  5  6  2  0  0  0  0
  5  7  1  0  0  0  0
  2  3  1  0  0  0  0
  2  4  1  0  0  0  0
  2  5  1  0  0  0  0
  1  2  1  0  0  0  0
 29 30  2  0  0  0  0
 29 31  1  0  0  0  0
 26 27  1  0  0  0  0
 26 28  1  0  0  0  0
 23 24  1  0  0  0  0
 23 25  1  0  0  0  0
 22 23  1  0  0  0  0
 22 26  1  0  0  0  0
 20 21  1  0  0  0  0
 20 22  2  0  0  0  0
 17 18  1  0  0  0  0
 17 19  1  0  0  0  0
 17 20  1  0  0  0  0
 14 15  1  0  0  0  0
 14 16  1  0  0  0  0
 14 17  1  0  0  0  0
 11 12  1  0  0  0  0
 11 13  1  0  0  0  0
 11 14  1  0  0  0  0
  9 10  1  0  0  0  0
  9 11  1  0  0  0  0
  9 29  1  0  0  0  0
  7  8  1  0  0  0  0
  7  9  1  0  0  0  0
 33 34  1  0  0  0  0
 33 35  1  0  0  0  0
 33 36  1  0  0  0  0
 31 32  1  0  0  0  0
 31 33  1  0  0  0  0
M  CHG  1  20   1
M  END
$$$$
default_name
  -OEChem-02102213163D

 36 35  0     1  0  0  0  0  0999 V2000
   -4.2256   -3.6731    1.8584 H   0  0  0  0  0  0  0  0  0  0  0  0
   -4.2396   -2.6781    1.4144 C   0  0  0  0  0  0  0  0  0  0  0  0
   -4.9506   -2.0521    1.9514 H   0  0  0  0  0  0  0  0  0  0  0  0
   -4.5266   -2.7521    0.3674 H   0  0  0  0  0  0  0  0  0  0  0  0
   -2.8576   -2.0761    1.5184 C   0  0  0  0  0  0  0  0  0  0  0  0
   -1.9456   -2.7051    2.0404 O   0  0  0  0  0  0  0  0  0  0  0  0
   -2.6926   -0.8481    1.0174 N   0  0  0  0  0  0  0  0  0  0  0  0
   -3.4926   -0.3971    0.5954 H   0  0  0  0  0  0  0  0  0  0  0  0
   -1.4216   -0.1071    1.0434 C   0  0  1  0  0  0  0  0  0  0  0  0
   -0.6709   -0.6930    0.5106 H   0  0  0  0  0  0  0  0  0  0  0  0
   -1.6221    1.2315    0.3051 C   0  0  0  0  0  0  0  0  0  0  0  0
   -2.3887    1.0958   -0.4604 H   0  0  0  0  0  0  0  0  0  0  0  0
   -1.9804    1.9804    1.0149 H   0  0  0  0  0  0  0  0  0  0  0  0
   -0.3473    1.7512   -0.3755 C   0  0  0  0  0  0  0  0  0  0  0  0
   -0.5147    1.8456   -1.4493 H   0  0  0  0  0  0  0  0  0  0  0  0
   -0.0909    2.7277    0.0365 H   0  0  0  0  0  0  0  0  0  0  0  0
    0.8108    0.7742   -0.1313 C   0  0  0  0  0  0  0  0  0  0  0  0
    0.9538    0.6652    0.9462 H   0  0  0  0  0  0  0  0  0  0  0  0
    0.5403   -0.1976   -0.5511 H   0  0  0  0  0  0  0  0  0  0  0  0
    2.0666    1.2468   -0.7497 N   0  3  0  0  0  0  0  0  0  0  0  0
    2.0153    2.0985   -1.2820 H   0  0  0  0  0  0  0  0  0  0  0  0
    3.2477    0.6574   -0.6690 C   0  0  0  0  0  0  0  0  0  0  0  0
    3.4257   -0.4502   -0.0050 N   0  0  0  0  0  0  0  0  0  0  0  0
    2.6391   -0.8667    0.4608 H   0  0  0  0  0  0  0  0  0  0  0  0
    4.3287   -0.8848    0.0459 H   0  0  0  0  0  0  0  0  0  0  0  0
    4.2855    1.1753   -1.2624 N   0  0  0  0  0  0  0  0  0  0  0  0
    4.1978    2.0289   -1.7863 H   0  0  0  0  0  0  0  0  0  0  0  0
    5.1797    0.7249   -1.1986 H   0  0  0  0  0  0  0  0  0  0  0  0
   -0.9523    0.1012    2.4848 C   0  0  0  0  0  0  0  0  0  0  0  0
    0.2133   -0.1319    2.7814 O   0  0  0  0  0  0  0  0  0  0  0  0
   -1.8684    0.5006    3.3725 N   0  0  0  0  0  0  0  0  0  0  0  0
   -2.7946    0.7048    3.0343 H   0  0  0  0  0  0  0  0  0  0  0  0
   -1.5848    0.7472    4.7873 C   0  0  0  0  0  0  0  0  0  0  0  0
   -0.8819    1.5774    4.8838 H   0  0  0  0  0  0  0  0  0  0  0  0
   -2.5030    0.9948    5.3214 H   0  0  0  0  0  0  0  0  0  0  0  0
   -1.1344   -0.1399    5.2381 H   0  0  0  0  0  0  0  0  0  0  0  0
  5  6  2  0  0  0  0
  5  7  1  0  0  0  0
  2  3  1  0  0  0  0
  2  4  1  0  0  0  0
  2  5  1  0  0  0  0
  1  2  1  0  0  0  0
 29 30  2  0  0  0  0
 29 31  1  0  0  0  0
 26 27  1  0  0  0  0
 26 28  1  0  0  0  0
 23 24  1  0  0  0  0
 23 25  1  0  0  0  0
 22 23  1  0  0  0  0
 22 26  1  0  0  0  0
 20 21  1  0  0  0  0
 20 22  2  0  0  0  0
 17 18  1  0  0  0  0
 17 19  1  0  0  0  0
 17 20  1  0  0  0  0
 14 15  1  0  0  0  0
 14 16  1  0  0  0  0
 14 17  1  0  0  0  0
 11 12  1  0  0  0  0
 11 13  1  0  0  0  0
 11 14  1  0  0  0  0
  9 10  1  0  0  0  0
  9 11  1  0  0  0  0
  9 29  1  0  0  0  0
  7  8  1  0  0  0  0
  7  9  1  0  0  0  0
 33 34  1  0  0  0  0
 33 35  1  0  0  0  0
 33 36  1  0  0  0  0
 31 32  1  0  0  0  0
 31 33  1  0  0  0  0
M  CHG  1  20   1
M  END
$$$$
default_name
  -OEChem-02102213163D

 36 35  0     1  0  0  0  0  0999 V2000
   -4.2256   -3.6731    1.8584 H   0  0  0  0  0  0  0  0  0  0  0  0
   -4.2396   -2.6781    1.4144 C   0  0  0  0  0  0  0  0  0  0  0  0
   -4.9506   -2.0521    1.9514 H   0  0  0  0  0  0  0  0  0  0  0  0
   -4.5266   -2.7521    0.3674 H   0  0  0  0  0  0  0  0  0  0  0  0
   -2.8576   -2.0761    1.5184 C   0  0  0  0  0  0  0  0  0  0  0  0
   -1.9456   -2.7051    2.0404 O   0  0  0  0  0  0  0  0  0  0  0  0
   -2.6926   -0.8481    1.0174 N   0  0  0  0  0  0  0  0  0  0  0  0
   -3.4926   -0.3971    0.5954 H   0  0  0  0  0  0  0  0  0  0  0  0
   -1.4216   -0.1071    1.0434 C   0  0  1  0  0  0  0  0  0  0  0  0
   -0.6709   -0.6930    0.5106 H   0  0  0  0  0  0  0  0  0  0  0  0
   -1.6221    1.2315    0.3051 C   0  0  0  0  0  0  0  0  0  0  0  0
   -2.3887    1.0958   -0.4604 H   0  0  0  0  0  0  0  0  0  0  0  0
   -1.9804    1.9804    1.0149 H   0  0  0  0  0  0  0  0  0  0  0  0
   -0.3473    1.7512   -0.3755 C   0  0  0  0  0  0  0  0  0  0  0  0
   -0.5818    2.0966   -1.3833 H   0  0  0  0  0  0  0  0  0  0  0  0
    0.0587    2.5807    0.2043 H   0  0  0  0  0  0  0  0  0  0  0  0
    0.6954    0.6282   -0.4589 C   0  0  0  0  0  0  0  0  0  0  0  0
    0.9042    0.2705    0.5520 H   0  0  0  0  0  0  0  0  0  0  0  0
    0.2755   -0.1934   -1.0439 H   0  0  0  0  0  0  0  0  0  0  0  0
    1.9502    1.0906   -1.0869 N   0  3  0  0  0  0  0  0  0  0  0  0
    1.9654    2.0390   -1.4209 H   0  0  0  0  0  0  0  0  0  0  0  0
    3.0516    0.3770   -1.2504 C   0  0  0  0  0  0  0  0  0  0  0  0
    3.1400   -0.8619   -0.8547 N   0  0  0  0  0  0  0  0  0  0  0  0
    2.3448   -1.2857   -0.4101 H   0  0  0  0  0  0  0  0  0  0  0  0
    3.9832   -1.3896   -0.9867 H   0  0  0  0  0  0  0  0  0  0  0  0
    4.0983    0.9006   -1.8227 N   0  0  0  0  0  0  0  0  0  0  0  0
    4.0782    1.8530   -2.1445 H   0  0  0  0  0  0  0  0  0  0  0  0
    4.9318    0.3558   -1.9447 H   0  0  0  0  0  0  0  0  0  0  0  0
   -0.9523    0.1012    2.4848 C   0  0  0  0  0  0  0  0  0  0  0  0
    0.2133   -0.1319    2.7814 O   0  0  0  0  0  0  0  0  0  0  0  0
   -1.8684    0.5006    3.3725 N   0  0  0  0  0  0  0  0  0  0  0  0
   -2.7946    0.7048    3.0343 H   0  0  0  0  0  0  0  0  0  0  0  0
   -1.5848    0.7472    4.7873 C   0  0  0  0  0  0  0  0  0  0  0  0
   -0.8819    1.5774    4.8838 H   0  0  0  0  0  0  0  0  0  0  0  0
   -2.5030    0.9948    5.3214 H   0  0  0  0  0  0  0  0  0  0  0  0
   -1.1344   -0.1399    5.2381 H   0  0  0  0  0  0  0  0  0  0  0  0
  5  6  2  0  0  0  0
  5  7  1  0  0  0  0
  2  3  1  0  0  0  0
  2  4  1  0  0  0  0
  2  5  1  0  0  0  0
  1  2  1  0  0  0  0
 29 30  2  0  0  0  0
 29 31  1  0  0  0  0
 26 27  1  0  0  0  0
 26 28  1  0  0  0  0
 23 24  1  0  0  0  0
 23 25  1  0  0  0  0
 22 23  1  0  0  0  0
 22 26  1  0  0  0  0
 20 21  1  0  0  0  0
 20 22  2  0  0  0  0
 17 18  1  0  0  0  0
 17 19  1  0  0  0  0
 17 20  1  0  0  0  0
 14 15  1  0  0  0  0
 14 16  1  0  0  0  0
 14 17  1  0  0  0  0
 11 12  1  0  0  0  0
 11 13  1  0  0  0  0
 11 14  1  0  0  0  0
  9 10  1  0  0  0  0
  9 11  1  0  0  0  0
  9 29  1  0  0  0  0
  7  8  1  0  0  0  0
  7  9  1  0  0  0  0
 33 34  1  0  0  0  0
 33 35  1  0  0  0  0
 33 36  1  0  0  0  0
 31 32  1  0  0  0  0
 31 33  1  0  0  0  0
M  CHG  1  20   1
M  END
$$$$
default_name
  -OEChem-02102213163D

 36 35  0     1  0  0  0  0  0999 V2000
   -4.2256   -3.6731    1.8584 H   0  0  0  0  0  0  0  0  0  0  0  0
   -4.2396   -2.6781    1.4144 C   0  0  0  0  0  0  0  0  0  0  0  0
   -4.9506   -2.0521    1.9514 H   0  0  0  0  0  0  0  0  0  0  0  0
   -4.5266   -2.7521    0.3674 H   0  0  0  0  0  0  0  0  0  0  0  0
   -2.8576   -2.0761    1.5184 C   0  0  0  0  0  0  0  0  0  0  0  0
   -1.9456   -2.7051    2.0404 O   0  0  0  0  0  0  0  0  0  0  0  0
   -2.6926   -0.8481    1.0174 N   0  0  0  0  0  0  0  0  0  0  0  0
   -3.4926   -0.3971    0.5954 H   0  0  0  0  0  0  0  0  0  0  0  0
   -1.4216   -0.1071    1.0434 C   0  0  1  0  0  0  0  0  0  0  0  0
   -0.6709   -0.6930    0.5106 H   0  0  0  0  0  0  0  0  0  0  0  0
   -1.6221    1.2315    0.3051 C   0  0  0  0  0  0  0  0  0  0  0  0
   -2.3887    1.0958   -0.4604 H   0  0  0  0  0  0  0  0  0  0  0  0
   -1.9804    1.9804    1.0149 H   0  0  0  0  0  0  0  0  0  0  0  0
   -0.3473    1.7512   -0.3755 C   0  0  0  0  0  0  0  0  0  0  0  0
   -0.6120    2.3325   -1.2598 H   0  0  0  0  0  0  0  0  0  0  0  0
    0.2010    2.3854    0.3218 H   0  0  0  0  0  0  0  0  0  0  0  0
    0.5386    0.5708   -0.7965 C   0  0  0  0  0  0  0  0  0  0  0  0
    0.7765   -0.0205    0.0907 H   0  0  0  0  0  0  0  0  0  0  0  0
   -0.0230   -0.0532   -1.4958 H   0  0  0  0  0  0  0  0  0  0  0  0
    1.7904    1.0254   -1.4360 N   0  3  0  0  0  0  0  0  0  0  0  0
    1.8982    2.0171   -1.5635 H   0  0  0  0  0  0  0  0  0  0  0  0
    2.7792    0.2535   -1.8549 C   0  0  0  0  0  0  0  0  0  0  0  0
    2.7423   -1.0443   -1.7388 N   0  0  0  0  0  0  0  0  0  0  0  0
    1.9363   -1.4695   -1.3157 H   0  0  0  0  0  0  0  0  0  0  0  0
    3.5011   -1.6157   -2.0623 H   0  0  0  0  0  0  0  0  0  0  0  0
    3.8368    0.7772   -2.4066 N   0  0  0  0  0  0  0  0  0  0  0  0
    3.9112    1.7737   -2.5178 H   0  0  0  0  0  0  0  0  0  0  0  0
    4.5847    0.1880   -2.7229 H   0  0  0  0  0  0  0  0  0  0  0  0
   -0.9523    0.1012    2.4848 C   0  0  0  0  0  0  0  0  0  0  0  0
    0.2133   -0.1319    2.7814 O   0  0  0  0  0  0  0  0  0  0  0  0
   -1.8684    0.5006    3.3725 N   0  0  0  0  0  0  0  0  0  0  0  0
   -2.7946    0.7048    3.0343 H   0  0  0  0  0  0  0  0  0  0  0  0
   -1.5848    0.7472    4.7873 C   0  0  0  0  0  0  0  0  0  0  0  0
   -0.8819    1.5774    4.8838 H   0  0  0  0  0  0  0  0  0  0  0  0
   -2.5030    0.9948    5.3214 H   0  0  0  0  0  0  0  0  0  0  0  0
   -1.1344   -0.1399    5.2381 H   0  0  0  0  0  0  0  0  0  0  0  0
  5  6  2  0  0  0  0
  5  7  1  0  0  0  0
  2  3  1  0  0  0  0
  2  4  1  0  0  0  0
  2  5  1  0  0  0  0
  1  2  1  0  0  0  0
 29 30  2  0  0  0  0
 29 31  1  0  0  0  0
 26 27  1  0  0  0  0
 26 28  1  0  0  0  0
 23 24  1  0  0  0  0
 23 25  1  0  0  0  0
 22 23  1  0  0  0  0
 22 26  1  0  0  0  0
 20 21  1  0  0  0  0
 20 22  2  0  0  0  0
 17 18  1  0  0  0  0
 17 19  1  0  0  0  0
 17 20  1  0  0  0  0
 14 15  1  0  0  0  0
 14 16  1  0  0  0  0
 14 17  1  0  0  0  0
 11 12  1  0  0  0  0
 11 13  1  0  0  0  0
 11 14  1  0  0  0  0
  9 10  1  0  0  0  0
  9 11  1  0  0  0  0
  9 29  1  0  0  0  0
  7  8  1  0  0  0  0
  7  9  1  0  0  0  0
 33 34  1  0  0  0  0
 33 35  1  0  0  0  0
 33 36  1  0  0  0  0
 31 32  1  0  0  0  0
 31 33  1  0  0  0  0
M  CHG  1  20   1
M  END
$$$$
default_name
  -OEChem-02102213163D

 36 35  0     1  0  0  0  0  0999 V2000
   -4.2256   -3.6731    1.8584 H   0  0  0  0  0  0  0  0  0  0  0  0
   -4.2396   -2.6781    1.4144 C   0  0  0  0  0  0  0  0  0  0  0  0
   -4.9506   -2.0521    1.9514 H   0  0  0  0  0  0  0  0  0  0  0  0
   -4.5266   -2.7521    0.3674 H   0  0  0  0  0  0  0  0  0  0  0  0
   -2.8576   -2.0761    1.5184 C   0  0  0  0  0  0  0  0  0  0  0  0
   -1.9456   -2.7051    2.0404 O   0  0  0  0  0  0  0  0  0  0  0  0
   -2.6926   -0.8481    1.0174 N   0  0  0  0  0  0  0  0  0  0  0  0
   -3.4926   -0.3971    0.5954 H   0  0  0  0  0  0  0  0  0  0  0  0
   -1.4216   -0.1071    1.0434 C   0  0  1  0  0  0  0  0  0  0  0  0
   -0.6709   -0.6930    0.5106 H   0  0  0  0  0  0  0  0  0  0  0  0
   -1.6221    1.2315    0.3051 C   0  0  0  0  0  0  0  0  0  0  0  0
   -2.3887    1.0958   -0.4604 H   0  0  0  0  0  0  0  0  0  0  0  0
   -1.9804    1.9804    1.0149 H   0  0  0  0  0  0  0  0  0  0  0  0
   -0.3473    1.7512   -0.3755 C   0  0  0  0  0  0  0  0  0  0  0  0
   -0.6034    2.5373   -1.0872 H   0  0  0  0  0  0  0  0  0  0  0  0
    0.3263    2.1553    0.3808 H   0  0  0  0  0  0  0  0  0  0  0  0
    0.3509    0.6059   -1.1213 C   0  0  0  0  0  0  0  0  0  0  0  0
    0.5794   -0.1877   -0.4062 H   0  0  0  0  0  0  0  0  0  0  0  0
   -0.3347    0.2135   -1.8761 H   0  0  0  0  0  0  0  0  0  0  0  0
    1.5979    1.0559   -1.7733 N   0  3  0  0  0  0  0  0  0  0  0  0
    1.8183    2.0343   -1.7000 H   0  0  0  0  0  0  0  0  0  0  0  0
    2.4489    0.2954   -2.4416 C   0  0  0  0  0  0  0  0  0  0  0  0
    2.2598   -0.9850   -2.5971 N   0  0  0  0  0  0  0  0  0  0  0  0
    1.4413   -1.4056   -2.1940 H   0  0  0  0  0  0  0  0  0  0  0  0
    2.9153   -1.5477   -3.1075 H   0  0  0  0  0  0  0  0  0  0  0  0
    3.5190    0.8134   -2.9742 N   0  0  0  0  0  0  0  0  0  0  0  0
    3.7081    1.7965   -2.8808 H   0  0  0  0  0  0  0  0  0  0  0  0
    4.1620    0.2329   -3.4803 H   0  0  0  0  0  0  0  0  0  0  0  0
   -0.9523    0.1012    2.4848 C   0  0  0  0  0  0  0  0  0  0  0  0
    0.2133   -0.1319    2.7814 O   0  0  0  0  0  0  0  0  0  0  0  0
   -1.8684    0.5006    3.3725 N   0  0  0  0  0  0  0  0  0  0  0  0
   -2.7946    0.7048    3.0343 H   0  0  0  0  0  0  0  0  0  0  0  0
   -1.5848    0.7472    4.7873 C   0  0  0  0  0  0  0  0  0  0  0  0
   -0.8819    1.5774    4.8838 H   0  0  0  0  0  0  0  0  0  0  0  0
   -2.5030    0.9948    5.3214 H   0  0  0  0  0  0  0  0  0  0  0  0
   -1.1344   -0.1399    5.2381 H   0  0  0  0  0  0  0  0  0  0  0  0
  5  6  2  0  0  0  0
  5  7  1  0  0  0  0
  2  3  1  0  0  0  0
  2  4  1  0  0  0  0
  2  5  1  0  0  0  0
  1  2  1  0  0  0  0
 29 30  2  0  0  0  0
 29 31  1  0  0  0  0
 26 27  1  0  0  0  0
 26 28  1  0  0  0  0
 23 24  1  0  0  0  0
 23 25  1  0  0  0  0
 22 23  1  0  0  0  0
 22 26  1  0  0  0  0
 20 21  1  0  0  0  0
 20 22  2  0  0  0  0
 17 18  1  0  0  0  0
 17 19  1  0  0  0  0
 17 20  1  0  0  0  0
 14 15  1  0  0  0  0
 14 16  1  0  0  0  0
 14 17  1  0  0  0  0
 11 12  1  0  0  0  0
 11 13  1  0  0  0  0
 11 14  1  0  0  0  0
  9 10  1  0  0  0  0
  9 11  1  0  0  0  0
  9 29  1  0  0  0  0
  7  8  1  0  0  0  0
  7  9  1  0  0  0  0
 33 34  1  0  0  0  0
 33 35  1  0  0  0  0
 33 36  1  0  0  0  0
 31 32  1  0  0  0  0
 31 33  1  0  0  0  0
M  CHG  1  20   1
M  END
$$$$
default_name
  -OEChem-02102213163D

 36 35  0     1  0  0  0  0  0999 V2000
   -4.2256   -3.6731    1.8584 H   0  0  0  0  0  0  0  0  0  0  0  0
   -4.2396   -2.6781    1.4144 C   0  0  0  0  0  0  0  0  0  0  0  0
   -4.9506   -2.0521    1.9514 H   0  0  0  0  0  0  0  0  0  0  0  0
   -4.5266   -2.7521    0.3674 H   0  0  0  0  0  0  0  0  0  0  0  0
   -2.8576   -2.0761    1.5184 C   0  0  0  0  0  0  0  0  0  0  0  0
   -1.9456   -2.7051    2.0404 O   0  0  0  0  0  0  0  0  0  0  0  0
   -2.6926   -0.8481    1.0174 N   0  0  0  0  0  0  0  0  0  0  0  0
   -3.4926   -0.3971    0.5954 H   0  0  0  0  0  0  0  0  0  0  0  0
   -1.4216   -0.1071    1.0434 C   0  0  1  0  0  0  0  0  0  0  0  0
   -0.6709   -0.6930    0.5106 H   0  0  0  0  0  0  0  0  0  0  0  0
   -1.6221    1.2315    0.3051 C   0  0  0  0  0  0  0  0  0  0  0  0
   -2.3887    1.0958   -0.4604 H   0  0  0  0  0  0  0  0  0  0  0  0
   -1.9804    1.9804    1.0149 H   0  0  0  0  0  0  0  0  0  0  0  0
   -0.3473    1.7512   -0.3755 C   0  0  0  0  0  0  0  0  0  0  0  0
   -0.5564    2.6970   -0.8772 H   0  0  0  0  0  0  0  0  0  0  0  0
    0.4262    1.9059    0.3774 H   0  0  0  0  0  0  0  0  0  0  0  0
    0.1452    0.7311   -1.4110 C   0  0  0  0  0  0  0  0  0  0  0  0
    0.3264   -0.2199   -0.9047 H   0  0  0  0  0  0  0  0  0  0  0  0
   -0.6386    0.5887   -2.1587 H   0  0  0  0  0  0  0  0  0  0  0  0
    1.3860    1.1798   -2.0756 N   0  3  0  0  0  0  0  0  0  0  0  0
    1.7312    2.0894   -1.8212 H   0  0  0  0  0  0  0  0  0  0  0  0
    2.0833    0.4998   -2.9703 C   0  0  0  0  0  0  0  0  0  0  0  0
    1.7254   -0.6879   -3.3712 N   0  0  0  0  0  0  0  0  0  0  0  0
    0.8935   -1.0984   -2.9854 H   0  0  0  0  0  0  0  0  0  0  0  0
    2.2657   -1.1903   -4.0513 H   0  0  0  0  0  0  0  0  0  0  0  0
    3.1665    1.0068   -3.4868 N   0  0  0  0  0  0  0  0  0  0  0  0
    3.4828    1.9198   -3.2087 H   0  0  0  0  0  0  0  0  0  0  0  0
    3.6925    0.4876   -4.1652 H   0  0  0  0  0  0  0  0  0  0  0  0
   -0.9523    0.1012    2.4848 C   0  0  0  0  0  0  0  0  0  0  0  0
    0.2133   -0.1319    2.7814 O   0  0  0  0  0  0  0  0  0  0  0  0
   -1.8684    0.5006    3.3725 N   0  0  0  0  0  0  0  0  0  0  0  0
   -2.7946    0.7048    3.0343 H   0  0  0  0  0  0  0  0  0  0  0  0
   -1.5848    0.7472    4.7873 C   0  0  0  0  0  0  0  0  0  0  0  0
   -0.8819    1.5774    4.8838 H   0  0  0  0  0  0  0  0  0  0  0  0
   -2.5030    0.9948    5.3214 H   0  0  0  0  0  0  0  0  0  0  0  0
   -1.1344   -0.1399    5.2381 H   0  0  0  0  0  0  0  0  0  0  0  0
  5  6  2  0  0  0  0
  5  7  1  0  0  0  0
  2  3  1  0  0  0  0
  2  4  1  0  0  0  0
  2  5  1  0  0  0  0
  1  2  1  0  0  0  0
 29 30  2  0  0  0  0
 29 31  1  0  0  0  0
 26 27  1  0  0  0  0
 26 28  1  0  0  0  0
 23 24  1  0  0  0  0
 23 25  1  0  0  0  0
 22 23  1  0  0  0  0
 22 26  1  0  0  0  0
 20 21  1  0  0  0  0
 20 22  2  0  0  0  0
 17 18  1  0  0  0  0
 17 19  1  0  0  0  0
 17 20  1  0  0  0  0
 14 15  1  0  0  0  0
 14 16  1  0  0  0  0
 14 17  1  0  0  0  0
 11 12  1  0  0  0  0
 11 13  1  0  0  0  0
 11 14  1  0  0  0  0
  9 10  1  0  0  0  0
  9 11  1  0  0  0  0
  9 29  1  0  0  0  0
  7  8  1  0  0  0  0
  7  9  1  0  0  0  0
 33 34  1  0  0  0  0
 33 35  1  0  0  0  0
 33 36  1  0  0  0  0
 31 32  1  0  0  0  0
 31 33  1  0  0  0  0
M  CHG  1  20   1
M  END
$$$$
default_name
  -OEChem-02102213163D

 36 35  0     1  0  0  0  0  0999 V2000
   -4.2256   -3.6731    1.8584 H   0  0  0  0  0  0  0  0  0  0  0  0
   -4.2396   -2.6781    1.4144 C   0  0  0  0  0  0  0  0  0  0  0  0
   -4.9506   -2.0521    1.9514 H   0  0  0  0  0  0  0  0  0  0  0  0
   -4.5266   -2.7521    0.3674 H   0  0  0  0  0  0  0  0  0  0  0  0
   -2.8576   -2.0761    1.5184 C   0  0  0  0  0  0  0  0  0  0  0  0
   -1.9456   -2.7051    2.0404 O   0  0  0  0  0  0  0  0  0  0  0  0
   -2.6926   -0.8481    1.0174 N   0  0  0  0  0  0  0  0  0  0  0  0
   -3.4926   -0.3971    0.5954 H   0  0  0  0  0  0  0  0  0  0  0  0
   -1.4216   -0.1071    1.0434 C   0  0  1  0  0  0  0  0  0  0  0  0
   -0.6709   -0.6930    0.5106 H   0  0  0  0  0  0  0  0  0  0  0  0
   -1.6221    1.2315    0.3051 C   0  0  0  0  0  0  0  0  0  0  0  0
   -2.3887    1.0958   -0.4604 H   0  0  0  0  0  0  0  0  0  0  0  0
   -1.9804    1.9804    1.0149 H   0  0  0  0  0  0  0  0  0  0  0  0
   -0.3473    1.7512   -0.3755 C   0  0  0  0  0  0  0  0  0  0  0  0
   -0.4742    2.8008   -0.6441 H   0  0  0  0  0  0  0  0  0  0  0  0
    0.4937    1.6543    0.3118 H   0  0  0  0  0  0  0  0  0  0  0  0
   -0.0646    0.9378   -1.6459 C   0  0  0  0  0  0  0  0  0  0  0  0
    0.0345   -0.1148   -1.3711 H   0  0  0  0  0  0  0  0  0  0  0  0
   -0.9138    1.0466   -2.3246 H   0  0  0  0  0  0  0  0  0  0  0  0
    1.1690    1.3887   -2.3224 N   0  3  0  0  0  0  0  0  0  0  0  0
    1.6427    2.1787   -1.9188 H   0  0  0  0  0  0  0  0  0  0  0  0
    1.7072    0.8527   -3.4051 C   0  0  0  0  0  0  0  0  0  0  0  0
    1.1755   -0.1733   -4.0082 N   0  0  0  0  0  0  0  0  0  0  0  0
    0.3303   -0.5688   -3.6358 H   0  0  0  0  0  0  0  0  0  0  0  0
    1.5966   -0.5677   -4.8292 H   0  0  0  0  0  0  0  0  0  0  0  0
    2.8032    1.3442   -3.9096 N   0  0  0  0  0  0  0  0  0  0  0  0
    3.2505    2.1353   -3.4793 H   0  0  0  0  0  0  0  0  0  0  0  0
    3.2082    0.9345   -4.7310 H   0  0  0  0  0  0  0  0  0  0  0  0
   -0.9523    0.1012    2.4848 C   0  0  0  0  0  0  0  0  0  0  0  0
    0.2133   -0.1319    2.7814 O   0  0  0  0  0  0  0  0  0  0  0  0
   -1.8684    0.5006    3.3725 N   0  0  0  0  0  0  0  0  0  0  0  0
   -2.7946    0.7048    3.0343 H   0  0  0  0  0  0  0  0  0  0  0  0
   -1.5848    0.7472    4.7873 C   0  0  0  0  0  0  0  0  0  0  0  0
   -0.8819    1.5774    4.8838 H   0  0  0  0  0  0  0  0  0  0  0  0
   -2.5030    0.9948    5.3214 H   0  0  0  0  0  0  0  0  0  0  0  0
   -1.1344   -0.1399    5.2381 H   0  0  0  0  0  0  0  0  0  0  0  0
  5  6  2  0  0  0  0
  5  7  1  0  0  0  0
  2  3  1  0  0  0  0
  2  4  1  0  0  0  0
  2  5  1  0  0  0  0
  1  2  1  0  0  0  0
 29 30  2  0  0  0  0
 29 31  1  0  0  0  0
 26 27  1  0  0  0  0
 26 28  1  0  0  0  0
 23 24  1  0  0  0  0
 23 25  1  0  0  0  0
 22 23  1  0  0  0  0
 22 26  1  0  0  0  0
 20 21  1  0  0  0  0
 20 22  2  0  0  0  0
 17 18  1  0  0  0  0
 17 19  1  0  0  0  0
 17 20  1  0  0  0  0
 14 15  1  0  0  0  0
 14 16  1  0  0  0  0
 14 17  1  0  0  0  0
 11 12  1  0  0  0  0
 11 13  1  0  0  0  0
 11 14  1  0  0  0  0
  9 10  1  0  0  0  0
  9 11  1  0  0  0  0
  9 29  1  0  0  0  0
  7  8  1  0  0  0  0
  7  9  1  0  0  0  0
 33 34  1  0  0  0  0
 33 35  1  0  0  0  0
 33 36  1  0  0  0  0
 31 32  1  0  0  0  0
 31 33  1  0  0  0  0
M  CHG  1  20   1
M  END
$$$$
default_name
  -OEChem-02102213163D

 36 35  0     1  0  0  0  0  0999 V2000
   -4.2256   -3.6731    1.8584 H   0  0  0  0  0  0  0  0  0  0  0  0
   -4.2396   -2.6781    1.4144 C   0  0  0  0  0  0  0  0  0  0  0  0
   -4.9506   -2.0521    1.9514 H   0  0  0  0  0  0  0  0  0  0  0  0
   -4.5266   -2.7521    0.3674 H   0  0  0  0  0  0  0  0  0  0  0  0
   -2.8576   -2.0761    1.5184 C   0  0  0  0  0  0  0  0  0  0  0  0
   -1.9456   -2.7051    2.0404 O   0  0  0  0  0  0  0  0  0  0  0  0
   -2.6926   -0.8481    1.0174 N   0  0  0  0  0  0  0  0  0  0  0  0
   -3.4926   -0.3971    0.5954 H   0  0  0  0  0  0  0  0  0  0  0  0
   -1.4216   -0.1071    1.0434 C   0  0  1  0  0  0  0  0  0  0  0  0
   -0.6709   -0.6930    0.5106 H   0  0  0  0  0  0  0  0  0  0  0  0
   -1.6221    1.2315    0.3051 C   0  0  0  0  0  0  0  0  0  0  0  0
   -2.3887    1.0958   -0.4604 H   0  0  0  0  0  0  0  0  0  0  0  0
   -1.9804    1.9804    1.0149 H   0  0  0  0  0  0  0  0  0  0  0  0
   -0.3473    1.7512   -0.3755 C   0  0  0  0  0  0  0  0  0  0  0  0
   -0.3626    2.8416   -0.4039 H   0  0  0  0  0  0  0  0  0  0  0  0
    0.5244    1.4177    0.1885 H   0  0  0  0  0  0  0  0  0  0  0  0
   -0.2640    1.2121   -1.8100 C   0  0  0  0  0  0  0  0  0  0  0  0
   -0.2762    0.1203   -1.7734 H   0  0  0  0  0  0  0  0  0  0  0  0
   -1.1417    1.5561   -2.3622 H   0  0  0  0  0  0  0  0  0  0  0  0
    0.9618    1.6684   -2.4970 N   0  3  0  0  0  0  0  0  0  0  0  0
    1.5589    2.2960   -1.9861 H   0  0  0  0  0  0  0  0  0  0  0  0
    1.3464    1.3302   -3.7163 C   0  0  0  0  0  0  0  0  0  0  0  0
    0.6475    0.5237   -4.4648 N   0  0  0  0  0  0  0  0  0  0  0  0
   -0.2099    0.1471   -4.1010 H   0  0  0  0  0  0  0  0  0  0  0  0
    0.9535    0.2775   -5.3882 H   0  0  0  0  0  0  0  0  0  0  0  0
    2.4540    1.8026   -4.2136 N   0  0  0  0  0  0  0  0  0  0  0  0
    3.0272    2.4281   -3.6740 H   0  0  0  0  0  0  0  0  0  0  0  0
    2.7422    1.5433   -5.1390 H   0  0  0  0  0  0  0  0  0  0  0  0
   -0.9523    0.1012    2.4848 C   0  0  0  0  0  0  0  0  0  0  0  0
    0.2133   -0.1319    2.7814 O   0  0  0  0  0  0  0  0  0  0  0  0
   -1.8684    0.5006    3.3725 N   0  0  0  0  0  0  0  0  0  0  0  0
   -2.7946    0.7048    3.0343 H   0  0  0  0  0  0  0  0  0  0  0  0
   -1.5848    0.7472    4.7873 C   0  0  0  0  0  0  0  0  0  0  0  0
   -0.8819    1.5774    4.8838 H   0  0  0  0  0  0  0  0  0  0  0  0
   -2.5030    0.9948    5.3214 H   0  0  0  0  0  0  0  0  0  0  0  0
   -1.1344   -0.1399    5.2381 H   0  0  0  0  0  0  0  0  0  0  0  0
  5  6  2  0  0  0  0
  5  7  1  0  0  0  0
  2  3  1  0  0  0  0
  2  4  1  0  0  0  0
  2  5  1  0  0  0  0
  1  2  1  0  0  0  0
 29 30  2  0  0  0  0
 29 31  1  0  0  0  0
 26 27  1  0  0  0  0
 26 28  1  0  0  0  0
 23 24  1  0  0  0  0
 23 25  1  0  0  0  0
 22 23  1  0  0  0  0
 22 26  1  0  0  0  0
 20 21  1  0  0  0  0
 20 22  2  0  0  0  0
 17 18  1  0  0  0  0
 17 19  1  0  0  0  0
 17 20  1  0  0  0  0
 14 15  1  0  0  0  0
 14 16  1  0  0  0  0
 14 17  1  0  0  0  0
 11 12  1  0  0  0  0
 11 13  1  0  0  0  0
 11 14  1  0  0  0  0
  9 10  1  0  0  0  0
  9 11  1  0  0  0  0
  9 29  1  0  0  0  0
  7  8  1  0  0  0  0
  7  9  1  0  0  0  0
 33 34  1  0  0  0  0
 33 35  1  0  0  0  0
 33 36  1  0  0  0  0
 31 32  1  0  0  0  0
 31 33  1  0  0  0  0
M  CHG  1  20   1
M  END
$$$$
default_name
  -OEChem-02102213163D

 36 35  0     1  0  0  0  0  0999 V2000
   -4.2256   -3.6731    1.8584 H   0  0  0  0  0  0  0  0  0  0  0  0
   -4.2396   -2.6781    1.4144 C   0  0  0  0  0  0  0  0  0  0  0  0
   -4.9506   -2.0521    1.9514 H   0  0  0  0  0  0  0  0  0  0  0  0
   -4.5266   -2.7521    0.3674 H   0  0  0  0  0  0  0  0  0  0  0  0
   -2.8576   -2.0761    1.5184 C   0  0  0  0  0  0  0  0  0  0  0  0
   -1.9456   -2.7051    2.0404 O   0  0  0  0  0  0  0  0  0  0  0  0
   -2.6926   -0.8481    1.0174 N   0  0  0  0  0  0  0  0  0  0  0  0
   -3.4926   -0.3971    0.5954 H   0  0  0  0  0  0  0  0  0  0  0  0
   -1.4216   -0.1071    1.0434 C   0  0  1  0  0  0  0  0  0  0  0  0
   -0.6709   -0.6930    0.5106 H   0  0  0  0  0  0  0  0  0  0  0  0
   -1.6221    1.2315    0.3051 C   0  0  0  0  0  0  0  0  0  0  0  0
   -2.3887    1.0958   -0.4604 H   0  0  0  0  0  0  0  0  0  0  0  0
   -1.9804    1.9804    1.0149 H   0  0  0  0  0  0  0  0  0  0  0  0
   -0.3473    1.7512   -0.3755 C   0  0  0  0  0  0  0  0  0  0  0  0
   -0.2291    2.8166   -0.1729 H   0  0  0  0  0  0  0  0  0  0  0  0
    0.5160    1.2120    0.0158 H   0  0  0  0  0  0  0  0  0  0  0  0
   -0.4395    1.5351   -1.8921 C   0  0  0  0  0  0  0  0  0  0  0  0
   -0.5845    0.4695   -2.0843 H   0  0  0  0  0  0  0  0  0  0  0  0
   -1.3066    2.0825   -2.2692 H   0  0  0  0  0  0  0  0  0  0  0  0
    0.7784    1.9999   -2.5873 N   0  3  0  0  0  0  0  0  0  0  0  0
    1.4855    2.4334   -2.0186 H   0  0  0  0  0  0  0  0  0  0  0  0
    1.0254    1.8996   -3.8827 C   0  0  0  0  0  0  0  0  0  0  0  0
    0.1775    1.3556   -4.7099 N   0  0  0  0  0  0  0  0  0  0  0  0
   -0.6903    1.0004   -4.3492 H   0  0  0  0  0  0  0  0  0  0  0  0
    0.3803    1.2877   -5.6903 H   0  0  0  0  0  0  0  0  0  0  0  0
    2.1427    2.3507   -4.3782 N   0  0  0  0  0  0  0  0  0  0  0  0
    2.8280    2.7784   -3.7795 H   0  0  0  0  0  0  0  0  0  0  0  0
    2.3261    2.2726   -5.3615 H   0  0  0  0  0  0  0  0  0  0  0  0
   -0.9523    0.1012    2.4848 C   0  0  0  0  0  0  0  0  0  0  0  0
    0.2133   -0.1319    2.7814 O   0  0  0  0  0  0  0  0  0  0  0  0
   -1.8684    0.5006    3.3725 N   0  0  0  0  0  0  0  0  0  0  0  0
   -2.7946    0.7048    3.0343 H   0  0  0  0  0  0  0  0  0  0  0  0
   -1.5848    0.7472    4.7873 C   0  0  0  0  0  0  0  0  0  0  0  0
   -0.8819    1.5774    4.8838 H   0  0  0  0  0  0  0  0  0  0  0  0
   -2.5030    0.9948    5.3214 H   0  0  0  0  0  0  0  0  0  0  0  0
   -1.1344   -0.1399    5.2381 H   0  0  0  0  0  0  0  0  0  0  0  0
  5  6  2  0  0  0  0
  5  7  1  0  0  0  0
  2  3  1  0  0  0  0
  2  4  1  0  0  0  0
  2  5  1  0  0  0  0
  1  2  1  0  0  0  0
 29 30  2  0  0  0  0
 29 31  1  0  0  0  0
 26 27  1  0  0  0  0
 26 28  1  0  0  0  0
 23 24  1  0  0  0  0
 23 25  1  0  0  0  0
 22 23  1  0  0  0  0
 22 26  1  0  0  0  0
 20 21  1  0  0  0  0
 20 22  2  0  0  0  0
 17 18  1  0  0  0  0
 17 19  1  0  0  0  0
 17 20  1  0  0  0  0
 14 15  1  0  0  0  0
 14 16  1  0  0  0  0
 14 17  1  0  0  0  0
 11 12  1  0  0  0  0
 11 13  1  0  0  0  0
 11 14  1  0  0  0  0
  9 10  1  0  0  0  0
  9 11  1  0  0  0  0
  9 29  1  0  0  0  0
  7  8  1  0  0  0  0
  7  9  1  0  0  0  0
 33 34  1  0  0  0  0
 33 35  1  0  0  0  0
 33 36  1  0  0  0  0
 31 32  1  0  0  0  0
 31 33  1  0  0  0  0
M  CHG  1  20   1
M  END
$$$$
default_name
  -OEChem-02102213163D

 36 35  0     1  0  0  0  0  0999 V2000
   -4.2256   -3.6731    1.8584 H   0  0  0  0  0  0  0  0  0  0  0  0
   -4.2396   -2.6781    1.4144 C   0  0  0  0  0  0  0  0  0  0  0  0
   -4.9506   -2.0521    1.9514 H   0  0  0  0  0  0  0  0  0  0  0  0
   -4.5266   -2.7521    0.3674 H   0  0  0  0  0  0  0  0  0  0  0  0
   -2.8576   -2.0761    1.5184 C   0  0  0  0  0  0  0  0  0  0  0  0
   -1.9456   -2.7051    2.0404 O   0  0  0  0  0  0  0  0  0  0  0  0
   -2.6926   -0.8481    1.0174 N   0  0  0  0  0  0  0  0  0  0  0  0
   -3.4926   -0.3971    0.5954 H   0  0  0  0  0  0  0  0  0  0  0  0
   -1.4216   -0.1071    1.0434 C   0  0  1  0  0  0  0  0  0  0  0  0
   -0.6709   -0.6930    0.5106 H   0  0  0  0  0  0  0  0  0  0  0  0
   -1.6221    1.2315    0.3051 C   0  0  0  0  0  0  0  0  0  0  0  0
   -2.3887    1.0958   -0.4604 H   0  0  0  0  0  0  0  0  0  0  0  0
   -1.9804    1.9804    1.0149 H   0  0  0  0  0  0  0  0  0  0  0  0
   -0.3473    1.7512   -0.3755 C   0  0  0  0  0  0  0  0  0  0  0  0
   -0.0827    2.7274    0.0331 H   0  0  0  0  0  0  0  0  0  0  0  0
    0.4692    1.0515   -0.1944 H   0  0  0  0  0  0  0  0  0  0  0  0
   -0.5793    1.8849   -1.8867 C   0  0  0  0  0  0  0  0  0  0  0  0
   -0.8695    0.9090   -2.2826 H   0  0  0  0  0  0  0  0  0  0  0  0
   -1.3974    2.5899   -2.0518 H   0  0  0  0  0  0  0  0  0  0  0  0
    0.6314    2.3606   -2.5873 N   0  3  0  0  0  0  0  0  0  0  0  0
    1.4276    2.5815   -2.0140 H   0  0  0  0  0  0  0  0  0  0  0  0
    0.7661    2.5222   -3.8929 C   0  0  0  0  0  0  0  0  0  0  0  0
   -0.2025    2.2657   -4.7267 N   0  0  0  0  0  0  0  0  0  0  0  0
   -1.0782    1.9332   -4.3635 H   0  0  0  0  0  0  0  0  0  0  0  0
   -0.0839    2.3942   -5.7148 H   0  0  0  0  0  0  0  0  0  0  0  0
    1.8904    2.9513   -4.3922 N   0  0  0  0  0  0  0  0  0  0  0  0
    2.6665    3.1623   -3.7888 H   0  0  0  0  0  0  0  0  0  0  0  0
    1.9883    3.0724   -5.3833 H   0  0  0  0  0  0  0  0  0  0  0  0
   -0.9523    0.1012    2.4848 C   0  0  0  0  0  0  0  0  0  0  0  0
    0.2133   -0.1319    2.7814 O   0  0  0  0  0  0  0  0  0  0  0  0
   -1.8684    0.5006    3.3725 N   0  0  0  0  0  0  0  0  0  0  0  0
   -2.7946    0.7048    3.0343 H   0  0  0  0  0  0  0  0  0  0  0  0
   -1.5848    0.7472    4.7873 C   0  0  0  0  0  0  0  0  0  0  0  0
   -0.8819    1.5774    4.8838 H   0  0  0  0  0  0  0  0  0  0  0  0
   -2.5030    0.9948    5.3214 H   0  0  0  0  0  0  0  0  0  0  0  0
   -1.1344   -0.1399    5.2381 H   0  0  0  0  0  0  0  0  0  0  0  0
  5  6  2  0  0  0  0
  5  7  1  0  0  0  0
  2  3  1  0  0  0  0
  2  4  1  0  0  0  0
  2  5  1  0  0  0  0
  1  2  1  0  0  0  0
 29 30  2  0  0  0  0
 29 31  1  0  0  0  0
 26 27  1  0  0  0  0
 26 28  1  0  0  0  0
 23 24  1  0  0  0  0
 23 25  1  0  0  0  0
 22 23  1  0  0  0  0
 22 26  1  0  0  0  0
 20 21  1  0  0  0  0
 20 22  2  0  0  0  0
 17 18  1  0  0  0  0
 17 19  1  0  0  0  0
 17 20  1  0  0  0  0
 14 15  1  0  0  0  0
 14 16  1  0  0  0  0
 14 17  1  0  0  0  0
 11 12  1  0  0  0  0
 11 13  1  0  0  0  0
 11 14  1  0  0  0  0
  9 10  1  0  0  0  0
  9 11  1  0  0  0  0
  9 29  1  0  0  0  0
  7  8  1  0  0  0  0
  7  9  1  0  0  0  0
 33 34  1  0  0  0  0
 33 35  1  0  0  0  0
 33 36  1  0  0  0  0
 31 32  1  0  0  0  0
 31 33  1  0  0  0  0
M  CHG  1  20   1
M  END
$$$$
default_name
  -OEChem-02102213163D

 36 35  0     1  0  0  0  0  0999 V2000
   -4.2256   -3.6731    1.8584 H   0  0  0  0  0  0  0  0  0  0  0  0
   -4.2396   -2.6781    1.4144 C   0  0  0  0  0  0  0  0  0  0  0  0
   -4.9506   -2.0521    1.9514 H   0  0  0  0  0  0  0  0  0  0  0  0
   -4.5266   -2.7521    0.3674 H   0  0  0  0  0  0  0  0  0  0  0  0
   -2.8576   -2.0761    1.5184 C   0  0  0  0  0  0  0  0  0  0  0  0
   -1.9456   -2.7051    2.0404 O   0  0  0  0  0  0  0  0  0  0  0  0
   -2.6926   -0.8481    1.0174 N   0  0  0  0  0  0  0  0  0  0  0  0
   -3.4926   -0.3971    0.5954 H   0  0  0  0  0  0  0  0  0  0  0  0
   -1.4216   -0.1071    1.0434 C   0  0  1  0  0  0  0  0  0  0  0  0
   -0.6709   -0.6930    0.5106 H   0  0  0  0  0  0  0  0  0  0  0  0
   -1.6221    1.2315    0.3051 C   0  0  0  0  0  0  0  0  0  0  0  0
   -2.3887    1.0958   -0.4604 H   0  0  0  0  0  0  0  0  0  0  0  0
   -1.9804    1.9804    1.0149 H   0  0  0  0  0  0  0  0  0  0  0  0
   -0.3473    1.7512   -0.3755 C   0  0  0  0  0  0  0  0  0  0  0  0
    0.0665    2.5803    0.2002 H   0  0  0  0  0  0  0  0  0  0  0  0
    0.3872    0.9469   -0.4279 H   0  0  0  0  0  0  0  0  0  0  0  0
   -0.6736    2.2377   -1.7941 C   0  0  0  0  0  0  0  0  0  0  0  0
   -1.1118    1.4088   -2.3547 H   0  0  0  0  0  0  0  0  0  0  0  0
   -1.4079    3.0437   -1.7249 H   0  0  0  0  0  0  0  0  0  0  0  0
    0.5308    2.7258   -2.4969 N   0  3  0  0  0  0  0  0  0  0  0  0
    1.3890    2.7303   -1.9727 H   0  0  0  0  0  0  0  0  0  0  0  0
    0.5861    3.1556   -3.7464 C   0  0  0  0  0  0  0  0  0  0  0  0
   -0.4667    3.1921   -4.5142 N   0  0  0  0  0  0  0  0  0  0  0  0
   -1.3472    2.8817   -4.1429 H   0  0  0  0  0  0  0  0  0  0  0  0
   -0.4075    3.5215   -5.4601 H   0  0  0  0  0  0  0  0  0  0  0  0
    1.7143    3.5633   -4.2546 N   0  0  0  0  0  0  0  0  0  0  0  0
    2.5538    3.5536   -3.7012 H   0  0  0  0  0  0  0  0  0  0  0  0
    1.7519    3.8885   -5.2029 H   0  0  0  0  0  0  0  0  0  0  0  0
   -0.9523    0.1012    2.4848 C   0  0  0  0  0  0  0  0  0  0  0  0
    0.2133   -0.1319    2.7814 O   0  0  0  0  0  0  0  0  0  0  0  0
   -1.8684    0.5006    3.3725 N   0  0  0  0  0  0  0  0  0  0  0  0
   -2.7946    0.7048    3.0343 H   0  0  0  0  0  0  0  0  0  0  0  0
   -1.5848    0.7472    4.7873 C   0  0  0  0  0  0  0  0  0  0  0  0
   -0.8819    1.5774    4.8838 H   0  0  0  0  0  0  0  0  0  0  0  0
   -2.5030    0.9948    5.3214 H   0  0  0  0  0  0  0  0  0  0  0  0
   -1.1344   -0.1399    5.2381 H   0  0  0  0  0  0  0  0  0  0  0  0
  5  6  2  0  0  0  0
  5  7  1  0  0  0  0
  2  3  1  0  0  0  0
  2  4  1  0  0  0  0
  2  5  1  0  0  0  0
  1  2  1  0  0  0  0
 29 30  2  0  0  0  0
 29 31  1  0  0  0  0
 26 27  1  0  0  0  0
 26 28  1  0  0  0  0
 23 24  1  0  0  0  0
 23 25  1  0  0  0  0
 22 23  1  0  0  0  0
 22 26  1  0  0  0  0
 20 21  1  0  0  0  0
 20 22  2  0  0  0  0
 17 18  1  0  0  0  0
 17 19  1  0  0  0  0
 17 20  1  0  0  0  0
 14 15  1  0  0  0  0
 14 16  1  0  0  0  0
 14 17  1  0  0  0  0
 11 12  1  0  0  0  0
 11 13  1  0  0  0  0
 11 14  1  0  0  0  0
  9 10  1  0  0  0  0
  9 11  1  0  0  0  0
  9 29  1  0  0  0  0
  7  8  1  0  0  0  0
  7  9  1  0  0  0  0
 33 34  1  0  0  0  0
 33 35  1  0  0  0  0
 33 36  1  0  0  0  0
 31 32  1  0  0  0  0
 31 33  1  0  0  0  0
M  CHG  1  20   1
M  END
$$$$
default_name
  -OEChem-02102213163D

 36 35  0     1  0  0  0  0  0999 V2000
   -4.2256   -3.6731    1.8584 H   0  0  0  0  0  0  0  0  0  0  0  0
   -4.2396   -2.6781    1.4144 C   0  0  0  0  0  0  0  0  0  0  0  0
   -4.9506   -2.0521    1.9514 H   0  0  0  0  0  0  0  0  0  0  0  0
   -4.5266   -2.7521    0.3674 H   0  0  0  0  0  0  0  0  0  0  0  0
   -2.8576   -2.0761    1.5184 C   0  0  0  0  0  0  0  0  0  0  0  0
   -1.9456   -2.7051    2.0404 O   0  0  0  0  0  0  0  0  0  0  0  0
   -2.6926   -0.8481    1.0174 N   0  0  0  0  0  0  0  0  0  0  0  0
   -3.4926   -0.3971    0.5954 H   0  0  0  0  0  0  0  0  0  0  0  0
   -1.4216   -0.1071    1.0434 C   0  0  1  0  0  0  0  0  0  0  0  0
   -0.6709   -0.6930    0.5106 H   0  0  0  0  0  0  0  0  0  0  0  0
   -1.6221    1.2315    0.3051 C   0  0  0  0  0  0  0  0  0  0  0  0
   -2.3887    1.0958   -0.4604 H   0  0  0  0  0  0  0  0  0  0  0  0
   -1.9804    1.9804    1.0149 H   0  0  0  0  0  0  0  0  0  0  0  0
   -0.3473    1.7512   -0.3755 C   0  0  0  0  0  0  0  0  0  0  0  0
    0.2083    2.3851    0.3169 H   0  0  0  0  0  0  0  0  0  0  0  0
    0.2755    0.9055   -0.6687 H   0  0  0  0  0  0  0  0  0  0  0  0
   -0.7161    2.5693   -1.6205 C   0  0  0  0  0  0  0  0  0  0  0  0
   -1.2948    1.9348   -2.2958 H   0  0  0  0  0  0  0  0  0  0  0  0
   -1.3373    3.4130   -1.3107 H   0  0  0  0  0  0  0  0  0  0  0  0
    0.4834    3.0707   -2.3223 N   0  3  0  0  0  0  0  0  0  0  0  0
    1.3724    2.8695   -1.8975 H   0  0  0  0  0  0  0  0  0  0  0  0
    0.4978    3.7565   -3.4530 C   0  0  0  0  0  0  0  0  0  0  0  0
   -0.5970    4.0715   -4.0867 N   0  0  0  0  0  0  0  0  0  0  0  0
   -1.4788    3.7814   -3.7026 H   0  0  0  0  0  0  0  0  0  0  0  0
   -0.5684    4.5928   -4.9436 H   0  0  0  0  0  0  0  0  0  0  0  0
    1.6266    4.1451   -3.9747 N   0  0  0  0  0  0  0  0  0  0  0  0
    2.4974    3.9257   -3.5226 H   0  0  0  0  0  0  0  0  0  0  0  0
    1.6330    4.6651   -4.8327 H   0  0  0  0  0  0  0  0  0  0  0  0
   -0.9523    0.1012    2.4848 C   0  0  0  0  0  0  0  0  0  0  0  0
    0.2133   -0.1319    2.7814 O   0  0  0  0  0  0  0  0  0  0  0  0
   -1.8684    0.5006    3.3725 N   0  0  0  0  0  0  0  0  0  0  0  0
   -2.7946    0.7048    3.0343 H   0  0  0  0  0  0  0  0  0  0  0  0
   -1.5848    0.7472    4.7873 C   0  0  0  0  0  0  0  0  0  0  0  0
   -0.8819    1.5774    4.8838 H   0  0  0  0  0  0  0  0  0  0  0  0
   -2.5030    0.9948    5.3214 H   0  0  0  0  0  0  0  0  0  0  0  0
   -1.1344   -0.1399    5.2381 H   0  0  0  0  0  0  0  0  0  0  0  0
  5  6  2  0  0  0  0
  5  7  1  0  0  0  0
  2  3  1  0  0  0  0
  2  4  1  0  0  0  0
  2  5  1  0  0  0  0
  1  2  1  0  0  0  0
 29 30  2  0  0  0  0
 29 31  1  0  0  0  0
 26 27  1  0  0  0  0
 26 28  1  0  0  0  0
 23 24  1  0  0  0  0
 23 25  1  0  0  0  0
 22 23  1  0  0  0  0
 22 26  1  0  0  0  0
 20 21  1  0  0  0  0
 20 22  2  0  0  0  0
 17 18  1  0  0  0  0
 17 19  1  0  0  0  0
 17 20  1  0  0  0  0
 14 15  1  0  0  0  0
 14 16  1  0  0  0  0
 14 17  1  0  0  0  0
 11 12  1  0  0  0  0
 11 13  1  0  0  0  0
 11 14  1  0  0  0  0
  9 10  1  0  0  0  0
  9 11  1  0  0  0  0
  9 29  1  0  0  0  0
  7  8  1  0  0  0  0
  7  9  1  0  0  0  0
 33 34  1  0  0  0  0
 33 35  1  0  0  0  0
 33 36  1  0  0  0  0
 31 32  1  0  0  0  0
 31 33  1  0  0  0  0
M  CHG  1  20   1
M  END
$$$$
default_name
  -OEChem-02102213163D

 36 35  0     1  0  0  0  0  0999 V2000
   -4.2256   -3.6731    1.8584 H   0  0  0  0  0  0  0  0  0  0  0  0
   -4.2396   -2.6781    1.4144 C   0  0  0  0  0  0  0  0  0  0  0  0
   -4.9506   -2.0521    1.9514 H   0  0  0  0  0  0  0  0  0  0  0  0
   -4.5266   -2.7521    0.3674 H   0  0  0  0  0  0  0  0  0  0  0  0
   -2.8576   -2.0761    1.5184 C   0  0  0  0  0  0  0  0  0  0  0  0
   -1.9456   -2.7051    2.0404 O   0  0  0  0  0  0  0  0  0  0  0  0
   -2.6926   -0.8481    1.0174 N   0  0  0  0  0  0  0  0  0  0  0  0
   -3.4926   -0.3971    0.5954 H   0  0  0  0  0  0  0  0  0  0  0  0
   -1.4216   -0.1071    1.0434 C   0  0  1  0  0  0  0  0  0  0  0  0
   -0.6709   -0.6930    0.5106 H   0  0  0  0  0  0  0  0  0  0  0  0
   -1.6221    1.2315    0.3051 C   0  0  0  0  0  0  0  0  0  0  0  0
   -2.3887    1.0958   -0.4604 H   0  0  0  0  0  0  0  0  0  0  0  0
   -1.9804    1.9804    1.0149 H   0  0  0  0  0  0  0  0  0  0  0  0
   -0.3473    1.7512   -0.3755 C   0  0  0  0  0  0  0  0  0  0  0  0
    0.3332    2.1553    0.3753 H   0  0  0  0  0  0  0  0  0  0  0  0
    0.1418    0.9300   -0.9004 H   0  0  0  0  0  0  0  0  0  0  0  0
   -0.7040    2.8572   -1.3779 C   0  0  0  0  0  0  0  0  0  0  0  0
   -1.4061    2.4513   -2.1098 H   0  0  0  0  0  0  0  0  0  0  0  0
   -1.1904    3.6727   -0.8374 H   0  0  0  0  0  0  0  0  0  0  0  0
    0.4924    3.3717   -2.0755 N   0  3  0  0  0  0  0  0  0  0  0  0
    1.3789    2.9897   -1.7934 H   0  0  0  0  0  0  0  0  0  0  0  0
    0.5071    4.2841   -3.0328 C   0  0  0  0  0  0  0  0  0  0  0  0
   -0.5845    4.8440   -3.4735 N   0  0  0  0  0  0  0  0  0  0  0  0
   -1.4642    4.5709   -3.0724 H   0  0  0  0  0  0  0  0  0  0  0  0
   -0.5558    5.5351   -4.2004 H   0  0  0  0  0  0  0  0  0  0  0  0
    1.6330    4.6570   -3.5717 N   0  0  0  0  0  0  0  0  0  0  0  0
    2.5014    4.2532   -3.2651 H   0  0  0  0  0  0  0  0  0  0  0  0
    1.6397    5.3493   -4.2978 H   0  0  0  0  0  0  0  0  0  0  0  0
   -0.9523    0.1012    2.4848 C   0  0  0  0  0  0  0  0  0  0  0  0
    0.2133   -0.1319    2.7814 O   0  0  0  0  0  0  0  0  0  0  0  0
   -1.8684    0.5006    3.3725 N   0  0  0  0  0  0  0  0  0  0  0  0
   -2.7946    0.7048    3.0343 H   0  0  0  0  0  0  0  0  0  0  0  0
   -1.5848    0.7472    4.7873 C   0  0  0  0  0  0  0  0  0  0  0  0
   -0.8819    1.5774    4.8838 H   0  0  0  0  0  0  0  0  0  0  0  0
   -2.5030    0.9948    5.3214 H   0  0  0  0  0  0  0  0  0  0  0  0
   -1.1344   -0.1399    5.2381 H   0  0  0  0  0  0  0  0  0  0  0  0
  5  6  2  0  0  0  0
  5  7  1  0  0  0  0
  2  3  1  0  0  0  0
  2  4  1  0  0  0  0
  2  5  1  0  0  0  0
  1  2  1  0  0  0  0
 29 30  2  0  0  0  0
 29 31  1  0  0  0  0
 26 27  1  0  0  0  0
 26 28  1  0  0  0  0
 23 24  1  0  0  0  0
 23 25  1  0  0  0  0
 22 23  1  0  0  0  0
 22 26  1  0  0  0  0
 20 21  1  0  0  0  0
 20 22  2  0  0  0  0
 17 18  1  0  0  0  0
 17 19  1  0  0  0  0
 17 20  1  0  0  0  0
 14 15  1  0  0  0  0
 14 16  1  0  0  0  0
 14 17  1  0  0  0  0
 11 12  1  0  0  0  0
 11 13  1  0  0  0  0
 11 14  1  0  0  0  0
  9 10  1  0  0  0  0
  9 11  1  0  0  0  0
  9 29  1  0  0  0  0
  7  8  1  0  0  0  0
  7  9  1  0  0  0  0
 33 34  1  0  0  0  0
 33 35  1  0  0  0  0
 33 36  1  0  0  0  0
 31 32  1  0  0  0  0
 31 33  1  0  0  0  0
M  CHG  1  20   1
M  END
$$$$
default_name
  -OEChem-02102213163D

 36 35  0     1  0  0  0  0  0999 V2000
   -4.2256   -3.6731    1.8584 H   0  0  0  0  0  0  0  0  0  0  0  0
   -4.2396   -2.6781    1.4144 C   0  0  0  0  0  0  0  0  0  0  0  0
   -4.9506   -2.0521    1.9514 H   0  0  0  0  0  0  0  0  0  0  0  0
   -4.5266   -2.7521    0.3674 H   0  0  0  0  0  0  0  0  0  0  0  0
   -2.8576   -2.0761    1.5184 C   0  0  0  0  0  0  0  0  0  0  0  0
   -1.9456   -2.7051    2.0404 O   0  0  0  0  0  0  0  0  0  0  0  0
   -2.6926   -0.8481    1.0174 N   0  0  0  0  0  0  0  0  0  0  0  0
   -3.4926   -0.3971    0.5954 H   0  0  0  0  0  0  0  0  0  0  0  0
   -1.4216   -0.1071    1.0434 C   0  0  1  0  0  0  0  0  0  0  0  0
   -0.6709   -0.6930    0.5106 H   0  0  0  0  0  0  0  0  0  0  0  0
   -1.6221    1.2315    0.3051 C   0  0  0  0  0  0  0  0  0  0  0  0
   -2.5530    1.1799   -0.2631 H   0  0  0  0  0  0  0  0  0  0  0  0
   -1.7175    2.0337    1.0402 H   0  0  0  0  0  0  0  0  0  0  0  0
   -0.4820    1.5707   -0.6662 C   0  0  0  0  0  0  0  0  0  0  0  0
    0.4598    1.6395   -0.1200 H   0  0  0  0  0  0  0  0  0  0  0  0
   -0.4049    0.7864   -1.4199 H   0  0  0  0  0  0  0  0  0  0  0  0
   -0.7636    2.9135   -1.3539 C   0  0  0  0  0  0  0  0  0  0  0  0
   -1.7207    2.8440   -1.8758 H   0  0  0  0  0  0  0  0  0  0  0  0
   -0.8356    3.6884   -0.5870 H   0  0  0  0  0  0  0  0  0  0  0  0
    0.2984    3.2695   -2.3173 N   0  3  0  0  0  0  0  0  0  0  0  0
    1.0814    2.6416   -2.3789 H   0  0  0  0  0  0  0  0  0  0  0  0
    0.3158    4.3326   -3.1039 C   0  0  0  0  0  0  0  0  0  0  0  0
   -0.6480    5.2104   -3.1043 N   0  0  0  0  0  0  0  0  0  0  0  0
   -1.4287    5.0719   -2.4873 H   0  0  0  0  0  0  0  0  0  0  0  0
   -0.6190    6.0119   -3.7073 H   0  0  0  0  0  0  0  0  0  0  0  0
    1.3149    4.5373   -3.9145 N   0  0  0  0  0  0  0  0  0  0  0  0
    2.0816    3.8878   -3.9501 H   0  0  0  0  0  0  0  0  0  0  0  0
    1.3241    5.3451   -4.5096 H   0  0  0  0  0  0  0  0  0  0  0  0
   -0.9523    0.1012    2.4848 C   0  0  0  0  0  0  0  0  0  0  0  0
    0.2133   -0.1319    2.7814 O   0  0  0  0  0  0  0  0  0  0  0  0
   -1.8684    0.5006    3.3725 N   0  0  0  0  0  0  0  0  0  0  0  0
   -2.7946    0.7048    3.0343 H   0  0  0  0  0  0  0  0  0  0  0  0
   -1.5848    0.7472    4.7873 C   0  0  0  0  0  0  0  0  0  0  0  0
   -0.8819    1.5774    4.8838 H   0  0  0  0  0  0  0  0  0  0  0  0
   -2.5030    0.9948    5.3214 H   0  0  0  0  0  0  0  0  0  0  0  0
   -1.1344   -0.1399    5.2381 H   0  0  0  0  0  0  0  0  0  0  0  0
  5  6  2  0  0  0  0
  5  7  1  0  0  0  0
  2  3  1  0  0  0  0
  2  4  1  0  0  0  0
  2  5  1  0  0  0  0
  1  2  1  0  0  0  0
 29 30  2  0  0  0  0
 29 31  1  0  0  0  0
 26 27  1  0  0  0  0
 26 28  1  0  0  0  0
 23 24  1  0  0  0  0
 23 25  1  0  0  0  0
 22 23  1  0  0  0  0
 22 26  1  0  0  0  0
 20 21  1  0  0  0  0
 20 22  2  0  0  0  0
 17 18  1  0  0  0  0
 17 19  1  0  0  0  0
 17 20  1  0  0  0  0
 14 15  1  0  0  0  0
 14 16  1  0  0  0  0
 14 17  1  0  0  0  0
 11 12  1  0  0  0  0
 11 13  1  0  0  0  0
 11 14  1  0  0  0  0
  9 10  1  0  0  0  0
  9 11  1  0  0  0  0
  9 29  1  0  0  0  0
  7  8  1  0  0  0  0
  7  9  1  0  0  0  0
 33 34  1  0  0  0  0
 33 35  1  0  0  0  0
 33 36  1  0  0  0  0
 31 32  1  0  0  0  0
 31 33  1  0  0  0  0
M  CHG  1  20   1
M  END
$$$$
default_name
  -OEChem-02102213163D

 36 35  0     1  0  0  0  0  0999 V2000
   -4.2256   -3.6731    1.8584 H   0  0  0  0  0  0  0  0  0  0  0  0
   -4.2396   -2.6781    1.4144 C   0  0  0  0  0  0  0  0  0  0  0  0
   -4.9506   -2.0521    1.9514 H   0  0  0  0  0  0  0  0  0  0  0  0
   -4.5266   -2.7521    0.3674 H   0  0  0  0  0  0  0  0  0  0  0  0
   -2.8576   -2.0761    1.5184 C   0  0  0  0  0  0  0  0  0  0  0  0
   -1.9456   -2.7051    2.0404 O   0  0  0  0  0  0  0  0  0  0  0  0
   -2.6926   -0.8481    1.0174 N   0  0  0  0  0  0  0  0  0  0  0  0
   -3.4926   -0.3971    0.5954 H   0  0  0  0  0  0  0  0  0  0  0  0
   -1.4216   -0.1071    1.0434 C   0  0  1  0  0  0  0  0  0  0  0  0
   -0.6709   -0.6930    0.5106 H   0  0  0  0  0  0  0  0  0  0  0  0
   -1.6221    1.2315    0.3051 C   0  0  0  0  0  0  0  0  0  0  0  0
   -2.5530    1.1799   -0.2631 H   0  0  0  0  0  0  0  0  0  0  0  0
   -1.7175    2.0337    1.0402 H   0  0  0  0  0  0  0  0  0  0  0  0
   -0.4820    1.5707   -0.6662 C   0  0  0  0  0  0  0  0  0  0  0  0
    0.4795    1.3808   -0.1872 H   0  0  0  0  0  0  0  0  0  0  0  0
   -0.5699    0.9481   -1.5571 H   0  0  0  0  0  0  0  0  0  0  0  0
   -0.5602    3.0499   -1.0676 C   0  0  0  0  0  0  0  0  0  0  0  0
   -1.5360    3.2368   -1.5219 H   0  0  0  0  0  0  0  0  0  0  0  0
   -0.4684    3.6601   -0.1660 H   0  0  0  0  0  0  0  0  0  0  0  0
    0.5061    3.4162   -2.0223 N   0  3  0  0  0  0  0  0  0  0  0  0
    1.1683    2.6969   -2.2576 H   0  0  0  0  0  0  0  0  0  0  0  0
    0.6708    4.5969   -2.5949 C   0  0  0  0  0  0  0  0  0  0  0  0
   -0.1296    5.5987   -2.3603 N   0  0  0  0  0  0  0  0  0  0  0  0
   -0.8965    5.4667   -1.7248 H   0  0  0  0  0  0  0  0  0  0  0  0
    0.0098    6.4884   -2.8029 H   0  0  0  0  0  0  0  0  0  0  0  0
    1.6559    4.7967   -3.4237 N   0  0  0  0  0  0  0  0  0  0  0  0
    2.2995    4.0540   -3.6363 H   0  0  0  0  0  0  0  0  0  0  0  0
    1.7772    5.6939   -3.8559 H   0  0  0  0  0  0  0  0  0  0  0  0
   -0.9523    0.1012    2.4848 C   0  0  0  0  0  0  0  0  0  0  0  0
    0.2133   -0.1319    2.7814 O   0  0  0  0  0  0  0  0  0  0  0  0
   -1.8684    0.5006    3.3725 N   0  0  0  0  0  0  0  0  0  0  0  0
   -2.7946    0.7048    3.0343 H   0  0  0  0  0  0  0  0  0  0  0  0
   -1.5848    0.7472    4.7873 C   0  0  0  0  0  0  0  0  0  0  0  0
   -0.8819    1.5774    4.8838 H   0  0  0  0  0  0  0  0  0  0  0  0
   -2.5030    0.9948    5.3214 H   0  0  0  0  0  0  0  0  0  0  0  0
   -1.1344   -0.1399    5.2381 H   0  0  0  0  0  0  0  0  0  0  0  0
  5  6  2  0  0  0  0
  5  7  1  0  0  0  0
  2  3  1  0  0  0  0
  2  4  1  0  0  0  0
  2  5  1  0  0  0  0
  1  2  1  0  0  0  0
 29 30  2  0  0  0  0
 29 31  1  0  0  0  0
 26 27  1  0  0  0  0
 26 28  1  0  0  0  0
 23 24  1  0  0  0  0
 23 25  1  0  0  0  0
 22 23  1  0  0  0  0
 22 26  1  0  0  0  0
 20 21  1  0  0  0  0
 20 22  2  0  0  0  0
 17 18  1  0  0  0  0
 17 19  1  0  0  0  0
 17 20  1  0  0  0  0
 14 15  1  0  0  0  0
 14 16  1  0  0  0  0
 14 17  1  0  0  0  0
 11 12  1  0  0  0  0
 11 13  1  0  0  0  0
 11 14  1  0  0  0  0
  9 10  1  0  0  0  0
  9 11  1  0  0  0  0
  9 29  1  0  0  0  0
  7  8  1  0  0  0  0
  7  9  1  0  0  0  0
 33 34  1  0  0  0  0
 33 35  1  0  0  0  0
 33 36  1  0  0  0  0
 31 32  1  0  0  0  0
 31 33  1  0  0  0  0
M  CHG  1  20   1
M  END
$$$$
default_name
  -OEChem-02102213163D

 36 35  0     1  0  0  0  0  0999 V2000
   -4.2256   -3.6731    1.8584 H   0  0  0  0  0  0  0  0  0  0  0  0
   -4.2396   -2.6781    1.4144 C   0  0  0  0  0  0  0  0  0  0  0  0
   -4.9506   -2.0521    1.9514 H   0  0  0  0  0  0  0  0  0  0  0  0
   -4.5266   -2.7521    0.3674 H   0  0  0  0  0  0  0  0  0  0  0  0
   -2.8576   -2.0761    1.5184 C   0  0  0  0  0  0  0  0  0  0  0  0
   -1.9456   -2.7051    2.0404 O   0  0  0  0  0  0  0  0  0  0  0  0
   -2.6926   -0.8481    1.0174 N   0  0  0  0  0  0  0  0  0  0  0  0
   -3.4926   -0.3971    0.5954 H   0  0  0  0  0  0  0  0  0  0  0  0
   -1.4216   -0.1071    1.0434 C   0  0  1  0  0  0  0  0  0  0  0  0
   -0.6709   -0.6930    0.5106 H   0  0  0  0  0  0  0  0  0  0  0  0
   -1.6221    1.2315    0.3051 C   0  0  0  0  0  0  0  0  0  0  0  0
   -2.5530    1.1799   -0.2631 H   0  0  0  0  0  0  0  0  0  0  0  0
   -1.7175    2.0337    1.0402 H   0  0  0  0  0  0  0  0  0  0  0  0
   -0.4820    1.5707   -0.6662 C   0  0  0  0  0  0  0  0  0  0  0  0
    0.4524    1.1406   -0.3029 H   0  0  0  0  0  0  0  0  0  0  0  0
   -0.7106    1.1576   -1.6491 H   0  0  0  0  0  0  0  0  0  0  0  0
   -0.3251    3.0934   -0.7765 C   0  0  0  0  0  0  0  0  0  0  0  0
   -1.2730    3.5180   -1.1150 H   0  0  0  0  0  0  0  0  0  0  0  0
   -0.0943    3.4918    0.2144 H   0  0  0  0  0  0  0  0  0  0  0  0
    0.7476    3.4672   -1.7211 N   0  3  0  0  0  0  0  0  0  0  0  0
    1.2682    2.7128   -2.1348 H   0  0  0  0  0  0  0  0  0  0  0  0
    1.0861    4.6963   -2.0727 C   0  0  0  0  0  0  0  0  0  0  0  0
    0.4772    5.7460   -1.5966 N   0  0  0  0  0  0  0  0  0  0  0  0
   -0.2741    5.6144   -0.9428 H   0  0  0  0  0  0  0  0  0  0  0  0
    0.7468    6.6720   -1.8737 H   0  0  0  0  0  0  0  0  0  0  0  0
    2.0559    4.8970   -2.9192 N   0  0  0  0  0  0  0  0  0  0  0  0
    2.5551    4.1185   -3.3138 H   0  0  0  0  0  0  0  0  0  0  0  0
    2.3094    5.8311   -3.1833 H   0  0  0  0  0  0  0  0  0  0  0  0
   -0.9523    0.1012    2.4848 C   0  0  0  0  0  0  0  0  0  0  0  0
    0.2133   -0.1319    2.7814 O   0  0  0  0  0  0  0  0  0  0  0  0
   -1.8684    0.5006    3.3725 N   0  0  0  0  0  0  0  0  0  0  0  0
   -2.7946    0.7048    3.0343 H   0  0  0  0  0  0  0  0  0  0  0  0
   -1.5848    0.7472    4.7873 C   0  0  0  0  0  0  0  0  0  0  0  0
   -0.8819    1.5774    4.8838 H   0  0  0  0  0  0  0  0  0  0  0  0
   -2.5030    0.9948    5.3214 H   0  0  0  0  0  0  0  0  0  0  0  0
   -1.1344   -0.1399    5.2381 H   0  0  0  0  0  0  0  0  0  0  0  0
  5  6  2  0  0  0  0
  5  7  1  0  0  0  0
  2  3  1  0  0  0  0
  2  4  1  0  0  0  0
  2  5  1  0  0  0  0
  1  2  1  0  0  0  0
 29 30  2  0  0  0  0
 29 31  1  0  0  0  0
 26 27  1  0  0  0  0
 26 28  1  0  0  0  0
 23 24  1  0  0  0  0
 23 25  1  0  0  0  0
 22 23  1  0  0  0  0
 22 26  1  0  0  0  0
 20 21  1  0  0  0  0
 20 22  2  0  0  0  0
 17 18  1  0  0  0  0
 17 19  1  0  0  0  0
 17 20  1  0  0  0  0
 14 15  1  0  0  0  0
 14 16  1  0  0  0  0
 14 17  1  0  0  0  0
 11 12  1  0  0  0  0
 11 13  1  0  0  0  0
 11 14  1  0  0  0  0
  9 10  1  0  0  0  0
  9 11  1  0  0  0  0
  9 29  1  0  0  0  0
  7  8  1  0  0  0  0
  7  9  1  0  0  0  0
 33 34  1  0  0  0  0
 33 35  1  0  0  0  0
 33 36  1  0  0  0  0
 31 32  1  0  0  0  0
 31 33  1  0  0  0  0
M  CHG  1  20   1
M  END
$$$$
default_name
  -OEChem-02102213163D

 36 35  0     1  0  0  0  0  0999 V2000
   -4.2256   -3.6731    1.8584 H   0  0  0  0  0  0  0  0  0  0  0  0
   -4.2396   -2.6781    1.4144 C   0  0  0  0  0  0  0  0  0  0  0  0
   -4.9506   -2.0521    1.9514 H   0  0  0  0  0  0  0  0  0  0  0  0
   -4.5266   -2.7521    0.3674 H   0  0  0  0  0  0  0  0  0  0  0  0
   -2.8576   -2.0761    1.5184 C   0  0  0  0  0  0  0  0  0  0  0  0
   -1.9456   -2.7051    2.0404 O   0  0  0  0  0  0  0  0  0  0  0  0
   -2.6926   -0.8481    1.0174 N   0  0  0  0  0  0  0  0  0  0  0  0
   -3.4926   -0.3971    0.5954 H   0  0  0  0  0  0  0  0  0  0  0  0
   -1.4216   -0.1071    1.0434 C   0  0  1  0  0  0  0  0  0  0  0  0
   -0.6709   -0.6930    0.5106 H   0  0  0  0  0  0  0  0  0  0  0  0
   -1.6221    1.2315    0.3051 C   0  0  0  0  0  0  0  0  0  0  0  0
   -2.5530    1.1799   -0.2631 H   0  0  0  0  0  0  0  0  0  0  0  0
   -1.7175    2.0337    1.0402 H   0  0  0  0  0  0  0  0  0  0  0  0
   -0.4820    1.5707   -0.6662 C   0  0  0  0  0  0  0  0  0  0  0  0
    0.3803    0.9353   -0.4593 H   0  0  0  0  0  0  0  0  0  0  0  0
   -0.8175    1.4007   -1.6897 H   0  0  0  0  0  0  0  0  0  0  0  0
   -0.0743    3.0410   -0.5003 C   0  0  0  0  0  0  0  0  0  0  0  0
   -0.9497    3.6683   -0.6831 H   0  0  0  0  0  0  0  0  0  0  0  0
    0.2612    3.1948    0.5280 H   0  0  0  0  0  0  0  0  0  0  0  0
    1.0064    3.4190   -1.4341 N   0  3  0  0  0  0  0  0  0  0  0  0
    1.3744    2.6882   -2.0188 H   0  0  0  0  0  0  0  0  0  0  0  0
    1.5334    4.6240   -1.5730 C   0  0  0  0  0  0  0  0  0  0  0  0
    1.1311    5.6422   -0.8654 N   0  0  0  0  0  0  0  0  0  0  0  0
    0.3959    5.5049   -0.1946 H   0  0  0  0  0  0  0  0  0  0  0  0
    1.5420    6.5501   -0.9830 H   0  0  0  0  0  0  0  0  0  0  0  0
    2.4874    4.8315   -2.4355 N   0  0  0  0  0  0  0  0  0  0  0  0
    2.8310    4.0771   -3.0045 H   0  0  0  0  0  0  0  0  0  0  0  0
    2.8844    5.7473   -2.5378 H   0  0  0  0  0  0  0  0  0  0  0  0
   -0.9523    0.1012    2.4848 C   0  0  0  0  0  0  0  0  0  0  0  0
    0.2133   -0.1319    2.7814 O   0  0  0  0  0  0  0  0  0  0  0  0
   -1.8684    0.5006    3.3725 N   0  0  0  0  0  0  0  0  0  0  0  0
   -2.7946    0.7048    3.0343 H   0  0  0  0  0  0  0  0  0  0  0  0
   -1.5848    0.7472    4.7873 C   0  0  0  0  0  0  0  0  0  0  0  0
   -0.8819    1.5774    4.8838 H   0  0  0  0  0  0  0  0  0  0  0  0
   -2.5030    0.9948    5.3214 H   0  0  0  0  0  0  0  0  0  0  0  0
   -1.1344   -0.1399    5.2381 H   0  0  0  0  0  0  0  0  0  0  0  0
  5  6  2  0  0  0  0
  5  7  1  0  0  0  0
  2  3  1  0  0  0  0
  2  4  1  0  0  0  0
  2  5  1  0  0  0  0
  1  2  1  0  0  0  0
 29 30  2  0  0  0  0
 29 31  1  0  0  0  0
 26 27  1  0  0  0  0
 26 28  1  0  0  0  0
 23 24  1  0  0  0  0
 23 25  1  0  0  0  0
 22 23  1  0  0  0  0
 22 26  1  0  0  0  0
 20 21  1  0  0  0  0
 20 22  2  0  0  0  0
 17 18  1  0  0  0  0
 17 19  1  0  0  0  0
 17 20  1  0  0  0  0
 14 15  1  0  0  0  0
 14 16  1  0  0  0  0
 14 17  1  0  0  0  0
 11 12  1  0  0  0  0
 11 13  1  0  0  0  0
 11 14  1  0  0  0  0
  9 10  1  0  0  0  0
  9 11  1  0  0  0  0
  9 29  1  0  0  0  0
  7  8  1  0  0  0  0
  7  9  1  0  0  0  0
 33 34  1  0  0  0  0
 33 35  1  0  0  0  0
 33 36  1  0  0  0  0
 31 32  1  0  0  0  0
 31 33  1  0  0  0  0
M  CHG  1  20   1
M  END
$$$$
default_name
  -OEChem-02102213163D

 36 35  0     1  0  0  0  0  0999 V2000
   -4.2256   -3.6731    1.8584 H   0  0  0  0  0  0  0  0  0  0  0  0
   -4.2396   -2.6781    1.4144 C   0  0  0  0  0  0  0  0  0  0  0  0
   -4.9506   -2.0521    1.9514 H   0  0  0  0  0  0  0  0  0  0  0  0
   -4.5266   -2.7521    0.3674 H   0  0  0  0  0  0  0  0  0  0  0  0
   -2.8576   -2.0761    1.5184 C   0  0  0  0  0  0  0  0  0  0  0  0
   -1.9456   -2.7051    2.0404 O   0  0  0  0  0  0  0  0  0  0  0  0
   -2.6926   -0.8481    1.0174 N   0  0  0  0  0  0  0  0  0  0  0  0
   -3.4926   -0.3971    0.5954 H   0  0  0  0  0  0  0  0  0  0  0  0
   -1.4216   -0.1071    1.0434 C   0  0  1  0  0  0  0  0  0  0  0  0
   -0.6709   -0.6930    0.5106 H   0  0  0  0  0  0  0  0  0  0  0  0
   -1.6221    1.2315    0.3051 C   0  0  0  0  0  0  0  0  0  0  0  0
   -2.5530    1.1799   -0.2631 H   0  0  0  0  0  0  0  0  0  0  0  0
   -1.7175    2.0337    1.0402 H   0  0  0  0  0  0  0  0  0  0  0  0
   -0.4820    1.5707   -0.6662 C   0  0  0  0  0  0  0  0  0  0  0  0
    0.2680    0.7788   -0.6457 H   0  0  0  0  0  0  0  0  0  0  0  0
   -0.8833    1.6608   -1.6761 H   0  0  0  0  0  0  0  0  0  0  0  0
    0.1752    2.8962   -0.2581 C   0  0  0  0  0  0  0  0  0  0  0  0
   -0.5882    3.6776   -0.2555 H   0  0  0  0  0  0  0  0  0  0  0  0
    0.5740    2.7895    0.7535 H   0  0  0  0  0  0  0  0  0  0  0  0
    1.2650    3.2749   -1.1810 N   0  3  0  0  0  0  0  0  0  0  0  0
    1.4795    2.6248   -1.9176 H   0  0  0  0  0  0  0  0  0  0  0  0
    1.9821    4.3849   -1.1298 C   0  0  0  0  0  0  0  0  0  0  0  0
    1.7875    5.2944   -0.2164 N   0  0  0  0  0  0  0  0  0  0  0  0
    1.0679    5.1457    0.4688 H   0  0  0  0  0  0  0  0  0  0  0  0
    2.3410    6.1310   -0.1915 H   0  0  0  0  0  0  0  0  0  0  0  0
    2.9212    4.6047   -2.0056 N   0  0  0  0  0  0  0  0  0  0  0  0
    3.1084    3.9324   -2.7294 H   0  0  0  0  0  0  0  0  0  0  0  0
    3.4629    5.4481   -1.9632 H   0  0  0  0  0  0  0  0  0  0  0  0
   -0.9523    0.1012    2.4848 C   0  0  0  0  0  0  0  0  0  0  0  0
    0.2133   -0.1319    2.7814 O   0  0  0  0  0  0  0  0  0  0  0  0
   -1.8684    0.5006    3.3725 N   0  0  0  0  0  0  0  0  0  0  0  0
   -2.7946    0.7048    3.0343 H   0  0  0  0  0  0  0  0  0  0  0  0
   -1.5848    0.7472    4.7873 C   0  0  0  0  0  0  0  0  0  0  0  0
   -0.8819    1.5774    4.8838 H   0  0  0  0  0  0  0  0  0  0  0  0
   -2.5030    0.9948    5.3214 H   0  0  0  0  0  0  0  0  0  0  0  0
   -1.1344   -0.1399    5.2381 H   0  0  0  0  0  0  0  0  0  0  0  0
  5  6  2  0  0  0  0
  5  7  1  0  0  0  0
  2  3  1  0  0  0  0
  2  4  1  0  0  0  0
  2  5  1  0  0  0  0
  1  2  1  0  0  0  0
 29 30  2  0  0  0  0
 29 31  1  0  0  0  0
 26 27  1  0  0  0  0
 26 28  1  0  0  0  0
 23 24  1  0  0  0  0
 23 25  1  0  0  0  0
 22 23  1  0  0  0  0
 22 26  1  0  0  0  0
 20 21  1  0  0  0  0
 20 22  2  0  0  0  0
 17 18  1  0  0  0  0
 17 19  1  0  0  0  0
 17 20  1  0  0  0  0
 14 15  1  0  0  0  0
 14 16  1  0  0  0  0
 14 17  1  0  0  0  0
 11 12  1  0  0  0  0
 11 13  1  0  0  0  0
 11 14  1  0  0  0  0
  9 10  1  0  0  0  0
  9 11  1  0  0  0  0
  9 29  1  0  0  0  0
  7  8  1  0  0  0  0
  7  9  1  0  0  0  0
 33 34  1  0  0  0  0
 33 35  1  0  0  0  0
 33 36  1  0  0  0  0
 31 32  1  0  0  0  0
 31 33  1  0  0  0  0
M  CHG  1  20   1
M  END
$$$$
default_name
  -OEChem-02102213163D

 36 35  0     1  0  0  0  0  0999 V2000
   -4.2256   -3.6731    1.8584 H   0  0  0  0  0  0  0  0  0  0  0  0
   -4.2396   -2.6781    1.4144 C   0  0  0  0  0  0  0  0  0  0  0  0
   -4.9506   -2.0521    1.9514 H   0  0  0  0  0  0  0  0  0  0  0  0
   -4.5266   -2.7521    0.3674 H   0  0  0  0  0  0  0  0  0  0  0  0
   -2.8576   -2.0761    1.5184 C   0  0  0  0  0  0  0  0  0  0  0  0
   -1.9456   -2.7051    2.0404 O   0  0  0  0  0  0  0  0  0  0  0  0
   -2.6926   -0.8481    1.0174 N   0  0  0  0  0  0  0  0  0  0  0  0
   -3.4926   -0.3971    0.5954 H   0  0  0  0  0  0  0  0  0  0  0  0
   -1.4216   -0.1071    1.0434 C   0  0  1  0  0  0  0  0  0  0  0  0
   -0.6709   -0.6930    0.5106 H   0  0  0  0  0  0  0  0  0  0  0  0
   -1.6221    1.2315    0.3051 C   0  0  0  0  0  0  0  0  0  0  0  0
   -2.5530    1.1799   -0.2631 H   0  0  0  0  0  0  0  0  0  0  0  0
   -1.7175    2.0337    1.0402 H   0  0  0  0  0  0  0  0  0  0  0  0
   -0.4820    1.5707   -0.6662 C   0  0  0  0  0  0  0  0  0  0  0  0
    0.1233    0.6818   -0.8494 H   0  0  0  0  0  0  0  0  0  0  0  0
   -0.9035    1.9201   -1.6092 H   0  0  0  0  0  0  0  0  0  0  0  0
    0.4064    2.6689   -0.0661 C   0  0  0  0  0  0  0  0  0  0  0  0
   -0.2129    3.5452    0.1387 H   0  0  0  0  0  0  0  0  0  0  0  0
    0.8226    2.3035    0.8756 H   0  0  0  0  0  0  0  0  0  0  0  0
    1.5056    3.0448   -0.9789 N   0  3  0  0  0  0  0  0  0  0  0  0
    1.5764    2.5269   -1.8380 H   0  0  0  0  0  0  0  0  0  0  0  0
    2.4018    3.9954   -0.7732 C   0  0  0  0  0  0  0  0  0  0  0  0
    2.4017    4.7263    0.3061 N   0  0  0  0  0  0  0  0  0  0  0  0
    1.6962    4.5613    1.0021 H   0  0  0  0  0  0  0  0  0  0  0  0
    3.0894    5.4434    0.4468 H   0  0  0  0  0  0  0  0  0  0  0  0
    3.3277    4.2320   -1.6587 N   0  0  0  0  0  0  0  0  0  0  0  0
    3.3684    3.6944   -2.5074 H   0  0  0  0  0  0  0  0  0  0  0  0
    4.0056    4.9541   -1.4987 H   0  0  0  0  0  0  0  0  0  0  0  0
   -0.9523    0.1012    2.4848 C   0  0  0  0  0  0  0  0  0  0  0  0
    0.2133   -0.1319    2.7814 O   0  0  0  0  0  0  0  0  0  0  0  0
   -1.8684    0.5006    3.3725 N   0  0  0  0  0  0  0  0  0  0  0  0
   -2.7946    0.7048    3.0343 H   0  0  0  0  0  0  0  0  0  0  0  0
   -1.5848    0.7472    4.7873 C   0  0  0  0  0  0  0  0  0  0  0  0
   -0.8819    1.5774    4.8838 H   0  0  0  0  0  0  0  0  0  0  0  0
   -2.5030    0.9948    5.3214 H   0  0  0  0  0  0  0  0  0  0  0  0
   -1.1344   -0.1399    5.2381 H   0  0  0  0  0  0  0  0  0  0  0  0
  5  6  2  0  0  0  0
  5  7  1  0  0  0  0
  2  3  1  0  0  0  0
  2  4  1  0  0  0  0
  2  5  1  0  0  0  0
  1  2  1  0  0  0  0
 29 30  2  0  0  0  0
 29 31  1  0  0  0  0
 26 27  1  0  0  0  0
 26 28  1  0  0  0  0
 23 24  1  0  0  0  0
 23 25  1  0  0  0  0
 22 23  1  0  0  0  0
 22 26  1  0  0  0  0
 20 21  1  0  0  0  0
 20 22  2  0  0  0  0
 17 18  1  0  0  0  0
 17 19  1  0  0  0  0
 17 20  1  0  0  0  0
 14 15  1  0  0  0  0
 14 16  1  0  0  0  0
 14 17  1  0  0  0  0
 11 12  1  0  0  0  0
 11 13  1  0  0  0  0
 11 14  1  0  0  0  0
  9 10  1  0  0  0  0
  9 11  1  0  0  0  0
  9 29  1  0  0  0  0
  7  8  1  0  0  0  0
  7  9  1  0  0  0  0
 33 34  1  0  0  0  0
 33 35  1  0  0  0  0
 33 36  1  0  0  0  0
 31 32  1  0  0  0  0
 31 33  1  0  0  0  0
M  CHG  1  20   1
M  END
$$$$
default_name
  -OEChem-02102213163D

 36 35  0     1  0  0  0  0  0999 V2000
   -4.2256   -3.6731    1.8584 H   0  0  0  0  0  0  0  0  0  0  0  0
   -4.2396   -2.6781    1.4144 C   0  0  0  0  0  0  0  0  0  0  0  0
   -4.9506   -2.0521    1.9514 H   0  0  0  0  0  0  0  0  0  0  0  0
   -4.5266   -2.7521    0.3674 H   0  0  0  0  0  0  0  0  0  0  0  0
   -2.8576   -2.0761    1.5184 C   0  0  0  0  0  0  0  0  0  0  0  0
   -1.9456   -2.7051    2.0404 O   0  0  0  0  0  0  0  0  0  0  0  0
   -2.6926   -0.8481    1.0174 N   0  0  0  0  0  0  0  0  0  0  0  0
   -3.4926   -0.3971    0.5954 H   0  0  0  0  0  0  0  0  0  0  0  0
   -1.4216   -0.1071    1.0434 C   0  0  1  0  0  0  0  0  0  0  0  0
   -0.6709   -0.6930    0.5106 H   0  0  0  0  0  0  0  0  0  0  0  0
   -1.6221    1.2315    0.3051 C   0  0  0  0  0  0  0  0  0  0  0  0
   -2.5530    1.1799   -0.2631 H   0  0  0  0  0  0  0  0  0  0  0  0
   -1.7175    2.0337    1.0402 H   0  0  0  0  0  0  0  0  0  0  0  0
   -0.4820    1.5707   -0.6662 C   0  0  0  0  0  0  0  0  0  0  0  0
   -0.0439    0.6510   -1.0565 H   0  0  0  0  0  0  0  0  0  0  0  0
   -0.8767    2.1612   -1.4936 H   0  0  0  0  0  0  0  0  0  0  0  0
    0.6034    2.3747    0.0624 C   0  0  0  0  0  0  0  0  0  0  0  0
    0.1504    3.2802    0.4726 H   0  0  0  0  0  0  0  0  0  0  0  0
    0.9902    1.7699    0.8860 H   0  0  0  0  0  0  0  0  0  0  0  0
    1.7119    2.7443   -0.8417 N   0  3  0  0  0  0  0  0  0  0  0  0
    1.6586    2.4011   -1.7855 H   0  0  0  0  0  0  0  0  0  0  0  0
    2.7638    3.4819   -0.5277 C   0  0  0  0  0  0  0  0  0  0  0  0
    2.9319    3.9766    0.6666 N   0  0  0  0  0  0  0  0  0  0  0  0
    2.2378    3.7915    1.3690 H   0  0  0  0  0  0  0  0  0  0  0  0
    3.7362    4.5340    0.8884 H   0  0  0  0  0  0  0  0  0  0  0  0
    3.6791    3.7388   -1.4184 N   0  0  0  0  0  0  0  0  0  0  0  0
    3.5932    3.3793   -2.3535 H   0  0  0  0  0  0  0  0  0  0  0  0
    4.4755    4.2988   -1.1760 H   0  0  0  0  0  0  0  0  0  0  0  0
   -0.9523    0.1012    2.4848 C   0  0  0  0  0  0  0  0  0  0  0  0
    0.2133   -0.1319    2.7814 O   0  0  0  0  0  0  0  0  0  0  0  0
   -1.8684    0.5006    3.3725 N   0  0  0  0  0  0  0  0  0  0  0  0
   -2.7946    0.7048    3.0343 H   0  0  0  0  0  0  0  0  0  0  0  0
   -1.5848    0.7472    4.7873 C   0  0  0  0  0  0  0  0  0  0  0  0
   -0.8819    1.5774    4.8838 H   0  0  0  0  0  0  0  0  0  0  0  0
   -2.5030    0.9948    5.3214 H   0  0  0  0  0  0  0  0  0  0  0  0
   -1.1344   -0.1399    5.2381 H   0  0  0  0  0  0  0  0  0  0  0  0
  5  6  2  0  0  0  0
  5  7  1  0  0  0  0
  2  3  1  0  0  0  0
  2  4  1  0  0  0  0
  2  5  1  0  0  0  0
  1  2  1  0  0  0  0
 29 30  2  0  0  0  0
 29 31  1  0  0  0  0
 26 27  1  0  0  0  0
 26 28  1  0  0  0  0
 23 24  1  0  0  0  0
 23 25  1  0  0  0  0
 22 23  1  0  0  0  0
 22 26  1  0  0  0  0
 20 21  1  0  0  0  0
 20 22  2  0  0  0  0
 17 18  1  0  0  0  0
 17 19  1  0  0  0  0
 17 20  1  0  0  0  0
 14 15  1  0  0  0  0
 14 16  1  0  0  0  0
 14 17  1  0  0  0  0
 11 12  1  0  0  0  0
 11 13  1  0  0  0  0
 11 14  1  0  0  0  0
  9 10  1  0  0  0  0
  9 11  1  0  0  0  0
  9 29  1  0  0  0  0
  7  8  1  0  0  0  0
  7  9  1  0  0  0  0
 33 34  1  0  0  0  0
 33 35  1  0  0  0  0
 33 36  1  0  0  0  0
 31 32  1  0  0  0  0
 31 33  1  0  0  0  0
M  CHG  1  20   1
M  END
$$$$
default_name
  -OEChem-02102213163D

 36 35  0     1  0  0  0  0  0999 V2000
   -4.2256   -3.6731    1.8584 H   0  0  0  0  0  0  0  0  0  0  0  0
   -4.2396   -2.6781    1.4144 C   0  0  0  0  0  0  0  0  0  0  0  0
   -4.9506   -2.0521    1.9514 H   0  0  0  0  0  0  0  0  0  0  0  0
   -4.5266   -2.7521    0.3674 H   0  0  0  0  0  0  0  0  0  0  0  0
   -2.8576   -2.0761    1.5184 C   0  0  0  0  0  0  0  0  0  0  0  0
   -1.9456   -2.7051    2.0404 O   0  0  0  0  0  0  0  0  0  0  0  0
   -2.6926   -0.8481    1.0174 N   0  0  0  0  0  0  0  0  0  0  0  0
   -3.4926   -0.3971    0.5954 H   0  0  0  0  0  0  0  0  0  0  0  0
   -1.4216   -0.1071    1.0434 C   0  0  1  0  0  0  0  0  0  0  0  0
   -0.6709   -0.6930    0.5106 H   0  0  0  0  0  0  0  0  0  0  0  0
   -1.6221    1.2315    0.3051 C   0  0  0  0  0  0  0  0  0  0  0  0
   -2.5530    1.1799   -0.2631 H   0  0  0  0  0  0  0  0  0  0  0  0
   -1.7175    2.0337    1.0402 H   0  0  0  0  0  0  0  0  0  0  0  0
   -0.4820    1.5707   -0.6662 C   0  0  0  0  0  0  0  0  0  0  0  0
   -0.2224    0.6884   -1.2529 H   0  0  0  0  0  0  0  0  0  0  0  0
   -0.8048    2.3674   -1.3372 H   0  0  0  0  0  0  0  0  0  0  0  0
    0.7529    2.0335    0.1188 C   0  0  0  0  0  0  0  0  0  0  0  0
    0.4770    2.9006    0.7234 H   0  0  0  0  0  0  0  0  0  0  0  0
    1.0653    1.2250    0.7839 H   0  0  0  0  0  0  0  0  0  0  0  0
    1.8698    2.3940   -0.7787 N   0  3  0  0  0  0  0  0  0  0  0  0
    1.7204    2.2561   -1.7636 H   0  0  0  0  0  0  0  0  0  0  0  0
    3.0434    2.8794   -0.4099 C   0  0  0  0  0  0  0  0  0  0  0  0
    3.3418    3.0964    0.8404 N   0  0  0  0  0  0  0  0  0  0  0  0
    2.6560    2.8887    1.5446 H   0  0  0  0  0  0  0  0  0  0  0  0
    4.2374    3.4649    1.1033 H   0  0  0  0  0  0  0  0  0  0  0  0
    3.9516    3.1587   -1.3012 N   0  0  0  0  0  0  0  0  0  0  0  0
    3.7676    3.0085   -2.2783 H   0  0  0  0  0  0  0  0  0  0  0  0
    4.8405    3.5268   -1.0171 H   0  0  0  0  0  0  0  0  0  0  0  0
   -0.9523    0.1012    2.4848 C   0  0  0  0  0  0  0  0  0  0  0  0
    0.2133   -0.1319    2.7814 O   0  0  0  0  0  0  0  0  0  0  0  0
   -1.8684    0.5006    3.3725 N   0  0  0  0  0  0  0  0  0  0  0  0
   -2.7946    0.7048    3.0343 H   0  0  0  0  0  0  0  0  0  0  0  0
   -1.5848    0.7472    4.7873 C   0  0  0  0  0  0  0  0  0  0  0  0
   -0.8819    1.5774    4.8838 H   0  0  0  0  0  0  0  0  0  0  0  0
   -2.5030    0.9948    5.3214 H   0  0  0  0  0  0  0  0  0  0  0  0
   -1.1344   -0.1399    5.2381 H   0  0  0  0  0  0  0  0  0  0  0  0
  5  6  2  0  0  0  0
  5  7  1  0  0  0  0
  2  3  1  0  0  0  0
  2  4  1  0  0  0  0
  2  5  1  0  0  0  0
  1  2  1  0  0  0  0
 29 30  2  0  0  0  0
 29 31  1  0  0  0  0
 26 27  1  0  0  0  0
 26 28  1  0  0  0  0
 23 24  1  0  0  0  0
 23 25  1  0  0  0  0
 22 23  1  0  0  0  0
 22 26  1  0  0  0  0
 20 21  1  0  0  0  0
 20 22  2  0  0  0  0
 17 18  1  0  0  0  0
 17 19  1  0  0  0  0
 17 20  1  0  0  0  0
 14 15  1  0  0  0  0
 14 16  1  0  0  0  0
 14 17  1  0  0  0  0
 11 12  1  0  0  0  0
 11 13  1  0  0  0  0
 11 14  1  0  0  0  0
  9 10  1  0  0  0  0
  9 11  1  0  0  0  0
  9 29  1  0  0  0  0
  7  8  1  0  0  0  0
  7  9  1  0  0  0  0
 33 34  1  0  0  0  0
 33 35  1  0  0  0  0
 33 36  1  0  0  0  0
 31 32  1  0  0  0  0
 31 33  1  0  0  0  0
M  CHG  1  20   1
M  END
$$$$
default_name
  -OEChem-02102213163D

 36 35  0     1  0  0  0  0  0999 V2000
   -4.2256   -3.6731    1.8584 H   0  0  0  0  0  0  0  0  0  0  0  0
   -4.2396   -2.6781    1.4144 C   0  0  0  0  0  0  0  0  0  0  0  0
   -4.9506   -2.0521    1.9514 H   0  0  0  0  0  0  0  0  0  0  0  0
   -4.5266   -2.7521    0.3674 H   0  0  0  0  0  0  0  0  0  0  0  0
   -2.8576   -2.0761    1.5184 C   0  0  0  0  0  0  0  0  0  0  0  0
   -1.9456   -2.7051    2.0404 O   0  0  0  0  0  0  0  0  0  0  0  0
   -2.6926   -0.8481    1.0174 N   0  0  0  0  0  0  0  0  0  0  0  0
   -3.4926   -0.3971    0.5954 H   0  0  0  0  0  0  0  0  0  0  0  0
   -1.4216   -0.1071    1.0434 C   0  0  1  0  0  0  0  0  0  0  0  0
   -0.6709   -0.6930    0.5106 H   0  0  0  0  0  0  0  0  0  0  0  0
   -1.6221    1.2315    0.3051 C   0  0  0  0  0  0  0  0  0  0  0  0
   -2.5530    1.1799   -0.2631 H   0  0  0  0  0  0  0  0  0  0  0  0
   -1.7175    2.0337    1.0402 H   0  0  0  0  0  0  0  0  0  0  0  0
   -0.4820    1.5707   -0.6662 C   0  0  0  0  0  0  0  0  0  0  0  0
   -0.3999    0.7914   -1.4252 H   0  0  0  0  0  0  0  0  0  0  0  0
   -0.6926    2.5247   -1.1506 H   0  0  0  0  0  0  0  0  0  0  0  0
    0.8447    1.6687    0.0991 C   0  0  0  0  0  0  0  0  0  0  0  0
    0.7447    2.4322    0.8740 H   0  0  0  0  0  0  0  0  0  0  0  0
    1.0428    0.7060    0.5762 H   0  0  0  0  0  0  0  0  0  0  0  0
    1.9686    2.0176   -0.7942 N   0  3  0  0  0  0  0  0  0  0  0  0
    1.7575    2.1018   -1.7738 H   0  0  0  0  0  0  0  0  0  0  0  0
    3.2216    2.2291   -0.4278 C   0  0  0  0  0  0  0  0  0  0  0  0
    3.6037    2.1456    0.8157 N   0  0  0  0  0  0  0  0  0  0  0  0
    2.9221    1.9145    1.5167 H   0  0  0  0  0  0  0  0  0  0  0  0
    4.5587    2.3088    1.0768 H   0  0  0  0  0  0  0  0  0  0  0  0
    4.1264    2.5312   -1.3151 N   0  0  0  0  0  0  0  0  0  0  0  0
    3.8797    2.6074   -2.2868 H   0  0  0  0  0  0  0  0  0  0  0  0
    5.0759    2.6909   -1.0328 H   0  0  0  0  0  0  0  0  0  0  0  0
   -0.9523    0.1012    2.4848 C   0  0  0  0  0  0  0  0  0  0  0  0
    0.2133   -0.1319    2.7814 O   0  0  0  0  0  0  0  0  0  0  0  0
   -1.8684    0.5006    3.3725 N   0  0  0  0  0  0  0  0  0  0  0  0
   -2.7946    0.7048    3.0343 H   0  0  0  0  0  0  0  0  0  0  0  0
   -1.5848    0.7472    4.7873 C   0  0  0  0  0  0  0  0  0  0  0  0
   -0.8819    1.5774    4.8838 H   0  0  0  0  0  0  0  0  0  0  0  0
   -2.5030    0.9948    5.3214 H   0  0  0  0  0  0  0  0  0  0  0  0
   -1.1344   -0.1399    5.2381 H   0  0  0  0  0  0  0  0  0  0  0  0
  5  6  2  0  0  0  0
  5  7  1  0  0  0  0
  2  3  1  0  0  0  0
  2  4  1  0  0  0  0
  2  5  1  0  0  0  0
  1  2  1  0  0  0  0
 29 30  2  0  0  0  0
 29 31  1  0  0  0  0
 26 27  1  0  0  0  0
 26 28  1  0  0  0  0
 23 24  1  0  0  0  0
 23 25  1  0  0  0  0
 22 23  1  0  0  0  0
 22 26  1  0  0  0  0
 20 21  1  0  0  0  0
 20 22  2  0  0  0  0
 17 18  1  0  0  0  0
 17 19  1  0  0  0  0
 17 20  1  0  0  0  0
 14 15  1  0  0  0  0
 14 16  1  0  0  0  0
 14 17  1  0  0  0  0
 11 12  1  0  0  0  0
 11 13  1  0  0  0  0
 11 14  1  0  0  0  0
  9 10  1  0  0  0  0
  9 11  1  0  0  0  0
  9 29  1  0  0  0  0
  7  8  1  0  0  0  0
  7  9  1  0  0  0  0
 33 34  1  0  0  0  0
 33 35  1  0  0  0  0
 33 36  1  0  0  0  0
 31 32  1  0  0  0  0
 31 33  1  0  0  0  0
M  CHG  1  20   1
M  END
$$$$
default_name
  -OEChem-02102213163D

 36 35  0     1  0  0  0  0  0999 V2000
   -4.2256   -3.6731    1.8584 H   0  0  0  0  0  0  0  0  0  0  0  0
   -4.2396   -2.6781    1.4144 C   0  0  0  0  0  0  0  0  0  0  0  0
   -4.9506   -2.0521    1.9514 H   0  0  0  0  0  0  0  0  0  0  0  0
   -4.5266   -2.7521    0.3674 H   0  0  0  0  0  0  0  0  0  0  0  0
   -2.8576   -2.0761    1.5184 C   0  0  0  0  0  0  0  0  0  0  0  0
   -1.9456   -2.7051    2.0404 O   0  0  0  0  0  0  0  0  0  0  0  0
   -2.6926   -0.8481    1.0174 N   0  0  0  0  0  0  0  0  0  0  0  0
   -3.4926   -0.3971    0.5954 H   0  0  0  0  0  0  0  0  0  0  0  0
   -1.4216   -0.1071    1.0434 C   0  0  1  0  0  0  0  0  0  0  0  0
   -0.6709   -0.6930    0.5106 H   0  0  0  0  0  0  0  0  0  0  0  0
   -1.6221    1.2315    0.3051 C   0  0  0  0  0  0  0  0  0  0  0  0
   -2.5530    1.1799   -0.2631 H   0  0  0  0  0  0  0  0  0  0  0  0
   -1.7175    2.0337    1.0402 H   0  0  0  0  0  0  0  0  0  0  0  0
   -0.4820    1.5707   -0.6662 C   0  0  0  0  0  0  0  0  0  0  0  0
   -0.5643    0.9532   -1.5617 H   0  0  0  0  0  0  0  0  0  0  0  0
   -0.5478    2.6224   -0.9465 H   0  0  0  0  0  0  0  0  0  0  0  0
    0.8725    1.3051    0.0048 C   0  0  0  0  0  0  0  0  0  0  0  0
    0.9352    1.9071    0.9142 H   0  0  0  0  0  0  0  0  0  0  0  0
    0.9242    0.2483    0.2773 H   0  0  0  0  0  0  0  0  0  0  0  0
    2.0015    1.6408   -0.8871 N   0  3  0  0  0  0  0  0  0  0  0  0
    1.7676    1.9485   -1.8155 H   0  0  0  0  0  0  0  0  0  0  0  0
    3.2862    1.5752   -0.5803 C   0  0  0  0  0  0  0  0  0  0  0  0
    3.6995    1.1892    0.5942 N   0  0  0  0  0  0  0  0  0  0  0  0
    3.0181    0.9353    1.2875 H   0  0  0  0  0  0  0  0  0  0  0  0
    4.6783    1.1447    0.8107 H   0  0  0  0  0  0  0  0  0  0  0  0
    4.1919    1.8991   -1.4590 N   0  0  0  0  0  0  0  0  0  0  0  0
    3.9218    2.2032   -2.3785 H   0  0  0  0  0  0  0  0  0  0  0  0
    5.1654    1.8480   -1.2220 H   0  0  0  0  0  0  0  0  0  0  0  0
   -0.9523    0.1012    2.4848 C   0  0  0  0  0  0  0  0  0  0  0  0
    0.2133   -0.1319    2.7814 O   0  0  0  0  0  0  0  0  0  0  0  0
   -1.8684    0.5006    3.3725 N   0  0  0  0  0  0  0  0  0  0  0  0
   -2.7946    0.7048    3.0343 H   0  0  0  0  0  0  0  0  0  0  0  0
   -1.5848    0.7472    4.7873 C   0  0  0  0  0  0  0  0  0  0  0  0
   -0.8819    1.5774    4.8838 H   0  0  0  0  0  0  0  0  0  0  0  0
   -2.5030    0.9948    5.3214 H   0  0  0  0  0  0  0  0  0  0  0  0
   -1.1344   -0.1399    5.2381 H   0  0  0  0  0  0  0  0  0  0  0  0
  5  6  2  0  0  0  0
  5  7  1  0  0  0  0
  2  3  1  0  0  0  0
  2  4  1  0  0  0  0
  2  5  1  0  0  0  0
  1  2  1  0  0  0  0
 29 30  2  0  0  0  0
 29 31  1  0  0  0  0
 26 27  1  0  0  0  0
 26 28  1  0  0  0  0
 23 24  1  0  0  0  0
 23 25  1  0  0  0  0
 22 23  1  0  0  0  0
 22 26  1  0  0  0  0
 20 21  1  0  0  0  0
 20 22  2  0  0  0  0
 17 18  1  0  0  0  0
 17 19  1  0  0  0  0
 17 20  1  0  0  0  0
 14 15  1  0  0  0  0
 14 16  1  0  0  0  0
 14 17  1  0  0  0  0
 11 12  1  0  0  0  0
 11 13  1  0  0  0  0
 11 14  1  0  0  0  0
  9 10  1  0  0  0  0
  9 11  1  0  0  0  0
  9 29  1  0  0  0  0
  7  8  1  0  0  0  0
  7  9  1  0  0  0  0
 33 34  1  0  0  0  0
 33 35  1  0  0  0  0
 33 36  1  0  0  0  0
 31 32  1  0  0  0  0
 31 33  1  0  0  0  0
M  CHG  1  20   1
M  END
$$$$
default_name
  -OEChem-02102213163D

 36 35  0     1  0  0  0  0  0999 V2000
   -4.2256   -3.6731    1.8584 H   0  0  0  0  0  0  0  0  0  0  0  0
   -4.2396   -2.6781    1.4144 C   0  0  0  0  0  0  0  0  0  0  0  0
   -4.9506   -2.0521    1.9514 H   0  0  0  0  0  0  0  0  0  0  0  0
   -4.5266   -2.7521    0.3674 H   0  0  0  0  0  0  0  0  0  0  0  0
   -2.8576   -2.0761    1.5184 C   0  0  0  0  0  0  0  0  0  0  0  0
   -1.9456   -2.7051    2.0404 O   0  0  0  0  0  0  0  0  0  0  0  0
   -2.6926   -0.8481    1.0174 N   0  0  0  0  0  0  0  0  0  0  0  0
   -3.4926   -0.3971    0.5954 H   0  0  0  0  0  0  0  0  0  0  0  0
   -1.4216   -0.1071    1.0434 C   0  0  1  0  0  0  0  0  0  0  0  0
   -0.6709   -0.6930    0.5106 H   0  0  0  0  0  0  0  0  0  0  0  0
   -1.6221    1.2315    0.3051 C   0  0  0  0  0  0  0  0  0  0  0  0
   -2.5530    1.1799   -0.2631 H   0  0  0  0  0  0  0  0  0  0  0  0
   -1.7175    2.0337    1.0402 H   0  0  0  0  0  0  0  0  0  0  0  0
   -0.4820    1.5707   -0.6662 C   0  0  0  0  0  0  0  0  0  0  0  0
   -0.7045    1.1625   -1.6531 H   0  0  0  0  0  0  0  0  0  0  0  0
   -0.3803    2.6539   -0.7389 H   0  0  0  0  0  0  0  0  0  0  0  0
    0.8345    0.9674   -0.1578 C   0  0  0  0  0  0  0  0  0  0  0  0
    1.0355    1.3609    0.8412 H   0  0  0  0  0  0  0  0  0  0  0  0
    0.7177   -0.1170   -0.0927 H   0  0  0  0  0  0  0  0  0  0  0  0
    1.9663    1.2893   -1.0512 N   0  3  0  0  0  0  0  0  0  0  0  0
    1.7499    1.8069   -1.8858 H   0  0  0  0  0  0  0  0  0  0  0  0
    3.2329    0.9623   -0.8569 C   0  0  0  0  0  0  0  0  0  0  0  0
    3.6229    0.2922    0.1910 N   0  0  0  0  0  0  0  0  0  0  0  0
    2.9374    0.0177    0.8724 H   0  0  0  0  0  0  0  0  0  0  0  0
    4.5881    0.0517    0.3231 H   0  0  0  0  0  0  0  0  0  0  0  0
    4.1434    1.3056   -1.7232 N   0  0  0  0  0  0  0  0  0  0  0  0
    3.8910    1.8235   -2.5472 H   0  0  0  0  0  0  0  0  0  0  0  0
    5.1031    1.0555   -1.5719 H   0  0  0  0  0  0  0  0  0  0  0  0
   -0.9523    0.1012    2.4848 C   0  0  0  0  0  0  0  0  0  0  0  0
    0.2133   -0.1319    2.7814 O   0  0  0  0  0  0  0  0  0  0  0  0
   -1.8684    0.5006    3.3725 N   0  0  0  0  0  0  0  0  0  0  0  0
   -2.7946    0.7048    3.0343 H   0  0  0  0  0  0  0  0  0  0  0  0
   -1.5848    0.7472    4.7873 C   0  0  0  0  0  0  0  0  0  0  0  0
   -0.8819    1.5774    4.8838 H   0  0  0  0  0  0  0  0  0  0  0  0
   -2.5030    0.9948    5.3214 H   0  0  0  0  0  0  0  0  0  0  0  0
   -1.1344   -0.1399    5.2381 H   0  0  0  0  0  0  0  0  0  0  0  0
  5  6  2  0  0  0  0
  5  7  1  0  0  0  0
  2  3  1  0  0  0  0
  2  4  1  0  0  0  0
  2  5  1  0  0  0  0
  1  2  1  0  0  0  0
 29 30  2  0  0  0  0
 29 31  1  0  0  0  0
 26 27  1  0  0  0  0
 26 28  1  0  0  0  0
 23 24  1  0  0  0  0
 23 25  1  0  0  0  0
 22 23  1  0  0  0  0
 22 26  1  0  0  0  0
 20 21  1  0  0  0  0
 20 22  2  0  0  0  0
 17 18  1  0  0  0  0
 17 19  1  0  0  0  0
 17 20  1  0  0  0  0
 14 15  1  0  0  0  0
 14 16  1  0  0  0  0
 14 17  1  0  0  0  0
 11 12  1  0  0  0  0
 11 13  1  0  0  0  0
 11 14  1  0  0  0  0
  9 10  1  0  0  0  0
  9 11  1  0  0  0  0
  9 29  1  0  0  0  0
  7  8  1  0  0  0  0
  7  9  1  0  0  0  0
 33 34  1  0  0  0  0
 33 35  1  0  0  0  0
 33 36  1  0  0  0  0
 31 32  1  0  0  0  0
 31 33  1  0  0  0  0
M  CHG  1  20   1
M  END
$$$$
default_name
  -OEChem-02102213163D

 36 35  0     1  0  0  0  0  0999 V2000
   -4.2256   -3.6731    1.8584 H   0  0  0  0  0  0  0  0  0  0  0  0
   -4.2396   -2.6781    1.4144 C   0  0  0  0  0  0  0  0  0  0  0  0
   -4.9506   -2.0521    1.9514 H   0  0  0  0  0  0  0  0  0  0  0  0
   -4.5266   -2.7521    0.3674 H   0  0  0  0  0  0  0  0  0  0  0  0
   -2.8576   -2.0761    1.5184 C   0  0  0  0  0  0  0  0  0  0  0  0
   -1.9456   -2.7051    2.0404 O   0  0  0  0  0  0  0  0  0  0  0  0
   -2.6926   -0.8481    1.0174 N   0  0  0  0  0  0  0  0  0  0  0  0
   -3.4926   -0.3971    0.5954 H   0  0  0  0  0  0  0  0  0  0  0  0
   -1.4216   -0.1071    1.0434 C   0  0  1  0  0  0  0  0  0  0  0  0
   -0.6709   -0.6930    0.5106 H   0  0  0  0  0  0  0  0  0  0  0  0
   -1.6221    1.2315    0.3051 C   0  0  0  0  0  0  0  0  0  0  0  0
   -2.5530    1.1799   -0.2631 H   0  0  0  0  0  0  0  0  0  0  0  0
   -1.7175    2.0337    1.0402 H   0  0  0  0  0  0  0  0  0  0  0  0
   -0.4820    1.5707   -0.6662 C   0  0  0  0  0  0  0  0  0  0  0  0
   -0.8108    1.4052   -1.6931 H   0  0  0  0  0  0  0  0  0  0  0  0
   -0.2014    2.6171   -0.5418 H   0  0  0  0  0  0  0  0  0  0  0  0
    0.7331    0.6787   -0.3776 C   0  0  0  0  0  0  0  0  0  0  0  0
    1.0388    0.8309    0.6601 H   0  0  0  0  0  0  0  0  0  0  0  0
    0.4372   -0.3649   -0.5084 H   0  0  0  0  0  0  0  0  0  0  0  0
    1.8653    0.9871   -1.2752 N   0  3  0  0  0  0  0  0  0  0  0  0
    1.7055    1.6865   -1.9799 H   0  0  0  0  0  0  0  0  0  0  0  0
    3.0652    0.4322   -1.2388 C   0  0  0  0  0  0  0  0  0  0  0  0
    3.3789   -0.4842   -0.3664 N   0  0  0  0  0  0  0  0  0  0  0  0
    2.6856   -0.7756    0.2998 H   0  0  0  0  0  0  0  0  0  0  0  0
    4.2941   -0.8955   -0.3527 H   0  0  0  0  0  0  0  0  0  0  0  0
    3.9842    0.7909   -2.0897 N   0  0  0  0  0  0  0  0  0  0  0  0
    3.7895    1.4943   -2.7813 H   0  0  0  0  0  0  0  0  0  0  0  0
    4.8932    0.3674   -2.0586 H   0  0  0  0  0  0  0  0  0  0  0  0
   -0.9523    0.1012    2.4848 C   0  0  0  0  0  0  0  0  0  0  0  0
    0.2133   -0.1319    2.7814 O   0  0  0  0  0  0  0  0  0  0  0  0
   -1.8684    0.5006    3.3725 N   0  0  0  0  0  0  0  0  0  0  0  0
   -2.7946    0.7048    3.0343 H   0  0  0  0  0  0  0  0  0  0  0  0
   -1.5848    0.7472    4.7873 C   0  0  0  0  0  0  0  0  0  0  0  0
   -0.8819    1.5774    4.8838 H   0  0  0  0  0  0  0  0  0  0  0  0
   -2.5030    0.9948    5.3214 H   0  0  0  0  0  0  0  0  0  0  0  0
   -1.1344   -0.1399    5.2381 H   0  0  0  0  0  0  0  0  0  0  0  0
  5  6  2  0  0  0  0
  5  7  1  0  0  0  0
  2  3  1  0  0  0  0
  2  4  1  0  0  0  0
  2  5  1  0  0  0  0
  1  2  1  0  0  0  0
 29 30  2  0  0  0  0
 29 31  1  0  0  0  0
 26 27  1  0  0  0  0
 26 28  1  0  0  0  0
 23 24  1  0  0  0  0
 23 25  1  0  0  0  0
 22 23  1  0  0  0  0
 22 26  1  0  0  0  0
 20 21  1  0  0  0  0
 20 22  2  0  0  0  0
 17 18  1  0  0  0  0
 17 19  1  0  0  0  0
 17 20  1  0  0  0  0
 14 15  1  0  0  0  0
 14 16  1  0  0  0  0
 14 17  1  0  0  0  0
 11 12  1  0  0  0  0
 11 13  1  0  0  0  0
 11 14  1  0  0  0  0
  9 10  1  0  0  0  0
  9 11  1  0  0  0  0
  9 29  1  0  0  0  0
  7  8  1  0  0  0  0
  7  9  1  0  0  0  0
 33 34  1  0  0  0  0
 33 35  1  0  0  0  0
 33 36  1  0  0  0  0
 31 32  1  0  0  0  0
 31 33  1  0  0  0  0
M  CHG  1  20   1
M  END
$$$$
default_name
  -OEChem-02102213163D

 36 35  0     1  0  0  0  0  0999 V2000
   -4.2256   -3.6731    1.8584 H   0  0  0  0  0  0  0  0  0  0  0  0
   -4.2396   -2.6781    1.4144 C   0  0  0  0  0  0  0  0  0  0  0  0
   -4.9506   -2.0521    1.9514 H   0  0  0  0  0  0  0  0  0  0  0  0
   -4.5266   -2.7521    0.3674 H   0  0  0  0  0  0  0  0  0  0  0  0
   -2.8576   -2.0761    1.5184 C   0  0  0  0  0  0  0  0  0  0  0  0
   -1.9456   -2.7051    2.0404 O   0  0  0  0  0  0  0  0  0  0  0  0
   -2.6926   -0.8481    1.0174 N   0  0  0  0  0  0  0  0  0  0  0  0
   -3.4926   -0.3971    0.5954 H   0  0  0  0  0  0  0  0  0  0  0  0
   -1.4216   -0.1071    1.0434 C   0  0  1  0  0  0  0  0  0  0  0  0
   -0.6709   -0.6930    0.5106 H   0  0  0  0  0  0  0  0  0  0  0  0
   -1.6221    1.2315    0.3051 C   0  0  0  0  0  0  0  0  0  0  0  0
   -2.5530    1.1799   -0.2631 H   0  0  0  0  0  0  0  0  0  0  0  0
   -1.7175    2.0337    1.0402 H   0  0  0  0  0  0  0  0  0  0  0  0
   -0.4820    1.5707   -0.6662 C   0  0  0  0  0  0  0  0  0  0  0  0
   -0.8760    1.6648   -1.6791 H   0  0  0  0  0  0  0  0  0  0  0  0
   -0.0234    2.5143   -0.3688 H   0  0  0  0  0  0  0  0  0  0  0  0
    0.5754    0.4586   -0.6395 C   0  0  0  0  0  0  0  0  0  0  0  0
    0.9449    0.3533    0.3831 H   0  0  0  0  0  0  0  0  0  0  0  0
    0.1020   -0.4786   -0.9416 H   0  0  0  0  0  0  0  0  0  0  0  0
    1.7056    0.7548   -1.5438 N   0  3  0  0  0  0  0  0  0  0  0  0
    1.6376    1.5955   -2.0914 H   0  0  0  0  0  0  0  0  0  0  0  0
    2.7947    0.0209   -1.6999 C   0  0  0  0  0  0  0  0  0  0  0  0
    2.9843   -1.0871   -1.0401 N   0  0  0  0  0  0  0  0  0  0  0  0
    2.2797   -1.3906   -0.3914 H   0  0  0  0  0  0  0  0  0  0  0  0
    3.8164   -1.6325   -1.1707 H   0  0  0  0  0  0  0  0  0  0  0  0
    3.7253    0.3903   -2.5335 N   0  0  0  0  0  0  0  0  0  0  0  0
    3.6242    1.2378   -3.0649 H   0  0  0  0  0  0  0  0  0  0  0  0
    4.5500   -0.1694   -2.6488 H   0  0  0  0  0  0  0  0  0  0  0  0
   -0.9523    0.1012    2.4848 C   0  0  0  0  0  0  0  0  0  0  0  0
    0.2133   -0.1319    2.7814 O   0  0  0  0  0  0  0  0  0  0  0  0
   -1.8684    0.5006    3.3725 N   0  0  0  0  0  0  0  0  0  0  0  0
   -2.7946    0.7048    3.0343 H   0  0  0  0  0  0  0  0  0  0  0  0
   -1.5848    0.7472    4.7873 C   0  0  0  0  0  0  0  0  0  0  0  0
   -0.8819    1.5774    4.8838 H   0  0  0  0  0  0  0  0  0  0  0  0
   -2.5030    0.9948    5.3214 H   0  0  0  0  0  0  0  0  0  0  0  0
   -1.1344   -0.1399    5.2381 H   0  0  0  0  0  0  0  0  0  0  0  0
  5  6  2  0  0  0  0
  5  7  1  0  0  0  0
  2  3  1  0  0  0  0
  2  4  1  0  0  0  0
  2  5  1  0  0  0  0
  1  2  1  0  0  0  0
 29 30  2  0  0  0  0
 29 31  1  0  0  0  0
 26 27  1  0  0  0  0
 26 28  1  0  0  0  0
 23 24  1  0  0  0  0
 23 25  1  0  0  0  0
 22 23  1  0  0  0  0
 22 26  1  0  0  0  0
 20 21  1  0  0  0  0
 20 22  2  0  0  0  0
 17 18  1  0  0  0  0
 17 19  1  0  0  0  0
 17 20  1  0  0  0  0
 14 15  1  0  0  0  0
 14 16  1  0  0  0  0
 14 17  1  0  0  0  0
 11 12  1  0  0  0  0
 11 13  1  0  0  0  0
 11 14  1  0  0  0  0
  9 10  1  0  0  0  0
  9 11  1  0  0  0  0
  9 29  1  0  0  0  0
  7  8  1  0  0  0  0
  7  9  1  0  0  0  0
 33 34  1  0  0  0  0
 33 35  1  0  0  0  0
 33 36  1  0  0  0  0
 31 32  1  0  0  0  0
 31 33  1  0  0  0  0
M  CHG  1  20   1
M  END
$$$$
default_name
  -OEChem-02102213163D

 36 35  0     1  0  0  0  0  0999 V2000
   -4.2256   -3.6731    1.8584 H   0  0  0  0  0  0  0  0  0  0  0  0
   -4.2396   -2.6781    1.4144 C   0  0  0  0  0  0  0  0  0  0  0  0
   -4.9506   -2.0521    1.9514 H   0  0  0  0  0  0  0  0  0  0  0  0
   -4.5266   -2.7521    0.3674 H   0  0  0  0  0  0  0  0  0  0  0  0
   -2.8576   -2.0761    1.5184 C   0  0  0  0  0  0  0  0  0  0  0  0
   -1.9456   -2.7051    2.0404 O   0  0  0  0  0  0  0  0  0  0  0  0
   -2.6926   -0.8481    1.0174 N   0  0  0  0  0  0  0  0  0  0  0  0
   -3.4926   -0.3971    0.5954 H   0  0  0  0  0  0  0  0  0  0  0  0
   -1.4216   -0.1071    1.0434 C   0  0  1  0  0  0  0  0  0  0  0  0
   -0.6709   -0.6930    0.5106 H   0  0  0  0  0  0  0  0  0  0  0  0
   -1.6221    1.2315    0.3051 C   0  0  0  0  0  0  0  0  0  0  0  0
   -2.5530    1.1799   -0.2631 H   0  0  0  0  0  0  0  0  0  0  0  0
   -1.7175    2.0337    1.0402 H   0  0  0  0  0  0  0  0  0  0  0  0
   -0.4820    1.5707   -0.6662 C   0  0  0  0  0  0  0  0  0  0  0  0
   -0.8958    1.9235   -1.6119 H   0  0  0  0  0  0  0  0  0  0  0  0
    0.1415    2.3526   -0.2316 H   0  0  0  0  0  0  0  0  0  0  0  0
    0.3721    0.3222   -0.9258 C   0  0  0  0  0  0  0  0  0  0  0  0
    0.7602   -0.0395    0.0291 H   0  0  0  0  0  0  0  0  0  0  0  0
   -0.2652   -0.4503   -1.3627 H   0  0  0  0  0  0  0  0  0  0  0  0
    1.4979    0.6081   -1.8388 N   0  3  0  0  0  0  0  0  0  0  0  0
    1.5507    1.5402   -2.2127 H   0  0  0  0  0  0  0  0  0  0  0  0
    2.4396   -0.2434   -2.2089 C   0  0  0  0  0  0  0  0  0  0  0  0
    2.4660   -1.4755   -1.7841 N   0  0  0  0  0  0  0  0  0  0  0  0
    1.7474   -1.7854   -1.1540 H   0  0  0  0  0  0  0  0  0  0  0  0
    3.1877   -2.1090   -2.0751 H   0  0  0  0  0  0  0  0  0  0  0  0
    3.3843    0.1310   -3.0243 N   0  0  0  0  0  0  0  0  0  0  0  0
    3.4063    1.0717   -3.3787 H   0  0  0  0  0  0  0  0  0  0  0  0
    4.0968   -0.5182   -3.3025 H   0  0  0  0  0  0  0  0  0  0  0  0
   -0.9523    0.1012    2.4848 C   0  0  0  0  0  0  0  0  0  0  0  0
    0.2133   -0.1319    2.7814 O   0  0  0  0  0  0  0  0  0  0  0  0
   -1.8684    0.5006    3.3725 N   0  0  0  0  0  0  0  0  0  0  0  0
   -2.7946    0.7048    3.0343 H   0  0  0  0  0  0  0  0  0  0  0  0
   -1.5848    0.7472    4.7873 C   0  0  0  0  0  0  0  0  0  0  0  0
   -0.8819    1.5774    4.8838 H   0  0  0  0  0  0  0  0  0  0  0  0
   -2.5030    0.9948    5.3214 H   0  0  0  0  0  0  0  0  0  0  0  0
   -1.1344   -0.1399    5.2381 H   0  0  0  0  0  0  0  0  0  0  0  0
  5  6  2  0  0  0  0
  5  7  1  0  0  0  0
  2  3  1  0  0  0  0
  2  4  1  0  0  0  0
  2  5  1  0  0  0  0
  1  2  1  0  0  0  0
 29 30  2  0  0  0  0
 29 31  1  0  0  0  0
 26 27  1  0  0  0  0
 26 28  1  0  0  0  0
 23 24  1  0  0  0  0
 23 25  1  0  0  0  0
 22 23  1  0  0  0  0
 22 26  1  0  0  0  0
 20 21  1  0  0  0  0
 20 22  2  0  0  0  0
 17 18  1  0  0  0  0
 17 19  1  0  0  0  0
 17 20  1  0  0  0  0
 14 15  1  0  0  0  0
 14 16  1  0  0  0  0
 14 17  1  0  0  0  0
 11 12  1  0  0  0  0
 11 13  1  0  0  0  0
 11 14  1  0  0  0  0
  9 10  1  0  0  0  0
  9 11  1  0  0  0  0
  9 29  1  0  0  0  0
  7  8  1  0  0  0  0
  7  9  1  0  0  0  0
 33 34  1  0  0  0  0
 33 35  1  0  0  0  0
 33 36  1  0  0  0  0
 31 32  1  0  0  0  0
 31 33  1  0  0  0  0
M  CHG  1  20   1
M  END
$$$$
default_name
  -OEChem-02102213163D

 36 35  0     1  0  0  0  0  0999 V2000
   -4.2256   -3.6731    1.8584 H   0  0  0  0  0  0  0  0  0  0  0  0
   -4.2396   -2.6781    1.4144 C   0  0  0  0  0  0  0  0  0  0  0  0
   -4.9506   -2.0521    1.9514 H   0  0  0  0  0  0  0  0  0  0  0  0
   -4.5266   -2.7521    0.3674 H   0  0  0  0  0  0  0  0  0  0  0  0
   -2.8576   -2.0761    1.5184 C   0  0  0  0  0  0  0  0  0  0  0  0
   -1.9456   -2.7051    2.0404 O   0  0  0  0  0  0  0  0  0  0  0  0
   -2.6926   -0.8481    1.0174 N   0  0  0  0  0  0  0  0  0  0  0  0
   -3.4926   -0.3971    0.5954 H   0  0  0  0  0  0  0  0  0  0  0  0
   -1.4216   -0.1071    1.0434 C   0  0  1  0  0  0  0  0  0  0  0  0
   -0.6709   -0.6930    0.5106 H   0  0  0  0  0  0  0  0  0  0  0  0
   -1.6221    1.2315    0.3051 C   0  0  0  0  0  0  0  0  0  0  0  0
   -2.5530    1.1799   -0.2631 H   0  0  0  0  0  0  0  0  0  0  0  0
   -1.7175    2.0337    1.0402 H   0  0  0  0  0  0  0  0  0  0  0  0
   -0.4820    1.5707   -0.6662 C   0  0  0  0  0  0  0  0  0  0  0  0
   -0.8686    2.1637   -1.4962 H   0  0  0  0  0  0  0  0  0  0  0  0
    0.2823    2.1431   -0.1396 H   0  0  0  0  0  0  0  0  0  0  0  0
    0.1370    0.2788   -1.2169 C   0  0  0  0  0  0  0  0  0  0  0  0
    0.4972   -0.3206   -0.3777 H   0  0  0  0  0  0  0  0  0  0  0  0
   -0.6393   -0.2819   -1.7430 H   0  0  0  0  0  0  0  0  0  0  0  0
    1.2564    0.5572   -2.1400 N   0  3  0  0  0  0  0  0  0  0  0  0
    1.4508    1.5243   -2.3355 H   0  0  0  0  0  0  0  0  0  0  0  0
    2.0243   -0.3428   -2.7311 C   0  0  0  0  0  0  0  0  0  0  0  0
    1.8592   -1.6228   -2.5477 N   0  0  0  0  0  0  0  0  0  0  0  0
    1.1251   -1.9331   -1.9360 H   0  0  0  0  0  0  0  0  0  0  0  0
    2.4506   -2.2926   -3.0043 H   0  0  0  0  0  0  0  0  0  0  0  0
    2.9843    0.0306   -3.5288 N   0  0  0  0  0  0  0  0  0  0  0  0
    3.1507    1.0071   -3.7012 H   0  0  0  0  0  0  0  0  0  0  0  0
    3.5646   -0.6554   -3.9751 H   0  0  0  0  0  0  0  0  0  0  0  0
   -0.9523    0.1012    2.4848 C   0  0  0  0  0  0  0  0  0  0  0  0
    0.2133   -0.1319    2.7814 O   0  0  0  0  0  0  0  0  0  0  0  0
   -1.8684    0.5006    3.3725 N   0  0  0  0  0  0  0  0  0  0  0  0
   -2.7946    0.7048    3.0343 H   0  0  0  0  0  0  0  0  0  0  0  0
   -1.5848    0.7472    4.7873 C   0  0  0  0  0  0  0  0  0  0  0  0
   -0.8819    1.5774    4.8838 H   0  0  0  0  0  0  0  0  0  0  0  0
   -2.5030    0.9948    5.3214 H   0  0  0  0  0  0  0  0  0  0  0  0
   -1.1344   -0.1399    5.2381 H   0  0  0  0  0  0  0  0  0  0  0  0
  5  6  2  0  0  0  0
  5  7  1  0  0  0  0
  2  3  1  0  0  0  0
  2  4  1  0  0  0  0
  2  5  1  0  0  0  0
  1  2  1  0  0  0  0
 29 30  2  0  0  0  0
 29 31  1  0  0  0  0
 26 27  1  0  0  0  0
 26 28  1  0  0  0  0
 23 24  1  0  0  0  0
 23 25  1  0  0  0  0
 22 23  1  0  0  0  0
 22 26  1  0  0  0  0
 20 21  1  0  0  0  0
 20 22  2  0  0  0  0
 17 18  1  0  0  0  0
 17 19  1  0  0  0  0
 17 20  1  0  0  0  0
 14 15  1  0  0  0  0
 14 16  1  0  0  0  0
 14 17  1  0  0  0  0
 11 12  1  0  0  0  0
 11 13  1  0  0  0  0
 11 14  1  0  0  0  0
  9 10  1  0  0  0  0
  9 11  1  0  0  0  0
  9 29  1  0  0  0  0
  7  8  1  0  0  0  0
  7  9  1  0  0  0  0
 33 34  1  0  0  0  0
 33 35  1  0  0  0  0
 33 36  1  0  0  0  0
 31 32  1  0  0  0  0
 31 33  1  0  0  0  0
M  CHG  1  20   1
M  END
$$$$
default_name
  -OEChem-02102213163D

 36 35  0     1  0  0  0  0  0999 V2000
   -4.2256   -3.6731    1.8584 H   0  0  0  0  0  0  0  0  0  0  0  0
   -4.2396   -2.6781    1.4144 C   0  0  0  0  0  0  0  0  0  0  0  0
   -4.9506   -2.0521    1.9514 H   0  0  0  0  0  0  0  0  0  0  0  0
   -4.5266   -2.7521    0.3674 H   0  0  0  0  0  0  0  0  0  0  0  0
   -2.8576   -2.0761    1.5184 C   0  0  0  0  0  0  0  0  0  0  0  0
   -1.9456   -2.7051    2.0404 O   0  0  0  0  0  0  0  0  0  0  0  0
   -2.6926   -0.8481    1.0174 N   0  0  0  0  0  0  0  0  0  0  0  0
   -3.4926   -0.3971    0.5954 H   0  0  0  0  0  0  0  0  0  0  0  0
   -1.4216   -0.1071    1.0434 C   0  0  1  0  0  0  0  0  0  0  0  0
   -0.6709   -0.6930    0.5106 H   0  0  0  0  0  0  0  0  0  0  0  0
   -1.6221    1.2315    0.3051 C   0  0  0  0  0  0  0  0  0  0  0  0
   -2.5530    1.1799   -0.2631 H   0  0  0  0  0  0  0  0  0  0  0  0
   -1.7175    2.0337    1.0402 H   0  0  0  0  0  0  0  0  0  0  0  0
   -0.4820    1.5707   -0.6662 C   0  0  0  0  0  0  0  0  0  0  0  0
   -0.7965    2.3690   -1.3398 H   0  0  0  0  0  0  0  0  0  0  0  0
    0.3892    1.9000   -0.0990 H   0  0  0  0  0  0  0  0  0  0  0  0
   -0.1139    0.3312   -1.4931 C   0  0  0  0  0  0  0  0  0  0  0  0
    0.1739   -0.4710   -0.8096 H   0  0  0  0  0  0  0  0  0  0  0  0
   -0.9949    0.0151   -2.0566 H   0  0  0  0  0  0  0  0  0  0  0  0
    0.9975    0.6054   -2.4270 N   0  3  0  0  0  0  0  0  0  0  0  0
    1.3447    1.5489   -2.4515 H   0  0  0  0  0  0  0  0  0  0  0  0
    1.5770   -0.2705   -3.2308 C   0  0  0  0  0  0  0  0  0  0  0  0
    1.2053   -1.5190   -3.2789 N   0  0  0  0  0  0  0  0  0  0  0  0
    0.4551   -1.8236   -2.6841 H   0  0  0  0  0  0  0  0  0  0  0  0
    1.6555   -2.1707   -3.8950 H   0  0  0  0  0  0  0  0  0  0  0  0
    2.5527    0.0961   -4.0124 N   0  0  0  0  0  0  0  0  0  0  0  0
    2.8748    1.0486   -4.0106 H   0  0  0  0  0  0  0  0  0  0  0  0
    2.9897   -0.5716   -4.6206 H   0  0  0  0  0  0  0  0  0  0  0  0
   -0.9523    0.1012    2.4848 C   0  0  0  0  0  0  0  0  0  0  0  0
    0.2133   -0.1319    2.7814 O   0  0  0  0  0  0  0  0  0  0  0  0
   -1.8684    0.5006    3.3725 N   0  0  0  0  0  0  0  0  0  0  0  0
   -2.7946    0.7048    3.0343 H   0  0  0  0  0  0  0  0  0  0  0  0
   -1.5848    0.7472    4.7873 C   0  0  0  0  0  0  0  0  0  0  0  0
   -0.8819    1.5774    4.8838 H   0  0  0  0  0  0  0  0  0  0  0  0
   -2.5030    0.9948    5.3214 H   0  0  0  0  0  0  0  0  0  0  0  0
   -1.1344   -0.1399    5.2381 H   0  0  0  0  0  0  0  0  0  0  0  0
  5  6  2  0  0  0  0
  5  7  1  0  0  0  0
  2  3  1  0  0  0  0
  2  4  1  0  0  0  0
  2  5  1  0  0  0  0
  1  2  1  0  0  0  0
 29 30  2  0  0  0  0
 29 31  1  0  0  0  0
 26 27  1  0  0  0  0
 26 28  1  0  0  0  0
 23 24  1  0  0  0  0
 23 25  1  0  0  0  0
 22 23  1  0  0  0  0
 22 26  1  0  0  0  0
 20 21  1  0  0  0  0
 20 22  2  0  0  0  0
 17 18  1  0  0  0  0
 17 19  1  0  0  0  0
 17 20  1  0  0  0  0
 14 15  1  0  0  0  0
 14 16  1  0  0  0  0
 14 17  1  0  0  0  0
 11 12  1  0  0  0  0
 11 13  1  0  0  0  0
 11 14  1  0  0  0  0
  9 10  1  0  0  0  0
  9 11  1  0  0  0  0
  9 29  1  0  0  0  0
  7  8  1  0  0  0  0
  7  9  1  0  0  0  0
 33 34  1  0  0  0  0
 33 35  1  0  0  0  0
 33 36  1  0  0  0  0
 31 32  1  0  0  0  0
 31 33  1  0  0  0  0
M  CHG  1  20   1
M  END
$$$$
default_name
  -OEChem-02102213163D

 36 35  0     1  0  0  0  0  0999 V2000
   -4.2256   -3.6731    1.8584 H   0  0  0  0  0  0  0  0  0  0  0  0
   -4.2396   -2.6781    1.4144 C   0  0  0  0  0  0  0  0  0  0  0  0
   -4.9506   -2.0521    1.9514 H   0  0  0  0  0  0  0  0  0  0  0  0
   -4.5266   -2.7521    0.3674 H   0  0  0  0  0  0  0  0  0  0  0  0
   -2.8576   -2.0761    1.5184 C   0  0  0  0  0  0  0  0  0  0  0  0
   -1.9456   -2.7051    2.0404 O   0  0  0  0  0  0  0  0  0  0  0  0
   -2.6926   -0.8481    1.0174 N   0  0  0  0  0  0  0  0  0  0  0  0
   -3.4926   -0.3971    0.5954 H   0  0  0  0  0  0  0  0  0  0  0  0
   -1.4216   -0.1071    1.0434 C   0  0  1  0  0  0  0  0  0  0  0  0
   -0.6709   -0.6930    0.5106 H   0  0  0  0  0  0  0  0  0  0  0  0
   -1.6221    1.2315    0.3051 C   0  0  0  0  0  0  0  0  0  0  0  0
   -2.5530    1.1799   -0.2631 H   0  0  0  0  0  0  0  0  0  0  0  0
   -1.7175    2.0337    1.0402 H   0  0  0  0  0  0  0  0  0  0  0  0
   -0.4820    1.5707   -0.6662 C   0  0  0  0  0  0  0  0  0  0  0  0
   -0.6842    2.5255   -1.1534 H   0  0  0  0  0  0  0  0  0  0  0  0
    0.4550    1.6399   -0.1126 H   0  0  0  0  0  0  0  0  0  0  0  0
   -0.3634    0.4760   -1.7353 C   0  0  0  0  0  0  0  0  0  0  0  0
   -0.1876   -0.4803   -1.2373 H   0  0  0  0  0  0  0  0  0  0  0  0
   -1.3076    0.4204   -2.2822 H   0  0  0  0  0  0  0  0  0  0  0  0
    0.7390    0.7494   -2.6801 N   0  3  0  0  0  0  0  0  0  0  0  0
    1.2395    1.6123   -2.5527 H   0  0  0  0  0  0  0  0  0  0  0  0
    1.1283   -0.0314   -3.6740 C   0  0  0  0  0  0  0  0  0  0  0  0
    0.5489   -1.1712   -3.9279 N   0  0  0  0  0  0  0  0  0  0  0  0
   -0.2170   -1.4644   -3.3475 H   0  0  0  0  0  0  0  0  0  0  0  0
    0.8565   -1.7516   -4.6864 H   0  0  0  0  0  0  0  0  0  0  0  0
    2.1189    0.3229   -4.4424 N   0  0  0  0  0  0  0  0  0  0  0  0
    2.5974    1.1933   -4.2856 H   0  0  0  0  0  0  0  0  0  0  0  0
    2.4111   -0.2724   -5.1952 H   0  0  0  0  0  0  0  0  0  0  0  0
   -0.9523    0.1012    2.4848 C   0  0  0  0  0  0  0  0  0  0  0  0
    0.2133   -0.1319    2.7814 O   0  0  0  0  0  0  0  0  0  0  0  0
   -1.8684    0.5006    3.3725 N   0  0  0  0  0  0  0  0  0  0  0  0
   -2.7946    0.7048    3.0343 H   0  0  0  0  0  0  0  0  0  0  0  0
   -1.5848    0.7472    4.7873 C   0  0  0  0  0  0  0  0  0  0  0  0
   -0.8819    1.5774    4.8838 H   0  0  0  0  0  0  0  0  0  0  0  0
   -2.5030    0.9948    5.3214 H   0  0  0  0  0  0  0  0  0  0  0  0
   -1.1344   -0.1399    5.2381 H   0  0  0  0  0  0  0  0  0  0  0  0
  5  6  2  0  0  0  0
  5  7  1  0  0  0  0
  2  3  1  0  0  0  0
  2  4  1  0  0  0  0
  2  5  1  0  0  0  0
  1  2  1  0  0  0  0
 29 30  2  0  0  0  0
 29 31  1  0  0  0  0
 26 27  1  0  0  0  0
 26 28  1  0  0  0  0
 23 24  1  0  0  0  0
 23 25  1  0  0  0  0
 22 23  1  0  0  0  0
 22 26  1  0  0  0  0
 20 21  1  0  0  0  0
 20 22  2  0  0  0  0
 17 18  1  0  0  0  0
 17 19  1  0  0  0  0
 17 20  1  0  0  0  0
 14 15  1  0  0  0  0
 14 16  1  0  0  0  0
 14 17  1  0  0  0  0
 11 12  1  0  0  0  0
 11 13  1  0  0  0  0
 11 14  1  0  0  0  0
  9 10  1  0  0  0  0
  9 11  1  0  0  0  0
  9 29  1  0  0  0  0
  7  8  1  0  0  0  0
  7  9  1  0  0  0  0
 33 34  1  0  0  0  0
 33 35  1  0  0  0  0
 33 36  1  0  0  0  0
 31 32  1  0  0  0  0
 31 33  1  0  0  0  0
M  CHG  1  20   1
M  END
$$$$
default_name
  -OEChem-02102213163D

 36 35  0     1  0  0  0  0  0999 V2000
   -4.2256   -3.6731    1.8584 H   0  0  0  0  0  0  0  0  0  0  0  0
   -4.2396   -2.6781    1.4144 C   0  0  0  0  0  0  0  0  0  0  0  0
   -4.9506   -2.0521    1.9514 H   0  0  0  0  0  0  0  0  0  0  0  0
   -4.5266   -2.7521    0.3674 H   0  0  0  0  0  0  0  0  0  0  0  0
   -2.8576   -2.0761    1.5184 C   0  0  0  0  0  0  0  0  0  0  0  0
   -1.9456   -2.7051    2.0404 O   0  0  0  0  0  0  0  0  0  0  0  0
   -2.6926   -0.8481    1.0174 N   0  0  0  0  0  0  0  0  0  0  0  0
   -3.4926   -0.3971    0.5954 H   0  0  0  0  0  0  0  0  0  0  0  0
   -1.4216   -0.1071    1.0434 C   0  0  1  0  0  0  0  0  0  0  0  0
   -0.6709   -0.6930    0.5106 H   0  0  0  0  0  0  0  0  0  0  0  0
   -1.6221    1.2315    0.3051 C   0  0  0  0  0  0  0  0  0  0  0  0
   -2.5530    1.1799   -0.2631 H   0  0  0  0  0  0  0  0  0  0  0  0
   -1.7175    2.0337    1.0402 H   0  0  0  0  0  0  0  0  0  0  0  0
   -0.4820    1.5707   -0.6662 C   0  0  0  0  0  0  0  0  0  0  0  0
   -0.5396    2.6225   -0.9498 H   0  0  0  0  0  0  0  0  0  0  0  0
    0.4751    1.3805   -0.1795 H   0  0  0  0  0  0  0  0  0  0  0  0
   -0.5946    0.7032   -1.9273 C   0  0  0  0  0  0  0  0  0  0  0  0
   -0.5629   -0.3479   -1.6314 H   0  0  0  0  0  0  0  0  0  0  0  0
   -1.5562    0.9064   -2.4043 H   0  0  0  0  0  0  0  0  0  0  0  0
    0.4984    0.9795   -2.8822 N   0  3  0  0  0  0  0  0  0  0  0  0
    1.1426    1.7102   -2.6323 H   0  0  0  0  0  0  0  0  0  0  0  0
    0.7086    0.3582   -4.0306 C   0  0  0  0  0  0  0  0  0  0  0  0
   -0.0653   -0.6031   -4.4504 N   0  0  0  0  0  0  0  0  0  0  0  0
   -0.8452   -0.8800   -3.8808 H   0  0  0  0  0  0  0  0  0  0  0  0
    0.1081   -1.0640   -5.3247 H   0  0  0  0  0  0  0  0  0  0  0  0
    1.7125    0.6956   -4.7893 N   0  0  0  0  0  0  0  0  0  0  0  0
    2.3374    1.4313   -4.5077 H   0  0  0  0  0  0  0  0  0  0  0  0
    1.8684    0.2216   -5.6597 H   0  0  0  0  0  0  0  0  0  0  0  0
   -0.9523    0.1012    2.4848 C   0  0  0  0  0  0  0  0  0  0  0  0
    0.2133   -0.1319    2.7814 O   0  0  0  0  0  0  0  0  0  0  0  0
   -1.8684    0.5006    3.3725 N   0  0  0  0  0  0  0  0  0  0  0  0
   -2.7946    0.7048    3.0343 H   0  0  0  0  0  0  0  0  0  0  0  0
   -1.5848    0.7472    4.7873 C   0  0  0  0  0  0  0  0  0  0  0  0
   -0.8819    1.5774    4.8838 H   0  0  0  0  0  0  0  0  0  0  0  0
   -2.5030    0.9948    5.3214 H   0  0  0  0  0  0  0  0  0  0  0  0
   -1.1344   -0.1399    5.2381 H   0  0  0  0  0  0  0  0  0  0  0  0
  5  6  2  0  0  0  0
  5  7  1  0  0  0  0
  2  3  1  0  0  0  0
  2  4  1  0  0  0  0
  2  5  1  0  0  0  0
  1  2  1  0  0  0  0
 29 30  2  0  0  0  0
 29 31  1  0  0  0  0
 26 27  1  0  0  0  0
 26 28  1  0  0  0  0
 23 24  1  0  0  0  0
 23 25  1  0  0  0  0
 22 23  1  0  0  0  0
 22 26  1  0  0  0  0
 20 21  1  0  0  0  0
 20 22  2  0  0  0  0
 17 18  1  0  0  0  0
 17 19  1  0  0  0  0
 17 20  1  0  0  0  0
 14 15  1  0  0  0  0
 14 16  1  0  0  0  0
 14 17  1  0  0  0  0
 11 12  1  0  0  0  0
 11 13  1  0  0  0  0
 11 14  1  0  0  0  0
  9 10  1  0  0  0  0
  9 11  1  0  0  0  0
  9 29  1  0  0  0  0
  7  8  1  0  0  0  0
  7  9  1  0  0  0  0
 33 34  1  0  0  0  0
 33 35  1  0  0  0  0
 33 36  1  0  0  0  0
 31 32  1  0  0  0  0
 31 33  1  0  0  0  0
M  CHG  1  20   1
M  END
$$$$
default_name
  -OEChem-02102213163D

 36 35  0     1  0  0  0  0  0999 V2000
   -4.2256   -3.6731    1.8584 H   0  0  0  0  0  0  0  0  0  0  0  0
   -4.2396   -2.6781    1.4144 C   0  0  0  0  0  0  0  0  0  0  0  0
   -4.9506   -2.0521    1.9514 H   0  0  0  0  0  0  0  0  0  0  0  0
   -4.5266   -2.7521    0.3674 H   0  0  0  0  0  0  0  0  0  0  0  0
   -2.8576   -2.0761    1.5184 C   0  0  0  0  0  0  0  0  0  0  0  0
   -1.9456   -2.7051    2.0404 O   0  0  0  0  0  0  0  0  0  0  0  0
   -2.6926   -0.8481    1.0174 N   0  0  0  0  0  0  0  0  0  0  0  0
   -3.4926   -0.3971    0.5954 H   0  0  0  0  0  0  0  0  0  0  0  0
   -1.4216   -0.1071    1.0434 C   0  0  1  0  0  0  0  0  0  0  0  0
   -0.6709   -0.6930    0.5106 H   0  0  0  0  0  0  0  0  0  0  0  0
   -1.6221    1.2315    0.3051 C   0  0  0  0  0  0  0  0  0  0  0  0
   -2.5530    1.1799   -0.2631 H   0  0  0  0  0  0  0  0  0  0  0  0
   -1.7175    2.0337    1.0402 H   0  0  0  0  0  0  0  0  0  0  0  0
   -0.4820    1.5707   -0.6662 C   0  0  0  0  0  0  0  0  0  0  0  0
   -0.3723    2.6533   -0.7426 H   0  0  0  0  0  0  0  0  0  0  0  0
    0.4483    1.1395   -0.2951 H   0  0  0  0  0  0  0  0  0  0  0  0
   -0.7916    0.9975   -2.0558 C   0  0  0  0  0  0  0  0  0  0  0  0
   -0.9262   -0.0829   -1.9653 H   0  0  0  0  0  0  0  0  0  0  0  0
   -1.7238    1.4400   -2.4146 H   0  0  0  0  0  0  0  0  0  0  0  0
    0.2921    1.2800   -3.0194 N   0  3  0  0  0  0  0  0  0  0  0  0
    1.0604    1.8359   -2.6849 H   0  0  0  0  0  0  0  0  0  0  0  0
    0.3466    0.8717   -4.2761 C   0  0  0  0  0  0  0  0  0  0  0  0
   -0.5955    0.1466   -4.8109 N   0  0  0  0  0  0  0  0  0  0  0  0
   -1.3869   -0.1102   -4.2477 H   0  0  0  0  0  0  0  0  0  0  0  0
   -0.5388   -0.1546   -5.7663 H   0  0  0  0  0  0  0  0  0  0  0  0
    1.3611    1.1889   -5.0295 N   0  0  0  0  0  0  0  0  0  0  0  0
    2.1125    1.7464   -4.6615 H   0  0  0  0  0  0  0  0  0  0  0  0
    1.3985    0.8770   -5.9824 H   0  0  0  0  0  0  0  0  0  0  0  0
   -0.9523    0.1012    2.4848 C   0  0  0  0  0  0  0  0  0  0  0  0
    0.2133   -0.1319    2.7814 O   0  0  0  0  0  0  0  0  0  0  0  0
   -1.8684    0.5006    3.3725 N   0  0  0  0  0  0  0  0  0  0  0  0
   -2.7946    0.7048    3.0343 H   0  0  0  0  0  0  0  0  0  0  0  0
   -1.5848    0.7472    4.7873 C   0  0  0  0  0  0  0  0  0  0  0  0
   -0.8819    1.5774    4.8838 H   0  0  0  0  0  0  0  0  0  0  0  0
   -2.5030    0.9948    5.3214 H   0  0  0  0  0  0  0  0  0  0  0  0
   -1.1344   -0.1399    5.2381 H   0  0  0  0  0  0  0  0  0  0  0  0
  5  6  2  0  0  0  0
  5  7  1  0  0  0  0
  2  3  1  0  0  0  0
  2  4  1  0  0  0  0
  2  5  1  0  0  0  0
  1  2  1  0  0  0  0
 29 30  2  0  0  0  0
 29 31  1  0  0  0  0
 26 27  1  0  0  0  0
 26 28  1  0  0  0  0
 23 24  1  0  0  0  0
 23 25  1  0  0  0  0
 22 23  1  0  0  0  0
 22 26  1  0  0  0  0
 20 21  1  0  0  0  0
 20 22  2  0  0  0  0
 17 18  1  0  0  0  0
 17 19  1  0  0  0  0
 17 20  1  0  0  0  0
 14 15  1  0  0  0  0
 14 16  1  0  0  0  0
 14 17  1  0  0  0  0
 11 12  1  0  0  0  0
 11 13  1  0  0  0  0
 11 14  1  0  0  0  0
  9 10  1  0  0  0  0
  9 11  1  0  0  0  0
  9 29  1  0  0  0  0
  7  8  1  0  0  0  0
  7  9  1  0  0  0  0
 33 34  1  0  0  0  0
 33 35  1  0  0  0  0
 33 36  1  0  0  0  0
 31 32  1  0  0  0  0
 31 33  1  0  0  0  0
M  CHG  1  20   1
M  END
$$$$
default_name
  -OEChem-02102213163D

 36 35  0     1  0  0  0  0  0999 V2000
   -4.2256   -3.6731    1.8584 H   0  0  0  0  0  0  0  0  0  0  0  0
   -4.2396   -2.6781    1.4144 C   0  0  0  0  0  0  0  0  0  0  0  0
   -4.9506   -2.0521    1.9514 H   0  0  0  0  0  0  0  0  0  0  0  0
   -4.5266   -2.7521    0.3674 H   0  0  0  0  0  0  0  0  0  0  0  0
   -2.8576   -2.0761    1.5184 C   0  0  0  0  0  0  0  0  0  0  0  0
   -1.9456   -2.7051    2.0404 O   0  0  0  0  0  0  0  0  0  0  0  0
   -2.6926   -0.8481    1.0174 N   0  0  0  0  0  0  0  0  0  0  0  0
   -3.4926   -0.3971    0.5954 H   0  0  0  0  0  0  0  0  0  0  0  0
   -1.4216   -0.1071    1.0434 C   0  0  1  0  0  0  0  0  0  0  0  0
   -0.6709   -0.6930    0.5106 H   0  0  0  0  0  0  0  0  0  0  0  0
   -1.6221    1.2315    0.3051 C   0  0  0  0  0  0  0  0  0  0  0  0
   -2.5530    1.1799   -0.2631 H   0  0  0  0  0  0  0  0  0  0  0  0
   -1.7175    2.0337    1.0402 H   0  0  0  0  0  0  0  0  0  0  0  0
   -0.4820    1.5707   -0.6662 C   0  0  0  0  0  0  0  0  0  0  0  0
   -0.1938    2.6159   -0.5462 H   0  0  0  0  0  0  0  0  0  0  0  0
    0.3764    0.9333   -0.4516 H   0  0  0  0  0  0  0  0  0  0  0  0
   -0.9411    1.3386   -2.1122 C   0  0  0  0  0  0  0  0  0  0  0  0
   -1.2528    0.2968   -2.2161 H   0  0  0  0  0  0  0  0  0  0  0  0
   -1.7989    1.9849   -2.3125 H   0  0  0  0  0  0  0  0  0  0  0  0
    0.1342    1.6304   -3.0824 N   0  3  0  0  0  0  0  0  0  0  0  0
    0.9987    1.9809   -2.7067 H   0  0  0  0  0  0  0  0  0  0  0  0
    0.0670    1.4741   -4.3939 C   0  0  0  0  0  0  0  0  0  0  0  0
   -1.0054    1.0269   -4.9847 N   0  0  0  0  0  0  0  0  0  0  0  0
   -1.8050    0.7926   -4.4233 H   0  0  0  0  0  0  0  0  0  0  0  0
   -1.0399    0.9145   -5.9812 H   0  0  0  0  0  0  0  0  0  0  0  0
    1.0886    1.7690   -5.1467 N   0  0  0  0  0  0  0  0  0  0  0  0
    1.9381    2.1172   -4.7368 H   0  0  0  0  0  0  0  0  0  0  0  0
    1.0335    1.6489   -6.1413 H   0  0  0  0  0  0  0  0  0  0  0  0
   -0.9523    0.1012    2.4848 C   0  0  0  0  0  0  0  0  0  0  0  0
    0.2133   -0.1319    2.7814 O   0  0  0  0  0  0  0  0  0  0  0  0
   -1.8684    0.5006    3.3725 N   0  0  0  0  0  0  0  0  0  0  0  0
   -2.7946    0.7048    3.0343 H   0  0  0  0  0  0  0  0  0  0  0  0
   -1.5848    0.7472    4.7873 C   0  0  0  0  0  0  0  0  0  0  0  0
   -0.8819    1.5774    4.8838 H   0  0  0  0  0  0  0  0  0  0  0  0
   -2.5030    0.9948    5.3214 H   0  0  0  0  0  0  0  0  0  0  0  0
   -1.1344   -0.1399    5.2381 H   0  0  0  0  0  0  0  0  0  0  0  0
  5  6  2  0  0  0  0
  5  7  1  0  0  0  0
  2  3  1  0  0  0  0
  2  4  1  0  0  0  0
  2  5  1  0  0  0  0
  1  2  1  0  0  0  0
 29 30  2  0  0  0  0
 29 31  1  0  0  0  0
 26 27  1  0  0  0  0
 26 28  1  0  0  0  0
 23 24  1  0  0  0  0
 23 25  1  0  0  0  0
 22 23  1  0  0  0  0
 22 26  1  0  0  0  0
 20 21  1  0  0  0  0
 20 22  2  0  0  0  0
 17 18  1  0  0  0  0
 17 19  1  0  0  0  0
 17 20  1  0  0  0  0
 14 15  1  0  0  0  0
 14 16  1  0  0  0  0
 14 17  1  0  0  0  0
 11 12  1  0  0  0  0
 11 13  1  0  0  0  0
 11 14  1  0  0  0  0
  9 10  1  0  0  0  0
  9 11  1  0  0  0  0
  9 29  1  0  0  0  0
  7  8  1  0  0  0  0
  7  9  1  0  0  0  0
 33 34  1  0  0  0  0
 33 35  1  0  0  0  0
 33 36  1  0  0  0  0
 31 32  1  0  0  0  0
 31 33  1  0  0  0  0
M  CHG  1  20   1
M  END
$$$$
default_name
  -OEChem-02102213163D

 36 35  0     1  0  0  0  0  0999 V2000
   -4.2256   -3.6731    1.8584 H   0  0  0  0  0  0  0  0  0  0  0  0
   -4.2396   -2.6781    1.4144 C   0  0  0  0  0  0  0  0  0  0  0  0
   -4.9506   -2.0521    1.9514 H   0  0  0  0  0  0  0  0  0  0  0  0
   -4.5266   -2.7521    0.3674 H   0  0  0  0  0  0  0  0  0  0  0  0
   -2.8576   -2.0761    1.5184 C   0  0  0  0  0  0  0  0  0  0  0  0
   -1.9456   -2.7051    2.0404 O   0  0  0  0  0  0  0  0  0  0  0  0
   -2.6926   -0.8481    1.0174 N   0  0  0  0  0  0  0  0  0  0  0  0
   -3.4926   -0.3971    0.5954 H   0  0  0  0  0  0  0  0  0  0  0  0
   -1.4216   -0.1071    1.0434 C   0  0  1  0  0  0  0  0  0  0  0  0
   -0.6709   -0.6930    0.5106 H   0  0  0  0  0  0  0  0  0  0  0  0
   -1.6221    1.2315    0.3051 C   0  0  0  0  0  0  0  0  0  0  0  0
   -2.5530    1.1799   -0.2631 H   0  0  0  0  0  0  0  0  0  0  0  0
   -1.7175    2.0337    1.0402 H   0  0  0  0  0  0  0  0  0  0  0  0
   -0.4820    1.5707   -0.6662 C   0  0  0  0  0  0  0  0  0  0  0  0
   -0.0163    2.5129   -0.3739 H   0  0  0  0  0  0  0  0  0  0  0  0
    0.2642    0.7760   -0.6382 H   0  0  0  0  0  0  0  0  0  0  0  0
   -1.0329    1.7034   -2.0925 C   0  0  0  0  0  0  0  0  0  0  0  0
   -1.5205    0.7651   -2.3667 H   0  0  0  0  0  0  0  0  0  0  0  0
   -1.7764    2.5039   -2.1049 H   0  0  0  0  0  0  0  0  0  0  0  0
    0.0354    2.0068   -3.0669 N   0  3  0  0  0  0  0  0  0  0  0  0
    0.9615    2.1353   -2.6965 H   0  0  0  0  0  0  0  0  0  0  0  0
   -0.1112    2.1244   -4.3760 C   0  0  0  0  0  0  0  0  0  0  0  0
   -1.2673    1.9776   -4.9600 N   0  0  0  0  0  0  0  0  0  0  0  0
   -2.0712    1.7668   -4.3955 H   0  0  0  0  0  0  0  0  0  0  0  0
   -1.3613    2.0706   -5.9547 H   0  0  0  0  0  0  0  0  0  0  0  0
    0.9137    2.3964   -5.1329 N   0  0  0  0  0  0  0  0  0  0  0  0
    1.8261    2.5183   -4.7282 H   0  0  0  0  0  0  0  0  0  0  0  0
    0.7982    2.4848   -6.1256 H   0  0  0  0  0  0  0  0  0  0  0  0
   -0.9523    0.1012    2.4848 C   0  0  0  0  0  0  0  0  0  0  0  0
    0.2133   -0.1319    2.7814 O   0  0  0  0  0  0  0  0  0  0  0  0
   -1.8684    0.5006    3.3725 N   0  0  0  0  0  0  0  0  0  0  0  0
   -2.7946    0.7048    3.0343 H   0  0  0  0  0  0  0  0  0  0  0  0
   -1.5848    0.7472    4.7873 C   0  0  0  0  0  0  0  0  0  0  0  0
   -0.8819    1.5774    4.8838 H   0  0  0  0  0  0  0  0  0  0  0  0
   -2.5030    0.9948    5.3214 H   0  0  0  0  0  0  0  0  0  0  0  0
   -1.1344   -0.1399    5.2381 H   0  0  0  0  0  0  0  0  0  0  0  0
  5  6  2  0  0  0  0
  5  7  1  0  0  0  0
  2  3  1  0  0  0  0
  2  4  1  0  0  0  0
  2  5  1  0  0  0  0
  1  2  1  0  0  0  0
 29 30  2  0  0  0  0
 29 31  1  0  0  0  0
 26 27  1  0  0  0  0
 26 28  1  0  0  0  0
 23 24  1  0  0  0  0
 23 25  1  0  0  0  0
 22 23  1  0  0  0  0
 22 26  1  0  0  0  0
 20 21  1  0  0  0  0
 20 22  2  0  0  0  0
 17 18  1  0  0  0  0
 17 19  1  0  0  0  0
 17 20  1  0  0  0  0
 14 15  1  0  0  0  0
 14 16  1  0  0  0  0
 14 17  1  0  0  0  0
 11 12  1  0  0  0  0
 11 13  1  0  0  0  0
 11 14  1  0  0  0  0
  9 10  1  0  0  0  0
  9 11  1  0  0  0  0
  9 29  1  0  0  0  0
  7  8  1  0  0  0  0
  7  9  1  0  0  0  0
 33 34  1  0  0  0  0
 33 35  1  0  0  0  0
 33 36  1  0  0  0  0
 31 32  1  0  0  0  0
 31 33  1  0  0  0  0
M  CHG  1  20   1
M  END
$$$$
default_name
  -OEChem-02102213163D

 36 35  0     1  0  0  0  0  0999 V2000
   -4.2256   -3.6731    1.8584 H   0  0  0  0  0  0  0  0  0  0  0  0
   -4.2396   -2.6781    1.4144 C   0  0  0  0  0  0  0  0  0  0  0  0
   -4.9506   -2.0521    1.9514 H   0  0  0  0  0  0  0  0  0  0  0  0
   -4.5266   -2.7521    0.3674 H   0  0  0  0  0  0  0  0  0  0  0  0
   -2.8576   -2.0761    1.5184 C   0  0  0  0  0  0  0  0  0  0  0  0
   -1.9456   -2.7051    2.0404 O   0  0  0  0  0  0  0  0  0  0  0  0
   -2.6926   -0.8481    1.0174 N   0  0  0  0  0  0  0  0  0  0  0  0
   -3.4926   -0.3971    0.5954 H   0  0  0  0  0  0  0  0  0  0  0  0
   -1.4216   -0.1071    1.0434 C   0  0  1  0  0  0  0  0  0  0  0  0
   -0.6709   -0.6930    0.5106 H   0  0  0  0  0  0  0  0  0  0  0  0
   -1.6221    1.2315    0.3051 C   0  0  0  0  0  0  0  0  0  0  0  0
   -2.5530    1.1799   -0.2631 H   0  0  0  0  0  0  0  0  0  0  0  0
   -1.7175    2.0337    1.0402 H   0  0  0  0  0  0  0  0  0  0  0  0
   -0.4820    1.5707   -0.6662 C   0  0  0  0  0  0  0  0  0  0  0  0
    0.1481    2.3512   -0.2374 H   0  0  0  0  0  0  0  0  0  0  0  0
    0.1194    0.6783   -0.8423 H   0  0  0  0  0  0  0  0  0  0  0  0
   -1.0607    2.0671   -1.9982 C   0  0  0  0  0  0  0  0  0  0  0  0
   -1.7110    1.2903   -2.4069 H   0  0  0  0  0  0  0  0  0  0  0  0
   -1.6579    2.9616   -1.8059 H   0  0  0  0  0  0  0  0  0  0  0  0
    0.0025    2.3835   -2.9740 N   0  3  0  0  0  0  0  0  0  0  0  0
    0.9514    2.2885   -2.6548 H   0  0  0  0  0  0  0  0  0  0  0  0
   -0.1758    2.7783   -4.2235 C   0  0  0  0  0  0  0  0  0  0  0  0
   -1.3631    2.9340   -4.7386 N   0  0  0  0  0  0  0  0  0  0  0  0
   -2.1672    2.7460   -4.1662 H   0  0  0  0  0  0  0  0  0  0  0  0
   -1.4809    3.2347   -5.6886 H   0  0  0  0  0  0  0  0  0  0  0  0
    0.8483    3.0285   -4.9890 N   0  0  0  0  0  0  0  0  0  0  0  0
    1.7840    2.9225   -4.6365 H   0  0  0  0  0  0  0  0  0  0  0  0
    0.7086    3.3277   -5.9364 H   0  0  0  0  0  0  0  0  0  0  0  0
   -0.9523    0.1012    2.4848 C   0  0  0  0  0  0  0  0  0  0  0  0
    0.2133   -0.1319    2.7814 O   0  0  0  0  0  0  0  0  0  0  0  0
   -1.8684    0.5006    3.3725 N   0  0  0  0  0  0  0  0  0  0  0  0
   -2.7946    0.7048    3.0343 H   0  0  0  0  0  0  0  0  0  0  0  0
   -1.5848    0.7472    4.7873 C   0  0  0  0  0  0  0  0  0  0  0  0
   -0.8819    1.5774    4.8838 H   0  0  0  0  0  0  0  0  0  0  0  0
   -2.5030    0.9948    5.3214 H   0  0  0  0  0  0  0  0  0  0  0  0
   -1.1344   -0.1399    5.2381 H   0  0  0  0  0  0  0  0  0  0  0  0
  5  6  2  0  0  0  0
  5  7  1  0  0  0  0
  2  3  1  0  0  0  0
  2  4  1  0  0  0  0
  2  5  1  0  0  0  0
  1  2  1  0  0  0  0
 29 30  2  0  0  0  0
 29 31  1  0  0  0  0
 26 27  1  0  0  0  0
 26 28  1  0  0  0  0
 23 24  1  0  0  0  0
 23 25  1  0  0  0  0
 22 23  1  0  0  0  0
 22 26  1  0  0  0  0
 20 21  1  0  0  0  0
 20 22  2  0  0  0  0
 17 18  1  0  0  0  0
 17 19  1  0  0  0  0
 17 20  1  0  0  0  0
 14 15  1  0  0  0  0
 14 16  1  0  0  0  0
 14 17  1  0  0  0  0
 11 12  1  0  0  0  0
 11 13  1  0  0  0  0
 11 14  1  0  0  0  0
  9 10  1  0  0  0  0
  9 11  1  0  0  0  0
  9 29  1  0  0  0  0
  7  8  1  0  0  0  0
  7  9  1  0  0  0  0
 33 34  1  0  0  0  0
 33 35  1  0  0  0  0
 33 36  1  0  0  0  0
 31 32  1  0  0  0  0
 31 33  1  0  0  0  0
M  CHG  1  20   1
M  END
$$$$
default_name
  -OEChem-02102213163D

 36 35  0     1  0  0  0  0  0999 V2000
   -4.2256   -3.6731    1.8584 H   0  0  0  0  0  0  0  0  0  0  0  0
   -4.2396   -2.6781    1.4144 C   0  0  0  0  0  0  0  0  0  0  0  0
   -4.9506   -2.0521    1.9514 H   0  0  0  0  0  0  0  0  0  0  0  0
   -4.5266   -2.7521    0.3674 H   0  0  0  0  0  0  0  0  0  0  0  0
   -2.8576   -2.0761    1.5184 C   0  0  0  0  0  0  0  0  0  0  0  0
   -1.9456   -2.7051    2.0404 O   0  0  0  0  0  0  0  0  0  0  0  0
   -2.6926   -0.8481    1.0174 N   0  0  0  0  0  0  0  0  0  0  0  0
   -3.4926   -0.3971    0.5954 H   0  0  0  0  0  0  0  0  0  0  0  0
   -1.4216   -0.1071    1.0434 C   0  0  1  0  0  0  0  0  0  0  0  0
   -0.6709   -0.6930    0.5106 H   0  0  0  0  0  0  0  0  0  0  0  0
   -1.6221    1.2315    0.3051 C   0  0  0  0  0  0  0  0  0  0  0  0
   -2.5530    1.1799   -0.2631 H   0  0  0  0  0  0  0  0  0  0  0  0
   -1.7175    2.0337    1.0402 H   0  0  0  0  0  0  0  0  0  0  0  0
   -0.4820    1.5707   -0.6662 C   0  0  0  0  0  0  0  0  0  0  0  0
    0.2882    2.1418   -0.1460 H   0  0  0  0  0  0  0  0  0  0  0  0
   -0.0481    0.6468   -1.0499 H   0  0  0  0  0  0  0  0  0  0  0  0
   -1.0226    2.4048   -1.8356 C   0  0  0  0  0  0  0  0  0  0  0  0
   -1.8113    1.8364   -2.3340 H   0  0  0  0  0  0  0  0  0  0  0  0
   -1.4513    3.3268   -1.4360 H   0  0  0  0  0  0  0  0  0  0  0  0
    0.0377    2.7350   -2.8099 N   0  3  0  0  0  0  0  0  0  0  0  0
    0.9692    2.4302   -2.5845 H   0  0  0  0  0  0  0  0  0  0  0  0
   -0.1225    3.3912   -3.9469 C   0  0  0  0  0  0  0  0  0  0  0  0
   -1.2865    3.8310   -4.3354 N   0  0  0  0  0  0  0  0  0  0  0  0
   -2.0865    3.6636   -3.7511 H   0  0  0  0  0  0  0  0  0  0  0  0
   -1.3906    4.3277   -5.2010 H   0  0  0  0  0  0  0  0  0  0  0  0
    0.8968    3.6221   -4.7248 N   0  0  0  0  0  0  0  0  0  0  0  0
    1.8148    3.3021   -4.4678 H   0  0  0  0  0  0  0  0  0  0  0  0
    0.7709    4.1202   -5.5865 H   0  0  0  0  0  0  0  0  0  0  0  0
   -0.9523    0.1012    2.4848 C   0  0  0  0  0  0  0  0  0  0  0  0
    0.2133   -0.1319    2.7814 O   0  0  0  0  0  0  0  0  0  0  0  0
   -1.8684    0.5006    3.3725 N   0  0  0  0  0  0  0  0  0  0  0  0
   -2.7946    0.7048    3.0343 H   0  0  0  0  0  0  0  0  0  0  0  0
   -1.5848    0.7472    4.7873 C   0  0  0  0  0  0  0  0  0  0  0  0
   -0.8819    1.5774    4.8838 H   0  0  0  0  0  0  0  0  0  0  0  0
   -2.5030    0.9948    5.3214 H   0  0  0  0  0  0  0  0  0  0  0  0
   -1.1344   -0.1399    5.2381 H   0  0  0  0  0  0  0  0  0  0  0  0
  5  6  2  0  0  0  0
  5  7  1  0  0  0  0
  2  3  1  0  0  0  0
  2  4  1  0  0  0  0
  2  5  1  0  0  0  0
  1  2  1  0  0  0  0
 29 30  2  0  0  0  0
 29 31  1  0  0  0  0
 26 27  1  0  0  0  0
 26 28  1  0  0  0  0
 23 24  1  0  0  0  0
 23 25  1  0  0  0  0
 22 23  1  0  0  0  0
 22 26  1  0  0  0  0
 20 21  1  0  0  0  0
 20 22  2  0  0  0  0
 17 18  1  0  0  0  0
 17 19  1  0  0  0  0
 17 20  1  0  0  0  0
 14 15  1  0  0  0  0
 14 16  1  0  0  0  0
 14 17  1  0  0  0  0
 11 12  1  0  0  0  0
 11 13  1  0  0  0  0
 11 14  1  0  0  0  0
  9 10  1  0  0  0  0
  9 11  1  0  0  0  0
  9 29  1  0  0  0  0
  7  8  1  0  0  0  0
  7  9  1  0  0  0  0
 33 34  1  0  0  0  0
 33 35  1  0  0  0  0
 33 36  1  0  0  0  0
 31 32  1  0  0  0  0
 31 33  1  0  0  0  0
M  CHG  1  20   1
M  END
$$$$
default_name
  -OEChem-02102213163D

 36 35  0     1  0  0  0  0  0999 V2000
   -4.2256   -3.6731    1.8584 H   0  0  0  0  0  0  0  0  0  0  0  0
   -4.2396   -2.6781    1.4144 C   0  0  0  0  0  0  0  0  0  0  0  0
   -4.9506   -2.0521    1.9514 H   0  0  0  0  0  0  0  0  0  0  0  0
   -4.5266   -2.7521    0.3674 H   0  0  0  0  0  0  0  0  0  0  0  0
   -2.8576   -2.0761    1.5184 C   0  0  0  0  0  0  0  0  0  0  0  0
   -1.9456   -2.7051    2.0404 O   0  0  0  0  0  0  0  0  0  0  0  0
   -2.6926   -0.8481    1.0174 N   0  0  0  0  0  0  0  0  0  0  0  0
   -3.4926   -0.3971    0.5954 H   0  0  0  0  0  0  0  0  0  0  0  0
   -1.4216   -0.1071    1.0434 C   0  0  1  0  0  0  0  0  0  0  0  0
   -0.6709   -0.6930    0.5106 H   0  0  0  0  0  0  0  0  0  0  0  0
   -1.6221    1.2315    0.3051 C   0  0  0  0  0  0  0  0  0  0  0  0
   -2.5530    1.1799   -0.2631 H   0  0  0  0  0  0  0  0  0  0  0  0
   -1.7175    2.0337    1.0402 H   0  0  0  0  0  0  0  0  0  0  0  0
   -0.4820    1.5707   -0.6662 C   0  0  0  0  0  0  0  0  0  0  0  0
    0.3946    1.8991   -0.1060 H   0  0  0  0  0  0  0  0  0  0  0  0
   -0.2269    0.6836   -1.2469 H   0  0  0  0  0  0  0  0  0  0  0  0
   -0.9213    2.6935   -1.6158 C   0  0  0  0  0  0  0  0  0  0  0  0
   -1.8146    2.3664   -2.1528 H   0  0  0  0  0  0  0  0  0  0  0  0
   -1.1709    3.5748   -1.0202 H   0  0  0  0  0  0  0  0  0  0  0  0
    0.1386    3.0372   -2.5860 N   0  3  0  0  0  0  0  0  0  0  0  0
    1.0135    2.5506   -2.4904 H   0  0  0  0  0  0  0  0  0  0  0  0
    0.0452    3.9213   -3.5650 C   0  0  0  0  0  0  0  0  0  0  0  0
   -1.0425    4.6075   -3.7779 N   0  0  0  0  0  0  0  0  0  0  0  0
   -1.8346    4.4569   -3.1785 H   0  0  0  0  0  0  0  0  0  0  0  0
   -1.0967    5.2749   -4.5252 H   0  0  0  0  0  0  0  0  0  0  0  0
    1.0560    4.1367   -4.3583 N   0  0  0  0  0  0  0  0  0  0  0  0
    1.9163    3.6314   -4.2337 H   0  0  0  0  0  0  0  0  0  0  0  0
    0.9808    4.8083   -5.0998 H   0  0  0  0  0  0  0  0  0  0  0  0
   -0.9523    0.1012    2.4848 C   0  0  0  0  0  0  0  0  0  0  0  0
    0.2133   -0.1319    2.7814 O   0  0  0  0  0  0  0  0  0  0  0  0
   -1.8684    0.5006    3.3725 N   0  0  0  0  0  0  0  0  0  0  0  0
   -2.7946    0.7048    3.0343 H   0  0  0  0  0  0  0  0  0  0  0  0
   -1.5848    0.7472    4.7873 C   0  0  0  0  0  0  0  0  0  0  0  0
   -0.8819    1.5774    4.8838 H   0  0  0  0  0  0  0  0  0  0  0  0
   -2.5030    0.9948    5.3214 H   0  0  0  0  0  0  0  0  0  0  0  0
   -1.1344   -0.1399    5.2381 H   0  0  0  0  0  0  0  0  0  0  0  0
  5  6  2  0  0  0  0
  5  7  1  0  0  0  0
  2  3  1  0  0  0  0
  2  4  1  0  0  0  0
  2  5  1  0  0  0  0
  1  2  1  0  0  0  0
 29 30  2  0  0  0  0
 29 31  1  0  0  0  0
 26 27  1  0  0  0  0
 26 28  1  0  0  0  0
 23 24  1  0  0  0  0
 23 25  1  0  0  0  0
 22 23  1  0  0  0  0
 22 26  1  0  0  0  0
 20 21  1  0  0  0  0
 20 22  2  0  0  0  0
 17 18  1  0  0  0  0
 17 19  1  0  0  0  0
 17 20  1  0  0  0  0
 14 15  1  0  0  0  0
 14 16  1  0  0  0  0
 14 17  1  0  0  0  0
 11 12  1  0  0  0  0
 11 13  1  0  0  0  0
 11 14  1  0  0  0  0
  9 10  1  0  0  0  0
  9 11  1  0  0  0  0
  9 29  1  0  0  0  0
  7  8  1  0  0  0  0
  7  9  1  0  0  0  0
 33 34  1  0  0  0  0
 33 35  1  0  0  0  0
 33 36  1  0  0  0  0
 31 32  1  0  0  0  0
 31 33  1  0  0  0  0
M  CHG  1  20   1
M  END
$$$$
default_name
  -OEChem-02102213163D

 36 35  0     1  0  0  0  0  0999 V2000
   -4.2256   -3.6731    1.8584 H   0  0  0  0  0  0  0  0  0  0  0  0
   -4.2396   -2.6781    1.4144 C   0  0  0  0  0  0  0  0  0  0  0  0
   -4.9506   -2.0521    1.9514 H   0  0  0  0  0  0  0  0  0  0  0  0
   -4.5266   -2.7521    0.3674 H   0  0  0  0  0  0  0  0  0  0  0  0
   -2.8576   -2.0761    1.5184 C   0  0  0  0  0  0  0  0  0  0  0  0
   -1.9456   -2.7051    2.0404 O   0  0  0  0  0  0  0  0  0  0  0  0
   -2.6926   -0.8481    1.0174 N   0  0  0  0  0  0  0  0  0  0  0  0
   -3.4926   -0.3971    0.5954 H   0  0  0  0  0  0  0  0  0  0  0  0
   -1.4216   -0.1071    1.0434 C   0  0  1  0  0  0  0  0  0  0  0  0
   -0.6709   -0.6930    0.5106 H   0  0  0  0  0  0  0  0  0  0  0  0
   -1.6221    1.2315    0.3051 C   0  0  0  0  0  0  0  0  0  0  0  0
   -2.6569    1.2882   -0.0385 H   0  0  0  0  0  0  0  0  0  0  0  0
   -1.4512    2.0535    1.0038 H   0  0  0  0  0  0  0  0  0  0  0  0
   -0.6998    1.4032   -0.9107 C   0  0  0  0  0  0  0  0  0  0  0  0
    0.3426    1.3618   -0.5918 H   0  0  0  0  0  0  0  0  0  0  0  0
   -0.8904    0.6010   -1.6243 H   0  0  0  0  0  0  0  0  0  0  0  0
   -0.9667    2.7574   -1.5818 C   0  0  0  0  0  0  0  0  0  0  0  0
   -2.0185    2.8006   -1.8737 H   0  0  0  0  0  0  0  0  0  0  0  0
   -0.7693    3.5500   -0.8562 H   0  0  0  0  0  0  0  0  0  0  0  0
   -0.1161    2.9559   -2.7734 N   0  3  0  0  0  0  0  0  0  0  0  0
    0.5514    2.2319   -2.9776 H   0  0  0  0  0  0  0  0  0  0  0  0
   -0.1500    3.9925   -3.5940 C   0  0  0  0  0  0  0  0  0  0  0  0
   -0.9761    4.9861   -3.4218 N   0  0  0  0  0  0  0  0  0  0  0  0
   -1.6074    4.9606   -2.6407 H   0  0  0  0  0  0  0  0  0  0  0  0
   -0.9887    5.7654   -4.0538 H   0  0  0  0  0  0  0  0  0  0  0  0
    0.6563    4.0521   -4.6155 N   0  0  0  0  0  0  0  0  0  0  0  0
    1.3113    3.3094   -4.7898 H   0  0  0  0  0  0  0  0  0  0  0  0
    0.6272    4.8402   -5.2356 H   0  0  0  0  0  0  0  0  0  0  0  0
   -0.9523    0.1012    2.4848 C   0  0  0  0  0  0  0  0  0  0  0  0
    0.2133   -0.1319    2.7814 O   0  0  0  0  0  0  0  0  0  0  0  0
   -1.8684    0.5006    3.3725 N   0  0  0  0  0  0  0  0  0  0  0  0
   -2.7946    0.7048    3.0343 H   0  0  0  0  0  0  0  0  0  0  0  0
   -1.5848    0.7472    4.7873 C   0  0  0  0  0  0  0  0  0  0  0  0
   -0.8819    1.5774    4.8838 H   0  0  0  0  0  0  0  0  0  0  0  0
   -2.5030    0.9948    5.3214 H   0  0  0  0  0  0  0  0  0  0  0  0
   -1.1344   -0.1399    5.2381 H   0  0  0  0  0  0  0  0  0  0  0  0
  5  6  2  0  0  0  0
  5  7  1  0  0  0  0
  2  3  1  0  0  0  0
  2  4  1  0  0  0  0
  2  5  1  0  0  0  0
  1  2  1  0  0  0  0
 29 30  2  0  0  0  0
 29 31  1  0  0  0  0
 26 27  1  0  0  0  0
 26 28  1  0  0  0  0
 23 24  1  0  0  0  0
 23 25  1  0  0  0  0
 22 23  1  0  0  0  0
 22 26  1  0  0  0  0
 20 21  1  0  0  0  0
 20 22  2  0  0  0  0
 17 18  1  0  0  0  0
 17 19  1  0  0  0  0
 17 20  1  0  0  0  0
 14 15  1  0  0  0  0
 14 16  1  0  0  0  0
 14 17  1  0  0  0  0
 11 12  1  0  0  0  0
 11 13  1  0  0  0  0
 11 14  1  0  0  0  0
  9 10  1  0  0  0  0
  9 11  1  0  0  0  0
  9 29  1  0  0  0  0
  7  8  1  0  0  0  0
  7  9  1  0  0  0  0
 33 34  1  0  0  0  0
 33 35  1  0  0  0  0
 33 36  1  0  0  0  0
 31 32  1  0  0  0  0
 31 33  1  0  0  0  0
M  CHG  1  20   1
M  END
$$$$
default_name
  -OEChem-02102213163D

 36 35  0     1  0  0  0  0  0999 V2000
   -4.2256   -3.6731    1.8584 H   0  0  0  0  0  0  0  0  0  0  0  0
   -4.2396   -2.6781    1.4144 C   0  0  0  0  0  0  0  0  0  0  0  0
   -4.9506   -2.0521    1.9514 H   0  0  0  0  0  0  0  0  0  0  0  0
   -4.5266   -2.7521    0.3674 H   0  0  0  0  0  0  0  0  0  0  0  0
   -2.8576   -2.0761    1.5184 C   0  0  0  0  0  0  0  0  0  0  0  0
   -1.9456   -2.7051    2.0404 O   0  0  0  0  0  0  0  0  0  0  0  0
   -2.6926   -0.8481    1.0174 N   0  0  0  0  0  0  0  0  0  0  0  0
   -3.4926   -0.3971    0.5954 H   0  0  0  0  0  0  0  0  0  0  0  0
   -1.4216   -0.1071    1.0434 C   0  0  1  0  0  0  0  0  0  0  0  0
   -0.6709   -0.6930    0.5106 H   0  0  0  0  0  0  0  0  0  0  0  0
   -1.6221    1.2315    0.3051 C   0  0  0  0  0  0  0  0  0  0  0  0
   -2.6569    1.2882   -0.0385 H   0  0  0  0  0  0  0  0  0  0  0  0
   -1.4512    2.0535    1.0038 H   0  0  0  0  0  0  0  0  0  0  0  0
   -0.6998    1.4032   -0.9107 C   0  0  0  0  0  0  0  0  0  0  0  0
    0.3154    1.1014   -0.6492 H   0  0  0  0  0  0  0  0  0  0  0  0
   -1.0616    0.7797   -1.7289 H   0  0  0  0  0  0  0  0  0  0  0  0
   -0.6888    2.8723   -1.3548 C   0  0  0  0  0  0  0  0  0  0  0  0
   -1.7125    3.1734   -1.5889 H   0  0  0  0  0  0  0  0  0  0  0  0
   -0.3223    3.4832   -0.5265 H   0  0  0  0  0  0  0  0  0  0  0  0
    0.1692    3.0806   -2.5394 N   0  3  0  0  0  0  0  0  0  0  0  0
    0.6695    2.2781   -2.8815 H   0  0  0  0  0  0  0  0  0  0  0  0
    0.3403    4.2192   -3.1900 C   0  0  0  0  0  0  0  0  0  0  0  0
   -0.2597    5.3194   -2.8313 N   0  0  0  0  0  0  0  0  0  0  0  0
   -0.8726    5.2989   -2.0355 H   0  0  0  0  0  0  0  0  0  0  0  0
   -0.1186    6.1752   -3.3359 H   0  0  0  0  0  0  0  0  0  0  0  0
    1.1285    4.2752   -4.2259 N   0  0  0  0  0  0  0  0  0  0  0  0
    1.6130    3.4524   -4.5407 H   0  0  0  0  0  0  0  0  0  0  0  0
    1.2554    5.1410   -4.7166 H   0  0  0  0  0  0  0  0  0  0  0  0
   -0.9523    0.1012    2.4848 C   0  0  0  0  0  0  0  0  0  0  0  0
    0.2133   -0.1319    2.7814 O   0  0  0  0  0  0  0  0  0  0  0  0
   -1.8684    0.5006    3.3725 N   0  0  0  0  0  0  0  0  0  0  0  0
   -2.7946    0.7048    3.0343 H   0  0  0  0  0  0  0  0  0  0  0  0
   -1.5848    0.7472    4.7873 C   0  0  0  0  0  0  0  0  0  0  0  0
   -0.8819    1.5774    4.8838 H   0  0  0  0  0  0  0  0  0  0  0  0
   -2.5030    0.9948    5.3214 H   0  0  0  0  0  0  0  0  0  0  0  0
   -1.1344   -0.1399    5.2381 H   0  0  0  0  0  0  0  0  0  0  0  0
  5  6  2  0  0  0  0
  5  7  1  0  0  0  0
  2  3  1  0  0  0  0
  2  4  1  0  0  0  0
  2  5  1  0  0  0  0
  1  2  1  0  0  0  0
 29 30  2  0  0  0  0
 29 31  1  0  0  0  0
 26 27  1  0  0  0  0
 26 28  1  0  0  0  0
 23 24  1  0  0  0  0
 23 25  1  0  0  0  0
 22 23  1  0  0  0  0
 22 26  1  0  0  0  0
 20 21  1  0  0  0  0
 20 22  2  0  0  0  0
 17 18  1  0  0  0  0
 17 19  1  0  0  0  0
 17 20  1  0  0  0  0
 14 15  1  0  0  0  0
 14 16  1  0  0  0  0
 14 17  1  0  0  0  0
 11 12  1  0  0  0  0
 11 13  1  0  0  0  0
 11 14  1  0  0  0  0
  9 10  1  0  0  0  0
  9 11  1  0  0  0  0
  9 29  1  0  0  0  0
  7  8  1  0  0  0  0
  7  9  1  0  0  0  0
 33 34  1  0  0  0  0
 33 35  1  0  0  0  0
 33 36  1  0  0  0  0
 31 32  1  0  0  0  0
 31 33  1  0  0  0  0
M  CHG  1  20   1
M  END
$$$$
default_name
  -OEChem-02102213163D

 36 35  0     1  0  0  0  0  0999 V2000
   -4.2256   -3.6731    1.8584 H   0  0  0  0  0  0  0  0  0  0  0  0
   -4.2396   -2.6781    1.4144 C   0  0  0  0  0  0  0  0  0  0  0  0
   -4.9506   -2.0521    1.9514 H   0  0  0  0  0  0  0  0  0  0  0  0
   -4.5266   -2.7521    0.3674 H   0  0  0  0  0  0  0  0  0  0  0  0
   -2.8576   -2.0761    1.5184 C   0  0  0  0  0  0  0  0  0  0  0  0
   -1.9456   -2.7051    2.0404 O   0  0  0  0  0  0  0  0  0  0  0  0
   -2.6926   -0.8481    1.0174 N   0  0  0  0  0  0  0  0  0  0  0  0
   -3.4926   -0.3971    0.5954 H   0  0  0  0  0  0  0  0  0  0  0  0
   -1.4216   -0.1071    1.0434 C   0  0  1  0  0  0  0  0  0  0  0  0
   -0.6709   -0.6930    0.5106 H   0  0  0  0  0  0  0  0  0  0  0  0
   -1.6221    1.2315    0.3051 C   0  0  0  0  0  0  0  0  0  0  0  0
   -2.6569    1.2882   -0.0385 H   0  0  0  0  0  0  0  0  0  0  0  0
   -1.4512    2.0535    1.0038 H   0  0  0  0  0  0  0  0  0  0  0  0
   -0.6998    1.4032   -0.9107 C   0  0  0  0  0  0  0  0  0  0  0  0
    0.2341    0.8644   -0.7444 H   0  0  0  0  0  0  0  0  0  0  0  0
   -1.1933    1.0036   -1.7972 H   0  0  0  0  0  0  0  0  0  0  0  0
   -0.3903    2.8910   -1.1258 C   0  0  0  0  0  0  0  0  0  0  0  0
   -1.3323    3.4265   -1.2648 H   0  0  0  0  0  0  0  0  0  0  0  0
    0.1054    3.2758   -0.2314 H   0  0  0  0  0  0  0  0  0  0  0  0
    0.4771    3.1061   -2.3022 N   0  3  0  0  0  0  0  0  0  0  0  0
    0.7958    2.2835   -2.7849 H   0  0  0  0  0  0  0  0  0  0  0  0
    0.8721    4.2748   -2.7788 C   0  0  0  0  0  0  0  0  0  0  0  0
    0.5177    5.4028   -2.2299 N   0  0  0  0  0  0  0  0  0  0  0  0
   -0.0760    5.3811   -1.4196 H   0  0  0  0  0  0  0  0  0  0  0  0
    0.8266    6.2812   -2.6039 H   0  0  0  0  0  0  0  0  0  0  0  0
    1.6415    4.3334   -3.8285 N   0  0  0  0  0  0  0  0  0  0  0  0
    1.9410    3.4900   -4.2866 H   0  0  0  0  0  0  0  0  0  0  0  0
    1.9388    5.2222   -4.1868 H   0  0  0  0  0  0  0  0  0  0  0  0
   -0.9523    0.1012    2.4848 C   0  0  0  0  0  0  0  0  0  0  0  0
    0.2133   -0.1319    2.7814 O   0  0  0  0  0  0  0  0  0  0  0  0
   -1.8684    0.5006    3.3725 N   0  0  0  0  0  0  0  0  0  0  0  0
   -2.7946    0.7048    3.0343 H   0  0  0  0  0  0  0  0  0  0  0  0
   -1.5848    0.7472    4.7873 C   0  0  0  0  0  0  0  0  0  0  0  0
   -0.8819    1.5774    4.8838 H   0  0  0  0  0  0  0  0  0  0  0  0
   -2.5030    0.9948    5.3214 H   0  0  0  0  0  0  0  0  0  0  0  0
   -1.1344   -0.1399    5.2381 H   0  0  0  0  0  0  0  0  0  0  0  0
  5  6  2  0  0  0  0
  5  7  1  0  0  0  0
  2  3  1  0  0  0  0
  2  4  1  0  0  0  0
  2  5  1  0  0  0  0
  1  2  1  0  0  0  0
 29 30  2  0  0  0  0
 29 31  1  0  0  0  0
 26 27  1  0  0  0  0
 26 28  1  0  0  0  0
 23 24  1  0  0  0  0
 23 25  1  0  0  0  0
 22 23  1  0  0  0  0
 22 26  1  0  0  0  0
 20 21  1  0  0  0  0
 20 22  2  0  0  0  0
 17 18  1  0  0  0  0
 17 19  1  0  0  0  0
 17 20  1  0  0  0  0
 14 15  1  0  0  0  0
 14 16  1  0  0  0  0
 14 17  1  0  0  0  0
 11 12  1  0  0  0  0
 11 13  1  0  0  0  0
 11 14  1  0  0  0  0
  9 10  1  0  0  0  0
  9 11  1  0  0  0  0
  9 29  1  0  0  0  0
  7  8  1  0  0  0  0
  7  9  1  0  0  0  0
 33 34  1  0  0  0  0
 33 35  1  0  0  0  0
 33 36  1  0  0  0  0
 31 32  1  0  0  0  0
 31 33  1  0  0  0  0
M  CHG  1  20   1
M  END
$$$$
default_name
  -OEChem-02102213163D

 36 35  0     1  0  0  0  0  0999 V2000
   -4.2256   -3.6731    1.8584 H   0  0  0  0  0  0  0  0  0  0  0  0
   -4.2396   -2.6781    1.4144 C   0  0  0  0  0  0  0  0  0  0  0  0
   -4.9506   -2.0521    1.9514 H   0  0  0  0  0  0  0  0  0  0  0  0
   -4.5266   -2.7521    0.3674 H   0  0  0  0  0  0  0  0  0  0  0  0
   -2.8576   -2.0761    1.5184 C   0  0  0  0  0  0  0  0  0  0  0  0
   -1.9456   -2.7051    2.0404 O   0  0  0  0  0  0  0  0  0  0  0  0
   -2.6926   -0.8481    1.0174 N   0  0  0  0  0  0  0  0  0  0  0  0
   -3.4926   -0.3971    0.5954 H   0  0  0  0  0  0  0  0  0  0  0  0
   -1.4216   -0.1071    1.0434 C   0  0  1  0  0  0  0  0  0  0  0  0
   -0.6709   -0.6930    0.5106 H   0  0  0  0  0  0  0  0  0  0  0  0
   -1.6221    1.2315    0.3051 C   0  0  0  0  0  0  0  0  0  0  0  0
   -2.6569    1.2882   -0.0385 H   0  0  0  0  0  0  0  0  0  0  0  0
   -1.4512    2.0535    1.0038 H   0  0  0  0  0  0  0  0  0  0  0  0
   -0.6998    1.4032   -0.9107 C   0  0  0  0  0  0  0  0  0  0  0  0
    0.1042    0.6670   -0.8708 H   0  0  0  0  0  0  0  0  0  0  0  0
   -1.2767    1.2575   -1.8245 H   0  0  0  0  0  0  0  0  0  0  0  0
   -0.0915    2.8123   -0.9102 C   0  0  0  0  0  0  0  0  0  0  0  0
   -0.9038    3.5427   -0.9233 H   0  0  0  0  0  0  0  0  0  0  0  0
    0.4845    2.9420    0.0090 H   0  0  0  0  0  0  0  0  0  0  0  0
    0.7866    3.0309   -2.0781 N   0  3  0  0  0  0  0  0  0  0  0  0
    0.9218    2.2478   -2.6944 H   0  0  0  0  0  0  0  0  0  0  0  0
    1.4091    4.1557   -2.3883 C   0  0  0  0  0  0  0  0  0  0  0  0
    1.3030    5.2306   -1.6584 N   0  0  0  0  0  0  0  0  0  0  0  0
    0.7281    5.2015   -0.8350 H   0  0  0  0  0  0  0  0  0  0  0  0
    1.7825    6.0761   -1.9078 H   0  0  0  0  0  0  0  0  0  0  0  0
    2.1604    4.2228   -3.4504 N   0  0  0  0  0  0  0  0  0  0  0  0
    2.2728    3.4196   -4.0448 H   0  0  0  0  0  0  0  0  0  0  0  0
    2.6308    5.0781   -3.6821 H   0  0  0  0  0  0  0  0  0  0  0  0
   -0.9523    0.1012    2.4848 C   0  0  0  0  0  0  0  0  0  0  0  0
    0.2133   -0.1319    2.7814 O   0  0  0  0  0  0  0  0  0  0  0  0
   -1.8684    0.5006    3.3725 N   0  0  0  0  0  0  0  0  0  0  0  0
   -2.7946    0.7048    3.0343 H   0  0  0  0  0  0  0  0  0  0  0  0
   -1.5848    0.7472    4.7873 C   0  0  0  0  0  0  0  0  0  0  0  0
   -0.8819    1.5774    4.8838 H   0  0  0  0  0  0  0  0  0  0  0  0
   -2.5030    0.9948    5.3214 H   0  0  0  0  0  0  0  0  0  0  0  0
   -1.1344   -0.1399    5.2381 H   0  0  0  0  0  0  0  0  0  0  0  0
  5  6  2  0  0  0  0
  5  7  1  0  0  0  0
  2  3  1  0  0  0  0
  2  4  1  0  0  0  0
  2  5  1  0  0  0  0
  1  2  1  0  0  0  0
 29 30  2  0  0  0  0
 29 31  1  0  0  0  0
 26 27  1  0  0  0  0
 26 28  1  0  0  0  0
 23 24  1  0  0  0  0
 23 25  1  0  0  0  0
 22 23  1  0  0  0  0
 22 26  1  0  0  0  0
 20 21  1  0  0  0  0
 20 22  2  0  0  0  0
 17 18  1  0  0  0  0
 17 19  1  0  0  0  0
 17 20  1  0  0  0  0
 14 15  1  0  0  0  0
 14 16  1  0  0  0  0
 14 17  1  0  0  0  0
 11 12  1  0  0  0  0
 11 13  1  0  0  0  0
 11 14  1  0  0  0  0
  9 10  1  0  0  0  0
  9 11  1  0  0  0  0
  9 29  1  0  0  0  0
  7  8  1  0  0  0  0
  7  9  1  0  0  0  0
 33 34  1  0  0  0  0
 33 35  1  0  0  0  0
 33 36  1  0  0  0  0
 31 32  1  0  0  0  0
 31 33  1  0  0  0  0
M  CHG  1  20   1
M  END
$$$$
default_name
  -OEChem-02102213163D

 36 35  0     1  0  0  0  0  0999 V2000
   -4.2256   -3.6731    1.8584 H   0  0  0  0  0  0  0  0  0  0  0  0
   -4.2396   -2.6781    1.4144 C   0  0  0  0  0  0  0  0  0  0  0  0
   -4.9506   -2.0521    1.9514 H   0  0  0  0  0  0  0  0  0  0  0  0
   -4.5266   -2.7521    0.3674 H   0  0  0  0  0  0  0  0  0  0  0  0
   -2.8576   -2.0761    1.5184 C   0  0  0  0  0  0  0  0  0  0  0  0
   -1.9456   -2.7051    2.0404 O   0  0  0  0  0  0  0  0  0  0  0  0
   -2.6926   -0.8481    1.0174 N   0  0  0  0  0  0  0  0  0  0  0  0
   -3.4926   -0.3971    0.5954 H   0  0  0  0  0  0  0  0  0  0  0  0
   -1.4216   -0.1071    1.0434 C   0  0  1  0  0  0  0  0  0  0  0  0
   -0.6709   -0.6930    0.5106 H   0  0  0  0  0  0  0  0  0  0  0  0
   -1.6221    1.2315    0.3051 C   0  0  0  0  0  0  0  0  0  0  0  0
   -2.6569    1.2882   -0.0385 H   0  0  0  0  0  0  0  0  0  0  0  0
   -1.4512    2.0535    1.0038 H   0  0  0  0  0  0  0  0  0  0  0  0
   -0.6998    1.4032   -0.9107 C   0  0  0  0  0  0  0  0  0  0  0  0
   -0.0653    0.5225   -1.0198 H   0  0  0  0  0  0  0  0  0  0  0  0
   -1.3059    1.5241   -1.8090 H   0  0  0  0  0  0  0  0  0  0  0  0
    0.1872    2.6416   -0.7229 C   0  0  0  0  0  0  0  0  0  0  0  0
   -0.4562    3.5140   -0.5879 H   0  0  0  0  0  0  0  0  0  0  0  0
    0.7892    2.5046    0.1784 H   0  0  0  0  0  0  0  0  0  0  0  0
    1.0766    2.8599   -1.8823 N   0  3  0  0  0  0  0  0  0  0  0  0
    1.0387    2.1734   -2.6162 H   0  0  0  0  0  0  0  0  0  0  0  0
    1.9146    3.8699   -2.0451 C   0  0  0  0  0  0  0  0  0  0  0  0
    2.0429    4.8145   -1.1559 N   0  0  0  0  0  0  0  0  0  0  0  0
    1.4850    4.7724   -0.3215 H   0  0  0  0  0  0  0  0  0  0  0  0
    2.6839    5.5738   -1.2949 H   0  0  0  0  0  0  0  0  0  0  0  0
    2.6500    3.9508   -3.1175 N   0  0  0  0  0  0  0  0  0  0  0  0
    2.5859    3.2461   -3.8318 H   0  0  0  0  0  0  0  0  0  0  0  0
    3.2844    4.7188   -3.2371 H   0  0  0  0  0  0  0  0  0  0  0  0
   -0.9523    0.1012    2.4848 C   0  0  0  0  0  0  0  0  0  0  0  0
    0.2133   -0.1319    2.7814 O   0  0  0  0  0  0  0  0  0  0  0  0
   -1.8684    0.5006    3.3725 N   0  0  0  0  0  0  0  0  0  0  0  0
   -2.7946    0.7048    3.0343 H   0  0  0  0  0  0  0  0  0  0  0  0
   -1.5848    0.7472    4.7873 C   0  0  0  0  0  0  0  0  0  0  0  0
   -0.8819    1.5774    4.8838 H   0  0  0  0  0  0  0  0  0  0  0  0
   -2.5030    0.9948    5.3214 H   0  0  0  0  0  0  0  0  0  0  0  0
   -1.1344   -0.1399    5.2381 H   0  0  0  0  0  0  0  0  0  0  0  0
  5  6  2  0  0  0  0
  5  7  1  0  0  0  0
  2  3  1  0  0  0  0
  2  4  1  0  0  0  0
  2  5  1  0  0  0  0
  1  2  1  0  0  0  0
 29 30  2  0  0  0  0
 29 31  1  0  0  0  0
 26 27  1  0  0  0  0
 26 28  1  0  0  0  0
 23 24  1  0  0  0  0
 23 25  1  0  0  0  0
 22 23  1  0  0  0  0
 22 26  1  0  0  0  0
 20 21  1  0  0  0  0
 20 22  2  0  0  0  0
 17 18  1  0  0  0  0
 17 19  1  0  0  0  0
 17 20  1  0  0  0  0
 14 15  1  0  0  0  0
 14 16  1  0  0  0  0
 14 17  1  0  0  0  0
 11 12  1  0  0  0  0
 11 13  1  0  0  0  0
 11 14  1  0  0  0  0
  9 10  1  0  0  0  0
  9 11  1  0  0  0  0
  9 29  1  0  0  0  0
  7  8  1  0  0  0  0
  7  9  1  0  0  0  0
 33 34  1  0  0  0  0
 33 35  1  0  0  0  0
 33 36  1  0  0  0  0
 31 32  1  0  0  0  0
 31 33  1  0  0  0  0
M  CHG  1  20   1
M  END
$$$$
default_name
  -OEChem-02102213163D

 36 35  0     1  0  0  0  0  0999 V2000
   -4.2256   -3.6731    1.8584 H   0  0  0  0  0  0  0  0  0  0  0  0
   -4.2396   -2.6781    1.4144 C   0  0  0  0  0  0  0  0  0  0  0  0
   -4.9506   -2.0521    1.9514 H   0  0  0  0  0  0  0  0  0  0  0  0
   -4.5266   -2.7521    0.3674 H   0  0  0  0  0  0  0  0  0  0  0  0
   -2.8576   -2.0761    1.5184 C   0  0  0  0  0  0  0  0  0  0  0  0
   -1.9456   -2.7051    2.0404 O   0  0  0  0  0  0  0  0  0  0  0  0
   -2.6926   -0.8481    1.0174 N   0  0  0  0  0  0  0  0  0  0  0  0
   -3.4926   -0.3971    0.5954 H   0  0  0  0  0  0  0  0  0  0  0  0
   -1.4216   -0.1071    1.0434 C   0  0  1  0  0  0  0  0  0  0  0  0
   -0.6709   -0.6930    0.5106 H   0  0  0  0  0  0  0  0  0  0  0  0
   -1.6221    1.2315    0.3051 C   0  0  0  0  0  0  0  0  0  0  0  0
   -2.6569    1.2882   -0.0385 H   0  0  0  0  0  0  0  0  0  0  0  0
   -1.4512    2.0535    1.0038 H   0  0  0  0  0  0  0  0  0  0  0  0
   -0.6998    1.4032   -0.9107 C   0  0  0  0  0  0  0  0  0  0  0  0
   -0.2630    0.4409   -1.1813 H   0  0  0  0  0  0  0  0  0  0  0  0
   -1.2791    1.7852   -1.7518 H   0  0  0  0  0  0  0  0  0  0  0  0
    0.4268    2.3904   -0.5766 C   0  0  0  0  0  0  0  0  0  0  0  0
   -0.0200    3.3425   -0.2812 H   0  0  0  0  0  0  0  0  0  0  0  0
    0.9989    1.9932    0.2652 H   0  0  0  0  0  0  0  0  0  0  0  0
    1.3273    2.6049   -1.7281 N   0  3  0  0  0  0  0  0  0  0  0  0
    1.1387    2.0655   -2.5556 H   0  0  0  0  0  0  0  0  0  0  0  0
    2.3543    3.4370   -1.7727 C   0  0  0  0  0  0  0  0  0  0  0  0
    2.6869    4.1828   -0.7567 N   0  0  0  0  0  0  0  0  0  0  0  0
    2.1430    4.1229    0.0859 H   0  0  0  0  0  0  0  0  0  0  0  0
    3.4695    4.8088   -0.8071 H   0  0  0  0  0  0  0  0  0  0  0  0
    3.0768    3.5360   -2.8523 N   0  0  0  0  0  0  0  0  0  0  0  0
    2.8590    2.9812   -3.6621 H   0  0  0  0  0  0  0  0  0  0  0  0
    3.8550    4.1686   -2.8820 H   0  0  0  0  0  0  0  0  0  0  0  0
   -0.9523    0.1012    2.4848 C   0  0  0  0  0  0  0  0  0  0  0  0
    0.2133   -0.1319    2.7814 O   0  0  0  0  0  0  0  0  0  0  0  0
   -1.8684    0.5006    3.3725 N   0  0  0  0  0  0  0  0  0  0  0  0
   -2.7946    0.7048    3.0343 H   0  0  0  0  0  0  0  0  0  0  0  0
   -1.5848    0.7472    4.7873 C   0  0  0  0  0  0  0  0  0  0  0  0
   -0.8819    1.5774    4.8838 H   0  0  0  0  0  0  0  0  0  0  0  0
   -2.5030    0.9948    5.3214 H   0  0  0  0  0  0  0  0  0  0  0  0
   -1.1344   -0.1399    5.2381 H   0  0  0  0  0  0  0  0  0  0  0  0
  5  6  2  0  0  0  0
  5  7  1  0  0  0  0
  2  3  1  0  0  0  0
  2  4  1  0  0  0  0
  2  5  1  0  0  0  0
  1  2  1  0  0  0  0
 29 30  2  0  0  0  0
 29 31  1  0  0  0  0
 26 27  1  0  0  0  0
 26 28  1  0  0  0  0
 23 24  1  0  0  0  0
 23 25  1  0  0  0  0
 22 23  1  0  0  0  0
 22 26  1  0  0  0  0
 20 21  1  0  0  0  0
 20 22  2  0  0  0  0
 17 18  1  0  0  0  0
 17 19  1  0  0  0  0
 17 20  1  0  0  0  0
 14 15  1  0  0  0  0
 14 16  1  0  0  0  0
 14 17  1  0  0  0  0
 11 12  1  0  0  0  0
 11 13  1  0  0  0  0
 11 14  1  0  0  0  0
  9 10  1  0  0  0  0
  9 11  1  0  0  0  0
  9 29  1  0  0  0  0
  7  8  1  0  0  0  0
  7  9  1  0  0  0  0
 33 34  1  0  0  0  0
 33 35  1  0  0  0  0
 33 36  1  0  0  0  0
 31 32  1  0  0  0  0
 31 33  1  0  0  0  0
M  CHG  1  20   1
M  END
$$$$
default_name
  -OEChem-02102213163D

 36 35  0     1  0  0  0  0  0999 V2000
   -4.2256   -3.6731    1.8584 H   0  0  0  0  0  0  0  0  0  0  0  0
   -4.2396   -2.6781    1.4144 C   0  0  0  0  0  0  0  0  0  0  0  0
   -4.9506   -2.0521    1.9514 H   0  0  0  0  0  0  0  0  0  0  0  0
   -4.5266   -2.7521    0.3674 H   0  0  0  0  0  0  0  0  0  0  0  0
   -2.8576   -2.0761    1.5184 C   0  0  0  0  0  0  0  0  0  0  0  0
   -1.9456   -2.7051    2.0404 O   0  0  0  0  0  0  0  0  0  0  0  0
   -2.6926   -0.8481    1.0174 N   0  0  0  0  0  0  0  0  0  0  0  0
   -3.4926   -0.3971    0.5954 H   0  0  0  0  0  0  0  0  0  0  0  0
   -1.4216   -0.1071    1.0434 C   0  0  1  0  0  0  0  0  0  0  0  0
   -0.6709   -0.6930    0.5106 H   0  0  0  0  0  0  0  0  0  0  0  0
   -1.6221    1.2315    0.3051 C   0  0  0  0  0  0  0  0  0  0  0  0
   -2.6569    1.2882   -0.0385 H   0  0  0  0  0  0  0  0  0  0  0  0
   -1.4512    2.0535    1.0038 H   0  0  0  0  0  0  0  0  0  0  0  0
   -0.6998    1.4032   -0.9107 C   0  0  0  0  0  0  0  0  0  0  0  0
   -0.4754    0.4277   -1.3442 H   0  0  0  0  0  0  0  0  0  0  0  0
   -1.1981    2.0231   -1.6567 H   0  0  0  0  0  0  0  0  0  0  0  0
    0.6111    2.0760   -0.4812 C   0  0  0  0  0  0  0  0  0  0  0  0
    0.3750    3.0398   -0.0243 H   0  0  0  0  0  0  0  0  0  0  0  0
    1.0991    1.4429    0.2635 H   0  0  0  0  0  0  0  0  0  0  0  0
    1.5217    2.2833   -1.6260 N   0  3  0  0  0  0  0  0  0  0  0  0
    1.2149    1.9314   -2.5167 H   0  0  0  0  0  0  0  0  0  0  0  0
    2.6982    2.8863   -1.5897 C   0  0  0  0  0  0  0  0  0  0  0  0
    3.1910    3.3787   -0.4879 N   0  0  0  0  0  0  0  0  0  0  0  0
    2.6573    3.2975    0.3595 H   0  0  0  0  0  0  0  0  0  0  0  0
    4.0856    3.8330   -0.4775 H   0  0  0  0  0  0  0  0  0  0  0  0
    3.4117    3.0067   -2.6730 N   0  0  0  0  0  0  0  0  0  0  0  0
    3.0734    2.6430   -3.5472 H   0  0  0  0  0  0  0  0  0  0  0  0
    4.3036    3.4650   -2.6411 H   0  0  0  0  0  0  0  0  0  0  0  0
   -0.9523    0.1012    2.4848 C   0  0  0  0  0  0  0  0  0  0  0  0
    0.2133   -0.1319    2.7814 O   0  0  0  0  0  0  0  0  0  0  0  0
   -1.8684    0.5006    3.3725 N   0  0  0  0  0  0  0  0  0  0  0  0
   -2.7946    0.7048    3.0343 H   0  0  0  0  0  0  0  0  0  0  0  0
   -1.5848    0.7472    4.7873 C   0  0  0  0  0  0  0  0  0  0  0  0
   -0.8819    1.5774    4.8838 H   0  0  0  0  0  0  0  0  0  0  0  0
   -2.5030    0.9948    5.3214 H   0  0  0  0  0  0  0  0  0  0  0  0
   -1.1344   -0.1399    5.2381 H   0  0  0  0  0  0  0  0  0  0  0  0
  5  6  2  0  0  0  0
  5  7  1  0  0  0  0
  2  3  1  0  0  0  0
  2  4  1  0  0  0  0
  2  5  1  0  0  0  0
  1  2  1  0  0  0  0
 29 30  2  0  0  0  0
 29 31  1  0  0  0  0
 26 27  1  0  0  0  0
 26 28  1  0  0  0  0
 23 24  1  0  0  0  0
 23 25  1  0  0  0  0
 22 23  1  0  0  0  0
 22 26  1  0  0  0  0
 20 21  1  0  0  0  0
 20 22  2  0  0  0  0
 17 18  1  0  0  0  0
 17 19  1  0  0  0  0
 17 20  1  0  0  0  0
 14 15  1  0  0  0  0
 14 16  1  0  0  0  0
 14 17  1  0  0  0  0
 11 12  1  0  0  0  0
 11 13  1  0  0  0  0
 11 14  1  0  0  0  0
  9 10  1  0  0  0  0
  9 11  1  0  0  0  0
  9 29  1  0  0  0  0
  7  8  1  0  0  0  0
  7  9  1  0  0  0  0
 33 34  1  0  0  0  0
 33 35  1  0  0  0  0
 33 36  1  0  0  0  0
 31 32  1  0  0  0  0
 31 33  1  0  0  0  0
M  CHG  1  20   1
M  END
$$$$
default_name
  -OEChem-02102213163D

 36 35  0     1  0  0  0  0  0999 V2000
   -4.2256   -3.6731    1.8584 H   0  0  0  0  0  0  0  0  0  0  0  0
   -4.2396   -2.6781    1.4144 C   0  0  0  0  0  0  0  0  0  0  0  0
   -4.9506   -2.0521    1.9514 H   0  0  0  0  0  0  0  0  0  0  0  0
   -4.5266   -2.7521    0.3674 H   0  0  0  0  0  0  0  0  0  0  0  0
   -2.8576   -2.0761    1.5184 C   0  0  0  0  0  0  0  0  0  0  0  0
   -1.9456   -2.7051    2.0404 O   0  0  0  0  0  0  0  0  0  0  0  0
   -2.6926   -0.8481    1.0174 N   0  0  0  0  0  0  0  0  0  0  0  0
   -3.4926   -0.3971    0.5954 H   0  0  0  0  0  0  0  0  0  0  0  0
   -1.4216   -0.1071    1.0434 C   0  0  1  0  0  0  0  0  0  0  0  0
   -0.6709   -0.6930    0.5106 H   0  0  0  0  0  0  0  0  0  0  0  0
   -1.6221    1.2315    0.3051 C   0  0  0  0  0  0  0  0  0  0  0  0
   -2.6569    1.2882   -0.0385 H   0  0  0  0  0  0  0  0  0  0  0  0
   -1.4512    2.0535    1.0038 H   0  0  0  0  0  0  0  0  0  0  0  0
   -0.6998    1.4032   -0.9107 C   0  0  0  0  0  0  0  0  0  0  0  0
   -0.6879    0.4837   -1.4975 H   0  0  0  0  0  0  0  0  0  0  0  0
   -1.0683    2.2214   -1.5303 H   0  0  0  0  0  0  0  0  0  0  0  0
    0.7274    1.7197   -0.4433 C   0  0  0  0  0  0  0  0  0  0  0  0
    0.7020    2.6265    0.1653 H   0  0  0  0  0  0  0  0  0  0  0  0
    1.0831    0.8910    0.1734 H   0  0  0  0  0  0  0  0  0  0  0  0
    1.6466    1.9169   -1.5831 N   0  3  0  0  0  0  0  0  0  0  0  0
    1.2622    1.7801   -2.5022 H   0  0  0  0  0  0  0  0  0  0  0  0
    2.9228    2.2555   -1.5084 C   0  0  0  0  0  0  0  0  0  0  0  0
    3.5209    2.4569   -0.3678 N   0  0  0  0  0  0  0  0  0  0  0  0
    2.9928    2.3523    0.4805 H   0  0  0  0  0  0  0  0  0  0  0  0
    4.4903    2.7130   -0.3287 H   0  0  0  0  0  0  0  0  0  0  0  0
    3.6319    2.3990   -2.5918 N   0  0  0  0  0  0  0  0  0  0  0  0
    3.2145    2.2545   -3.4951 H   0  0  0  0  0  0  0  0  0  0  0  0
    4.5998    2.6560   -2.5307 H   0  0  0  0  0  0  0  0  0  0  0  0
   -0.9523    0.1012    2.4848 C   0  0  0  0  0  0  0  0  0  0  0  0
    0.2133   -0.1319    2.7814 O   0  0  0  0  0  0  0  0  0  0  0  0
   -1.8684    0.5006    3.3725 N   0  0  0  0  0  0  0  0  0  0  0  0
   -2.7946    0.7048    3.0343 H   0  0  0  0  0  0  0  0  0  0  0  0
   -1.5848    0.7472    4.7873 C   0  0  0  0  0  0  0  0  0  0  0  0
   -0.8819    1.5774    4.8838 H   0  0  0  0  0  0  0  0  0  0  0  0
   -2.5030    0.9948    5.3214 H   0  0  0  0  0  0  0  0  0  0  0  0
   -1.1344   -0.1399    5.2381 H   0  0  0  0  0  0  0  0  0  0  0  0
  5  6  2  0  0  0  0
  5  7  1  0  0  0  0
  2  3  1  0  0  0  0
  2  4  1  0  0  0  0
  2  5  1  0  0  0  0
  1  2  1  0  0  0  0
 29 30  2  0  0  0  0
 29 31  1  0  0  0  0
 26 27  1  0  0  0  0
 26 28  1  0  0  0  0
 23 24  1  0  0  0  0
 23 25  1  0  0  0  0
 22 23  1  0  0  0  0
 22 26  1  0  0  0  0
 20 21  1  0  0  0  0
 20 22  2  0  0  0  0
 17 18  1  0  0  0  0
 17 19  1  0  0  0  0
 17 20  1  0  0  0  0
 14 15  1  0  0  0  0
 14 16  1  0  0  0  0
 14 17  1  0  0  0  0
 11 12  1  0  0  0  0
 11 13  1  0  0  0  0
 11 14  1  0  0  0  0
  9 10  1  0  0  0  0
  9 11  1  0  0  0  0
  9 29  1  0  0  0  0
  7  8  1  0  0  0  0
  7  9  1  0  0  0  0
 33 34  1  0  0  0  0
 33 35  1  0  0  0  0
 33 36  1  0  0  0  0
 31 32  1  0  0  0  0
 31 33  1  0  0  0  0
M  CHG  1  20   1
M  END
$$$$
default_name
  -OEChem-02102213163D

 36 35  0     1  0  0  0  0  0999 V2000
   -4.2256   -3.6731    1.8584 H   0  0  0  0  0  0  0  0  0  0  0  0
   -4.2396   -2.6781    1.4144 C   0  0  0  0  0  0  0  0  0  0  0  0
   -4.9506   -2.0521    1.9514 H   0  0  0  0  0  0  0  0  0  0  0  0
   -4.5266   -2.7521    0.3674 H   0  0  0  0  0  0  0  0  0  0  0  0
   -2.8576   -2.0761    1.5184 C   0  0  0  0  0  0  0  0  0  0  0  0
   -1.9456   -2.7051    2.0404 O   0  0  0  0  0  0  0  0  0  0  0  0
   -2.6926   -0.8481    1.0174 N   0  0  0  0  0  0  0  0  0  0  0  0
   -3.4926   -0.3971    0.5954 H   0  0  0  0  0  0  0  0  0  0  0  0
   -1.4216   -0.1071    1.0434 C   0  0  1  0  0  0  0  0  0  0  0  0
   -0.6709   -0.6930    0.5106 H   0  0  0  0  0  0  0  0  0  0  0  0
   -1.6221    1.2315    0.3051 C   0  0  0  0  0  0  0  0  0  0  0  0
   -2.6569    1.2882   -0.0385 H   0  0  0  0  0  0  0  0  0  0  0  0
   -1.4512    2.0535    1.0038 H   0  0  0  0  0  0  0  0  0  0  0  0
   -0.6998    1.4032   -0.9107 C   0  0  0  0  0  0  0  0  0  0  0  0
   -0.8862    0.6052   -1.6308 H   0  0  0  0  0  0  0  0  0  0  0  0
   -0.8986    2.3667   -1.3811 H   0  0  0  0  0  0  0  0  0  0  0  0
    0.7679    1.3458   -0.4655 C   0  0  0  0  0  0  0  0  0  0  0  0
    0.9386    2.1308    0.2748 H   0  0  0  0  0  0  0  0  0  0  0  0
    0.9519    0.3752    0.0011 H   0  0  0  0  0  0  0  0  0  0  0  0
    1.6933    1.5307   -1.6021 N   0  3  0  0  0  0  0  0  0  0  0  0
    1.2773    1.6221   -2.5131 H   0  0  0  0  0  0  0  0  0  0  0  0
    3.0129    1.5875   -1.5344 C   0  0  0  0  0  0  0  0  0  0  0  0
    3.6542    1.4802   -0.4046 N   0  0  0  0  0  0  0  0  0  0  0  0
    3.1268    1.3517    0.4408 H   0  0  0  0  0  0  0  0  0  0  0  0
    4.6561    1.5250   -0.3708 H   0  0  0  0  0  0  0  0  0  0  0  0
    3.7225    1.7541   -2.6142 N   0  0  0  0  0  0  0  0  0  0  0  0
    3.2727    1.8423   -3.5092 H   0  0  0  0  0  0  0  0  0  0  0  0
    4.7233    1.7967   -2.5584 H   0  0  0  0  0  0  0  0  0  0  0  0
   -0.9523    0.1012    2.4848 C   0  0  0  0  0  0  0  0  0  0  0  0
    0.2133   -0.1319    2.7814 O   0  0  0  0  0  0  0  0  0  0  0  0
   -1.8684    0.5006    3.3725 N   0  0  0  0  0  0  0  0  0  0  0  0
   -2.7946    0.7048    3.0343 H   0  0  0  0  0  0  0  0  0  0  0  0
   -1.5848    0.7472    4.7873 C   0  0  0  0  0  0  0  0  0  0  0  0
   -0.8819    1.5774    4.8838 H   0  0  0  0  0  0  0  0  0  0  0  0
   -2.5030    0.9948    5.3214 H   0  0  0  0  0  0  0  0  0  0  0  0
   -1.1344   -0.1399    5.2381 H   0  0  0  0  0  0  0  0  0  0  0  0
  5  6  2  0  0  0  0
  5  7  1  0  0  0  0
  2  3  1  0  0  0  0
  2  4  1  0  0  0  0
  2  5  1  0  0  0  0
  1  2  1  0  0  0  0
 29 30  2  0  0  0  0
 29 31  1  0  0  0  0
 26 27  1  0  0  0  0
 26 28  1  0  0  0  0
 23 24  1  0  0  0  0
 23 25  1  0  0  0  0
 22 23  1  0  0  0  0
 22 26  1  0  0  0  0
 20 21  1  0  0  0  0
 20 22  2  0  0  0  0
 17 18  1  0  0  0  0
 17 19  1  0  0  0  0
 17 20  1  0  0  0  0
 14 15  1  0  0  0  0
 14 16  1  0  0  0  0
 14 17  1  0  0  0  0
 11 12  1  0  0  0  0
 11 13  1  0  0  0  0
 11 14  1  0  0  0  0
  9 10  1  0  0  0  0
  9 11  1  0  0  0  0
  9 29  1  0  0  0  0
  7  8  1  0  0  0  0
  7  9  1  0  0  0  0
 33 34  1  0  0  0  0
 33 35  1  0  0  0  0
 33 36  1  0  0  0  0
 31 32  1  0  0  0  0
 31 33  1  0  0  0  0
M  CHG  1  20   1
M  END
$$$$
default_name
  -OEChem-02102213163D

 36 35  0     1  0  0  0  0  0999 V2000
   -4.2256   -3.6731    1.8584 H   0  0  0  0  0  0  0  0  0  0  0  0
   -4.2396   -2.6781    1.4144 C   0  0  0  0  0  0  0  0  0  0  0  0
   -4.9506   -2.0521    1.9514 H   0  0  0  0  0  0  0  0  0  0  0  0
   -4.5266   -2.7521    0.3674 H   0  0  0  0  0  0  0  0  0  0  0  0
   -2.8576   -2.0761    1.5184 C   0  0  0  0  0  0  0  0  0  0  0  0
   -1.9456   -2.7051    2.0404 O   0  0  0  0  0  0  0  0  0  0  0  0
   -2.6926   -0.8481    1.0174 N   0  0  0  0  0  0  0  0  0  0  0  0
   -3.4926   -0.3971    0.5954 H   0  0  0  0  0  0  0  0  0  0  0  0
   -1.4216   -0.1071    1.0434 C   0  0  1  0  0  0  0  0  0  0  0  0
   -0.6709   -0.6930    0.5106 H   0  0  0  0  0  0  0  0  0  0  0  0
   -1.6221    1.2315    0.3051 C   0  0  0  0  0  0  0  0  0  0  0  0
   -2.6569    1.2882   -0.0385 H   0  0  0  0  0  0  0  0  0  0  0  0
   -1.4512    2.0535    1.0038 H   0  0  0  0  0  0  0  0  0  0  0  0
   -0.6998    1.4032   -0.9107 C   0  0  0  0  0  0  0  0  0  0  0  0
   -1.0566    0.7839   -1.7348 H   0  0  0  0  0  0  0  0  0  0  0  0
   -0.7006    2.4491   -1.2193 H   0  0  0  0  0  0  0  0  0  0  0  0
    0.7297    0.9798   -0.5461 C   0  0  0  0  0  0  0  0  0  0  0  0
    1.0688    1.5865    0.2967 H   0  0  0  0  0  0  0  0  0  0  0  0
    0.7145   -0.0694   -0.2418 H   0  0  0  0  0  0  0  0  0  0  0  0
    1.6588    1.1511   -1.6819 N   0  3  0  0  0  0  0  0  0  0  0  0
    1.2591    1.4680   -2.5486 H   0  0  0  0  0  0  0  0  0  0  0  0
    2.9622    0.9279   -1.6660 C   0  0  0  0  0  0  0  0  0  0  0  0
    3.5818    0.5152   -0.5959 N   0  0  0  0  0  0  0  0  0  0  0  0
    3.0499    0.3639    0.2430 H   0  0  0  0  0  0  0  0  0  0  0  0
    4.5715    0.3502   -0.6008 H   0  0  0  0  0  0  0  0  0  0  0  0
    3.6771    1.1162   -2.7387 N   0  0  0  0  0  0  0  0  0  0  0  0
    3.2440    1.4343   -3.5885 H   0  0  0  0  0  0  0  0  0  0  0  0
    4.6657    0.9457   -2.7222 H   0  0  0  0  0  0  0  0  0  0  0  0
   -0.9523    0.1012    2.4848 C   0  0  0  0  0  0  0  0  0  0  0  0
    0.2133   -0.1319    2.7814 O   0  0  0  0  0  0  0  0  0  0  0  0
   -1.8684    0.5006    3.3725 N   0  0  0  0  0  0  0  0  0  0  0  0
   -2.7946    0.7048    3.0343 H   0  0  0  0  0  0  0  0  0  0  0  0
   -1.5848    0.7472    4.7873 C   0  0  0  0  0  0  0  0  0  0  0  0
   -0.8819    1.5774    4.8838 H   0  0  0  0  0  0  0  0  0  0  0  0
   -2.5030    0.9948    5.3214 H   0  0  0  0  0  0  0  0  0  0  0  0
   -1.1344   -0.1399    5.2381 H   0  0  0  0  0  0  0  0  0  0  0  0
  5  6  2  0  0  0  0
  5  7  1  0  0  0  0
  2  3  1  0  0  0  0
  2  4  1  0  0  0  0
  2  5  1  0  0  0  0
  1  2  1  0  0  0  0
 29 30  2  0  0  0  0
 29 31  1  0  0  0  0
 26 27  1  0  0  0  0
 26 28  1  0  0  0  0
 23 24  1  0  0  0  0
 23 25  1  0  0  0  0
 22 23  1  0  0  0  0
 22 26  1  0  0  0  0
 20 21  1  0  0  0  0
 20 22  2  0  0  0  0
 17 18  1  0  0  0  0
 17 19  1  0  0  0  0
 17 20  1  0  0  0  0
 14 15  1  0  0  0  0
 14 16  1  0  0  0  0
 14 17  1  0  0  0  0
 11 12  1  0  0  0  0
 11 13  1  0  0  0  0
 11 14  1  0  0  0  0
  9 10  1  0  0  0  0
  9 11  1  0  0  0  0
  9 29  1  0  0  0  0
  7  8  1  0  0  0  0
  7  9  1  0  0  0  0
 33 34  1  0  0  0  0
 33 35  1  0  0  0  0
 33 36  1  0  0  0  0
 31 32  1  0  0  0  0
 31 33  1  0  0  0  0
M  CHG  1  20   1
M  END
$$$$
default_name
  -OEChem-02102213163D

 36 35  0     1  0  0  0  0  0999 V2000
   -4.2256   -3.6731    1.8584 H   0  0  0  0  0  0  0  0  0  0  0  0
   -4.2396   -2.6781    1.4144 C   0  0  0  0  0  0  0  0  0  0  0  0
   -4.9506   -2.0521    1.9514 H   0  0  0  0  0  0  0  0  0  0  0  0
   -4.5266   -2.7521    0.3674 H   0  0  0  0  0  0  0  0  0  0  0  0
   -2.8576   -2.0761    1.5184 C   0  0  0  0  0  0  0  0  0  0  0  0
   -1.9456   -2.7051    2.0404 O   0  0  0  0  0  0  0  0  0  0  0  0
   -2.6926   -0.8481    1.0174 N   0  0  0  0  0  0  0  0  0  0  0  0
   -3.4926   -0.3971    0.5954 H   0  0  0  0  0  0  0  0  0  0  0  0
   -1.4216   -0.1071    1.0434 C   0  0  1  0  0  0  0  0  0  0  0  0
   -0.6709   -0.6930    0.5106 H   0  0  0  0  0  0  0  0  0  0  0  0
   -1.6221    1.2315    0.3051 C   0  0  0  0  0  0  0  0  0  0  0  0
   -2.6569    1.2882   -0.0385 H   0  0  0  0  0  0  0  0  0  0  0  0
   -1.4512    2.0535    1.0038 H   0  0  0  0  0  0  0  0  0  0  0  0
   -0.6998    1.4032   -0.9107 C   0  0  0  0  0  0  0  0  0  0  0  0
   -1.1877    1.0077   -1.8026 H   0  0  0  0  0  0  0  0  0  0  0  0
   -0.4878    2.4630   -1.0559 H   0  0  0  0  0  0  0  0  0  0  0  0
    0.6154    0.6467   -0.6798 C   0  0  0  0  0  0  0  0  0  0  0  0
    1.0836    1.0307    0.2294 H   0  0  0  0  0  0  0  0  0  0  0  0
    0.3871   -0.4124   -0.5386 H   0  0  0  0  0  0  0  0  0  0  0  0
    1.5454    0.8039   -1.8170 N   0  3  0  0  0  0  0  0  0  0  0  0
    1.2090    1.3285   -2.6064 H   0  0  0  0  0  0  0  0  0  0  0  0
    2.7743    0.3215   -1.8941 C   0  0  0  0  0  0  0  0  0  0  0  0
    3.3085   -0.3724   -0.9285 N   0  0  0  0  0  0  0  0  0  0  0  0
    2.7676   -0.5437   -0.0993 H   0  0  0  0  0  0  0  0  0  0  0  0
    4.2424   -0.7316   -1.0033 H   0  0  0  0  0  0  0  0  0  0  0  0
    3.4990    0.5287   -2.9568 N   0  0  0  0  0  0  0  0  0  0  0  0
    3.1304    1.0585   -3.7278 H   0  0  0  0  0  0  0  0  0  0  0  0
    4.4309    0.1610   -3.0111 H   0  0  0  0  0  0  0  0  0  0  0  0
   -0.9523    0.1012    2.4848 C   0  0  0  0  0  0  0  0  0  0  0  0
    0.2133   -0.1319    2.7814 O   0  0  0  0  0  0  0  0  0  0  0  0
   -1.8684    0.5006    3.3725 N   0  0  0  0  0  0  0  0  0  0  0  0
   -2.7946    0.7048    3.0343 H   0  0  0  0  0  0  0  0  0  0  0  0
   -1.5848    0.7472    4.7873 C   0  0  0  0  0  0  0  0  0  0  0  0
   -0.8819    1.5774    4.8838 H   0  0  0  0  0  0  0  0  0  0  0  0
   -2.5030    0.9948    5.3214 H   0  0  0  0  0  0  0  0  0  0  0  0
   -1.1344   -0.1399    5.2381 H   0  0  0  0  0  0  0  0  0  0  0  0
  5  6  2  0  0  0  0
  5  7  1  0  0  0  0
  2  3  1  0  0  0  0
  2  4  1  0  0  0  0
  2  5  1  0  0  0  0
  1  2  1  0  0  0  0
 29 30  2  0  0  0  0
 29 31  1  0  0  0  0
 26 27  1  0  0  0  0
 26 28  1  0  0  0  0
 23 24  1  0  0  0  0
 23 25  1  0  0  0  0
 22 23  1  0  0  0  0
 22 26  1  0  0  0  0
 20 21  1  0  0  0  0
 20 22  2  0  0  0  0
 17 18  1  0  0  0  0
 17 19  1  0  0  0  0
 17 20  1  0  0  0  0
 14 15  1  0  0  0  0
 14 16  1  0  0  0  0
 14 17  1  0  0  0  0
 11 12  1  0  0  0  0
 11 13  1  0  0  0  0
 11 14  1  0  0  0  0
  9 10  1  0  0  0  0
  9 11  1  0  0  0  0
  9 29  1  0  0  0  0
  7  8  1  0  0  0  0
  7  9  1  0  0  0  0
 33 34  1  0  0  0  0
 33 35  1  0  0  0  0
 33 36  1  0  0  0  0
 31 32  1  0  0  0  0
 31 33  1  0  0  0  0
M  CHG  1  20   1
M  END
$$$$
default_name
  -OEChem-02102213163D

 36 35  0     1  0  0  0  0  0999 V2000
   -4.2256   -3.6731    1.8584 H   0  0  0  0  0  0  0  0  0  0  0  0
   -4.2396   -2.6781    1.4144 C   0  0  0  0  0  0  0  0  0  0  0  0
   -4.9506   -2.0521    1.9514 H   0  0  0  0  0  0  0  0  0  0  0  0
   -4.5266   -2.7521    0.3674 H   0  0  0  0  0  0  0  0  0  0  0  0
   -2.8576   -2.0761    1.5184 C   0  0  0  0  0  0  0  0  0  0  0  0
   -1.9456   -2.7051    2.0404 O   0  0  0  0  0  0  0  0  0  0  0  0
   -2.6926   -0.8481    1.0174 N   0  0  0  0  0  0  0  0  0  0  0  0
   -3.4926   -0.3971    0.5954 H   0  0  0  0  0  0  0  0  0  0  0  0
   -1.4216   -0.1071    1.0434 C   0  0  1  0  0  0  0  0  0  0  0  0
   -0.6709   -0.6930    0.5106 H   0  0  0  0  0  0  0  0  0  0  0  0
   -1.6221    1.2315    0.3051 C   0  0  0  0  0  0  0  0  0  0  0  0
   -2.6569    1.2882   -0.0385 H   0  0  0  0  0  0  0  0  0  0  0  0
   -1.4512    2.0535    1.0038 H   0  0  0  0  0  0  0  0  0  0  0  0
   -0.6998    1.4032   -0.9107 C   0  0  0  0  0  0  0  0  0  0  0  0
   -1.2704    1.2612   -1.8295 H   0  0  0  0  0  0  0  0  0  0  0  0
   -0.2747    2.4074   -0.9021 H   0  0  0  0  0  0  0  0  0  0  0  0
    0.4330    0.3690   -0.8574 C   0  0  0  0  0  0  0  0  0  0  0  0
    0.9821    0.5012    0.0777 H   0  0  0  0  0  0  0  0  0  0  0  0
   -0.0080   -0.6305   -0.8691 H   0  0  0  0  0  0  0  0  0  0  0  0
    1.3607    0.5128   -1.9982 N   0  3  0  0  0  0  0  0  0  0  0  0
    1.1304    1.2129   -2.6824 H   0  0  0  0  0  0  0  0  0  0  0  0
    2.4620   -0.1902   -2.2033 C   0  0  0  0  0  0  0  0  0  0  0  0
    2.8530   -1.1220   -1.3799 N   0  0  0  0  0  0  0  0  0  0  0  0
    2.2990   -1.3093   -0.5629 H   0  0  0  0  0  0  0  0  0  0  0  0
    3.6913   -1.6465   -1.5506 H   0  0  0  0  0  0  0  0  0  0  0  0
    3.2003    0.0316   -3.2536 N   0  0  0  0  0  0  0  0  0  0  0  0
    2.9397    0.7404   -3.9174 H   0  0  0  0  0  0  0  0  0  0  0  0
    4.0350   -0.5039   -3.4054 H   0  0  0  0  0  0  0  0  0  0  0  0
   -0.9523    0.1012    2.4848 C   0  0  0  0  0  0  0  0  0  0  0  0
    0.2133   -0.1319    2.7814 O   0  0  0  0  0  0  0  0  0  0  0  0
   -1.8684    0.5006    3.3725 N   0  0  0  0  0  0  0  0  0  0  0  0
   -2.7946    0.7048    3.0343 H   0  0  0  0  0  0  0  0  0  0  0  0
   -1.5848    0.7472    4.7873 C   0  0  0  0  0  0  0  0  0  0  0  0
   -0.8819    1.5774    4.8838 H   0  0  0  0  0  0  0  0  0  0  0  0
   -2.5030    0.9948    5.3214 H   0  0  0  0  0  0  0  0  0  0  0  0
   -1.1344   -0.1399    5.2381 H   0  0  0  0  0  0  0  0  0  0  0  0
  5  6  2  0  0  0  0
  5  7  1  0  0  0  0
  2  3  1  0  0  0  0
  2  4  1  0  0  0  0
  2  5  1  0  0  0  0
  1  2  1  0  0  0  0
 29 30  2  0  0  0  0
 29 31  1  0  0  0  0
 26 27  1  0  0  0  0
 26 28  1  0  0  0  0
 23 24  1  0  0  0  0
 23 25  1  0  0  0  0
 22 23  1  0  0  0  0
 22 26  1  0  0  0  0
 20 21  1  0  0  0  0
 20 22  2  0  0  0  0
 17 18  1  0  0  0  0
 17 19  1  0  0  0  0
 17 20  1  0  0  0  0
 14 15  1  0  0  0  0
 14 16  1  0  0  0  0
 14 17  1  0  0  0  0
 11 12  1  0  0  0  0
 11 13  1  0  0  0  0
 11 14  1  0  0  0  0
  9 10  1  0  0  0  0
  9 11  1  0  0  0  0
  9 29  1  0  0  0  0
  7  8  1  0  0  0  0
  7  9  1  0  0  0  0
 33 34  1  0  0  0  0
 33 35  1  0  0  0  0
 33 36  1  0  0  0  0
 31 32  1  0  0  0  0
 31 33  1  0  0  0  0
M  CHG  1  20   1
M  END
$$$$
default_name
  -OEChem-02102213163D

 36 35  0     1  0  0  0  0  0999 V2000
   -4.2256   -3.6731    1.8584 H   0  0  0  0  0  0  0  0  0  0  0  0
   -4.2396   -2.6781    1.4144 C   0  0  0  0  0  0  0  0  0  0  0  0
   -4.9506   -2.0521    1.9514 H   0  0  0  0  0  0  0  0  0  0  0  0
   -4.5266   -2.7521    0.3674 H   0  0  0  0  0  0  0  0  0  0  0  0
   -2.8576   -2.0761    1.5184 C   0  0  0  0  0  0  0  0  0  0  0  0
   -1.9456   -2.7051    2.0404 O   0  0  0  0  0  0  0  0  0  0  0  0
   -2.6926   -0.8481    1.0174 N   0  0  0  0  0  0  0  0  0  0  0  0
   -3.4926   -0.3971    0.5954 H   0  0  0  0  0  0  0  0  0  0  0  0
   -1.4216   -0.1071    1.0434 C   0  0  1  0  0  0  0  0  0  0  0  0
   -0.6709   -0.6930    0.5106 H   0  0  0  0  0  0  0  0  0  0  0  0
   -1.6221    1.2315    0.3051 C   0  0  0  0  0  0  0  0  0  0  0  0
   -2.6569    1.2882   -0.0385 H   0  0  0  0  0  0  0  0  0  0  0  0
   -1.4512    2.0535    1.0038 H   0  0  0  0  0  0  0  0  0  0  0  0
   -0.6998    1.4032   -0.9107 C   0  0  0  0  0  0  0  0  0  0  0  0
   -1.2991    1.5272   -1.8138 H   0  0  0  0  0  0  0  0  0  0  0  0
   -0.0758    2.2861   -0.7683 H   0  0  0  0  0  0  0  0  0  0  0  0
    0.1947    0.1659   -1.0669 C   0  0  0  0  0  0  0  0  0  0  0  0
    0.7711    0.0342   -0.1483 H   0  0  0  0  0  0  0  0  0  0  0  0
   -0.4439   -0.7088   -1.2108 H   0  0  0  0  0  0  0  0  0  0  0  0
    1.1175    0.2975   -2.2131 N   0  3  0  0  0  0  0  0  0  0  0  0
    1.0285    1.1292   -2.7715 H   0  0  0  0  0  0  0  0  0  0  0  0
    2.0465   -0.5724   -2.5725 C   0  0  0  0  0  0  0  0  0  0  0  0
    2.2465   -1.6825   -1.9192 N   0  0  0  0  0  0  0  0  0  0  0  0
    1.6761   -1.8808   -1.1162 H   0  0  0  0  0  0  0  0  0  0  0  0
    2.9556   -2.3322   -2.2055 H   0  0  0  0  0  0  0  0  0  0  0  0
    2.8013   -0.3413   -3.6090 N   0  0  0  0  0  0  0  0  0  0  0  0
    2.6848    0.5017   -4.1445 H   0  0  0  0  0  0  0  0  0  0  0  0
    3.5049   -1.0039   -3.8781 H   0  0  0  0  0  0  0  0  0  0  0  0
   -0.9523    0.1012    2.4848 C   0  0  0  0  0  0  0  0  0  0  0  0
    0.2133   -0.1319    2.7814 O   0  0  0  0  0  0  0  0  0  0  0  0
   -1.8684    0.5006    3.3725 N   0  0  0  0  0  0  0  0  0  0  0  0
   -2.7946    0.7048    3.0343 H   0  0  0  0  0  0  0  0  0  0  0  0
   -1.5848    0.7472    4.7873 C   0  0  0  0  0  0  0  0  0  0  0  0
   -0.8819    1.5774    4.8838 H   0  0  0  0  0  0  0  0  0  0  0  0
   -2.5030    0.9948    5.3214 H   0  0  0  0  0  0  0  0  0  0  0  0
   -1.1344   -0.1399    5.2381 H   0  0  0  0  0  0  0  0  0  0  0  0
  5  6  2  0  0  0  0
  5  7  1  0  0  0  0
  2  3  1  0  0  0  0
  2  4  1  0  0  0  0
  2  5  1  0  0  0  0
  1  2  1  0  0  0  0
 29 30  2  0  0  0  0
 29 31  1  0  0  0  0
 26 27  1  0  0  0  0
 26 28  1  0  0  0  0
 23 24  1  0  0  0  0
 23 25  1  0  0  0  0
 22 23  1  0  0  0  0
 22 26  1  0  0  0  0
 20 21  1  0  0  0  0
 20 22  2  0  0  0  0
 17 18  1  0  0  0  0
 17 19  1  0  0  0  0
 17 20  1  0  0  0  0
 14 15  1  0  0  0  0
 14 16  1  0  0  0  0
 14 17  1  0  0  0  0
 11 12  1  0  0  0  0
 11 13  1  0  0  0  0
 11 14  1  0  0  0  0
  9 10  1  0  0  0  0
  9 11  1  0  0  0  0
  9 29  1  0  0  0  0
  7  8  1  0  0  0  0
  7  9  1  0  0  0  0
 33 34  1  0  0  0  0
 33 35  1  0  0  0  0
 33 36  1  0  0  0  0
 31 32  1  0  0  0  0
 31 33  1  0  0  0  0
M  CHG  1  20   1
M  END
$$$$
default_name
  -OEChem-02102213163D

 36 35  0     1  0  0  0  0  0999 V2000
   -4.2256   -3.6731    1.8584 H   0  0  0  0  0  0  0  0  0  0  0  0
   -4.2396   -2.6781    1.4144 C   0  0  0  0  0  0  0  0  0  0  0  0
   -4.9506   -2.0521    1.9514 H   0  0  0  0  0  0  0  0  0  0  0  0
   -4.5266   -2.7521    0.3674 H   0  0  0  0  0  0  0  0  0  0  0  0
   -2.8576   -2.0761    1.5184 C   0  0  0  0  0  0  0  0  0  0  0  0
   -1.9456   -2.7051    2.0404 O   0  0  0  0  0  0  0  0  0  0  0  0
   -2.6926   -0.8481    1.0174 N   0  0  0  0  0  0  0  0  0  0  0  0
   -3.4926   -0.3971    0.5954 H   0  0  0  0  0  0  0  0  0  0  0  0
   -1.4216   -0.1071    1.0434 C   0  0  1  0  0  0  0  0  0  0  0  0
   -0.6709   -0.6930    0.5106 H   0  0  0  0  0  0  0  0  0  0  0  0
   -1.6221    1.2315    0.3051 C   0  0  0  0  0  0  0  0  0  0  0  0
   -2.6569    1.2882   -0.0385 H   0  0  0  0  0  0  0  0  0  0  0  0
   -1.4512    2.0535    1.0038 H   0  0  0  0  0  0  0  0  0  0  0  0
   -0.6998    1.4032   -0.9107 C   0  0  0  0  0  0  0  0  0  0  0  0
   -1.2718    1.7875   -1.7563 H   0  0  0  0  0  0  0  0  0  0  0  0
    0.0953    2.1074   -0.6637 H   0  0  0  0  0  0  0  0  0  0  0  0
   -0.0832    0.0510   -1.2939 C   0  0  0  0  0  0  0  0  0  0  0  0
    0.4651   -0.3386   -0.4331 H   0  0  0  0  0  0  0  0  0  0  0  0
   -0.8909   -0.6420   -1.5405 H   0  0  0  0  0  0  0  0  0  0  0  0
    0.8322    0.1729   -2.4471 N   0  3  0  0  0  0  0  0  0  0  0  0
    0.9104    1.0831   -2.8676 H   0  0  0  0  0  0  0  0  0  0  0  0
    1.5562   -0.7990   -2.9765 C   0  0  0  0  0  0  0  0  0  0  0  0
    1.5301   -2.0159   -2.5097 N   0  0  0  0  0  0  0  0  0  0  0  0
    0.9413   -2.2191   -1.7214 H   0  0  0  0  0  0  0  0  0  0  0  0
    2.0855   -2.7420   -2.9234 H   0  0  0  0  0  0  0  0  0  0  0  0
    2.3292   -0.5644   -3.9986 N   0  0  0  0  0  0  0  0  0  0  0  0
    2.3830    0.3587   -4.3936 H   0  0  0  0  0  0  0  0  0  0  0  0
    2.8768   -1.3046   -4.3971 H   0  0  0  0  0  0  0  0  0  0  0  0
   -0.9523    0.1012    2.4848 C   0  0  0  0  0  0  0  0  0  0  0  0
    0.2133   -0.1319    2.7814 O   0  0  0  0  0  0  0  0  0  0  0  0
   -1.8684    0.5006    3.3725 N   0  0  0  0  0  0  0  0  0  0  0  0
   -2.7946    0.7048    3.0343 H   0  0  0  0  0  0  0  0  0  0  0  0
   -1.5848    0.7472    4.7873 C   0  0  0  0  0  0  0  0  0  0  0  0
   -0.8819    1.5774    4.8838 H   0  0  0  0  0  0  0  0  0  0  0  0
   -2.5030    0.9948    5.3214 H   0  0  0  0  0  0  0  0  0  0  0  0
   -1.1344   -0.1399    5.2381 H   0  0  0  0  0  0  0  0  0  0  0  0
  5  6  2  0  0  0  0
  5  7  1  0  0  0  0
  2  3  1  0  0  0  0
  2  4  1  0  0  0  0
  2  5  1  0  0  0  0
  1  2  1  0  0  0  0
 29 30  2  0  0  0  0
 29 31  1  0  0  0  0
 26 27  1  0  0  0  0
 26 28  1  0  0  0  0
 23 24  1  0  0  0  0
 23 25  1  0  0  0  0
 22 23  1  0  0  0  0
 22 26  1  0  0  0  0
 20 21  1  0  0  0  0
 20 22  2  0  0  0  0
 17 18  1  0  0  0  0
 17 19  1  0  0  0  0
 17 20  1  0  0  0  0
 14 15  1  0  0  0  0
 14 16  1  0  0  0  0
 14 17  1  0  0  0  0
 11 12  1  0  0  0  0
 11 13  1  0  0  0  0
 11 14  1  0  0  0  0
  9 10  1  0  0  0  0
  9 11  1  0  0  0  0
  9 29  1  0  0  0  0
  7  8  1  0  0  0  0
  7  9  1  0  0  0  0
 33 34  1  0  0  0  0
 33 35  1  0  0  0  0
 33 36  1  0  0  0  0
 31 32  1  0  0  0  0
 31 33  1  0  0  0  0
M  CHG  1  20   1
M  END
$$$$
default_name
  -OEChem-02102213163D

 36 35  0     1  0  0  0  0  0999 V2000
   -4.2256   -3.6731    1.8584 H   0  0  0  0  0  0  0  0  0  0  0  0
   -4.2396   -2.6781    1.4144 C   0  0  0  0  0  0  0  0  0  0  0  0
   -4.9506   -2.0521    1.9514 H   0  0  0  0  0  0  0  0  0  0  0  0
   -4.5266   -2.7521    0.3674 H   0  0  0  0  0  0  0  0  0  0  0  0
   -2.8576   -2.0761    1.5184 C   0  0  0  0  0  0  0  0  0  0  0  0
   -1.9456   -2.7051    2.0404 O   0  0  0  0  0  0  0  0  0  0  0  0
   -2.6926   -0.8481    1.0174 N   0  0  0  0  0  0  0  0  0  0  0  0
   -3.4926   -0.3971    0.5954 H   0  0  0  0  0  0  0  0  0  0  0  0
   -1.4216   -0.1071    1.0434 C   0  0  1  0  0  0  0  0  0  0  0  0
   -0.6709   -0.6930    0.5106 H   0  0  0  0  0  0  0  0  0  0  0  0
   -1.6221    1.2315    0.3051 C   0  0  0  0  0  0  0  0  0  0  0  0
   -2.6569    1.2882   -0.0385 H   0  0  0  0  0  0  0  0  0  0  0  0
   -1.4512    2.0535    1.0038 H   0  0  0  0  0  0  0  0  0  0  0  0
   -0.6998    1.4032   -0.9107 C   0  0  0  0  0  0  0  0  0  0  0  0
   -1.1905    2.0245   -1.6612 H   0  0  0  0  0  0  0  0  0  0  0  0
    0.2271    1.8835   -0.5954 H   0  0  0  0  0  0  0  0  0  0  0  0
   -0.3816    0.0323   -1.5229 C   0  0  0  0  0  0  0  0  0  0  0  0
    0.0849   -0.5917   -0.7573 H   0  0  0  0  0  0  0  0  0  0  0  0
   -1.3186   -0.4347   -1.8356 H   0  0  0  0  0  0  0  0  0  0  0  0
    0.5243    0.1474   -2.6843 N   0  3  0  0  0  0  0  0  0  0  0  0
    0.7840    1.0777   -2.9642 H   0  0  0  0  0  0  0  0  0  0  0  0
    1.0244   -0.8547   -3.3877 C   0  0  0  0  0  0  0  0  0  0  0  0
    0.7527   -2.0993   -3.1112 N   0  0  0  0  0  0  0  0  0  0  0  0
    0.1447   -2.3013   -2.3373 H   0  0  0  0  0  0  0  0  0  0  0  0
    1.1403   -2.8479   -3.6554 H   0  0  0  0  0  0  0  0  0  0  0  0
    1.8162   -0.6227   -4.3960 N   0  0  0  0  0  0  0  0  0  0  0  0
    2.0551    0.3210   -4.6476 H   0  0  0  0  0  0  0  0  0  0  0  0
    2.1934   -1.3858   -4.9269 H   0  0  0  0  0  0  0  0  0  0  0  0
   -0.9523    0.1012    2.4848 C   0  0  0  0  0  0  0  0  0  0  0  0
    0.2133   -0.1319    2.7814 O   0  0  0  0  0  0  0  0  0  0  0  0
   -1.8684    0.5006    3.3725 N   0  0  0  0  0  0  0  0  0  0  0  0
   -2.7946    0.7048    3.0343 H   0  0  0  0  0  0  0  0  0  0  0  0
   -1.5848    0.7472    4.7873 C   0  0  0  0  0  0  0  0  0  0  0  0
   -0.8819    1.5774    4.8838 H   0  0  0  0  0  0  0  0  0  0  0  0
   -2.5030    0.9948    5.3214 H   0  0  0  0  0  0  0  0  0  0  0  0
   -1.1344   -0.1399    5.2381 H   0  0  0  0  0  0  0  0  0  0  0  0
  5  6  2  0  0  0  0
  5  7  1  0  0  0  0
  2  3  1  0  0  0  0
  2  4  1  0  0  0  0
  2  5  1  0  0  0  0
  1  2  1  0  0  0  0
 29 30  2  0  0  0  0
 29 31  1  0  0  0  0
 26 27  1  0  0  0  0
 26 28  1  0  0  0  0
 23 24  1  0  0  0  0
 23 25  1  0  0  0  0
 22 23  1  0  0  0  0
 22 26  1  0  0  0  0
 20 21  1  0  0  0  0
 20 22  2  0  0  0  0
 17 18  1  0  0  0  0
 17 19  1  0  0  0  0
 17 20  1  0  0  0  0
 14 15  1  0  0  0  0
 14 16  1  0  0  0  0
 14 17  1  0  0  0  0
 11 12  1  0  0  0  0
 11 13  1  0  0  0  0
 11 14  1  0  0  0  0
  9 10  1  0  0  0  0
  9 11  1  0  0  0  0
  9 29  1  0  0  0  0
  7  8  1  0  0  0  0
  7  9  1  0  0  0  0
 33 34  1  0  0  0  0
 33 35  1  0  0  0  0
 33 36  1  0  0  0  0
 31 32  1  0  0  0  0
 31 33  1  0  0  0  0
M  CHG  1  20   1
M  END
$$$$
default_name
  -OEChem-02102213163D

 36 35  0     1  0  0  0  0  0999 V2000
   -4.2256   -3.6731    1.8584 H   0  0  0  0  0  0  0  0  0  0  0  0
   -4.2396   -2.6781    1.4144 C   0  0  0  0  0  0  0  0  0  0  0  0
   -4.9506   -2.0521    1.9514 H   0  0  0  0  0  0  0  0  0  0  0  0
   -4.5266   -2.7521    0.3674 H   0  0  0  0  0  0  0  0  0  0  0  0
   -2.8576   -2.0761    1.5184 C   0  0  0  0  0  0  0  0  0  0  0  0
   -1.9456   -2.7051    2.0404 O   0  0  0  0  0  0  0  0  0  0  0  0
   -2.6926   -0.8481    1.0174 N   0  0  0  0  0  0  0  0  0  0  0  0
   -3.4926   -0.3971    0.5954 H   0  0  0  0  0  0  0  0  0  0  0  0
   -1.4216   -0.1071    1.0434 C   0  0  1  0  0  0  0  0  0  0  0  0
   -0.6709   -0.6930    0.5106 H   0  0  0  0  0  0  0  0  0  0  0  0
   -1.6221    1.2315    0.3051 C   0  0  0  0  0  0  0  0  0  0  0  0
   -2.6569    1.2882   -0.0385 H   0  0  0  0  0  0  0  0  0  0  0  0
   -1.4512    2.0535    1.0038 H   0  0  0  0  0  0  0  0  0  0  0  0
   -0.6998    1.4032   -0.9107 C   0  0  0  0  0  0  0  0  0  0  0  0
   -1.0607    2.2219   -1.5348 H   0  0  0  0  0  0  0  0  0  0  0  0
    0.3104    1.6296   -0.5681 H   0  0  0  0  0  0  0  0  0  0  0  0
   -0.6804    0.1110   -1.7385 C   0  0  0  0  0  0  0  0  0  0  0  0
   -0.3435   -0.7079   -1.0987 H   0  0  0  0  0  0  0  0  0  0  0  0
   -1.6977   -0.1009   -2.0760 H   0  0  0  0  0  0  0  0  0  0  0  0
    0.2149    0.2226   -2.9084 N   0  3  0  0  0  0  0  0  0  0  0  0
    0.6581    1.1134   -3.0547 H   0  0  0  0  0  0  0  0  0  0  0  0
    0.4874   -0.7356   -3.7782 C   0  0  0  0  0  0  0  0  0  0  0  0
   -0.0327   -1.9271   -3.6826 N   0  0  0  0  0  0  0  0  0  0  0  0
   -0.6595   -2.1217   -2.9219 H   0  0  0  0  0  0  0  0  0  0  0  0
    0.1844   -2.6428   -4.3515 H   0  0  0  0  0  0  0  0  0  0  0  0
    1.2972   -0.5120   -4.7740 N   0  0  0  0  0  0  0  0  0  0  0  0
    1.7232    0.3914   -4.8894 H   0  0  0  0  0  0  0  0  0  0  0  0
    1.5013   -1.2418   -5.4316 H   0  0  0  0  0  0  0  0  0  0  0  0
   -0.9523    0.1012    2.4848 C   0  0  0  0  0  0  0  0  0  0  0  0
    0.2133   -0.1319    2.7814 O   0  0  0  0  0  0  0  0  0  0  0  0
   -1.8684    0.5006    3.3725 N   0  0  0  0  0  0  0  0  0  0  0  0
   -2.7946    0.7048    3.0343 H   0  0  0  0  0  0  0  0  0  0  0  0
   -1.5848    0.7472    4.7873 C   0  0  0  0  0  0  0  0  0  0  0  0
   -0.8819    1.5774    4.8838 H   0  0  0  0  0  0  0  0  0  0  0  0
   -2.5030    0.9948    5.3214 H   0  0  0  0  0  0  0  0  0  0  0  0
   -1.1344   -0.1399    5.2381 H   0  0  0  0  0  0  0  0  0  0  0  0
  5  6  2  0  0  0  0
  5  7  1  0  0  0  0
  2  3  1  0  0  0  0
  2  4  1  0  0  0  0
  2  5  1  0  0  0  0
  1  2  1  0  0  0  0
 29 30  2  0  0  0  0
 29 31  1  0  0  0  0
 26 27  1  0  0  0  0
 26 28  1  0  0  0  0
 23 24  1  0  0  0  0
 23 25  1  0  0  0  0
 22 23  1  0  0  0  0
 22 26  1  0  0  0  0
 20 21  1  0  0  0  0
 20 22  2  0  0  0  0
 17 18  1  0  0  0  0
 17 19  1  0  0  0  0
 17 20  1  0  0  0  0
 14 15  1  0  0  0  0
 14 16  1  0  0  0  0
 14 17  1  0  0  0  0
 11 12  1  0  0  0  0
 11 13  1  0  0  0  0
 11 14  1  0  0  0  0
  9 10  1  0  0  0  0
  9 11  1  0  0  0  0
  9 29  1  0  0  0  0
  7  8  1  0  0  0  0
  7  9  1  0  0  0  0
 33 34  1  0  0  0  0
 33 35  1  0  0  0  0
 33 36  1  0  0  0  0
 31 32  1  0  0  0  0
 31 33  1  0  0  0  0
M  CHG  1  20   1
M  END
$$$$
default_name
  -OEChem-02102213163D

 36 35  0     1  0  0  0  0  0999 V2000
   -4.2256   -3.6731    1.8584 H   0  0  0  0  0  0  0  0  0  0  0  0
   -4.2396   -2.6781    1.4144 C   0  0  0  0  0  0  0  0  0  0  0  0
   -4.9506   -2.0521    1.9514 H   0  0  0  0  0  0  0  0  0  0  0  0
   -4.5266   -2.7521    0.3674 H   0  0  0  0  0  0  0  0  0  0  0  0
   -2.8576   -2.0761    1.5184 C   0  0  0  0  0  0  0  0  0  0  0  0
   -1.9456   -2.7051    2.0404 O   0  0  0  0  0  0  0  0  0  0  0  0
   -2.6926   -0.8481    1.0174 N   0  0  0  0  0  0  0  0  0  0  0  0
   -3.4926   -0.3971    0.5954 H   0  0  0  0  0  0  0  0  0  0  0  0
   -1.4216   -0.1071    1.0434 C   0  0  1  0  0  0  0  0  0  0  0  0
   -0.6709   -0.6930    0.5106 H   0  0  0  0  0  0  0  0  0  0  0  0
   -1.6221    1.2315    0.3051 C   0  0  0  0  0  0  0  0  0  0  0  0
   -2.6569    1.2882   -0.0385 H   0  0  0  0  0  0  0  0  0  0  0  0
   -1.4512    2.0535    1.0038 H   0  0  0  0  0  0  0  0  0  0  0  0
   -0.6998    1.4032   -0.9107 C   0  0  0  0  0  0  0  0  0  0  0  0
   -0.8911    2.3664   -1.3858 H   0  0  0  0  0  0  0  0  0  0  0  0
    0.3397    1.3630   -0.5835 H   0  0  0  0  0  0  0  0  0  0  0  0
   -0.9591    0.2817   -1.9258 C   0  0  0  0  0  0  0  0  0  0  0  0
   -0.7911   -0.6793   -1.4342 H   0  0  0  0  0  0  0  0  0  0  0  0
   -2.0024    0.3366   -2.2454 H   0  0  0  0  0  0  0  0  0  0  0  0
   -0.0751    0.3936   -3.1042 N   0  3  0  0  0  0  0  0  0  0  0  0
    0.5412    1.1877   -3.1329 H   0  0  0  0  0  0  0  0  0  0  0  0
   -0.0181   -0.4498   -4.1213 C   0  0  0  0  0  0  0  0  0  0  0  0
   -0.7726   -1.5109   -4.1851 N   0  0  0  0  0  0  0  0  0  0  0  0
   -1.4163   -1.6926   -3.4354 H   0  0  0  0  0  0  0  0  0  0  0  0
   -0.7170   -2.1406   -4.9644 H   0  0  0  0  0  0  0  0  0  0  0  0
    0.8076   -0.2400   -5.1070 N   0  0  0  0  0  0  0  0  0  0  0  0
    1.4101    0.5649   -5.1024 H   0  0  0  0  0  0  0  0  0  0  0  0
    0.8477   -0.8824   -5.8766 H   0  0  0  0  0  0  0  0  0  0  0  0
   -0.9523    0.1012    2.4848 C   0  0  0  0  0  0  0  0  0  0  0  0
    0.2133   -0.1319    2.7814 O   0  0  0  0  0  0  0  0  0  0  0  0
   -1.8684    0.5006    3.3725 N   0  0  0  0  0  0  0  0  0  0  0  0
   -2.7946    0.7048    3.0343 H   0  0  0  0  0  0  0  0  0  0  0  0
   -1.5848    0.7472    4.7873 C   0  0  0  0  0  0  0  0  0  0  0  0
   -0.8819    1.5774    4.8838 H   0  0  0  0  0  0  0  0  0  0  0  0
   -2.5030    0.9948    5.3214 H   0  0  0  0  0  0  0  0  0  0  0  0
   -1.1344   -0.1399    5.2381 H   0  0  0  0  0  0  0  0  0  0  0  0
  5  6  2  0  0  0  0
  5  7  1  0  0  0  0
  2  3  1  0  0  0  0
  2  4  1  0  0  0  0
  2  5  1  0  0  0  0
  1  2  1  0  0  0  0
 29 30  2  0  0  0  0
 29 31  1  0  0  0  0
 26 27  1  0  0  0  0
 26 28  1  0  0  0  0
 23 24  1  0  0  0  0
 23 25  1  0  0  0  0
 22 23  1  0  0  0  0
 22 26  1  0  0  0  0
 20 21  1  0  0  0  0
 20 22  2  0  0  0  0
 17 18  1  0  0  0  0
 17 19  1  0  0  0  0
 17 20  1  0  0  0  0
 14 15  1  0  0  0  0
 14 16  1  0  0  0  0
 14 17  1  0  0  0  0
 11 12  1  0  0  0  0
 11 13  1  0  0  0  0
 11 14  1  0  0  0  0
  9 10  1  0  0  0  0
  9 11  1  0  0  0  0
  9 29  1  0  0  0  0
  7  8  1  0  0  0  0
  7  9  1  0  0  0  0
 33 34  1  0  0  0  0
 33 35  1  0  0  0  0
 33 36  1  0  0  0  0
 31 32  1  0  0  0  0
 31 33  1  0  0  0  0
M  CHG  1  20   1
M  END
$$$$
default_name
  -OEChem-02102213163D

 36 35  0     1  0  0  0  0  0999 V2000
   -4.2256   -3.6731    1.8584 H   0  0  0  0  0  0  0  0  0  0  0  0
   -4.2396   -2.6781    1.4144 C   0  0  0  0  0  0  0  0  0  0  0  0
   -4.9506   -2.0521    1.9514 H   0  0  0  0  0  0  0  0  0  0  0  0
   -4.5266   -2.7521    0.3674 H   0  0  0  0  0  0  0  0  0  0  0  0
   -2.8576   -2.0761    1.5184 C   0  0  0  0  0  0  0  0  0  0  0  0
   -1.9456   -2.7051    2.0404 O   0  0  0  0  0  0  0  0  0  0  0  0
   -2.6926   -0.8481    1.0174 N   0  0  0  0  0  0  0  0  0  0  0  0
   -3.4926   -0.3971    0.5954 H   0  0  0  0  0  0  0  0  0  0  0  0
   -1.4216   -0.1071    1.0434 C   0  0  1  0  0  0  0  0  0  0  0  0
   -0.6709   -0.6930    0.5106 H   0  0  0  0  0  0  0  0  0  0  0  0
   -1.6221    1.2315    0.3051 C   0  0  0  0  0  0  0  0  0  0  0  0
   -2.6569    1.2882   -0.0385 H   0  0  0  0  0  0  0  0  0  0  0  0
   -1.4512    2.0535    1.0038 H   0  0  0  0  0  0  0  0  0  0  0  0
   -0.6998    1.4032   -0.9107 C   0  0  0  0  0  0  0  0  0  0  0  0
   -0.6934    2.4480   -1.2243 H   0  0  0  0  0  0  0  0  0  0  0  0
    0.3129    1.1019   -0.6407 H   0  0  0  0  0  0  0  0  0  0  0  0
   -1.1988    0.5329   -2.0721 C   0  0  0  0  0  0  0  0  0  0  0  0
   -1.2273   -0.5077   -1.7408 H   0  0  0  0  0  0  0  0  0  0  0  0
   -2.2121    0.8479   -2.3322 H   0  0  0  0  0  0  0  0  0  0  0  0
   -0.3259    0.6485   -3.2584 N   0  3  0  0  0  0  0  0  0  0  0  0
    0.4412    1.2957   -3.1935 H   0  0  0  0  0  0  0  0  0  0  0  0
   -0.4578   -0.0168   -4.3937 C   0  0  0  0  0  0  0  0  0  0  0  0
   -1.4165   -0.8793   -4.5843 N   0  0  0  0  0  0  0  0  0  0  0  0
   -2.0743   -1.0431   -3.8428 H   0  0  0  0  0  0  0  0  0  0  0  0
   -1.5026   -1.3755   -5.4522 H   0  0  0  0  0  0  0  0  0  0  0  0
    0.3809    0.1747   -5.3721 N   0  0  0  0  0  0  0  0  0  0  0  0
    1.1371    0.8298   -5.2722 H   0  0  0  0  0  0  0  0  0  0  0  0
    0.2772   -0.3322   -6.2317 H   0  0  0  0  0  0  0  0  0  0  0  0
   -0.9523    0.1012    2.4848 C   0  0  0  0  0  0  0  0  0  0  0  0
    0.2133   -0.1319    2.7814 O   0  0  0  0  0  0  0  0  0  0  0  0
   -1.8684    0.5006    3.3725 N   0  0  0  0  0  0  0  0  0  0  0  0
   -2.7946    0.7048    3.0343 H   0  0  0  0  0  0  0  0  0  0  0  0
   -1.5848    0.7472    4.7873 C   0  0  0  0  0  0  0  0  0  0  0  0
   -0.8819    1.5774    4.8838 H   0  0  0  0  0  0  0  0  0  0  0  0
   -2.5030    0.9948    5.3214 H   0  0  0  0  0  0  0  0  0  0  0  0
   -1.1344   -0.1399    5.2381 H   0  0  0  0  0  0  0  0  0  0  0  0
  5  6  2  0  0  0  0
  5  7  1  0  0  0  0
  2  3  1  0  0  0  0
  2  4  1  0  0  0  0
  2  5  1  0  0  0  0
  1  2  1  0  0  0  0
 29 30  2  0  0  0  0
 29 31  1  0  0  0  0
 26 27  1  0  0  0  0
 26 28  1  0  0  0  0
 23 24  1  0  0  0  0
 23 25  1  0  0  0  0
 22 23  1  0  0  0  0
 22 26  1  0  0  0  0
 20 21  1  0  0  0  0
 20 22  2  0  0  0  0
 17 18  1  0  0  0  0
 17 19  1  0  0  0  0
 17 20  1  0  0  0  0
 14 15  1  0  0  0  0
 14 16  1  0  0  0  0
 14 17  1  0  0  0  0
 11 12  1  0  0  0  0
 11 13  1  0  0  0  0
 11 14  1  0  0  0  0
  9 10  1  0  0  0  0
  9 11  1  0  0  0  0
  9 29  1  0  0  0  0
  7  8  1  0  0  0  0
  7  9  1  0  0  0  0
 33 34  1  0  0  0  0
 33 35  1  0  0  0  0
 33 36  1  0  0  0  0
 31 32  1  0  0  0  0
 31 33  1  0  0  0  0
M  CHG  1  20   1
M  END
$$$$
default_name
  -OEChem-02102213163D

 36 35  0     1  0  0  0  0  0999 V2000
   -4.2256   -3.6731    1.8584 H   0  0  0  0  0  0  0  0  0  0  0  0
   -4.2396   -2.6781    1.4144 C   0  0  0  0  0  0  0  0  0  0  0  0
   -4.9506   -2.0521    1.9514 H   0  0  0  0  0  0  0  0  0  0  0  0
   -4.5266   -2.7521    0.3674 H   0  0  0  0  0  0  0  0  0  0  0  0
   -2.8576   -2.0761    1.5184 C   0  0  0  0  0  0  0  0  0  0  0  0
   -1.9456   -2.7051    2.0404 O   0  0  0  0  0  0  0  0  0  0  0  0
   -2.6926   -0.8481    1.0174 N   0  0  0  0  0  0  0  0  0  0  0  0
   -3.4926   -0.3971    0.5954 H   0  0  0  0  0  0  0  0  0  0  0  0
   -1.4216   -0.1071    1.0434 C   0  0  1  0  0  0  0  0  0  0  0  0
   -0.6709   -0.6930    0.5106 H   0  0  0  0  0  0  0  0  0  0  0  0
   -1.6221    1.2315    0.3051 C   0  0  0  0  0  0  0  0  0  0  0  0
   -2.6569    1.2882   -0.0385 H   0  0  0  0  0  0  0  0  0  0  0  0
   -1.4512    2.0535    1.0038 H   0  0  0  0  0  0  0  0  0  0  0  0
   -0.6998    1.4032   -0.9107 C   0  0  0  0  0  0  0  0  0  0  0  0
   -0.4811    2.4613   -1.0613 H   0  0  0  0  0  0  0  0  0  0  0  0
    0.2318    0.8641   -0.7358 H   0  0  0  0  0  0  0  0  0  0  0  0
   -1.3831    0.8473   -2.1675 C   0  0  0  0  0  0  0  0  0  0  0  0
   -1.6223   -0.2050   -1.9977 H   0  0  0  0  0  0  0  0  0  0  0  0
   -2.3123    1.3983   -2.3305 H   0  0  0  0  0  0  0  0  0  0  0  0
   -0.5203    0.9702   -3.3605 N   0  3  0  0  0  0  0  0  0  0  0  0
    0.3649    1.4298   -3.2323 H   0  0  0  0  0  0  0  0  0  0  0  0
   -0.8017    0.5338   -4.5768 C   0  0  0  0  0  0  0  0  0  0  0  0
   -1.9206   -0.0751   -4.8532 N   0  0  0  0  0  0  0  0  0  0  0  0
   -2.5886   -0.2177   -4.1164 H   0  0  0  0  0  0  0  0  0  0  0  0
   -2.1187   -0.3998   -5.7817 H   0  0  0  0  0  0  0  0  0  0  0  0
    0.0459    0.7041   -5.5514 N   0  0  0  0  0  0  0  0  0  0  0  0
    0.9227    1.1681   -5.3870 H   0  0  0  0  0  0  0  0  0  0  0  0
   -0.1714    0.3714   -6.4726 H   0  0  0  0  0  0  0  0  0  0  0  0
   -0.9523    0.1012    2.4848 C   0  0  0  0  0  0  0  0  0  0  0  0
    0.2133   -0.1319    2.7814 O   0  0  0  0  0  0  0  0  0  0  0  0
   -1.8684    0.5006    3.3725 N   0  0  0  0  0  0  0  0  0  0  0  0
   -2.7946    0.7048    3.0343 H   0  0  0  0  0  0  0  0  0  0  0  0
   -1.5848    0.7472    4.7873 C   0  0  0  0  0  0  0  0  0  0  0  0
   -0.8819    1.5774    4.8838 H   0  0  0  0  0  0  0  0  0  0  0  0
   -2.5030    0.9948    5.3214 H   0  0  0  0  0  0  0  0  0  0  0  0
   -1.1344   -0.1399    5.2381 H   0  0  0  0  0  0  0  0  0  0  0  0
  5  6  2  0  0  0  0
  5  7  1  0  0  0  0
  2  3  1  0  0  0  0
  2  4  1  0  0  0  0
  2  5  1  0  0  0  0
  1  2  1  0  0  0  0
 29 30  2  0  0  0  0
 29 31  1  0  0  0  0
 26 27  1  0  0  0  0
 26 28  1  0  0  0  0
 23 24  1  0  0  0  0
 23 25  1  0  0  0  0
 22 23  1  0  0  0  0
 22 26  1  0  0  0  0
 20 21  1  0  0  0  0
 20 22  2  0  0  0  0
 17 18  1  0  0  0  0
 17 19  1  0  0  0  0
 17 20  1  0  0  0  0
 14 15  1  0  0  0  0
 14 16  1  0  0  0  0
 14 17  1  0  0  0  0
 11 12  1  0  0  0  0
 11 13  1  0  0  0  0
 11 14  1  0  0  0  0
  9 10  1  0  0  0  0
  9 11  1  0  0  0  0
  9 29  1  0  0  0  0
  7  8  1  0  0  0  0
  7  9  1  0  0  0  0
 33 34  1  0  0  0  0
 33 35  1  0  0  0  0
 33 36  1  0  0  0  0
 31 32  1  0  0  0  0
 31 33  1  0  0  0  0
M  CHG  1  20   1
M  END
$$$$
default_name
  -OEChem-02102213163D

 36 35  0     1  0  0  0  0  0999 V2000
   -4.2256   -3.6731    1.8584 H   0  0  0  0  0  0  0  0  0  0  0  0
   -4.2396   -2.6781    1.4144 C   0  0  0  0  0  0  0  0  0  0  0  0
   -4.9506   -2.0521    1.9514 H   0  0  0  0  0  0  0  0  0  0  0  0
   -4.5266   -2.7521    0.3674 H   0  0  0  0  0  0  0  0  0  0  0  0
   -2.8576   -2.0761    1.5184 C   0  0  0  0  0  0  0  0  0  0  0  0
   -1.9456   -2.7051    2.0404 O   0  0  0  0  0  0  0  0  0  0  0  0
   -2.6926   -0.8481    1.0174 N   0  0  0  0  0  0  0  0  0  0  0  0
   -3.4926   -0.3971    0.5954 H   0  0  0  0  0  0  0  0  0  0  0  0
   -1.4216   -0.1071    1.0434 C   0  0  1  0  0  0  0  0  0  0  0  0
   -0.6709   -0.6930    0.5106 H   0  0  0  0  0  0  0  0  0  0  0  0
   -1.6221    1.2315    0.3051 C   0  0  0  0  0  0  0  0  0  0  0  0
   -2.6569    1.2882   -0.0385 H   0  0  0  0  0  0  0  0  0  0  0  0
   -1.4512    2.0535    1.0038 H   0  0  0  0  0  0  0  0  0  0  0  0
   -0.6998    1.4032   -0.9107 C   0  0  0  0  0  0  0  0  0  0  0  0
   -0.2685    2.4052   -0.9080 H   0  0  0  0  0  0  0  0  0  0  0  0
    0.1020    0.6657   -0.8623 H   0  0  0  0  0  0  0  0  0  0  0  0
   -1.4994    1.2036   -2.2054 C   0  0  0  0  0  0  0  0  0  0  0  0
   -1.9493    0.2083   -2.1874 H   0  0  0  0  0  0  0  0  0  0  0  0
   -2.2963    1.9502   -2.2404 H   0  0  0  0  0  0  0  0  0  0  0  0
   -0.6451    1.3366   -3.4034 N   0  3  0  0  0  0  0  0  0  0  0  0
    0.3177    1.5811   -3.2468 H   0  0  0  0  0  0  0  0  0  0  0  0
   -1.0263    1.1646   -4.6581 C   0  0  0  0  0  0  0  0  0  0  0  0
   -2.2506    0.8467   -4.9733 N   0  0  0  0  0  0  0  0  0  0  0  0
   -2.9242    0.7275   -4.2374 H   0  0  0  0  0  0  0  0  0  0  0  0
   -2.5234    0.7203   -5.9306 H   0  0  0  0  0  0  0  0  0  0  0  0
   -0.1743    1.3118   -5.6326 N   0  0  0  0  0  0  0  0  0  0  0  0
    0.7816    1.5565   -5.4392 H   0  0  0  0  0  0  0  0  0  0  0  0
   -0.4676    1.1804   -6.5830 H   0  0  0  0  0  0  0  0  0  0  0  0
   -0.9523    0.1012    2.4848 C   0  0  0  0  0  0  0  0  0  0  0  0
    0.2133   -0.1319    2.7814 O   0  0  0  0  0  0  0  0  0  0  0  0
   -1.8684    0.5006    3.3725 N   0  0  0  0  0  0  0  0  0  0  0  0
   -2.7946    0.7048    3.0343 H   0  0  0  0  0  0  0  0  0  0  0  0
   -1.5848    0.7472    4.7873 C   0  0  0  0  0  0  0  0  0  0  0  0
   -0.8819    1.5774    4.8838 H   0  0  0  0  0  0  0  0  0  0  0  0
   -2.5030    0.9948    5.3214 H   0  0  0  0  0  0  0  0  0  0  0  0
   -1.1344   -0.1399    5.2381 H   0  0  0  0  0  0  0  0  0  0  0  0
  5  6  2  0  0  0  0
  5  7  1  0  0  0  0
  2  3  1  0  0  0  0
  2  4  1  0  0  0  0
  2  5  1  0  0  0  0
  1  2  1  0  0  0  0
 29 30  2  0  0  0  0
 29 31  1  0  0  0  0
 26 27  1  0  0  0  0
 26 28  1  0  0  0  0
 23 24  1  0  0  0  0
 23 25  1  0  0  0  0
 22 23  1  0  0  0  0
 22 26  1  0  0  0  0
 20 21  1  0  0  0  0
 20 22  2  0  0  0  0
 17 18  1  0  0  0  0
 17 19  1  0  0  0  0
 17 20  1  0  0  0  0
 14 15  1  0  0  0  0
 14 16  1  0  0  0  0
 14 17  1  0  0  0  0
 11 12  1  0  0  0  0
 11 13  1  0  0  0  0
 11 14  1  0  0  0  0
  9 10  1  0  0  0  0
  9 11  1  0  0  0  0
  9 29  1  0  0  0  0
  7  8  1  0  0  0  0
  7  9  1  0  0  0  0
 33 34  1  0  0  0  0
 33 35  1  0  0  0  0
 33 36  1  0  0  0  0
 31 32  1  0  0  0  0
 31 33  1  0  0  0  0
M  CHG  1  20   1
M  END
$$$$
default_name
  -OEChem-02102213163D

 36 35  0     1  0  0  0  0  0999 V2000
   -4.2256   -3.6731    1.8584 H   0  0  0  0  0  0  0  0  0  0  0  0
   -4.2396   -2.6781    1.4144 C   0  0  0  0  0  0  0  0  0  0  0  0
   -4.9506   -2.0521    1.9514 H   0  0  0  0  0  0  0  0  0  0  0  0
   -4.5266   -2.7521    0.3674 H   0  0  0  0  0  0  0  0  0  0  0  0
   -2.8576   -2.0761    1.5184 C   0  0  0  0  0  0  0  0  0  0  0  0
   -1.9456   -2.7051    2.0404 O   0  0  0  0  0  0  0  0  0  0  0  0
   -2.6926   -0.8481    1.0174 N   0  0  0  0  0  0  0  0  0  0  0  0
   -3.4926   -0.3971    0.5954 H   0  0  0  0  0  0  0  0  0  0  0  0
   -1.4216   -0.1071    1.0434 C   0  0  1  0  0  0  0  0  0  0  0  0
   -0.6709   -0.6930    0.5106 H   0  0  0  0  0  0  0  0  0  0  0  0
   -1.6221    1.2315    0.3051 C   0  0  0  0  0  0  0  0  0  0  0  0
   -2.6569    1.2882   -0.0385 H   0  0  0  0  0  0  0  0  0  0  0  0
   -1.4512    2.0535    1.0038 H   0  0  0  0  0  0  0  0  0  0  0  0
   -0.6998    1.4032   -0.9107 C   0  0  0  0  0  0  0  0  0  0  0  0
   -0.0703    2.2837   -0.7748 H   0  0  0  0  0  0  0  0  0  0  0  0
   -0.0676    0.5204   -1.0115 H   0  0  0  0  0  0  0  0  0  0  0  0
   -1.5398    1.5775   -2.1833 C   0  0  0  0  0  0  0  0  0  0  0  0
   -2.1859    0.7040   -2.2969 H   0  0  0  0  0  0  0  0  0  0  0  0
   -2.1651    2.4659   -2.0681 H   0  0  0  0  0  0  0  0  0  0  0  0
   -0.6919    1.7227   -3.3844 N   0  3  0  0  0  0  0  0  0  0  0  0
    0.3026    1.7391   -3.2359 H   0  0  0  0  0  0  0  0  0  0  0  0
   -1.1164    1.8326   -4.6321 C   0  0  0  0  0  0  0  0  0  0  0  0
   -2.3839    1.8234   -4.9364 N   0  0  0  0  0  0  0  0  0  0  0  0
   -3.0581    1.7281   -4.1977 H   0  0  0  0  0  0  0  0  0  0  0  0
   -2.6892    1.9082   -5.8885 H   0  0  0  0  0  0  0  0  0  0  0  0
   -0.2648    1.9567   -5.6102 N   0  0  0  0  0  0  0  0  0  0  0  0
    0.7234    1.9688   -5.4251 H   0  0  0  0  0  0  0  0  0  0  0  0
   -0.5911    2.0397   -6.5553 H   0  0  0  0  0  0  0  0  0  0  0  0
   -0.9523    0.1012    2.4848 C   0  0  0  0  0  0  0  0  0  0  0  0
    0.2133   -0.1319    2.7814 O   0  0  0  0  0  0  0  0  0  0  0  0
   -1.8684    0.5006    3.3725 N   0  0  0  0  0  0  0  0  0  0  0  0
   -2.7946    0.7048    3.0343 H   0  0  0  0  0  0  0  0  0  0  0  0
   -1.5848    0.7472    4.7873 C   0  0  0  0  0  0  0  0  0  0  0  0
   -0.8819    1.5774    4.8838 H   0  0  0  0  0  0  0  0  0  0  0  0
   -2.5030    0.9948    5.3214 H   0  0  0  0  0  0  0  0  0  0  0  0
   -1.1344   -0.1399    5.2381 H   0  0  0  0  0  0  0  0  0  0  0  0
  5  6  2  0  0  0  0
  5  7  1  0  0  0  0
  2  3  1  0  0  0  0
  2  4  1  0  0  0  0
  2  5  1  0  0  0  0
  1  2  1  0  0  0  0
 29 30  2  0  0  0  0
 29 31  1  0  0  0  0
 26 27  1  0  0  0  0
 26 28  1  0  0  0  0
 23 24  1  0  0  0  0
 23 25  1  0  0  0  0
 22 23  1  0  0  0  0
 22 26  1  0  0  0  0
 20 21  1  0  0  0  0
 20 22  2  0  0  0  0
 17 18  1  0  0  0  0
 17 19  1  0  0  0  0
 17 20  1  0  0  0  0
 14 15  1  0  0  0  0
 14 16  1  0  0  0  0
 14 17  1  0  0  0  0
 11 12  1  0  0  0  0
 11 13  1  0  0  0  0
 11 14  1  0  0  0  0
  9 10  1  0  0  0  0
  9 11  1  0  0  0  0
  9 29  1  0  0  0  0
  7  8  1  0  0  0  0
  7  9  1  0  0  0  0
 33 34  1  0  0  0  0
 33 35  1  0  0  0  0
 33 36  1  0  0  0  0
 31 32  1  0  0  0  0
 31 33  1  0  0  0  0
M  CHG  1  20   1
M  END
$$$$
default_name
  -OEChem-02102213163D

 36 35  0     1  0  0  0  0  0999 V2000
   -4.2256   -3.6731    1.8584 H   0  0  0  0  0  0  0  0  0  0  0  0
   -4.2396   -2.6781    1.4144 C   0  0  0  0  0  0  0  0  0  0  0  0
   -4.9506   -2.0521    1.9514 H   0  0  0  0  0  0  0  0  0  0  0  0
   -4.5266   -2.7521    0.3674 H   0  0  0  0  0  0  0  0  0  0  0  0
   -2.8576   -2.0761    1.5184 C   0  0  0  0  0  0  0  0  0  0  0  0
   -1.9456   -2.7051    2.0404 O   0  0  0  0  0  0  0  0  0  0  0  0
   -2.6926   -0.8481    1.0174 N   0  0  0  0  0  0  0  0  0  0  0  0
   -3.4926   -0.3971    0.5954 H   0  0  0  0  0  0  0  0  0  0  0  0
   -1.4216   -0.1071    1.0434 C   0  0  1  0  0  0  0  0  0  0  0  0
   -0.6709   -0.6930    0.5106 H   0  0  0  0  0  0  0  0  0  0  0  0
   -1.6221    1.2315    0.3051 C   0  0  0  0  0  0  0  0  0  0  0  0
   -2.6569    1.2882   -0.0385 H   0  0  0  0  0  0  0  0  0  0  0  0
   -1.4512    2.0535    1.0038 H   0  0  0  0  0  0  0  0  0  0  0  0
   -0.6998    1.4032   -0.9107 C   0  0  0  0  0  0  0  0  0  0  0  0
    0.1002    2.1050   -0.6707 H   0  0  0  0  0  0  0  0  0  0  0  0
   -0.2656    0.4380   -1.1733 H   0  0  0  0  0  0  0  0  0  0  0  0
   -1.5016    1.9435   -2.1026 C   0  0  0  0  0  0  0  0  0  0  0  0
   -2.3161    1.2483   -2.3187 H   0  0  0  0  0  0  0  0  0  0  0  0
   -1.9278    2.9105   -1.8253 H   0  0  0  0  0  0  0  0  0  0  0  0
   -0.6574    2.1024   -3.3046 N   0  3  0  0  0  0  0  0  0  0  0  0
    0.3207    1.8931   -3.2004 H   0  0  0  0  0  0  0  0  0  0  0  0
   -1.0657    2.4923   -4.5005 C   0  0  0  0  0  0  0  0  0  0  0  0
   -2.3114    2.7884   -4.7452 N   0  0  0  0  0  0  0  0  0  0  0  0
   -2.9813    2.7159   -3.9999 H   0  0  0  0  0  0  0  0  0  0  0  0
   -2.6046    3.0831   -5.6584 H   0  0  0  0  0  0  0  0  0  0  0  0
   -0.2195    2.5946   -5.4858 N   0  0  0  0  0  0  0  0  0  0  0  0
    0.7520    2.3767   -5.3457 H   0  0  0  0  0  0  0  0  0  0  0  0
   -0.5335    2.8906   -6.3915 H   0  0  0  0  0  0  0  0  0  0  0  0
   -0.9523    0.1012    2.4848 C   0  0  0  0  0  0  0  0  0  0  0  0
    0.2133   -0.1319    2.7814 O   0  0  0  0  0  0  0  0  0  0  0  0
   -1.8684    0.5006    3.3725 N   0  0  0  0  0  0  0  0  0  0  0  0
   -2.7946    0.7048    3.0343 H   0  0  0  0  0  0  0  0  0  0  0  0
   -1.5848    0.7472    4.7873 C   0  0  0  0  0  0  0  0  0  0  0  0
   -0.8819    1.5774    4.8838 H   0  0  0  0  0  0  0  0  0  0  0  0
   -2.5030    0.9948    5.3214 H   0  0  0  0  0  0  0  0  0  0  0  0
   -1.1344   -0.1399    5.2381 H   0  0  0  0  0  0  0  0  0  0  0  0
  5  6  2  0  0  0  0
  5  7  1  0  0  0  0
  2  3  1  0  0  0  0
  2  4  1  0  0  0  0
  2  5  1  0  0  0  0
  1  2  1  0  0  0  0
 29 30  2  0  0  0  0
 29 31  1  0  0  0  0
 26 27  1  0  0  0  0
 26 28  1  0  0  0  0
 23 24  1  0  0  0  0
 23 25  1  0  0  0  0
 22 23  1  0  0  0  0
 22 26  1  0  0  0  0
 20 21  1  0  0  0  0
 20 22  2  0  0  0  0
 17 18  1  0  0  0  0
 17 19  1  0  0  0  0
 17 20  1  0  0  0  0
 14 15  1  0  0  0  0
 14 16  1  0  0  0  0
 14 17  1  0  0  0  0
 11 12  1  0  0  0  0
 11 13  1  0  0  0  0
 11 14  1  0  0  0  0
  9 10  1  0  0  0  0
  9 11  1  0  0  0  0
  9 29  1  0  0  0  0
  7  8  1  0  0  0  0
  7  9  1  0  0  0  0
 33 34  1  0  0  0  0
 33 35  1  0  0  0  0
 33 36  1  0  0  0  0
 31 32  1  0  0  0  0
 31 33  1  0  0  0  0
M  CHG  1  20   1
M  END
$$$$
default_name
  -OEChem-02102213163D

 36 35  0     1  0  0  0  0  0999 V2000
   -4.2256   -3.6731    1.8584 H   0  0  0  0  0  0  0  0  0  0  0  0
   -4.2396   -2.6781    1.4144 C   0  0  0  0  0  0  0  0  0  0  0  0
   -4.9506   -2.0521    1.9514 H   0  0  0  0  0  0  0  0  0  0  0  0
   -4.5266   -2.7521    0.3674 H   0  0  0  0  0  0  0  0  0  0  0  0
   -2.8576   -2.0761    1.5184 C   0  0  0  0  0  0  0  0  0  0  0  0
   -1.9456   -2.7051    2.0404 O   0  0  0  0  0  0  0  0  0  0  0  0
   -2.6926   -0.8481    1.0174 N   0  0  0  0  0  0  0  0  0  0  0  0
   -3.4926   -0.3971    0.5954 H   0  0  0  0  0  0  0  0  0  0  0  0
   -1.4216   -0.1071    1.0434 C   0  0  1  0  0  0  0  0  0  0  0  0
   -0.6709   -0.6930    0.5106 H   0  0  0  0  0  0  0  0  0  0  0  0
   -1.6221    1.2315    0.3051 C   0  0  0  0  0  0  0  0  0  0  0  0
   -2.6569    1.2882   -0.0385 H   0  0  0  0  0  0  0  0  0  0  0  0
   -1.4512    2.0535    1.0038 H   0  0  0  0  0  0  0  0  0  0  0  0
   -0.6998    1.4032   -0.9107 C   0  0  0  0  0  0  0  0  0  0  0  0
    0.2312    1.8813   -0.6029 H   0  0  0  0  0  0  0  0  0  0  0  0
   -0.4784    0.4241   -1.3367 H   0  0  0  0  0  0  0  0  0  0  0  0
   -1.3874    2.2766   -1.9689 C   0  0  0  0  0  0  0  0  0  0  0  0
   -2.3309    1.8041   -2.2515 H   0  0  0  0  0  0  0  0  0  0  0  0
   -1.6004    3.2535   -1.5284 H   0  0  0  0  0  0  0  0  0  0  0  0
   -0.5439    2.4496   -3.1695 N   0  3  0  0  0  0  0  0  0  0  0  0
    0.3709    2.0327   -3.1427 H   0  0  0  0  0  0  0  0  0  0  0  0
   -0.8778    3.0986   -4.2723 C   0  0  0  0  0  0  0  0  0  0  0  0
   -2.0382    3.6759   -4.4125 N   0  0  0  0  0  0  0  0  0  0  0  0
   -2.6990    3.6235   -3.6575 H   0  0  0  0  0  0  0  0  0  0  0  0
   -2.2755    4.1648   -5.2560 H   0  0  0  0  0  0  0  0  0  0  0  0
   -0.0414    3.1821   -5.2677 N   0  0  0  0  0  0  0  0  0  0  0  0
    0.8656    2.7525   -5.2065 H   0  0  0  0  0  0  0  0  0  0  0  0
   -0.2988    3.6754   -6.1026 H   0  0  0  0  0  0  0  0  0  0  0  0
   -0.9523    0.1012    2.4848 C   0  0  0  0  0  0  0  0  0  0  0  0
    0.2133   -0.1319    2.7814 O   0  0  0  0  0  0  0  0  0  0  0  0
   -1.8684    0.5006    3.3725 N   0  0  0  0  0  0  0  0  0  0  0  0
   -2.7946    0.7048    3.0343 H   0  0  0  0  0  0  0  0  0  0  0  0
   -1.5848    0.7472    4.7873 C   0  0  0  0  0  0  0  0  0  0  0  0
   -0.8819    1.5774    4.8838 H   0  0  0  0  0  0  0  0  0  0  0  0
   -2.5030    0.9948    5.3214 H   0  0  0  0  0  0  0  0  0  0  0  0
   -1.1344   -0.1399    5.2381 H   0  0  0  0  0  0  0  0  0  0  0  0
  5  6  2  0  0  0  0
  5  7  1  0  0  0  0
  2  3  1  0  0  0  0
  2  4  1  0  0  0  0
  2  5  1  0  0  0  0
  1  2  1  0  0  0  0
 29 30  2  0  0  0  0
 29 31  1  0  0  0  0
 26 27  1  0  0  0  0
 26 28  1  0  0  0  0
 23 24  1  0  0  0  0
 23 25  1  0  0  0  0
 22 23  1  0  0  0  0
 22 26  1  0  0  0  0
 20 21  1  0  0  0  0
 20 22  2  0  0  0  0
 17 18  1  0  0  0  0
 17 19  1  0  0  0  0
 17 20  1  0  0  0  0
 14 15  1  0  0  0  0
 14 16  1  0  0  0  0
 14 17  1  0  0  0  0
 11 12  1  0  0  0  0
 11 13  1  0  0  0  0
 11 14  1  0  0  0  0
  9 10  1  0  0  0  0
  9 11  1  0  0  0  0
  9 29  1  0  0  0  0
  7  8  1  0  0  0  0
  7  9  1  0  0  0  0
 33 34  1  0  0  0  0
 33 35  1  0  0  0  0
 33 36  1  0  0  0  0
 31 32  1  0  0  0  0
 31 33  1  0  0  0  0
M  CHG  1  20   1
M  END
$$$$
default_name
  -OEChem-02102213163D

 36 35  0     1  0  0  0  0  0999 V2000
   -4.2256   -3.6731    1.8584 H   0  0  0  0  0  0  0  0  0  0  0  0
   -4.2396   -2.6781    1.4144 C   0  0  0  0  0  0  0  0  0  0  0  0
   -4.9506   -2.0521    1.9514 H   0  0  0  0  0  0  0  0  0  0  0  0
   -4.5266   -2.7521    0.3674 H   0  0  0  0  0  0  0  0  0  0  0  0
   -2.8576   -2.0761    1.5184 C   0  0  0  0  0  0  0  0  0  0  0  0
   -1.9456   -2.7051    2.0404 O   0  0  0  0  0  0  0  0  0  0  0  0
   -2.6926   -0.8481    1.0174 N   0  0  0  0  0  0  0  0  0  0  0  0
   -3.4926   -0.3971    0.5954 H   0  0  0  0  0  0  0  0  0  0  0  0
   -1.4216   -0.1071    1.0434 C   0  0  1  0  0  0  0  0  0  0  0  0
   -0.6709   -0.6930    0.5106 H   0  0  0  0  0  0  0  0  0  0  0  0
   -1.6221    1.2315    0.3051 C   0  0  0  0  0  0  0  0  0  0  0  0
   -2.6569    1.2882   -0.0385 H   0  0  0  0  0  0  0  0  0  0  0  0
   -1.4512    2.0535    1.0038 H   0  0  0  0  0  0  0  0  0  0  0  0
   -0.6998    1.4032   -0.9107 C   0  0  0  0  0  0  0  0  0  0  0  0
    0.3139    1.6278   -0.5760 H   0  0  0  0  0  0  0  0  0  0  0  0
   -0.6915    0.4797   -1.4905 H   0  0  0  0  0  0  0  0  0  0  0  0
   -1.2049    2.5542   -1.7913 C   0  0  0  0  0  0  0  0  0  0  0  0
   -2.2294    2.3336   -2.0997 H   0  0  0  0  0  0  0  0  0  0  0  0
   -1.2052    3.4716   -1.1979 H   0  0  0  0  0  0  0  0  0  0  0  0
   -0.3593    2.7407   -2.9883 N   0  3  0  0  0  0  0  0  0  0  0  0
    0.4495    2.1483   -3.0667 H   0  0  0  0  0  0  0  0  0  0  0  0
   -0.5655    3.6103   -3.9631 C   0  0  0  0  0  0  0  0  0  0  0  0
   -1.5827    4.4255   -3.9612 N   0  0  0  0  0  0  0  0  0  0  0  0
   -2.2304    4.3891   -3.1939 H   0  0  0  0  0  0  0  0  0  0  0  0
   -1.7244    5.0797   -4.7087 H   0  0  0  0  0  0  0  0  0  0  0  0
    0.2573    3.6792   -4.9708 N   0  0  0  0  0  0  0  0  0  0  0  0
    1.0564    3.0706   -5.0169 H   0  0  0  0  0  0  0  0  0  0  0  0
    0.0972    4.3403   -5.7083 H   0  0  0  0  0  0  0  0  0  0  0  0
   -0.9523    0.1012    2.4848 C   0  0  0  0  0  0  0  0  0  0  0  0
    0.2133   -0.1319    2.7814 O   0  0  0  0  0  0  0  0  0  0  0  0
   -1.8684    0.5006    3.3725 N   0  0  0  0  0  0  0  0  0  0  0  0
   -2.7946    0.7048    3.0343 H   0  0  0  0  0  0  0  0  0  0  0  0
   -1.5848    0.7472    4.7873 C   0  0  0  0  0  0  0  0  0  0  0  0
   -0.8819    1.5774    4.8838 H   0  0  0  0  0  0  0  0  0  0  0  0
   -2.5030    0.9948    5.3214 H   0  0  0  0  0  0  0  0  0  0  0  0
   -1.1344   -0.1399    5.2381 H   0  0  0  0  0  0  0  0  0  0  0  0
  5  6  2  0  0  0  0
  5  7  1  0  0  0  0
  2  3  1  0  0  0  0
  2  4  1  0  0  0  0
  2  5  1  0  0  0  0
  1  2  1  0  0  0  0
 29 30  2  0  0  0  0
 29 31  1  0  0  0  0
 26 27  1  0  0  0  0
 26 28  1  0  0  0  0
 23 24  1  0  0  0  0
 23 25  1  0  0  0  0
 22 23  1  0  0  0  0
 22 26  1  0  0  0  0
 20 21  1  0  0  0  0
 20 22  2  0  0  0  0
 17 18  1  0  0  0  0
 17 19  1  0  0  0  0
 17 20  1  0  0  0  0
 14 15  1  0  0  0  0
 14 16  1  0  0  0  0
 14 17  1  0  0  0  0
 11 12  1  0  0  0  0
 11 13  1  0  0  0  0
 11 14  1  0  0  0  0
  9 10  1  0  0  0  0
  9 11  1  0  0  0  0
  9 29  1  0  0  0  0
  7  8  1  0  0  0  0
  7  9  1  0  0  0  0
 33 34  1  0  0  0  0
 33 35  1  0  0  0  0
 33 36  1  0  0  0  0
 31 32  1  0  0  0  0
 31 33  1  0  0  0  0
M  CHG  1  20   1
M  END
$$$$
default_name
  -OEChem-02102213163D

 36 35  0     1  0  0  0  0  0999 V2000
   -4.2256   -3.6731    1.8584 H   0  0  0  0  0  0  0  0  0  0  0  0
   -4.2396   -2.6781    1.4144 C   0  0  0  0  0  0  0  0  0  0  0  0
   -4.9506   -2.0521    1.9514 H   0  0  0  0  0  0  0  0  0  0  0  0
   -4.5266   -2.7521    0.3674 H   0  0  0  0  0  0  0  0  0  0  0  0
   -2.8576   -2.0761    1.5184 C   0  0  0  0  0  0  0  0  0  0  0  0
   -1.9456   -2.7051    2.0404 O   0  0  0  0  0  0  0  0  0  0  0  0
   -2.6926   -0.8481    1.0174 N   0  0  0  0  0  0  0  0  0  0  0  0
   -3.4926   -0.3971    0.5954 H   0  0  0  0  0  0  0  0  0  0  0  0
   -1.4216   -0.1071    1.0434 C   0  0  1  0  0  0  0  0  0  0  0  0
   -0.6709   -0.6930    0.5106 H   0  0  0  0  0  0  0  0  0  0  0  0
   -1.6221    1.2315    0.3051 C   0  0  0  0  0  0  0  0  0  0  0  0
   -2.6933    1.4133    0.1981 H   0  0  0  0  0  0  0  0  0  0  0  0
   -1.1998    2.0384    0.9081 H   0  0  0  0  0  0  0  0  0  0  0  0
   -0.9858    1.2602   -1.0922 C   0  0  0  0  0  0  0  0  0  0  0  0
    0.0890    1.0921   -1.0118 H   0  0  0  0  0  0  0  0  0  0  0  0
   -1.4283    0.4752   -1.7063 H   0  0  0  0  0  0  0  0  0  0  0  0
   -1.2334    2.6241   -1.7511 C   0  0  0  0  0  0  0  0  0  0  0  0
   -2.3110    2.7956   -1.8033 H   0  0  0  0  0  0  0  0  0  0  0  0
   -0.7829    3.3989   -1.1264 H   0  0  0  0  0  0  0  0  0  0  0  0
   -0.6577    2.6890   -3.1102 N   0  3  0  0  0  0  0  0  0  0  0  0
   -0.1459    1.8818   -3.4230 H   0  0  0  0  0  0  0  0  0  0  0  0
   -0.7522    3.7052   -3.9513 C   0  0  0  0  0  0  0  0  0  0  0  0
   -1.3923    4.7994   -3.6473 N   0  0  0  0  0  0  0  0  0  0  0  0
   -1.8283    4.8700   -2.7449 H   0  0  0  0  0  0  0  0  0  0  0  0
   -1.4542    5.5615   -4.2971 H   0  0  0  0  0  0  0  0  0  0  0  0
   -0.1974    3.6414   -5.1283 N   0  0  0  0  0  0  0  0  0  0  0  0
    0.3069    2.8178   -5.4083 H   0  0  0  0  0  0  0  0  0  0  0  0
   -0.2715    4.4146   -5.7633 H   0  0  0  0  0  0  0  0  0  0  0  0
   -0.9523    0.1012    2.4848 C   0  0  0  0  0  0  0  0  0  0  0  0
    0.2133   -0.1319    2.7814 O   0  0  0  0  0  0  0  0  0  0  0  0
   -1.8684    0.5006    3.3725 N   0  0  0  0  0  0  0  0  0  0  0  0
   -2.7946    0.7048    3.0343 H   0  0  0  0  0  0  0  0  0  0  0  0
   -1.5848    0.7472    4.7873 C   0  0  0  0  0  0  0  0  0  0  0  0
   -0.8819    1.5774    4.8838 H   0  0  0  0  0  0  0  0  0  0  0  0
   -2.5030    0.9948    5.3214 H   0  0  0  0  0  0  0  0  0  0  0  0
   -1.1344   -0.1399    5.2381 H   0  0  0  0  0  0  0  0  0  0  0  0
  5  6  2  0  0  0  0
  5  7  1  0  0  0  0
  2  3  1  0  0  0  0
  2  4  1  0  0  0  0
  2  5  1  0  0  0  0
  1  2  1  0  0  0  0
 29 30  2  0  0  0  0
 29 31  1  0  0  0  0
 26 27  1  0  0  0  0
 26 28  1  0  0  0  0
 23 24  1  0  0  0  0
 23 25  1  0  0  0  0
 22 23  1  0  0  0  0
 22 26  1  0  0  0  0
 20 21  1  0  0  0  0
 20 22  2  0  0  0  0
 17 18  1  0  0  0  0
 17 19  1  0  0  0  0
 17 20  1  0  0  0  0
 14 15  1  0  0  0  0
 14 16  1  0  0  0  0
 14 17  1  0  0  0  0
 11 12  1  0  0  0  0
 11 13  1  0  0  0  0
 11 14  1  0  0  0  0
  9 10  1  0  0  0  0
  9 11  1  0  0  0  0
  9 29  1  0  0  0  0
  7  8  1  0  0  0  0
  7  9  1  0  0  0  0
 33 34  1  0  0  0  0
 33 35  1  0  0  0  0
 33 36  1  0  0  0  0
 31 32  1  0  0  0  0
 31 33  1  0  0  0  0
M  CHG  1  20   1
M  END
$$$$
default_name
  -OEChem-02102213163D

 36 35  0     1  0  0  0  0  0999 V2000
   -4.2256   -3.6731    1.8584 H   0  0  0  0  0  0  0  0  0  0  0  0
   -4.2396   -2.6781    1.4144 C   0  0  0  0  0  0  0  0  0  0  0  0
   -4.9506   -2.0521    1.9514 H   0  0  0  0  0  0  0  0  0  0  0  0
   -4.5266   -2.7521    0.3674 H   0  0  0  0  0  0  0  0  0  0  0  0
   -2.8576   -2.0761    1.5184 C   0  0  0  0  0  0  0  0  0  0  0  0
   -1.9456   -2.7051    2.0404 O   0  0  0  0  0  0  0  0  0  0  0  0
   -2.6926   -0.8481    1.0174 N   0  0  0  0  0  0  0  0  0  0  0  0
   -3.4926   -0.3971    0.5954 H   0  0  0  0  0  0  0  0  0  0  0  0
   -1.4216   -0.1071    1.0434 C   0  0  1  0  0  0  0  0  0  0  0  0
   -0.6709   -0.6930    0.5106 H   0  0  0  0  0  0  0  0  0  0  0  0
   -1.6221    1.2315    0.3051 C   0  0  0  0  0  0  0  0  0  0  0  0
   -2.6933    1.4133    0.1981 H   0  0  0  0  0  0  0  0  0  0  0  0
   -1.1998    2.0384    0.9081 H   0  0  0  0  0  0  0  0  0  0  0  0
   -0.9858    1.2602   -1.0922 C   0  0  0  0  0  0  0  0  0  0  0  0
    0.0184    0.8363   -1.0492 H   0  0  0  0  0  0  0  0  0  0  0  0
   -1.5960    0.6722   -1.7786 H   0  0  0  0  0  0  0  0  0  0  0  0
   -0.8996    2.7069   -1.5974 C   0  0  0  0  0  0  0  0  0  0  0  0
   -1.9059    3.1317   -1.6119 H   0  0  0  0  0  0  0  0  0  0  0  0
   -0.2841    3.2820   -0.9017 H   0  0  0  0  0  0  0  0  0  0  0  0
   -0.3140    2.7807   -2.9518 N   0  3  0  0  0  0  0  0  0  0  0  0
   -0.0044    1.9144   -3.3579 H   0  0  0  0  0  0  0  0  0  0  0  0
   -0.1594    3.8752   -3.6779 C   0  0  0  0  0  0  0  0  0  0  0  0
   -0.5259    5.0499   -3.2477 N   0  0  0  0  0  0  0  0  0  0  0  0
   -0.9402    5.1234   -2.3354 H   0  0  0  0  0  0  0  0  0  0  0  0
   -0.4011    5.8707   -3.8113 H   0  0  0  0  0  0  0  0  0  0  0  0
    0.3741    3.8099   -4.8647 N   0  0  0  0  0  0  0  0  0  0  0  0
    0.6722    2.9259   -5.2397 H   0  0  0  0  0  0  0  0  0  0  0  0
    0.4894    4.6427   -5.4122 H   0  0  0  0  0  0  0  0  0  0  0  0
   -0.9523    0.1012    2.4848 C   0  0  0  0  0  0  0  0  0  0  0  0
    0.2133   -0.1319    2.7814 O   0  0  0  0  0  0  0  0  0  0  0  0
   -1.8684    0.5006    3.3725 N   0  0  0  0  0  0  0  0  0  0  0  0
   -2.7946    0.7048    3.0343 H   0  0  0  0  0  0  0  0  0  0  0  0
   -1.5848    0.7472    4.7873 C   0  0  0  0  0  0  0  0  0  0  0  0
   -0.8819    1.5774    4.8838 H   0  0  0  0  0  0  0  0  0  0  0  0
   -2.5030    0.9948    5.3214 H   0  0  0  0  0  0  0  0  0  0  0  0
   -1.1344   -0.1399    5.2381 H   0  0  0  0  0  0  0  0  0  0  0  0
  5  6  2  0  0  0  0
  5  7  1  0  0  0  0
  2  3  1  0  0  0  0
  2  4  1  0  0  0  0
  2  5  1  0  0  0  0
  1  2  1  0  0  0  0
 29 30  2  0  0  0  0
 29 31  1  0  0  0  0
 26 27  1  0  0  0  0
 26 28  1  0  0  0  0
 23 24  1  0  0  0  0
 23 25  1  0  0  0  0
 22 23  1  0  0  0  0
 22 26  1  0  0  0  0
 20 21  1  0  0  0  0
 20 22  2  0  0  0  0
 17 18  1  0  0  0  0
 17 19  1  0  0  0  0
 17 20  1  0  0  0  0
 14 15  1  0  0  0  0
 14 16  1  0  0  0  0
 14 17  1  0  0  0  0
 11 12  1  0  0  0  0
 11 13  1  0  0  0  0
 11 14  1  0  0  0  0
  9 10  1  0  0  0  0
  9 11  1  0  0  0  0
  9 29  1  0  0  0  0
  7  8  1  0  0  0  0
  7  9  1  0  0  0  0
 33 34  1  0  0  0  0
 33 35  1  0  0  0  0
 33 36  1  0  0  0  0
 31 32  1  0  0  0  0
 31 33  1  0  0  0  0
M  CHG  1  20   1
M  END
$$$$
default_name
  -OEChem-02102213163D

 36 35  0     1  0  0  0  0  0999 V2000
   -4.2256   -3.6731    1.8584 H   0  0  0  0  0  0  0  0  0  0  0  0
   -4.2396   -2.6781    1.4144 C   0  0  0  0  0  0  0  0  0  0  0  0
   -4.9506   -2.0521    1.9514 H   0  0  0  0  0  0  0  0  0  0  0  0
   -4.5266   -2.7521    0.3674 H   0  0  0  0  0  0  0  0  0  0  0  0
   -2.8576   -2.0761    1.5184 C   0  0  0  0  0  0  0  0  0  0  0  0
   -1.9456   -2.7051    2.0404 O   0  0  0  0  0  0  0  0  0  0  0  0
   -2.6926   -0.8481    1.0174 N   0  0  0  0  0  0  0  0  0  0  0  0
   -3.4926   -0.3971    0.5954 H   0  0  0  0  0  0  0  0  0  0  0  0
   -1.4216   -0.1071    1.0434 C   0  0  1  0  0  0  0  0  0  0  0  0
   -0.6709   -0.6930    0.5106 H   0  0  0  0  0  0  0  0  0  0  0  0
   -1.6221    1.2315    0.3051 C   0  0  0  0  0  0  0  0  0  0  0  0
   -2.6933    1.4133    0.1981 H   0  0  0  0  0  0  0  0  0  0  0  0
   -1.1998    2.0384    0.9081 H   0  0  0  0  0  0  0  0  0  0  0  0
   -0.9858    1.2602   -1.0922 C   0  0  0  0  0  0  0  0  0  0  0  0
   -0.1102    0.6099   -1.1124 H   0  0  0  0  0  0  0  0  0  0  0  0
   -1.7119    0.9098   -1.8265 H   0  0  0  0  0  0  0  0  0  0  0  0
   -0.5569    2.6918   -1.4417 C   0  0  0  0  0  0  0  0  0  0  0  0
   -1.4345    3.3405   -1.3930 H   0  0  0  0  0  0  0  0  0  0  0  0
    0.1713    3.0275   -0.6996 H   0  0  0  0  0  0  0  0  0  0  0  0
    0.0405    2.7713   -2.7907 N   0  3  0  0  0  0  0  0  0  0  0  0
    0.1403    1.9054   -3.2923 H   0  0  0  0  0  0  0  0  0  0  0  0
    0.4545    3.8705   -3.3985 C   0  0  0  0  0  0  0  0  0  0  0  0
    0.3719    5.0450   -2.8390 N   0  0  0  0  0  0  0  0  0  0  0  0
   -0.0207    5.1151   -1.9169 H   0  0  0  0  0  0  0  0  0  0  0  0
    0.6911    5.8692   -3.3140 H   0  0  0  0  0  0  0  0  0  0  0  0
    0.9670    3.8098   -4.5947 N   0  0  0  0  0  0  0  0  0  0  0  0
    1.0513    2.9263   -5.0671 H   0  0  0  0  0  0  0  0  0  0  0  0
    1.2798    4.6461   -5.0523 H   0  0  0  0  0  0  0  0  0  0  0  0
   -0.9523    0.1012    2.4848 C   0  0  0  0  0  0  0  0  0  0  0  0
    0.2133   -0.1319    2.7814 O   0  0  0  0  0  0  0  0  0  0  0  0
   -1.8684    0.5006    3.3725 N   0  0  0  0  0  0  0  0  0  0  0  0
   -2.7946    0.7048    3.0343 H   0  0  0  0  0  0  0  0  0  0  0  0
   -1.5848    0.7472    4.7873 C   0  0  0  0  0  0  0  0  0  0  0  0
   -0.8819    1.5774    4.8838 H   0  0  0  0  0  0  0  0  0  0  0  0
   -2.5030    0.9948    5.3214 H   0  0  0  0  0  0  0  0  0  0  0  0
   -1.1344   -0.1399    5.2381 H   0  0  0  0  0  0  0  0  0  0  0  0
  5  6  2  0  0  0  0
  5  7  1  0  0  0  0
  2  3  1  0  0  0  0
  2  4  1  0  0  0  0
  2  5  1  0  0  0  0
  1  2  1  0  0  0  0
 29 30  2  0  0  0  0
 29 31  1  0  0  0  0
 26 27  1  0  0  0  0
 26 28  1  0  0  0  0
 23 24  1  0  0  0  0
 23 25  1  0  0  0  0
 22 23  1  0  0  0  0
 22 26  1  0  0  0  0
 20 21  1  0  0  0  0
 20 22  2  0  0  0  0
 17 18  1  0  0  0  0
 17 19  1  0  0  0  0
 17 20  1  0  0  0  0
 14 15  1  0  0  0  0
 14 16  1  0  0  0  0
 14 17  1  0  0  0  0
 11 12  1  0  0  0  0
 11 13  1  0  0  0  0
 11 14  1  0  0  0  0
  9 10  1  0  0  0  0
  9 11  1  0  0  0  0
  9 29  1  0  0  0  0
  7  8  1  0  0  0  0
  7  9  1  0  0  0  0
 33 34  1  0  0  0  0
 33 35  1  0  0  0  0
 33 36  1  0  0  0  0
 31 32  1  0  0  0  0
 31 33  1  0  0  0  0
M  CHG  1  20   1
M  END
$$$$
default_name
  -OEChem-02102213163D

 36 35  0     1  0  0  0  0  0999 V2000
   -4.2256   -3.6731    1.8584 H   0  0  0  0  0  0  0  0  0  0  0  0
   -4.2396   -2.6781    1.4144 C   0  0  0  0  0  0  0  0  0  0  0  0
   -4.9506   -2.0521    1.9514 H   0  0  0  0  0  0  0  0  0  0  0  0
   -4.5266   -2.7521    0.3674 H   0  0  0  0  0  0  0  0  0  0  0  0
   -2.8576   -2.0761    1.5184 C   0  0  0  0  0  0  0  0  0  0  0  0
   -1.9456   -2.7051    2.0404 O   0  0  0  0  0  0  0  0  0  0  0  0
   -2.6926   -0.8481    1.0174 N   0  0  0  0  0  0  0  0  0  0  0  0
   -3.4926   -0.3971    0.5954 H   0  0  0  0  0  0  0  0  0  0  0  0
   -1.4216   -0.1071    1.0434 C   0  0  1  0  0  0  0  0  0  0  0  0
   -0.6709   -0.6930    0.5106 H   0  0  0  0  0  0  0  0  0  0  0  0
   -1.6221    1.2315    0.3051 C   0  0  0  0  0  0  0  0  0  0  0  0
   -2.6933    1.4133    0.1981 H   0  0  0  0  0  0  0  0  0  0  0  0
   -1.1998    2.0384    0.9081 H   0  0  0  0  0  0  0  0  0  0  0  0
   -0.9858    1.2602   -1.0922 C   0  0  0  0  0  0  0  0  0  0  0  0
   -0.2881    0.4282   -1.1971 H   0  0  0  0  0  0  0  0  0  0  0  0
   -1.7682    1.1717   -1.8467 H   0  0  0  0  0  0  0  0  0  0  0  0
   -0.2287    2.5798   -1.2946 C   0  0  0  0  0  0  0  0  0  0  0  0
   -0.9290    3.4076   -1.1615 H   0  0  0  0  0  0  0  0  0  0  0  0
    0.5522    2.6527   -0.5339 H   0  0  0  0  0  0  0  0  0  0  0  0
    0.3814    2.6615   -2.6377 N   0  3  0  0  0  0  0  0  0  0  0  0
    0.2782    1.8557   -3.2305 H   0  0  0  0  0  0  0  0  0  0  0  0
    1.0477    3.6914   -3.1321 C   0  0  0  0  0  0  0  0  0  0  0  0
    1.2399    4.7850   -2.4492 N   0  0  0  0  0  0  0  0  0  0  0  0
    0.8675    4.8456   -1.5180 H   0  0  0  0  0  0  0  0  0  0  0  0
    1.7483    5.5572   -2.8392 H   0  0  0  0  0  0  0  0  0  0  0  0
    1.5411    3.6412   -4.3368 N   0  0  0  0  0  0  0  0  0  0  0  0
    1.4184    2.8188   -4.9022 H   0  0  0  0  0  0  0  0  0  0  0  0
    2.0459    4.4247   -4.7080 H   0  0  0  0  0  0  0  0  0  0  0  0
   -0.9523    0.1012    2.4848 C   0  0  0  0  0  0  0  0  0  0  0  0
    0.2133   -0.1319    2.7814 O   0  0  0  0  0  0  0  0  0  0  0  0
   -1.8684    0.5006    3.3725 N   0  0  0  0  0  0  0  0  0  0  0  0
   -2.7946    0.7048    3.0343 H   0  0  0  0  0  0  0  0  0  0  0  0
   -1.5848    0.7472    4.7873 C   0  0  0  0  0  0  0  0  0  0  0  0
   -0.8819    1.5774    4.8838 H   0  0  0  0  0  0  0  0  0  0  0  0
   -2.5030    0.9948    5.3214 H   0  0  0  0  0  0  0  0  0  0  0  0
   -1.1344   -0.1399    5.2381 H   0  0  0  0  0  0  0  0  0  0  0  0
  5  6  2  0  0  0  0
  5  7  1  0  0  0  0
  2  3  1  0  0  0  0
  2  4  1  0  0  0  0
  2  5  1  0  0  0  0
  1  2  1  0  0  0  0
 29 30  2  0  0  0  0
 29 31  1  0  0  0  0
 26 27  1  0  0  0  0
 26 28  1  0  0  0  0
 23 24  1  0  0  0  0
 23 25  1  0  0  0  0
 22 23  1  0  0  0  0
 22 26  1  0  0  0  0
 20 21  1  0  0  0  0
 20 22  2  0  0  0  0
 17 18  1  0  0  0  0
 17 19  1  0  0  0  0
 17 20  1  0  0  0  0
 14 15  1  0  0  0  0
 14 16  1  0  0  0  0
 14 17  1  0  0  0  0
 11 12  1  0  0  0  0
 11 13  1  0  0  0  0
 11 14  1  0  0  0  0
  9 10  1  0  0  0  0
  9 11  1  0  0  0  0
  9 29  1  0  0  0  0
  7  8  1  0  0  0  0
  7  9  1  0  0  0  0
 33 34  1  0  0  0  0
 33 35  1  0  0  0  0
 33 36  1  0  0  0  0
 31 32  1  0  0  0  0
 31 33  1  0  0  0  0
M  CHG  1  20   1
M  END
$$$$
default_name
  -OEChem-02102213163D

 36 35  0     1  0  0  0  0  0999 V2000
   -4.2256   -3.6731    1.8584 H   0  0  0  0  0  0  0  0  0  0  0  0
   -4.2396   -2.6781    1.4144 C   0  0  0  0  0  0  0  0  0  0  0  0
   -4.9506   -2.0521    1.9514 H   0  0  0  0  0  0  0  0  0  0  0  0
   -4.5266   -2.7521    0.3674 H   0  0  0  0  0  0  0  0  0  0  0  0
   -2.8576   -2.0761    1.5184 C   0  0  0  0  0  0  0  0  0  0  0  0
   -1.9456   -2.7051    2.0404 O   0  0  0  0  0  0  0  0  0  0  0  0
   -2.6926   -0.8481    1.0174 N   0  0  0  0  0  0  0  0  0  0  0  0
   -3.4926   -0.3971    0.5954 H   0  0  0  0  0  0  0  0  0  0  0  0
   -1.4216   -0.1071    1.0434 C   0  0  1  0  0  0  0  0  0  0  0  0
   -0.6709   -0.6930    0.5106 H   0  0  0  0  0  0  0  0  0  0  0  0
   -1.6221    1.2315    0.3051 C   0  0  0  0  0  0  0  0  0  0  0  0
   -2.6933    1.4133    0.1981 H   0  0  0  0  0  0  0  0  0  0  0  0
   -1.1998    2.0384    0.9081 H   0  0  0  0  0  0  0  0  0  0  0  0
   -0.9858    1.2602   -1.0922 C   0  0  0  0  0  0  0  0  0  0  0  0
   -0.5031    0.3037   -1.2976 H   0  0  0  0  0  0  0  0  0  0  0  0
   -1.7609    1.4401   -1.8379 H   0  0  0  0  0  0  0  0  0  0  0  0
    0.0627    2.3785   -1.1661 C   0  0  0  0  0  0  0  0  0  0  0  0
   -0.4237    3.3285   -0.9331 H   0  0  0  0  0  0  0  0  0  0  0  0
    0.8326    2.1833   -0.4158 H   0  0  0  0  0  0  0  0  0  0  0  0
    0.6855    2.4588   -2.5034 N   0  3  0  0  0  0  0  0  0  0  0  0
    0.4001    1.7686   -3.1768 H   0  0  0  0  0  0  0  0  0  0  0  0
    1.5799    3.3501   -2.8968 C   0  0  0  0  0  0  0  0  0  0  0  0
    2.0190    4.2876   -2.1047 N   0  0  0  0  0  0  0  0  0  0  0  0
    1.6640    4.3334   -1.1659 H   0  0  0  0  0  0  0  0  0  0  0  0
    2.6982    4.9560   -2.4190 H   0  0  0  0  0  0  0  0  0  0  0  0
    2.0571    3.3154   -4.1086 N   0  0  0  0  0  0  0  0  0  0  0  0
    1.7485    2.6109   -4.7562 H   0  0  0  0  0  0  0  0  0  0  0  0
    2.7354    3.9935   -4.4030 H   0  0  0  0  0  0  0  0  0  0  0  0
   -0.9523    0.1012    2.4848 C   0  0  0  0  0  0  0  0  0  0  0  0
    0.2133   -0.1319    2.7814 O   0  0  0  0  0  0  0  0  0  0  0  0
   -1.8684    0.5006    3.3725 N   0  0  0  0  0  0  0  0  0  0  0  0
   -2.7946    0.7048    3.0343 H   0  0  0  0  0  0  0  0  0  0  0  0
   -1.5848    0.7472    4.7873 C   0  0  0  0  0  0  0  0  0  0  0  0
   -0.8819    1.5774    4.8838 H   0  0  0  0  0  0  0  0  0  0  0  0
   -2.5030    0.9948    5.3214 H   0  0  0  0  0  0  0  0  0  0  0  0
   -1.1344   -0.1399    5.2381 H   0  0  0  0  0  0  0  0  0  0  0  0
  5  6  2  0  0  0  0
  5  7  1  0  0  0  0
  2  3  1  0  0  0  0
  2  4  1  0  0  0  0
  2  5  1  0  0  0  0
  1  2  1  0  0  0  0
 29 30  2  0  0  0  0
 29 31  1  0  0  0  0
 26 27  1  0  0  0  0
 26 28  1  0  0  0  0
 23 24  1  0  0  0  0
 23 25  1  0  0  0  0
 22 23  1  0  0  0  0
 22 26  1  0  0  0  0
 20 21  1  0  0  0  0
 20 22  2  0  0  0  0
 17 18  1  0  0  0  0
 17 19  1  0  0  0  0
 17 20  1  0  0  0  0
 14 15  1  0  0  0  0
 14 16  1  0  0  0  0
 14 17  1  0  0  0  0
 11 12  1  0  0  0  0
 11 13  1  0  0  0  0
 11 14  1  0  0  0  0
  9 10  1  0  0  0  0
  9 11  1  0  0  0  0
  9 29  1  0  0  0  0
  7  8  1  0  0  0  0
  7  9  1  0  0  0  0
 33 34  1  0  0  0  0
 33 35  1  0  0  0  0
 33 36  1  0  0  0  0
 31 32  1  0  0  0  0
 31 33  1  0  0  0  0
M  CHG  1  20   1
M  END
$$$$
default_name
  -OEChem-02102213163D

 36 35  0     1  0  0  0  0  0999 V2000
   -4.2256   -3.6731    1.8584 H   0  0  0  0  0  0  0  0  0  0  0  0
   -4.2396   -2.6781    1.4144 C   0  0  0  0  0  0  0  0  0  0  0  0
   -4.9506   -2.0521    1.9514 H   0  0  0  0  0  0  0  0  0  0  0  0
   -4.5266   -2.7521    0.3674 H   0  0  0  0  0  0  0  0  0  0  0  0
   -2.8576   -2.0761    1.5184 C   0  0  0  0  0  0  0  0  0  0  0  0
   -1.9456   -2.7051    2.0404 O   0  0  0  0  0  0  0  0  0  0  0  0
   -2.6926   -0.8481    1.0174 N   0  0  0  0  0  0  0  0  0  0  0  0
   -3.4926   -0.3971    0.5954 H   0  0  0  0  0  0  0  0  0  0  0  0
   -1.4216   -0.1071    1.0434 C   0  0  1  0  0  0  0  0  0  0  0  0
   -0.6709   -0.6930    0.5106 H   0  0  0  0  0  0  0  0  0  0  0  0
   -1.6221    1.2315    0.3051 C   0  0  0  0  0  0  0  0  0  0  0  0
   -2.6933    1.4133    0.1981 H   0  0  0  0  0  0  0  0  0  0  0  0
   -1.1998    2.0384    0.9081 H   0  0  0  0  0  0  0  0  0  0  0  0
   -0.9858    1.2602   -1.0922 C   0  0  0  0  0  0  0  0  0  0  0  0
   -0.7406    0.2449   -1.4069 H   0  0  0  0  0  0  0  0  0  0  0  0
   -1.6907    1.6967   -1.8006 H   0  0  0  0  0  0  0  0  0  0  0  0
    0.2974    2.1017   -1.0649 C   0  0  0  0  0  0  0  0  0  0  0  0
    0.0468    3.1087   -0.7234 H   0  0  0  0  0  0  0  0  0  0  0  0
    0.9935    1.6511   -0.3535 H   0  0  0  0  0  0  0  0  0  0  0  0
    0.9322    2.1769   -2.3968 N   0  3  0  0  0  0  0  0  0  0  0  0
    0.4975    1.6500   -3.1349 H   0  0  0  0  0  0  0  0  0  0  0  0
    2.0146    2.8699   -2.7087 C   0  0  0  0  0  0  0  0  0  0  0  0
    2.6561    3.5868   -1.8291 N   0  0  0  0  0  0  0  0  0  0  0  0
    2.3144    3.6133   -0.8846 H   0  0  0  0  0  0  0  0  0  0  0  0
    3.4762    4.1065   -2.0823 H   0  0  0  0  0  0  0  0  0  0  0  0
    2.4799    2.8547   -3.9255 N   0  0  0  0  0  0  0  0  0  0  0  0
    2.0191    2.3166   -4.6390 H   0  0  0  0  0  0  0  0  0  0  0  0
    3.3013    3.3819   -4.1579 H   0  0  0  0  0  0  0  0  0  0  0  0
   -0.9523    0.1012    2.4848 C   0  0  0  0  0  0  0  0  0  0  0  0
    0.2133   -0.1319    2.7814 O   0  0  0  0  0  0  0  0  0  0  0  0
   -1.8684    0.5006    3.3725 N   0  0  0  0  0  0  0  0  0  0  0  0
   -2.7946    0.7048    3.0343 H   0  0  0  0  0  0  0  0  0  0  0  0
   -1.5848    0.7472    4.7873 C   0  0  0  0  0  0  0  0  0  0  0  0
   -0.8819    1.5774    4.8838 H   0  0  0  0  0  0  0  0  0  0  0  0
   -2.5030    0.9948    5.3214 H   0  0  0  0  0  0  0  0  0  0  0  0
   -1.1344   -0.1399    5.2381 H   0  0  0  0  0  0  0  0  0  0  0  0
  5  6  2  0  0  0  0
  5  7  1  0  0  0  0
  2  3  1  0  0  0  0
  2  4  1  0  0  0  0
  2  5  1  0  0  0  0
  1  2  1  0  0  0  0
 29 30  2  0  0  0  0
 29 31  1  0  0  0  0
 26 27  1  0  0  0  0
 26 28  1  0  0  0  0
 23 24  1  0  0  0  0
 23 25  1  0  0  0  0
 22 23  1  0  0  0  0
 22 26  1  0  0  0  0
 20 21  1  0  0  0  0
 20 22  2  0  0  0  0
 17 18  1  0  0  0  0
 17 19  1  0  0  0  0
 17 20  1  0  0  0  0
 14 15  1  0  0  0  0
 14 16  1  0  0  0  0
 14 17  1  0  0  0  0
 11 12  1  0  0  0  0
 11 13  1  0  0  0  0
 11 14  1  0  0  0  0
  9 10  1  0  0  0  0
  9 11  1  0  0  0  0
  9 29  1  0  0  0  0
  7  8  1  0  0  0  0
  7  9  1  0  0  0  0
 33 34  1  0  0  0  0
 33 35  1  0  0  0  0
 33 36  1  0  0  0  0
 31 32  1  0  0  0  0
 31 33  1  0  0  0  0
M  CHG  1  20   1
M  END
$$$$
default_name
  -OEChem-02102213163D

 36 35  0     1  0  0  0  0  0999 V2000
   -4.2256   -3.6731    1.8584 H   0  0  0  0  0  0  0  0  0  0  0  0
   -4.2396   -2.6781    1.4144 C   0  0  0  0  0  0  0  0  0  0  0  0
   -4.9506   -2.0521    1.9514 H   0  0  0  0  0  0  0  0  0  0  0  0
   -4.5266   -2.7521    0.3674 H   0  0  0  0  0  0  0  0  0  0  0  0
   -2.8576   -2.0761    1.5184 C   0  0  0  0  0  0  0  0  0  0  0  0
   -1.9456   -2.7051    2.0404 O   0  0  0  0  0  0  0  0  0  0  0  0
   -2.6926   -0.8481    1.0174 N   0  0  0  0  0  0  0  0  0  0  0  0
   -3.4926   -0.3971    0.5954 H   0  0  0  0  0  0  0  0  0  0  0  0
   -1.4216   -0.1071    1.0434 C   0  0  1  0  0  0  0  0  0  0  0  0
   -0.6709   -0.6930    0.5106 H   0  0  0  0  0  0  0  0  0  0  0  0
   -1.6221    1.2315    0.3051 C   0  0  0  0  0  0  0  0  0  0  0  0
   -2.6933    1.4133    0.1981 H   0  0  0  0  0  0  0  0  0  0  0  0
   -1.1998    2.0384    0.9081 H   0  0  0  0  0  0  0  0  0  0  0  0
   -0.9858    1.2602   -1.0922 C   0  0  0  0  0  0  0  0  0  0  0  0
   -0.9844    0.2557   -1.5177 H   0  0  0  0  0  0  0  0  0  0  0  0
   -1.5622    1.9240   -1.7375 H   0  0  0  0  0  0  0  0  0  0  0  0
    0.4593    1.7682   -0.9980 C   0  0  0  0  0  0  0  0  0  0  0  0
    0.4505    2.7630   -0.5467 H   0  0  0  0  0  0  0  0  0  0  0  0
    1.0239    1.0926   -0.3512 H   0  0  0  0  0  0  0  0  0  0  0  0
    1.1047    1.8351   -2.3254 N   0  3  0  0  0  0  0  0  0  0  0  0
    0.5639    1.5080   -3.1076 H   0  0  0  0  0  0  0  0  0  0  0  0
    2.3224    2.2834   -2.5807 C   0  0  0  0  0  0  0  0  0  0  0  0
    3.1077    2.7302   -1.6410 N   0  0  0  0  0  0  0  0  0  0  0  0
    2.7744    2.7344   -0.6933 H   0  0  0  0  0  0  0  0  0  0  0  0
    4.0293    3.0666   -1.8518 H   0  0  0  0  0  0  0  0  0  0  0  0
    2.7807    2.2906   -3.8002 N   0  0  0  0  0  0  0  0  0  0  0  0
    2.2118    1.9561   -4.5587 H   0  0  0  0  0  0  0  0  0  0  0  0
    3.7050    2.6316   -3.9895 H   0  0  0  0  0  0  0  0  0  0  0  0
   -0.9523    0.1012    2.4848 C   0  0  0  0  0  0  0  0  0  0  0  0
    0.2133   -0.1319    2.7814 O   0  0  0  0  0  0  0  0  0  0  0  0
   -1.8684    0.5006    3.3725 N   0  0  0  0  0  0  0  0  0  0  0  0
   -2.7946    0.7048    3.0343 H   0  0  0  0  0  0  0  0  0  0  0  0
   -1.5848    0.7472    4.7873 C   0  0  0  0  0  0  0  0  0  0  0  0
   -0.8819    1.5774    4.8838 H   0  0  0  0  0  0  0  0  0  0  0  0
   -2.5030    0.9948    5.3214 H   0  0  0  0  0  0  0  0  0  0  0  0
   -1.1344   -0.1399    5.2381 H   0  0  0  0  0  0  0  0  0  0  0  0
  5  6  2  0  0  0  0
  5  7  1  0  0  0  0
  2  3  1  0  0  0  0
  2  4  1  0  0  0  0
  2  5  1  0  0  0  0
  1  2  1  0  0  0  0
 29 30  2  0  0  0  0
 29 31  1  0  0  0  0
 26 27  1  0  0  0  0
 26 28  1  0  0  0  0
 23 24  1  0  0  0  0
 23 25  1  0  0  0  0
 22 23  1  0  0  0  0
 22 26  1  0  0  0  0
 20 21  1  0  0  0  0
 20 22  2  0  0  0  0
 17 18  1  0  0  0  0
 17 19  1  0  0  0  0
 17 20  1  0  0  0  0
 14 15  1  0  0  0  0
 14 16  1  0  0  0  0
 14 17  1  0  0  0  0
 11 12  1  0  0  0  0
 11 13  1  0  0  0  0
 11 14  1  0  0  0  0
  9 10  1  0  0  0  0
  9 11  1  0  0  0  0
  9 29  1  0  0  0  0
  7  8  1  0  0  0  0
  7  9  1  0  0  0  0
 33 34  1  0  0  0  0
 33 35  1  0  0  0  0
 33 36  1  0  0  0  0
 31 32  1  0  0  0  0
 31 33  1  0  0  0  0
M  CHG  1  20   1
M  END
$$$$
default_name
  -OEChem-02102213163D

 36 35  0     1  0  0  0  0  0999 V2000
   -4.2256   -3.6731    1.8584 H   0  0  0  0  0  0  0  0  0  0  0  0
   -4.2396   -2.6781    1.4144 C   0  0  0  0  0  0  0  0  0  0  0  0
   -4.9506   -2.0521    1.9514 H   0  0  0  0  0  0  0  0  0  0  0  0
   -4.5266   -2.7521    0.3674 H   0  0  0  0  0  0  0  0  0  0  0  0
   -2.8576   -2.0761    1.5184 C   0  0  0  0  0  0  0  0  0  0  0  0
   -1.9456   -2.7051    2.0404 O   0  0  0  0  0  0  0  0  0  0  0  0
   -2.6926   -0.8481    1.0174 N   0  0  0  0  0  0  0  0  0  0  0  0
   -3.4926   -0.3971    0.5954 H   0  0  0  0  0  0  0  0  0  0  0  0
   -1.4216   -0.1071    1.0434 C   0  0  1  0  0  0  0  0  0  0  0  0
   -0.6709   -0.6930    0.5106 H   0  0  0  0  0  0  0  0  0  0  0  0
   -1.6221    1.2315    0.3051 C   0  0  0  0  0  0  0  0  0  0  0  0
   -2.6933    1.4133    0.1981 H   0  0  0  0  0  0  0  0  0  0  0  0
   -1.1998    2.0384    0.9081 H   0  0  0  0  0  0  0  0  0  0  0  0
   -0.9858    1.2602   -1.0922 C   0  0  0  0  0  0  0  0  0  0  0  0
   -1.2179    0.3355   -1.6224 H   0  0  0  0  0  0  0  0  0  0  0  0
   -1.3843    2.1065   -1.6527 H   0  0  0  0  0  0  0  0  0  0  0  0
    0.5376    1.4008   -0.9700 C   0  0  0  0  0  0  0  0  0  0  0  0
    0.7599    2.3151   -0.4150 H   0  0  0  0  0  0  0  0  0  0  0  0
    0.9217    0.5456   -0.4089 H   0  0  0  0  0  0  0  0  0  0  0  0
    1.1911    1.4567   -2.2938 N   0  3  0  0  0  0  0  0  0  0  0  0
    0.5947    1.3522   -3.0968 H   0  0  0  0  0  0  0  0  0  0  0  0
    2.4822    1.6308   -2.5213 C   0  0  0  0  0  0  0  0  0  0  0  0
    3.3432    1.7763   -1.5535 N   0  0  0  0  0  0  0  0  0  0  0  0
    3.0126    1.7566   -0.6049 H   0  0  0  0  0  0  0  0  0  0  0  0
    4.3197    1.9071   -1.7435 H   0  0  0  0  0  0  0  0  0  0  0  0
    2.9390    1.6613   -3.7411 N   0  0  0  0  0  0  0  0  0  0  0  0
    2.3133    1.5538   -4.5208 H   0  0  0  0  0  0  0  0  0  0  0  0
    3.9192    1.7937   -3.9092 H   0  0  0  0  0  0  0  0  0  0  0  0
   -0.9523    0.1012    2.4848 C   0  0  0  0  0  0  0  0  0  0  0  0
    0.2133   -0.1319    2.7814 O   0  0  0  0  0  0  0  0  0  0  0  0
   -1.8684    0.5006    3.3725 N   0  0  0  0  0  0  0  0  0  0  0  0
   -2.7946    0.7048    3.0343 H   0  0  0  0  0  0  0  0  0  0  0  0
   -1.5848    0.7472    4.7873 C   0  0  0  0  0  0  0  0  0  0  0  0
   -0.8819    1.5774    4.8838 H   0  0  0  0  0  0  0  0  0  0  0  0
   -2.5030    0.9948    5.3214 H   0  0  0  0  0  0  0  0  0  0  0  0
   -1.1344   -0.1399    5.2381 H   0  0  0  0  0  0  0  0  0  0  0  0
  5  6  2  0  0  0  0
  5  7  1  0  0  0  0
  2  3  1  0  0  0  0
  2  4  1  0  0  0  0
  2  5  1  0  0  0  0
  1  2  1  0  0  0  0
 29 30  2  0  0  0  0
 29 31  1  0  0  0  0
 26 27  1  0  0  0  0
 26 28  1  0  0  0  0
 23 24  1  0  0  0  0
 23 25  1  0  0  0  0
 22 23  1  0  0  0  0
 22 26  1  0  0  0  0
 20 21  1  0  0  0  0
 20 22  2  0  0  0  0
 17 18  1  0  0  0  0
 17 19  1  0  0  0  0
 17 20  1  0  0  0  0
 14 15  1  0  0  0  0
 14 16  1  0  0  0  0
 14 17  1  0  0  0  0
 11 12  1  0  0  0  0
 11 13  1  0  0  0  0
 11 14  1  0  0  0  0
  9 10  1  0  0  0  0
  9 11  1  0  0  0  0
  9 29  1  0  0  0  0
  7  8  1  0  0  0  0
  7  9  1  0  0  0  0
 33 34  1  0  0  0  0
 33 35  1  0  0  0  0
 33 36  1  0  0  0  0
 31 32  1  0  0  0  0
 31 33  1  0  0  0  0
M  CHG  1  20   1
M  END
$$$$
default_name
  -OEChem-02102213163D

 36 35  0     1  0  0  0  0  0999 V2000
   -4.2256   -3.6731    1.8584 H   0  0  0  0  0  0  0  0  0  0  0  0
   -4.2396   -2.6781    1.4144 C   0  0  0  0  0  0  0  0  0  0  0  0
   -4.9506   -2.0521    1.9514 H   0  0  0  0  0  0  0  0  0  0  0  0
   -4.5266   -2.7521    0.3674 H   0  0  0  0  0  0  0  0  0  0  0  0
   -2.8576   -2.0761    1.5184 C   0  0  0  0  0  0  0  0  0  0  0  0
   -1.9456   -2.7051    2.0404 O   0  0  0  0  0  0  0  0  0  0  0  0
   -2.6926   -0.8481    1.0174 N   0  0  0  0  0  0  0  0  0  0  0  0
   -3.4926   -0.3971    0.5954 H   0  0  0  0  0  0  0  0  0  0  0  0
   -1.4216   -0.1071    1.0434 C   0  0  1  0  0  0  0  0  0  0  0  0
   -0.6709   -0.6930    0.5106 H   0  0  0  0  0  0  0  0  0  0  0  0
   -1.6221    1.2315    0.3051 C   0  0  0  0  0  0  0  0  0  0  0  0
   -2.6933    1.4133    0.1981 H   0  0  0  0  0  0  0  0  0  0  0  0
   -1.1998    2.0384    0.9081 H   0  0  0  0  0  0  0  0  0  0  0  0
   -0.9858    1.2602   -1.0922 C   0  0  0  0  0  0  0  0  0  0  0  0
   -1.4251    0.4787   -1.7138 H   0  0  0  0  0  0  0  0  0  0  0  0
   -1.1690    2.2319   -1.5521 H   0  0  0  0  0  0  0  0  0  0  0  0
    0.5267    1.0244   -0.9826 C   0  0  0  0  0  0  0  0  0  0  0  0
    0.9540    1.7955   -0.3374 H   0  0  0  0  0  0  0  0  0  0  0  0
    0.6939    0.0475   -0.5229 H   0  0  0  0  0  0  0  0  0  0  0  0
    1.1856    1.0674   -2.3043 N   0  3  0  0  0  0  0  0  0  0  0  0
    0.5878    1.1934   -3.1032 H   0  0  0  0  0  0  0  0  0  0  0  0
    2.4831    0.9564   -2.5348 C   0  0  0  0  0  0  0  0  0  0  0  0
    3.3463    0.7900   -1.5723 N   0  0  0  0  0  0  0  0  0  0  0  0
    3.0129    0.7465   -0.6255 H   0  0  0  0  0  0  0  0  0  0  0  0
    4.3277    0.7072   -1.7645 H   0  0  0  0  0  0  0  0  0  0  0  0
    2.9440    1.0099   -3.7522 N   0  0  0  0  0  0  0  0  0  0  0  0
    2.3169    1.1373   -4.5277 H   0  0  0  0  0  0  0  0  0  0  0  0
    3.9291    0.9254   -3.9226 H   0  0  0  0  0  0  0  0  0  0  0  0
   -0.9523    0.1012    2.4848 C   0  0  0  0  0  0  0  0  0  0  0  0
    0.2133   -0.1319    2.7814 O   0  0  0  0  0  0  0  0  0  0  0  0
   -1.8684    0.5006    3.3725 N   0  0  0  0  0  0  0  0  0  0  0  0
   -2.7946    0.7048    3.0343 H   0  0  0  0  0  0  0  0  0  0  0  0
   -1.5848    0.7472    4.7873 C   0  0  0  0  0  0  0  0  0  0  0  0
   -0.8819    1.5774    4.8838 H   0  0  0  0  0  0  0  0  0  0  0  0
   -2.5030    0.9948    5.3214 H   0  0  0  0  0  0  0  0  0  0  0  0
   -1.1344   -0.1399    5.2381 H   0  0  0  0  0  0  0  0  0  0  0  0
  5  6  2  0  0  0  0
  5  7  1  0  0  0  0
  2  3  1  0  0  0  0
  2  4  1  0  0  0  0
  2  5  1  0  0  0  0
  1  2  1  0  0  0  0
 29 30  2  0  0  0  0
 29 31  1  0  0  0  0
 26 27  1  0  0  0  0
 26 28  1  0  0  0  0
 23 24  1  0  0  0  0
 23 25  1  0  0  0  0
 22 23  1  0  0  0  0
 22 26  1  0  0  0  0
 20 21  1  0  0  0  0
 20 22  2  0  0  0  0
 17 18  1  0  0  0  0
 17 19  1  0  0  0  0
 17 20  1  0  0  0  0
 14 15  1  0  0  0  0
 14 16  1  0  0  0  0
 14 17  1  0  0  0  0
 11 12  1  0  0  0  0
 11 13  1  0  0  0  0
 11 14  1  0  0  0  0
  9 10  1  0  0  0  0
  9 11  1  0  0  0  0
  9 29  1  0  0  0  0
  7  8  1  0  0  0  0
  7  9  1  0  0  0  0
 33 34  1  0  0  0  0
 33 35  1  0  0  0  0
 33 36  1  0  0  0  0
 31 32  1  0  0  0  0
 31 33  1  0  0  0  0
M  CHG  1  20   1
M  END
$$$$
default_name
  -OEChem-02102213163D

 36 35  0     1  0  0  0  0  0999 V2000
   -4.2256   -3.6731    1.8584 H   0  0  0  0  0  0  0  0  0  0  0  0
   -4.2396   -2.6781    1.4144 C   0  0  0  0  0  0  0  0  0  0  0  0
   -4.9506   -2.0521    1.9514 H   0  0  0  0  0  0  0  0  0  0  0  0
   -4.5266   -2.7521    0.3674 H   0  0  0  0  0  0  0  0  0  0  0  0
   -2.8576   -2.0761    1.5184 C   0  0  0  0  0  0  0  0  0  0  0  0
   -1.9456   -2.7051    2.0404 O   0  0  0  0  0  0  0  0  0  0  0  0
   -2.6926   -0.8481    1.0174 N   0  0  0  0  0  0  0  0  0  0  0  0
   -3.4926   -0.3971    0.5954 H   0  0  0  0  0  0  0  0  0  0  0  0
   -1.4216   -0.1071    1.0434 C   0  0  1  0  0  0  0  0  0  0  0  0
   -0.6709   -0.6930    0.5106 H   0  0  0  0  0  0  0  0  0  0  0  0
   -1.6221    1.2315    0.3051 C   0  0  0  0  0  0  0  0  0  0  0  0
   -2.6933    1.4133    0.1981 H   0  0  0  0  0  0  0  0  0  0  0  0
   -1.1998    2.0384    0.9081 H   0  0  0  0  0  0  0  0  0  0  0  0
   -0.9858    1.2602   -1.0922 C   0  0  0  0  0  0  0  0  0  0  0  0
   -1.5920    0.6757   -1.7857 H   0  0  0  0  0  0  0  0  0  0  0  0
   -0.9311    2.2914   -1.4426 H   0  0  0  0  0  0  0  0  0  0  0  0
    0.4276    0.6648   -1.0352 C   0  0  0  0  0  0  0  0  0  0  0  0
    1.0194    1.2395   -0.3190 H   0  0  0  0  0  0  0  0  0  0  0  0
    0.3560   -0.3677   -0.6853 H   0  0  0  0  0  0  0  0  0  0  0  0
    1.0885    0.6938   -2.3562 N   0  3  0  0  0  0  0  0  0  0  0  0
    0.5437    1.0423   -3.1263 H   0  0  0  0  0  0  0  0  0  0  0  0
    2.3251    0.3062   -2.6201 C   0  0  0  0  0  0  0  0  0  0  0  0
    3.1170   -0.1613   -1.6962 N   0  0  0  0  0  0  0  0  0  0  0  0
    2.7752   -0.2270   -0.7538 H   0  0  0  0  0  0  0  0  0  0  0  0
    4.0527   -0.4515   -1.9135 H   0  0  0  0  0  0  0  0  0  0  0  0
    2.7953    0.3807   -3.8328 N   0  0  0  0  0  0  0  0  0  0  0  0
    2.2222    0.7349   -4.5791 H   0  0  0  0  0  0  0  0  0  0  0  0
    3.7340    0.0857   -4.0286 H   0  0  0  0  0  0  0  0  0  0  0  0
   -0.9523    0.1012    2.4848 C   0  0  0  0  0  0  0  0  0  0  0  0
    0.2133   -0.1319    2.7814 O   0  0  0  0  0  0  0  0  0  0  0  0
   -1.8684    0.5006    3.3725 N   0  0  0  0  0  0  0  0  0  0  0  0
   -2.7946    0.7048    3.0343 H   0  0  0  0  0  0  0  0  0  0  0  0
   -1.5848    0.7472    4.7873 C   0  0  0  0  0  0  0  0  0  0  0  0
   -0.8819    1.5774    4.8838 H   0  0  0  0  0  0  0  0  0  0  0  0
   -2.5030    0.9948    5.3214 H   0  0  0  0  0  0  0  0  0  0  0  0
   -1.1344   -0.1399    5.2381 H   0  0  0  0  0  0  0  0  0  0  0  0
  5  6  2  0  0  0  0
  5  7  1  0  0  0  0
  2  3  1  0  0  0  0
  2  4  1  0  0  0  0
  2  5  1  0  0  0  0
  1  2  1  0  0  0  0
 29 30  2  0  0  0  0
 29 31  1  0  0  0  0
 26 27  1  0  0  0  0
 26 28  1  0  0  0  0
 23 24  1  0  0  0  0
 23 25  1  0  0  0  0
 22 23  1  0  0  0  0
 22 26  1  0  0  0  0
 20 21  1  0  0  0  0
 20 22  2  0  0  0  0
 17 18  1  0  0  0  0
 17 19  1  0  0  0  0
 17 20  1  0  0  0  0
 14 15  1  0  0  0  0
 14 16  1  0  0  0  0
 14 17  1  0  0  0  0
 11 12  1  0  0  0  0
 11 13  1  0  0  0  0
 11 14  1  0  0  0  0
  9 10  1  0  0  0  0
  9 11  1  0  0  0  0
  9 29  1  0  0  0  0
  7  8  1  0  0  0  0
  7  9  1  0  0  0  0
 33 34  1  0  0  0  0
 33 35  1  0  0  0  0
 33 36  1  0  0  0  0
 31 32  1  0  0  0  0
 31 33  1  0  0  0  0
M  CHG  1  20   1
M  END
$$$$
default_name
  -OEChem-02102213163D

 36 35  0     1  0  0  0  0  0999 V2000
   -4.2256   -3.6731    1.8584 H   0  0  0  0  0  0  0  0  0  0  0  0
   -4.2396   -2.6781    1.4144 C   0  0  0  0  0  0  0  0  0  0  0  0
   -4.9506   -2.0521    1.9514 H   0  0  0  0  0  0  0  0  0  0  0  0
   -4.5266   -2.7521    0.3674 H   0  0  0  0  0  0  0  0  0  0  0  0
   -2.8576   -2.0761    1.5184 C   0  0  0  0  0  0  0  0  0  0  0  0
   -1.9456   -2.7051    2.0404 O   0  0  0  0  0  0  0  0  0  0  0  0
   -2.6926   -0.8481    1.0174 N   0  0  0  0  0  0  0  0  0  0  0  0
   -3.4926   -0.3971    0.5954 H   0  0  0  0  0  0  0  0  0  0  0  0
   -1.4216   -0.1071    1.0434 C   0  0  1  0  0  0  0  0  0  0  0  0
   -0.6709   -0.6930    0.5106 H   0  0  0  0  0  0  0  0  0  0  0  0
   -1.6221    1.2315    0.3051 C   0  0  0  0  0  0  0  0  0  0  0  0
   -2.6933    1.4133    0.1981 H   0  0  0  0  0  0  0  0  0  0  0  0
   -1.1998    2.0384    0.9081 H   0  0  0  0  0  0  0  0  0  0  0  0
   -0.9858    1.2602   -1.0922 C   0  0  0  0  0  0  0  0  0  0  0  0
   -1.7072    0.9130   -1.8333 H   0  0  0  0  0  0  0  0  0  0  0  0
   -0.6867    2.2812   -1.3315 H   0  0  0  0  0  0  0  0  0  0  0  0
    0.2468    0.3465   -1.1240 C   0  0  0  0  0  0  0  0  0  0  0  0
    0.9517    0.6851   -0.3612 H   0  0  0  0  0  0  0  0  0  0  0  0
   -0.0690   -0.6718   -0.8850 H   0  0  0  0  0  0  0  0  0  0  0  0
    0.9065    0.3614   -2.4459 N   0  3  0  0  0  0  0  0  0  0  0  0
    0.4654    0.9092   -3.1647 H   0  0  0  0  0  0  0  0  0  0  0  0
    2.0189   -0.2755   -2.7715 C   0  0  0  0  0  0  0  0  0  0  0  0
    2.6709   -1.0130   -1.9169 N   0  0  0  0  0  0  0  0  0  0  0  0
    2.3156   -1.0976   -0.9809 H   0  0  0  0  0  0  0  0  0  0  0  0
    3.5135   -1.4900   -2.1804 H   0  0  0  0  0  0  0  0  0  0  0  0
    2.5032   -0.1834   -3.9774 N   0  0  0  0  0  0  0  0  0  0  0  0
    2.0357    0.3741   -4.6714 H   0  0  0  0  0  0  0  0  0  0  0  0
    3.3474   -0.6681   -4.2202 H   0  0  0  0  0  0  0  0  0  0  0  0
   -0.9523    0.1012    2.4848 C   0  0  0  0  0  0  0  0  0  0  0  0
    0.2133   -0.1319    2.7814 O   0  0  0  0  0  0  0  0  0  0  0  0
   -1.8684    0.5006    3.3725 N   0  0  0  0  0  0  0  0  0  0  0  0
   -2.7946    0.7048    3.0343 H   0  0  0  0  0  0  0  0  0  0  0  0
   -1.5848    0.7472    4.7873 C   0  0  0  0  0  0  0  0  0  0  0  0
   -0.8819    1.5774    4.8838 H   0  0  0  0  0  0  0  0  0  0  0  0
   -2.5030    0.9948    5.3214 H   0  0  0  0  0  0  0  0  0  0  0  0
   -1.1344   -0.1399    5.2381 H   0  0  0  0  0  0  0  0  0  0  0  0
  5  6  2  0  0  0  0
  5  7  1  0  0  0  0
  2  3  1  0  0  0  0
  2  4  1  0  0  0  0
  2  5  1  0  0  0  0
  1  2  1  0  0  0  0
 29 30  2  0  0  0  0
 29 31  1  0  0  0  0
 26 27  1  0  0  0  0
 26 28  1  0  0  0  0
 23 24  1  0  0  0  0
 23 25  1  0  0  0  0
 22 23  1  0  0  0  0
 22 26  1  0  0  0  0
 20 21  1  0  0  0  0
 20 22  2  0  0  0  0
 17 18  1  0  0  0  0
 17 19  1  0  0  0  0
 17 20  1  0  0  0  0
 14 15  1  0  0  0  0
 14 16  1  0  0  0  0
 14 17  1  0  0  0  0
 11 12  1  0  0  0  0
 11 13  1  0  0  0  0
 11 14  1  0  0  0  0
  9 10  1  0  0  0  0
  9 11  1  0  0  0  0
  9 29  1  0  0  0  0
  7  8  1  0  0  0  0
  7  9  1  0  0  0  0
 33 34  1  0  0  0  0
 33 35  1  0  0  0  0
 33 36  1  0  0  0  0
 31 32  1  0  0  0  0
 31 33  1  0  0  0  0
M  CHG  1  20   1
M  END
$$$$
default_name
  -OEChem-02102213163D

 36 35  0     1  0  0  0  0  0999 V2000
   -4.2256   -3.6731    1.8584 H   0  0  0  0  0  0  0  0  0  0  0  0
   -4.2396   -2.6781    1.4144 C   0  0  0  0  0  0  0  0  0  0  0  0
   -4.9506   -2.0521    1.9514 H   0  0  0  0  0  0  0  0  0  0  0  0
   -4.5266   -2.7521    0.3674 H   0  0  0  0  0  0  0  0  0  0  0  0
   -2.8576   -2.0761    1.5184 C   0  0  0  0  0  0  0  0  0  0  0  0
   -1.9456   -2.7051    2.0404 O   0  0  0  0  0  0  0  0  0  0  0  0
   -2.6926   -0.8481    1.0174 N   0  0  0  0  0  0  0  0  0  0  0  0
   -3.4926   -0.3971    0.5954 H   0  0  0  0  0  0  0  0  0  0  0  0
   -1.4216   -0.1071    1.0434 C   0  0  1  0  0  0  0  0  0  0  0  0
   -0.6709   -0.6930    0.5106 H   0  0  0  0  0  0  0  0  0  0  0  0
   -1.6221    1.2315    0.3051 C   0  0  0  0  0  0  0  0  0  0  0  0
   -2.6933    1.4133    0.1981 H   0  0  0  0  0  0  0  0  0  0  0  0
   -1.1998    2.0384    0.9081 H   0  0  0  0  0  0  0  0  0  0  0  0
   -0.9858    1.2602   -1.0922 C   0  0  0  0  0  0  0  0  0  0  0  0
   -1.7628    1.1744   -1.8532 H   0  0  0  0  0  0  0  0  0  0  0  0
   -0.4525    2.2018   -1.2265 H   0  0  0  0  0  0  0  0  0  0  0  0
   -0.0031    0.0910   -1.2431 C   0  0  0  0  0  0  0  0  0  0  0  0
    0.7556    0.1701   -0.4611 H   0  0  0  0  0  0  0  0  0  0  0  0
   -0.5520   -0.8440   -1.1085 H   0  0  0  0  0  0  0  0  0  0  0  0
    0.6520    0.0928   -2.5673 N   0  3  0  0  0  0  0  0  0  0  0  0
    0.3583    0.8031   -3.2157 H   0  0  0  0  0  0  0  0  0  0  0  0
    1.5855   -0.7490   -2.9785 C   0  0  0  0  0  0  0  0  0  0  0  0
    2.0383   -1.7069   -2.2192 N   0  0  0  0  0  0  0  0  0  0  0  0
    1.6657   -1.8059   -1.2914 H   0  0  0  0  0  0  0  0  0  0  0  0
    2.7467   -2.3374   -2.5469 H   0  0  0  0  0  0  0  0  0  0  0  0
    2.0874   -0.6440   -4.1762 N   0  0  0  0  0  0  0  0  0  0  0  0
    1.7701    0.0793   -4.7984 H   0  0  0  0  0  0  0  0  0  0  0  0
    2.7954   -1.2846   -4.4841 H   0  0  0  0  0  0  0  0  0  0  0  0
   -0.9523    0.1012    2.4848 C   0  0  0  0  0  0  0  0  0  0  0  0
    0.2133   -0.1319    2.7814 O   0  0  0  0  0  0  0  0  0  0  0  0
   -1.8684    0.5006    3.3725 N   0  0  0  0  0  0  0  0  0  0  0  0
   -2.7946    0.7048    3.0343 H   0  0  0  0  0  0  0  0  0  0  0  0
   -1.5848    0.7472    4.7873 C   0  0  0  0  0  0  0  0  0  0  0  0
   -0.8819    1.5774    4.8838 H   0  0  0  0  0  0  0  0  0  0  0  0
   -2.5030    0.9948    5.3214 H   0  0  0  0  0  0  0  0  0  0  0  0
   -1.1344   -0.1399    5.2381 H   0  0  0  0  0  0  0  0  0  0  0  0
  5  6  2  0  0  0  0
  5  7  1  0  0  0  0
  2  3  1  0  0  0  0
  2  4  1  0  0  0  0
  2  5  1  0  0  0  0
  1  2  1  0  0  0  0
 29 30  2  0  0  0  0
 29 31  1  0  0  0  0
 26 27  1  0  0  0  0
 26 28  1  0  0  0  0
 23 24  1  0  0  0  0
 23 25  1  0  0  0  0
 22 23  1  0  0  0  0
 22 26  1  0  0  0  0
 20 21  1  0  0  0  0
 20 22  2  0  0  0  0
 17 18  1  0  0  0  0
 17 19  1  0  0  0  0
 17 20  1  0  0  0  0
 14 15  1  0  0  0  0
 14 16  1  0  0  0  0
 14 17  1  0  0  0  0
 11 12  1  0  0  0  0
 11 13  1  0  0  0  0
 11 14  1  0  0  0  0
  9 10  1  0  0  0  0
  9 11  1  0  0  0  0
  9 29  1  0  0  0  0
  7  8  1  0  0  0  0
  7  9  1  0  0  0  0
 33 34  1  0  0  0  0
 33 35  1  0  0  0  0
 33 36  1  0  0  0  0
 31 32  1  0  0  0  0
 31 33  1  0  0  0  0
M  CHG  1  20   1
M  END
$$$$
default_name
  -OEChem-02102213163D

 36 35  0     1  0  0  0  0  0999 V2000
   -4.2256   -3.6731    1.8584 H   0  0  0  0  0  0  0  0  0  0  0  0
   -4.2396   -2.6781    1.4144 C   0  0  0  0  0  0  0  0  0  0  0  0
   -4.9506   -2.0521    1.9514 H   0  0  0  0  0  0  0  0  0  0  0  0
   -4.5266   -2.7521    0.3674 H   0  0  0  0  0  0  0  0  0  0  0  0
   -2.8576   -2.0761    1.5184 C   0  0  0  0  0  0  0  0  0  0  0  0
   -1.9456   -2.7051    2.0404 O   0  0  0  0  0  0  0  0  0  0  0  0
   -2.6926   -0.8481    1.0174 N   0  0  0  0  0  0  0  0  0  0  0  0
   -3.4926   -0.3971    0.5954 H   0  0  0  0  0  0  0  0  0  0  0  0
   -1.4216   -0.1071    1.0434 C   0  0  1  0  0  0  0  0  0  0  0  0
   -0.6709   -0.6930    0.5106 H   0  0  0  0  0  0  0  0  0  0  0  0
   -1.6221    1.2315    0.3051 C   0  0  0  0  0  0  0  0  0  0  0  0
   -2.6933    1.4133    0.1981 H   0  0  0  0  0  0  0  0  0  0  0  0
   -1.1998    2.0384    0.9081 H   0  0  0  0  0  0  0  0  0  0  0  0
   -0.9858    1.2602   -1.0922 C   0  0  0  0  0  0  0  0  0  0  0  0
   -1.7550    1.4421   -1.8441 H   0  0  0  0  0  0  0  0  0  0  0  0
   -0.2445    2.0588   -1.1347 H   0  0  0  0  0  0  0  0  0  0  0  0
   -0.3053   -0.0841   -1.3843 C   0  0  0  0  0  0  0  0  0  0  0  0
    0.4443   -0.2704   -0.6119 H   0  0  0  0  0  0  0  0  0  0  0  0
   -1.0603   -0.8726   -1.3405 H   0  0  0  0  0  0  0  0  0  0  0  0
    0.3423   -0.0938   -2.7121 N   0  3  0  0  0  0  0  0  0  0  0  0
    0.2296    0.7314   -3.2757 H   0  0  0  0  0  0  0  0  0  0  0  0
    1.0543   -1.0821   -3.2272 C   0  0  0  0  0  0  0  0  0  0  0  0
    1.2624   -2.1958   -2.5825 N   0  0  0  0  0  0  0  0  0  0  0  0
    0.8695   -2.3038   -1.6641 H   0  0  0  0  0  0  0  0  0  0  0  0
    1.8048   -2.9362   -2.9881 H   0  0  0  0  0  0  0  0  0  0  0  0
    1.5764   -0.9696   -4.4155 N   0  0  0  0  0  0  0  0  0  0  0  0
    1.4435   -0.1292   -4.9514 H   0  0  0  0  0  0  0  0  0  0  0  0
    2.1159   -1.7218   -4.8025 H   0  0  0  0  0  0  0  0  0  0  0  0
   -0.9523    0.1012    2.4848 C   0  0  0  0  0  0  0  0  0  0  0  0
    0.2133   -0.1319    2.7814 O   0  0  0  0  0  0  0  0  0  0  0  0
   -1.8684    0.5006    3.3725 N   0  0  0  0  0  0  0  0  0  0  0  0
   -2.7946    0.7048    3.0343 H   0  0  0  0  0  0  0  0  0  0  0  0
   -1.5848    0.7472    4.7873 C   0  0  0  0  0  0  0  0  0  0  0  0
   -0.8819    1.5774    4.8838 H   0  0  0  0  0  0  0  0  0  0  0  0
   -2.5030    0.9948    5.3214 H   0  0  0  0  0  0  0  0  0  0  0  0
   -1.1344   -0.1399    5.2381 H   0  0  0  0  0  0  0  0  0  0  0  0
  5  6  2  0  0  0  0
  5  7  1  0  0  0  0
  2  3  1  0  0  0  0
  2  4  1  0  0  0  0
  2  5  1  0  0  0  0
  1  2  1  0  0  0  0
 29 30  2  0  0  0  0
 29 31  1  0  0  0  0
 26 27  1  0  0  0  0
 26 28  1  0  0  0  0
 23 24  1  0  0  0  0
 23 25  1  0  0  0  0
 22 23  1  0  0  0  0
 22 26  1  0  0  0  0
 20 21  1  0  0  0  0
 20 22  2  0  0  0  0
 17 18  1  0  0  0  0
 17 19  1  0  0  0  0
 17 20  1  0  0  0  0
 14 15  1  0  0  0  0
 14 16  1  0  0  0  0
 14 17  1  0  0  0  0
 11 12  1  0  0  0  0
 11 13  1  0  0  0  0
 11 14  1  0  0  0  0
  9 10  1  0  0  0  0
  9 11  1  0  0  0  0
  9 29  1  0  0  0  0
  7  8  1  0  0  0  0
  7  9  1  0  0  0  0
 33 34  1  0  0  0  0
 33 35  1  0  0  0  0
 33 36  1  0  0  0  0
 31 32  1  0  0  0  0
 31 33  1  0  0  0  0
M  CHG  1  20   1
M  END
$$$$
default_name
  -OEChem-02102213163D

 36 35  0     1  0  0  0  0  0999 V2000
   -4.2256   -3.6731    1.8584 H   0  0  0  0  0  0  0  0  0  0  0  0
   -4.2396   -2.6781    1.4144 C   0  0  0  0  0  0  0  0  0  0  0  0
   -4.9506   -2.0521    1.9514 H   0  0  0  0  0  0  0  0  0  0  0  0
   -4.5266   -2.7521    0.3674 H   0  0  0  0  0  0  0  0  0  0  0  0
   -2.8576   -2.0761    1.5184 C   0  0  0  0  0  0  0  0  0  0  0  0
   -1.9456   -2.7051    2.0404 O   0  0  0  0  0  0  0  0  0  0  0  0
   -2.6926   -0.8481    1.0174 N   0  0  0  0  0  0  0  0  0  0  0  0
   -3.4926   -0.3971    0.5954 H   0  0  0  0  0  0  0  0  0  0  0  0
   -1.4216   -0.1071    1.0434 C   0  0  1  0  0  0  0  0  0  0  0  0
   -0.6709   -0.6930    0.5106 H   0  0  0  0  0  0  0  0  0  0  0  0
   -1.6221    1.2315    0.3051 C   0  0  0  0  0  0  0  0  0  0  0  0
   -2.6933    1.4133    0.1981 H   0  0  0  0  0  0  0  0  0  0  0  0
   -1.1998    2.0384    0.9081 H   0  0  0  0  0  0  0  0  0  0  0  0
   -0.9858    1.2602   -1.0922 C   0  0  0  0  0  0  0  0  0  0  0  0
   -1.6844    1.6979   -1.8067 H   0  0  0  0  0  0  0  0  0  0  0  0
   -0.0768    1.8617   -1.0624 H   0  0  0  0  0  0  0  0  0  0  0  0
   -0.6392   -0.1669   -1.5380 C   0  0  0  0  0  0  0  0  0  0  0  0
    0.0392   -0.6065   -0.8032 H   0  0  0  0  0  0  0  0  0  0  0  0
   -1.5591   -0.7557   -1.5652 H   0  0  0  0  0  0  0  0  0  0  0  0
   -0.0014   -0.1855   -2.8705 N   0  3  0  0  0  0  0  0  0  0  0  0
    0.0880    0.6989   -3.3408 H   0  0  0  0  0  0  0  0  0  0  0  0
    0.4615   -1.2521   -3.5006 C   0  0  0  0  0  0  0  0  0  0  0  0
    0.3960   -2.4463   -2.9821 N   0  0  0  0  0  0  0  0  0  0  0  0
   -0.0186   -2.5572   -2.0737 H   0  0  0  0  0  0  0  0  0  0  0  0
    0.7518   -3.2453   -3.4738 H   0  0  0  0  0  0  0  0  0  0  0  0
    1.0049   -1.1381   -4.6792 N   0  0  0  0  0  0  0  0  0  0  0  0
    1.0782   -0.2374   -5.1199 H   0  0  0  0  0  0  0  0  0  0  0  0
    1.3549   -1.9499   -5.1537 H   0  0  0  0  0  0  0  0  0  0  0  0
   -0.9523    0.1012    2.4848 C   0  0  0  0  0  0  0  0  0  0  0  0
    0.2133   -0.1319    2.7814 O   0  0  0  0  0  0  0  0  0  0  0  0
   -1.8684    0.5006    3.3725 N   0  0  0  0  0  0  0  0  0  0  0  0
   -2.7946    0.7048    3.0343 H   0  0  0  0  0  0  0  0  0  0  0  0
   -1.5848    0.7472    4.7873 C   0  0  0  0  0  0  0  0  0  0  0  0
   -0.8819    1.5774    4.8838 H   0  0  0  0  0  0  0  0  0  0  0  0
   -2.5030    0.9948    5.3214 H   0  0  0  0  0  0  0  0  0  0  0  0
   -1.1344   -0.1399    5.2381 H   0  0  0  0  0  0  0  0  0  0  0  0
  5  6  2  0  0  0  0
  5  7  1  0  0  0  0
  2  3  1  0  0  0  0
  2  4  1  0  0  0  0
  2  5  1  0  0  0  0
  1  2  1  0  0  0  0
 29 30  2  0  0  0  0
 29 31  1  0  0  0  0
 26 27  1  0  0  0  0
 26 28  1  0  0  0  0
 23 24  1  0  0  0  0
 23 25  1  0  0  0  0
 22 23  1  0  0  0  0
 22 26  1  0  0  0  0
 20 21  1  0  0  0  0
 20 22  2  0  0  0  0
 17 18  1  0  0  0  0
 17 19  1  0  0  0  0
 17 20  1  0  0  0  0
 14 15  1  0  0  0  0
 14 16  1  0  0  0  0
 14 17  1  0  0  0  0
 11 12  1  0  0  0  0
 11 13  1  0  0  0  0
 11 14  1  0  0  0  0
  9 10  1  0  0  0  0
  9 11  1  0  0  0  0
  9 29  1  0  0  0  0
  7  8  1  0  0  0  0
  7  9  1  0  0  0  0
 33 34  1  0  0  0  0
 33 35  1  0  0  0  0
 33 36  1  0  0  0  0
 31 32  1  0  0  0  0
 31 33  1  0  0  0  0
M  CHG  1  20   1
M  END
$$$$
default_name
  -OEChem-02102213163D

 36 35  0     1  0  0  0  0  0999 V2000
   -4.2256   -3.6731    1.8584 H   0  0  0  0  0  0  0  0  0  0  0  0
   -4.2396   -2.6781    1.4144 C   0  0  0  0  0  0  0  0  0  0  0  0
   -4.9506   -2.0521    1.9514 H   0  0  0  0  0  0  0  0  0  0  0  0
   -4.5266   -2.7521    0.3674 H   0  0  0  0  0  0  0  0  0  0  0  0
   -2.8576   -2.0761    1.5184 C   0  0  0  0  0  0  0  0  0  0  0  0
   -1.9456   -2.7051    2.0404 O   0  0  0  0  0  0  0  0  0  0  0  0
   -2.6926   -0.8481    1.0174 N   0  0  0  0  0  0  0  0  0  0  0  0
   -3.4926   -0.3971    0.5954 H   0  0  0  0  0  0  0  0  0  0  0  0
   -1.4216   -0.1071    1.0434 C   0  0  1  0  0  0  0  0  0  0  0  0
   -0.6709   -0.6930    0.5106 H   0  0  0  0  0  0  0  0  0  0  0  0
   -1.6221    1.2315    0.3051 C   0  0  0  0  0  0  0  0  0  0  0  0
   -2.6933    1.4133    0.1981 H   0  0  0  0  0  0  0  0  0  0  0  0
   -1.1998    2.0384    0.9081 H   0  0  0  0  0  0  0  0  0  0  0  0
   -0.9858    1.2602   -1.0922 C   0  0  0  0  0  0  0  0  0  0  0  0
   -1.5558    1.9244   -1.7435 H   0  0  0  0  0  0  0  0  0  0  0  0
    0.0392    1.6242   -1.0145 H   0  0  0  0  0  0  0  0  0  0  0  0
   -0.9819   -0.1518   -1.6937 C   0  0  0  0  0  0  0  0  0  0  0  0
   -0.4322   -0.8153   -1.0221 H   0  0  0  0  0  0  0  0  0  0  0  0
   -2.0144   -0.5012   -1.7673 H   0  0  0  0  0  0  0  0  0  0  0  0
   -0.3558   -0.1761   -3.0317 N   0  3  0  0  0  0  0  0  0  0  0  0
   -0.0566    0.7078   -3.4065 H   0  0  0  0  0  0  0  0  0  0  0  0
   -0.1524   -1.2474   -3.7800 C   0  0  0  0  0  0  0  0  0  0  0  0
   -0.5018   -2.4414   -3.3907 N   0  0  0  0  0  0  0  0  0  0  0  0
   -0.9381   -2.5489   -2.4922 H   0  0  0  0  0  0  0  0  0  0  0  0
   -0.3405   -3.2439   -3.9711 H   0  0  0  0  0  0  0  0  0  0  0  0
    0.4120   -1.1381   -4.9491 N   0  0  0  0  0  0  0  0  0  0  0  0
    0.6991   -0.2377   -5.2925 H   0  0  0  0  0  0  0  0  0  0  0  0
    0.5645   -1.9533   -5.5136 H   0  0  0  0  0  0  0  0  0  0  0  0
   -0.9523    0.1012    2.4848 C   0  0  0  0  0  0  0  0  0  0  0  0
    0.2133   -0.1319    2.7814 O   0  0  0  0  0  0  0  0  0  0  0  0
   -1.8684    0.5006    3.3725 N   0  0  0  0  0  0  0  0  0  0  0  0
   -2.7946    0.7048    3.0343 H   0  0  0  0  0  0  0  0  0  0  0  0
   -1.5848    0.7472    4.7873 C   0  0  0  0  0  0  0  0  0  0  0  0
   -0.8819    1.5774    4.8838 H   0  0  0  0  0  0  0  0  0  0  0  0
   -2.5030    0.9948    5.3214 H   0  0  0  0  0  0  0  0  0  0  0  0
   -1.1344   -0.1399    5.2381 H   0  0  0  0  0  0  0  0  0  0  0  0
  5  6  2  0  0  0  0
  5  7  1  0  0  0  0
  2  3  1  0  0  0  0
  2  4  1  0  0  0  0
  2  5  1  0  0  0  0
  1  2  1  0  0  0  0
 29 30  2  0  0  0  0
 29 31  1  0  0  0  0
 26 27  1  0  0  0  0
 26 28  1  0  0  0  0
 23 24  1  0  0  0  0
 23 25  1  0  0  0  0
 22 23  1  0  0  0  0
 22 26  1  0  0  0  0
 20 21  1  0  0  0  0
 20 22  2  0  0  0  0
 17 18  1  0  0  0  0
 17 19  1  0  0  0  0
 17 20  1  0  0  0  0
 14 15  1  0  0  0  0
 14 16  1  0  0  0  0
 14 17  1  0  0  0  0
 11 12  1  0  0  0  0
 11 13  1  0  0  0  0
 11 14  1  0  0  0  0
  9 10  1  0  0  0  0
  9 11  1  0  0  0  0
  9 29  1  0  0  0  0
  7  8  1  0  0  0  0
  7  9  1  0  0  0  0
 33 34  1  0  0  0  0
 33 35  1  0  0  0  0
 33 36  1  0  0  0  0
 31 32  1  0  0  0  0
 31 33  1  0  0  0  0
M  CHG  1  20   1
M  END
$$$$
default_name
  -OEChem-02102213163D

 36 35  0     1  0  0  0  0  0999 V2000
   -4.2256   -3.6731    1.8584 H   0  0  0  0  0  0  0  0  0  0  0  0
   -4.2396   -2.6781    1.4144 C   0  0  0  0  0  0  0  0  0  0  0  0
   -4.9506   -2.0521    1.9514 H   0  0  0  0  0  0  0  0  0  0  0  0
   -4.5266   -2.7521    0.3674 H   0  0  0  0  0  0  0  0  0  0  0  0
   -2.8576   -2.0761    1.5184 C   0  0  0  0  0  0  0  0  0  0  0  0
   -1.9456   -2.7051    2.0404 O   0  0  0  0  0  0  0  0  0  0  0  0
   -2.6926   -0.8481    1.0174 N   0  0  0  0  0  0  0  0  0  0  0  0
   -3.4926   -0.3971    0.5954 H   0  0  0  0  0  0  0  0  0  0  0  0
   -1.4216   -0.1071    1.0434 C   0  0  1  0  0  0  0  0  0  0  0  0
   -0.6709   -0.6930    0.5106 H   0  0  0  0  0  0  0  0  0  0  0  0
   -1.6221    1.2315    0.3051 C   0  0  0  0  0  0  0  0  0  0  0  0
   -2.6933    1.4133    0.1981 H   0  0  0  0  0  0  0  0  0  0  0  0
   -1.1998    2.0384    0.9081 H   0  0  0  0  0  0  0  0  0  0  0  0
   -0.9858    1.2602   -1.0922 C   0  0  0  0  0  0  0  0  0  0  0  0
   -1.3779    2.1060   -1.6588 H   0  0  0  0  0  0  0  0  0  0  0  0
    0.0954    1.3623   -0.9943 H   0  0  0  0  0  0  0  0  0  0  0  0
   -1.3101   -0.0398   -1.8408 C   0  0  0  0  0  0  0  0  0  0  0  0
   -0.9377   -0.8824   -1.2537 H   0  0  0  0  0  0  0  0  0  0  0  0
   -2.3953   -0.1265   -1.9330 H   0  0  0  0  0  0  0  0  0  0  0  0
   -0.6968   -0.0663   -3.1846 N   0  3  0  0  0  0  0  0  0  0  0  0
   -0.1946    0.7575   -3.4683 H   0  0  0  0  0  0  0  0  0  0  0  0
   -0.7457   -1.0682   -4.0465 C   0  0  0  0  0  0  0  0  0  0  0  0
   -1.3698   -2.1814   -3.7806 N   0  0  0  0  0  0  0  0  0  0  0  0
   -1.8264   -2.2794   -2.8910 H   0  0  0  0  0  0  0  0  0  0  0  0
   -1.3977   -2.9319   -4.4460 H   0  0  0  0  0  0  0  0  0  0  0  0
   -0.1621   -0.9694   -5.2070 N   0  0  0  0  0  0  0  0  0  0  0  0
    0.3320   -0.1303   -5.4575 H   0  0  0  0  0  0  0  0  0  0  0  0
   -0.2016   -1.7319   -5.8579 H   0  0  0  0  0  0  0  0  0  0  0  0
   -0.9523    0.1012    2.4848 C   0  0  0  0  0  0  0  0  0  0  0  0
    0.2133   -0.1319    2.7814 O   0  0  0  0  0  0  0  0  0  0  0  0
   -1.8684    0.5006    3.3725 N   0  0  0  0  0  0  0  0  0  0  0  0
   -2.7946    0.7048    3.0343 H   0  0  0  0  0  0  0  0  0  0  0  0
   -1.5848    0.7472    4.7873 C   0  0  0  0  0  0  0  0  0  0  0  0
   -0.8819    1.5774    4.8838 H   0  0  0  0  0  0  0  0  0  0  0  0
   -2.5030    0.9948    5.3214 H   0  0  0  0  0  0  0  0  0  0  0  0
   -1.1344   -0.1399    5.2381 H   0  0  0  0  0  0  0  0  0  0  0  0
  5  6  2  0  0  0  0
  5  7  1  0  0  0  0
  2  3  1  0  0  0  0
  2  4  1  0  0  0  0
  2  5  1  0  0  0  0
  1  2  1  0  0  0  0
 29 30  2  0  0  0  0
 29 31  1  0  0  0  0
 26 27  1  0  0  0  0
 26 28  1  0  0  0  0
 23 24  1  0  0  0  0
 23 25  1  0  0  0  0
 22 23  1  0  0  0  0
 22 26  1  0  0  0  0
 20 21  1  0  0  0  0
 20 22  2  0  0  0  0
 17 18  1  0  0  0  0
 17 19  1  0  0  0  0
 17 20  1  0  0  0  0
 14 15  1  0  0  0  0
 14 16  1  0  0  0  0
 14 17  1  0  0  0  0
 11 12  1  0  0  0  0
 11 13  1  0  0  0  0
 11 14  1  0  0  0  0
  9 10  1  0  0  0  0
  9 11  1  0  0  0  0
  9 29  1  0  0  0  0
  7  8  1  0  0  0  0
  7  9  1  0  0  0  0
 33 34  1  0  0  0  0
 33 35  1  0  0  0  0
 33 36  1  0  0  0  0
 31 32  1  0  0  0  0
 31 33  1  0  0  0  0
M  CHG  1  20   1
M  END
$$$$
default_name
  -OEChem-02102213163D

 36 35  0     1  0  0  0  0  0999 V2000
   -4.2256   -3.6731    1.8584 H   0  0  0  0  0  0  0  0  0  0  0  0
   -4.2396   -2.6781    1.4144 C   0  0  0  0  0  0  0  0  0  0  0  0
   -4.9506   -2.0521    1.9514 H   0  0  0  0  0  0  0  0  0  0  0  0
   -4.5266   -2.7521    0.3674 H   0  0  0  0  0  0  0  0  0  0  0  0
   -2.8576   -2.0761    1.5184 C   0  0  0  0  0  0  0  0  0  0  0  0
   -1.9456   -2.7051    2.0404 O   0  0  0  0  0  0  0  0  0  0  0  0
   -2.6926   -0.8481    1.0174 N   0  0  0  0  0  0  0  0  0  0  0  0
   -3.4926   -0.3971    0.5954 H   0  0  0  0  0  0  0  0  0  0  0  0
   -1.4216   -0.1071    1.0434 C   0  0  1  0  0  0  0  0  0  0  0  0
   -0.6709   -0.6930    0.5106 H   0  0  0  0  0  0  0  0  0  0  0  0
   -1.6221    1.2315    0.3051 C   0  0  0  0  0  0  0  0  0  0  0  0
   -2.6933    1.4133    0.1981 H   0  0  0  0  0  0  0  0  0  0  0  0
   -1.1998    2.0384    0.9081 H   0  0  0  0  0  0  0  0  0  0  0  0
   -0.9858    1.2602   -1.0922 C   0  0  0  0  0  0  0  0  0  0  0  0
   -1.1628    2.2305   -1.5583 H   0  0  0  0  0  0  0  0  0  0  0  0
    0.0882    1.0939   -1.0031 H   0  0  0  0  0  0  0  0  0  0  0  0
   -1.6014    0.1615   -1.9693 C   0  0  0  0  0  0  0  0  0  0  0  0
   -1.4429   -0.8033   -1.4821 H   0  0  0  0  0  0  0  0  0  0  0  0
   -2.6757    0.3430   -2.0510 H   0  0  0  0  0  0  0  0  0  0  0  0
   -1.0009    0.1365   -3.3190 N   0  3  0  0  0  0  0  0  0  0  0  0
   -0.3164    0.8447   -3.5220 H   0  0  0  0  0  0  0  0  0  0  0  0
   -1.2778   -0.7269   -4.2817 C   0  0  0  0  0  0  0  0  0  0  0  0
   -2.1489   -1.6840   -4.1251 N   0  0  0  0  0  0  0  0  0  0  0  0
   -2.6228   -1.7672   -3.2431 H   0  0  0  0  0  0  0  0  0  0  0  0
   -2.3476   -2.3307   -4.8662 H   0  0  0  0  0  0  0  0  0  0  0  0
   -0.6781   -0.6436   -5.4353 N   0  0  0  0  0  0  0  0  0  0  0  0
    0.0019    0.0777   -5.6035 H   0  0  0  0  0  0  0  0  0  0  0  0
   -0.8911   -1.3007   -6.1629 H   0  0  0  0  0  0  0  0  0  0  0  0
   -0.9523    0.1012    2.4848 C   0  0  0  0  0  0  0  0  0  0  0  0
    0.2133   -0.1319    2.7814 O   0  0  0  0  0  0  0  0  0  0  0  0
   -1.8684    0.5006    3.3725 N   0  0  0  0  0  0  0  0  0  0  0  0
   -2.7946    0.7048    3.0343 H   0  0  0  0  0  0  0  0  0  0  0  0
   -1.5848    0.7472    4.7873 C   0  0  0  0  0  0  0  0  0  0  0  0
   -0.8819    1.5774    4.8838 H   0  0  0  0  0  0  0  0  0  0  0  0
   -2.5030    0.9948    5.3214 H   0  0  0  0  0  0  0  0  0  0  0  0
   -1.1344   -0.1399    5.2381 H   0  0  0  0  0  0  0  0  0  0  0  0
  5  6  2  0  0  0  0
  5  7  1  0  0  0  0
  2  3  1  0  0  0  0
  2  4  1  0  0  0  0
  2  5  1  0  0  0  0
  1  2  1  0  0  0  0
 29 30  2  0  0  0  0
 29 31  1  0  0  0  0
 26 27  1  0  0  0  0
 26 28  1  0  0  0  0
 23 24  1  0  0  0  0
 23 25  1  0  0  0  0
 22 23  1  0  0  0  0
 22 26  1  0  0  0  0
 20 21  1  0  0  0  0
 20 22  2  0  0  0  0
 17 18  1  0  0  0  0
 17 19  1  0  0  0  0
 17 20  1  0  0  0  0
 14 15  1  0  0  0  0
 14 16  1  0  0  0  0
 14 17  1  0  0  0  0
 11 12  1  0  0  0  0
 11 13  1  0  0  0  0
 11 14  1  0  0  0  0
  9 10  1  0  0  0  0
  9 11  1  0  0  0  0
  9 29  1  0  0  0  0
  7  8  1  0  0  0  0
  7  9  1  0  0  0  0
 33 34  1  0  0  0  0
 33 35  1  0  0  0  0
 33 36  1  0  0  0  0
 31 32  1  0  0  0  0
 31 33  1  0  0  0  0
M  CHG  1  20   1
M  END
$$$$
default_name
  -OEChem-02102213163D

 36 35  0     1  0  0  0  0  0999 V2000
   -4.2256   -3.6731    1.8584 H   0  0  0  0  0  0  0  0  0  0  0  0
   -4.2396   -2.6781    1.4144 C   0  0  0  0  0  0  0  0  0  0  0  0
   -4.9506   -2.0521    1.9514 H   0  0  0  0  0  0  0  0  0  0  0  0
   -4.5266   -2.7521    0.3674 H   0  0  0  0  0  0  0  0  0  0  0  0
   -2.8576   -2.0761    1.5184 C   0  0  0  0  0  0  0  0  0  0  0  0
   -1.9456   -2.7051    2.0404 O   0  0  0  0  0  0  0  0  0  0  0  0
   -2.6926   -0.8481    1.0174 N   0  0  0  0  0  0  0  0  0  0  0  0
   -3.4926   -0.3971    0.5954 H   0  0  0  0  0  0  0  0  0  0  0  0
   -1.4216   -0.1071    1.0434 C   0  0  1  0  0  0  0  0  0  0  0  0
   -0.6709   -0.6930    0.5106 H   0  0  0  0  0  0  0  0  0  0  0  0
   -1.6221    1.2315    0.3051 C   0  0  0  0  0  0  0  0  0  0  0  0
   -2.6933    1.4133    0.1981 H   0  0  0  0  0  0  0  0  0  0  0  0
   -1.1998    2.0384    0.9081 H   0  0  0  0  0  0  0  0  0  0  0  0
   -0.9858    1.2602   -1.0922 C   0  0  0  0  0  0  0  0  0  0  0  0
   -0.9253    2.2894   -1.4490 H   0  0  0  0  0  0  0  0  0  0  0  0
    0.0179    0.8373   -1.0404 H   0  0  0  0  0  0  0  0  0  0  0  0
   -1.8361    0.4383   -2.0705 C   0  0  0  0  0  0  0  0  0  0  0  0
   -1.9135   -0.5835   -1.6918 H   0  0  0  0  0  0  0  0  0  0  0  0
   -2.8366    0.8751   -2.1133 H   0  0  0  0  0  0  0  0  0  0  0  0
   -1.2476    0.4184   -3.4255 N   0  3  0  0  0  0  0  0  0  0  0  0
   -0.4138    0.9633   -3.5639 H   0  0  0  0  0  0  0  0  0  0  0  0
   -1.7126   -0.2467   -4.4698 C   0  0  0  0  0  0  0  0  0  0  0  0
   -2.7860   -0.9831   -4.4007 N   0  0  0  0  0  0  0  0  0  0  0  0
   -3.2732   -1.0471   -3.5244 H   0  0  0  0  0  0  0  0  0  0  0  0
   -3.1256   -1.4812   -5.2029 H   0  0  0  0  0  0  0  0  0  0  0  0
   -1.1009   -0.1830   -5.6183 N   0  0  0  0  0  0  0  0  0  0  0  0
   -0.2687    0.3719   -5.7206 H   0  0  0  0  0  0  0  0  0  0  0  0
   -1.4570   -0.6892   -6.4080 H   0  0  0  0  0  0  0  0  0  0  0  0
   -0.9523    0.1012    2.4848 C   0  0  0  0  0  0  0  0  0  0  0  0
    0.2133   -0.1319    2.7814 O   0  0  0  0  0  0  0  0  0  0  0  0
   -1.8684    0.5006    3.3725 N   0  0  0  0  0  0  0  0  0  0  0  0
   -2.7946    0.7048    3.0343 H   0  0  0  0  0  0  0  0  0  0  0  0
   -1.5848    0.7472    4.7873 C   0  0  0  0  0  0  0  0  0  0  0  0
   -0.8819    1.5774    4.8838 H   0  0  0  0  0  0  0  0  0  0  0  0
   -2.5030    0.9948    5.3214 H   0  0  0  0  0  0  0  0  0  0  0  0
   -1.1344   -0.1399    5.2381 H   0  0  0  0  0  0  0  0  0  0  0  0
  5  6  2  0  0  0  0
  5  7  1  0  0  0  0
  2  3  1  0  0  0  0
  2  4  1  0  0  0  0
  2  5  1  0  0  0  0
  1  2  1  0  0  0  0
 29 30  2  0  0  0  0
 29 31  1  0  0  0  0
 26 27  1  0  0  0  0
 26 28  1  0  0  0  0
 23 24  1  0  0  0  0
 23 25  1  0  0  0  0
 22 23  1  0  0  0  0
 22 26  1  0  0  0  0
 20 21  1  0  0  0  0
 20 22  2  0  0  0  0
 17 18  1  0  0  0  0
 17 19  1  0  0  0  0
 17 20  1  0  0  0  0
 14 15  1  0  0  0  0
 14 16  1  0  0  0  0
 14 17  1  0  0  0  0
 11 12  1  0  0  0  0
 11 13  1  0  0  0  0
 11 14  1  0  0  0  0
  9 10  1  0  0  0  0
  9 11  1  0  0  0  0
  9 29  1  0  0  0  0
  7  8  1  0  0  0  0
  7  9  1  0  0  0  0
 33 34  1  0  0  0  0
 33 35  1  0  0  0  0
 33 36  1  0  0  0  0
 31 32  1  0  0  0  0
 31 33  1  0  0  0  0
M  CHG  1  20   1
M  END
$$$$
default_name
  -OEChem-02102213163D

 36 35  0     1  0  0  0  0  0999 V2000
   -4.2256   -3.6731    1.8584 H   0  0  0  0  0  0  0  0  0  0  0  0
   -4.2396   -2.6781    1.4144 C   0  0  0  0  0  0  0  0  0  0  0  0
   -4.9506   -2.0521    1.9514 H   0  0  0  0  0  0  0  0  0  0  0  0
   -4.5266   -2.7521    0.3674 H   0  0  0  0  0  0  0  0  0  0  0  0
   -2.8576   -2.0761    1.5184 C   0  0  0  0  0  0  0  0  0  0  0  0
   -1.9456   -2.7051    2.0404 O   0  0  0  0  0  0  0  0  0  0  0  0
   -2.6926   -0.8481    1.0174 N   0  0  0  0  0  0  0  0  0  0  0  0
   -3.4926   -0.3971    0.5954 H   0  0  0  0  0  0  0  0  0  0  0  0
   -1.4216   -0.1071    1.0434 C   0  0  1  0  0  0  0  0  0  0  0  0
   -0.6709   -0.6930    0.5106 H   0  0  0  0  0  0  0  0  0  0  0  0
   -1.6221    1.2315    0.3051 C   0  0  0  0  0  0  0  0  0  0  0  0
   -2.6933    1.4133    0.1981 H   0  0  0  0  0  0  0  0  0  0  0  0
   -1.1998    2.0384    0.9081 H   0  0  0  0  0  0  0  0  0  0  0  0
   -0.9858    1.2602   -1.0922 C   0  0  0  0  0  0  0  0  0  0  0  0
   -0.6816    2.2785   -1.3382 H   0  0  0  0  0  0  0  0  0  0  0  0
   -0.1106    0.6100   -1.1035 H   0  0  0  0  0  0  0  0  0  0  0  0
   -1.9981    0.7718   -2.1374 C   0  0  0  0  0  0  0  0  0  0  0  0
   -2.3172   -0.2378   -1.8685 H   0  0  0  0  0  0  0  0  0  0  0  0
   -2.8670    1.4337   -2.1157 H   0  0  0  0  0  0  0  0  0  0  0  0
   -1.4201    0.7602   -3.4970 N   0  3  0  0  0  0  0  0  0  0  0  0
   -0.4802    1.1053   -3.5912 H   0  0  0  0  0  0  0  0  0  0  0  0
   -2.0203    0.3397   -4.5978 C   0  0  0  0  0  0  0  0  0  0  0  0
   -3.2376   -0.1266   -4.5888 N   0  0  0  0  0  0  0  0  0  0  0  0
   -3.7332   -0.1682   -3.7158 H   0  0  0  0  0  0  0  0  0  0  0  0
   -3.6787   -0.4412   -5.4333 H   0  0  0  0  0  0  0  0  0  0  0  0
   -1.4017    0.3812   -5.7437 N   0  0  0  0  0  0  0  0  0  0  0  0
   -0.4613    0.7325   -5.8009 H   0  0  0  0  0  0  0  0  0  0  0  0
   -1.8607    0.0612   -6.5764 H   0  0  0  0  0  0  0  0  0  0  0  0
   -0.9523    0.1012    2.4848 C   0  0  0  0  0  0  0  0  0  0  0  0
    0.2133   -0.1319    2.7814 O   0  0  0  0  0  0  0  0  0  0  0  0
   -1.8684    0.5006    3.3725 N   0  0  0  0  0  0  0  0  0  0  0  0
   -2.7946    0.7048    3.0343 H   0  0  0  0  0  0  0  0  0  0  0  0
   -1.5848    0.7472    4.7873 C   0  0  0  0  0  0  0  0  0  0  0  0
   -0.8819    1.5774    4.8838 H   0  0  0  0  0  0  0  0  0  0  0  0
   -2.5030    0.9948    5.3214 H   0  0  0  0  0  0  0  0  0  0  0  0
   -1.1344   -0.1399    5.2381 H   0  0  0  0  0  0  0  0  0  0  0  0
  5  6  2  0  0  0  0
  5  7  1  0  0  0  0
  2  3  1  0  0  0  0
  2  4  1  0  0  0  0
  2  5  1  0  0  0  0
  1  2  1  0  0  0  0
 29 30  2  0  0  0  0
 29 31  1  0  0  0  0
 26 27  1  0  0  0  0
 26 28  1  0  0  0  0
 23 24  1  0  0  0  0
 23 25  1  0  0  0  0
 22 23  1  0  0  0  0
 22 26  1  0  0  0  0
 20 21  1  0  0  0  0
 20 22  2  0  0  0  0
 17 18  1  0  0  0  0
 17 19  1  0  0  0  0
 17 20  1  0  0  0  0
 14 15  1  0  0  0  0
 14 16  1  0  0  0  0
 14 17  1  0  0  0  0
 11 12  1  0  0  0  0
 11 13  1  0  0  0  0
 11 14  1  0  0  0  0
  9 10  1  0  0  0  0
  9 11  1  0  0  0  0
  9 29  1  0  0  0  0
  7  8  1  0  0  0  0
  7  9  1  0  0  0  0
 33 34  1  0  0  0  0
 33 35  1  0  0  0  0
 33 36  1  0  0  0  0
 31 32  1  0  0  0  0
 31 33  1  0  0  0  0
M  CHG  1  20   1
M  END
$$$$
default_name
  -OEChem-02102213163D

 36 35  0     1  0  0  0  0  0999 V2000
   -4.2256   -3.6731    1.8584 H   0  0  0  0  0  0  0  0  0  0  0  0
   -4.2396   -2.6781    1.4144 C   0  0  0  0  0  0  0  0  0  0  0  0
   -4.9506   -2.0521    1.9514 H   0  0  0  0  0  0  0  0  0  0  0  0
   -4.5266   -2.7521    0.3674 H   0  0  0  0  0  0  0  0  0  0  0  0
   -2.8576   -2.0761    1.5184 C   0  0  0  0  0  0  0  0  0  0  0  0
   -1.9456   -2.7051    2.0404 O   0  0  0  0  0  0  0  0  0  0  0  0
   -2.6926   -0.8481    1.0174 N   0  0  0  0  0  0  0  0  0  0  0  0
   -3.4926   -0.3971    0.5954 H   0  0  0  0  0  0  0  0  0  0  0  0
   -1.4216   -0.1071    1.0434 C   0  0  1  0  0  0  0  0  0  0  0  0
   -0.6709   -0.6930    0.5106 H   0  0  0  0  0  0  0  0  0  0  0  0
   -1.6221    1.2315    0.3051 C   0  0  0  0  0  0  0  0  0  0  0  0
   -2.6933    1.4133    0.1981 H   0  0  0  0  0  0  0  0  0  0  0  0
   -1.1998    2.0384    0.9081 H   0  0  0  0  0  0  0  0  0  0  0  0
   -0.9858    1.2602   -1.0922 C   0  0  0  0  0  0  0  0  0  0  0  0
   -0.4481    2.1988   -1.2336 H   0  0  0  0  0  0  0  0  0  0  0  0
   -0.2885    0.4274   -1.1883 H   0  0  0  0  0  0  0  0  0  0  0  0
   -2.0763    1.1392   -2.1654 C   0  0  0  0  0  0  0  0  0  0  0  0
   -2.6266    0.2101   -2.0001 H   0  0  0  0  0  0  0  0  0  0  0  0
   -2.7648    1.9807   -2.0579 H   0  0  0  0  0  0  0  0  0  0  0  0
   -1.5065    1.1386   -3.5285 N   0  3  0  0  0  0  0  0  0  0  0  0
   -0.5110    1.2610   -3.6020 H   0  0  0  0  0  0  0  0  0  0  0  0
   -2.1801    0.9923   -4.6572 C   0  0  0  0  0  0  0  0  0  0  0  0
   -3.4730    0.8273   -4.6763 N   0  0  0  0  0  0  0  0  0  0  0  0
   -3.9715    0.8096   -3.8042 H   0  0  0  0  0  0  0  0  0  0  0  0
   -3.9691    0.7182   -5.5417 H   0  0  0  0  0  0  0  0  0  0  0  0
   -1.5600    1.0104   -5.8028 N   0  0  0  0  0  0  0  0  0  0  0  0
   -0.5629    1.1347   -5.8389 H   0  0  0  0  0  0  0  0  0  0  0  0
   -2.0749    0.8990   -6.6567 H   0  0  0  0  0  0  0  0  0  0  0  0
   -0.9523    0.1012    2.4848 C   0  0  0  0  0  0  0  0  0  0  0  0
    0.2133   -0.1319    2.7814 O   0  0  0  0  0  0  0  0  0  0  0  0
   -1.8684    0.5006    3.3725 N   0  0  0  0  0  0  0  0  0  0  0  0
   -2.7946    0.7048    3.0343 H   0  0  0  0  0  0  0  0  0  0  0  0
   -1.5848    0.7472    4.7873 C   0  0  0  0  0  0  0  0  0  0  0  0
   -0.8819    1.5774    4.8838 H   0  0  0  0  0  0  0  0  0  0  0  0
   -2.5030    0.9948    5.3214 H   0  0  0  0  0  0  0  0  0  0  0  0
   -1.1344   -0.1399    5.2381 H   0  0  0  0  0  0  0  0  0  0  0  0
  5  6  2  0  0  0  0
  5  7  1  0  0  0  0
  2  3  1  0  0  0  0
  2  4  1  0  0  0  0
  2  5  1  0  0  0  0
  1  2  1  0  0  0  0
 29 30  2  0  0  0  0
 29 31  1  0  0  0  0
 26 27  1  0  0  0  0
 26 28  1  0  0  0  0
 23 24  1  0  0  0  0
 23 25  1  0  0  0  0
 22 23  1  0  0  0  0
 22 26  1  0  0  0  0
 20 21  1  0  0  0  0
 20 22  2  0  0  0  0
 17 18  1  0  0  0  0
 17 19  1  0  0  0  0
 17 20  1  0  0  0  0
 14 15  1  0  0  0  0
 14 16  1  0  0  0  0
 14 17  1  0  0  0  0
 11 12  1  0  0  0  0
 11 13  1  0  0  0  0
 11 14  1  0  0  0  0
  9 10  1  0  0  0  0
  9 11  1  0  0  0  0
  9 29  1  0  0  0  0
  7  8  1  0  0  0  0
  7  9  1  0  0  0  0
 33 34  1  0  0  0  0
 33 35  1  0  0  0  0
 33 36  1  0  0  0  0
 31 32  1  0  0  0  0
 31 33  1  0  0  0  0
M  CHG  1  20   1
M  END
$$$$
default_name
  -OEChem-02102213163D

 36 35  0     1  0  0  0  0  0999 V2000
   -4.2256   -3.6731    1.8584 H   0  0  0  0  0  0  0  0  0  0  0  0
   -4.2396   -2.6781    1.4144 C   0  0  0  0  0  0  0  0  0  0  0  0
   -4.9506   -2.0521    1.9514 H   0  0  0  0  0  0  0  0  0  0  0  0
   -4.5266   -2.7521    0.3674 H   0  0  0  0  0  0  0  0  0  0  0  0
   -2.8576   -2.0761    1.5184 C   0  0  0  0  0  0  0  0  0  0  0  0
   -1.9456   -2.7051    2.0404 O   0  0  0  0  0  0  0  0  0  0  0  0
   -2.6926   -0.8481    1.0174 N   0  0  0  0  0  0  0  0  0  0  0  0
   -3.4926   -0.3971    0.5954 H   0  0  0  0  0  0  0  0  0  0  0  0
   -1.4216   -0.1071    1.0434 C   0  0  1  0  0  0  0  0  0  0  0  0
   -0.6709   -0.6930    0.5106 H   0  0  0  0  0  0  0  0  0  0  0  0
   -1.6221    1.2315    0.3051 C   0  0  0  0  0  0  0  0  0  0  0  0
   -2.6933    1.4133    0.1981 H   0  0  0  0  0  0  0  0  0  0  0  0
   -1.1998    2.0384    0.9081 H   0  0  0  0  0  0  0  0  0  0  0  0
   -0.9858    1.2602   -1.0922 C   0  0  0  0  0  0  0  0  0  0  0  0
   -0.2408    2.0555   -1.1421 H   0  0  0  0  0  0  0  0  0  0  0  0
   -0.5038    0.3021   -1.2889 H   0  0  0  0  0  0  0  0  0  0  0  0
   -2.0655    1.5156   -2.1528 C   0  0  0  0  0  0  0  0  0  0  0  0
   -2.8206    0.7297   -2.0778 H   0  0  0  0  0  0  0  0  0  0  0  0
   -2.5370    2.4787   -1.9439 H   0  0  0  0  0  0  0  0  0  0  0  0
   -1.5010    1.5279   -3.5180 N   0  3  0  0  0  0  0  0  0  0  0  0
   -0.5041    1.4199   -3.5956 H   0  0  0  0  0  0  0  0  0  0  0  0
   -2.1810    1.6667   -4.6437 C   0  0  0  0  0  0  0  0  0  0  0  0
   -3.4762    1.8136   -4.6575 N   0  0  0  0  0  0  0  0  0  0  0  0
   -3.9717    1.8197   -3.7835 H   0  0  0  0  0  0  0  0  0  0  0  0
   -3.9771    1.9182   -5.5207 H   0  0  0  0  0  0  0  0  0  0  0  0
   -1.5650    1.6618   -5.7917 N   0  0  0  0  0  0  0  0  0  0  0  0
   -0.5664    1.5512   -5.8319 H   0  0  0  0  0  0  0  0  0  0  0  0
   -2.0848    1.7674   -6.6433 H   0  0  0  0  0  0  0  0  0  0  0  0
   -0.9523    0.1012    2.4848 C   0  0  0  0  0  0  0  0  0  0  0  0
    0.2133   -0.1319    2.7814 O   0  0  0  0  0  0  0  0  0  0  0  0
   -1.8684    0.5006    3.3725 N   0  0  0  0  0  0  0  0  0  0  0  0
   -2.7946    0.7048    3.0343 H   0  0  0  0  0  0  0  0  0  0  0  0
   -1.5848    0.7472    4.7873 C   0  0  0  0  0  0  0  0  0  0  0  0
   -0.8819    1.5774    4.8838 H   0  0  0  0  0  0  0  0  0  0  0  0
   -2.5030    0.9948    5.3214 H   0  0  0  0  0  0  0  0  0  0  0  0
   -1.1344   -0.1399    5.2381 H   0  0  0  0  0  0  0  0  0  0  0  0
  5  6  2  0  0  0  0
  5  7  1  0  0  0  0
  2  3  1  0  0  0  0
  2  4  1  0  0  0  0
  2  5  1  0  0  0  0
  1  2  1  0  0  0  0
 29 30  2  0  0  0  0
 29 31  1  0  0  0  0
 26 27  1  0  0  0  0
 26 28  1  0  0  0  0
 23 24  1  0  0  0  0
 23 25  1  0  0  0  0
 22 23  1  0  0  0  0
 22 26  1  0  0  0  0
 20 21  1  0  0  0  0
 20 22  2  0  0  0  0
 17 18  1  0  0  0  0
 17 19  1  0  0  0  0
 17 20  1  0  0  0  0
 14 15  1  0  0  0  0
 14 16  1  0  0  0  0
 14 17  1  0  0  0  0
 11 12  1  0  0  0  0
 11 13  1  0  0  0  0
 11 14  1  0  0  0  0
  9 10  1  0  0  0  0
  9 11  1  0  0  0  0
  9 29  1  0  0  0  0
  7  8  1  0  0  0  0
  7  9  1  0  0  0  0
 33 34  1  0  0  0  0
 33 35  1  0  0  0  0
 33 36  1  0  0  0  0
 31 32  1  0  0  0  0
 31 33  1  0  0  0  0
M  CHG  1  20   1
M  END
$$$$
default_name
  -OEChem-02102213163D

 36 35  0     1  0  0  0  0  0999 V2000
   -4.2256   -3.6731    1.8584 H   0  0  0  0  0  0  0  0  0  0  0  0
   -4.2396   -2.6781    1.4144 C   0  0  0  0  0  0  0  0  0  0  0  0
   -4.9506   -2.0521    1.9514 H   0  0  0  0  0  0  0  0  0  0  0  0
   -4.5266   -2.7521    0.3674 H   0  0  0  0  0  0  0  0  0  0  0  0
   -2.8576   -2.0761    1.5184 C   0  0  0  0  0  0  0  0  0  0  0  0
   -1.9456   -2.7051    2.0404 O   0  0  0  0  0  0  0  0  0  0  0  0
   -2.6926   -0.8481    1.0174 N   0  0  0  0  0  0  0  0  0  0  0  0
   -3.4926   -0.3971    0.5954 H   0  0  0  0  0  0  0  0  0  0  0  0
   -1.4216   -0.1071    1.0434 C   0  0  1  0  0  0  0  0  0  0  0  0
   -0.6709   -0.6930    0.5106 H   0  0  0  0  0  0  0  0  0  0  0  0
   -1.6221    1.2315    0.3051 C   0  0  0  0  0  0  0  0  0  0  0  0
   -2.6933    1.4133    0.1981 H   0  0  0  0  0  0  0  0  0  0  0  0
   -1.1998    2.0384    0.9081 H   0  0  0  0  0  0  0  0  0  0  0  0
   -0.9858    1.2602   -1.0922 C   0  0  0  0  0  0  0  0  0  0  0  0
   -0.0740    1.8586   -1.0702 H   0  0  0  0  0  0  0  0  0  0  0  0
   -0.7417    0.2425   -1.3985 H   0  0  0  0  0  0  0  0  0  0  0  0
   -1.9663    1.8752   -2.1002 C   0  0  0  0  0  0  0  0  0  0  0  0
   -2.8860    1.2857   -2.0961 H   0  0  0  0  0  0  0  0  0  0  0  0
   -2.1991    2.8940   -1.7816 H   0  0  0  0  0  0  0  0  0  0  0  0
   -1.4039    1.9014   -3.4661 N   0  3  0  0  0  0  0  0  0  0  0  0
   -0.4601    1.5710   -3.5725 H   0  0  0  0  0  0  0  0  0  0  0  0
   -2.0230    2.3169   -4.5584 C   0  0  0  0  0  0  0  0  0  0  0  0
   -3.2469    2.7650   -4.5335 N   0  0  0  0  0  0  0  0  0  0  0  0
   -3.7340    2.7932   -3.6553 H   0  0  0  0  0  0  0  0  0  0  0  0
   -3.7021    3.0768   -5.3717 H   0  0  0  0  0  0  0  0  0  0  0  0
   -1.4163    2.2910   -5.7111 N   0  0  0  0  0  0  0  0  0  0  0  0
   -0.4717    1.9536   -5.7806 H   0  0  0  0  0  0  0  0  0  0  0  0
   -1.8897    2.6071   -6.5372 H   0  0  0  0  0  0  0  0  0  0  0  0
   -0.9523    0.1012    2.4848 C   0  0  0  0  0  0  0  0  0  0  0  0
    0.2133   -0.1319    2.7814 O   0  0  0  0  0  0  0  0  0  0  0  0
   -1.8684    0.5006    3.3725 N   0  0  0  0  0  0  0  0  0  0  0  0
   -2.7946    0.7048    3.0343 H   0  0  0  0  0  0  0  0  0  0  0  0
   -1.5848    0.7472    4.7873 C   0  0  0  0  0  0  0  0  0  0  0  0
   -0.8819    1.5774    4.8838 H   0  0  0  0  0  0  0  0  0  0  0  0
   -2.5030    0.9948    5.3214 H   0  0  0  0  0  0  0  0  0  0  0  0
   -1.1344   -0.1399    5.2381 H   0  0  0  0  0  0  0  0  0  0  0  0
  5  6  2  0  0  0  0
  5  7  1  0  0  0  0
  2  3  1  0  0  0  0
  2  4  1  0  0  0  0
  2  5  1  0  0  0  0
  1  2  1  0  0  0  0
 29 30  2  0  0  0  0
 29 31  1  0  0  0  0
 26 27  1  0  0  0  0
 26 28  1  0  0  0  0
 23 24  1  0  0  0  0
 23 25  1  0  0  0  0
 22 23  1  0  0  0  0
 22 26  1  0  0  0  0
 20 21  1  0  0  0  0
 20 22  2  0  0  0  0
 17 18  1  0  0  0  0
 17 19  1  0  0  0  0
 17 20  1  0  0  0  0
 14 15  1  0  0  0  0
 14 16  1  0  0  0  0
 14 17  1  0  0  0  0
 11 12  1  0  0  0  0
 11 13  1  0  0  0  0
 11 14  1  0  0  0  0
  9 10  1  0  0  0  0
  9 11  1  0  0  0  0
  9 29  1  0  0  0  0
  7  8  1  0  0  0  0
  7  9  1  0  0  0  0
 33 34  1  0  0  0  0
 33 35  1  0  0  0  0
 33 36  1  0  0  0  0
 31 32  1  0  0  0  0
 31 33  1  0  0  0  0
M  CHG  1  20   1
M  END
$$$$
default_name
  -OEChem-02102213163D

 36 35  0     1  0  0  0  0  0999 V2000
   -4.2256   -3.6731    1.8584 H   0  0  0  0  0  0  0  0  0  0  0  0
   -4.2396   -2.6781    1.4144 C   0  0  0  0  0  0  0  0  0  0  0  0
   -4.9506   -2.0521    1.9514 H   0  0  0  0  0  0  0  0  0  0  0  0
   -4.5266   -2.7521    0.3674 H   0  0  0  0  0  0  0  0  0  0  0  0
   -2.8576   -2.0761    1.5184 C   0  0  0  0  0  0  0  0  0  0  0  0
   -1.9456   -2.7051    2.0404 O   0  0  0  0  0  0  0  0  0  0  0  0
   -2.6926   -0.8481    1.0174 N   0  0  0  0  0  0  0  0  0  0  0  0
   -3.4926   -0.3971    0.5954 H   0  0  0  0  0  0  0  0  0  0  0  0
   -1.4216   -0.1071    1.0434 C   0  0  1  0  0  0  0  0  0  0  0  0
   -0.6709   -0.6930    0.5106 H   0  0  0  0  0  0  0  0  0  0  0  0
   -1.6221    1.2315    0.3051 C   0  0  0  0  0  0  0  0  0  0  0  0
   -2.6933    1.4133    0.1981 H   0  0  0  0  0  0  0  0  0  0  0  0
   -1.1998    2.0384    0.9081 H   0  0  0  0  0  0  0  0  0  0  0  0
   -0.9858    1.2602   -1.0922 C   0  0  0  0  0  0  0  0  0  0  0  0
    0.0412    1.6213   -1.0227 H   0  0  0  0  0  0  0  0  0  0  0  0
   -0.9861    0.2528   -1.5095 H   0  0  0  0  0  0  0  0  0  0  0  0
   -1.7856    2.1935   -2.0114 C   0  0  0  0  0  0  0  0  0  0  0  0
   -2.8183    1.8401   -2.0539 H   0  0  0  0  0  0  0  0  0  0  0  0
   -1.7742    3.1980   -1.5818 H   0  0  0  0  0  0  0  0  0  0  0  0
   -1.2219    2.2339   -3.3765 N   0  3  0  0  0  0  0  0  0  0  0  0
   -0.3818    1.7041   -3.5341 H   0  0  0  0  0  0  0  0  0  0  0  0
   -1.7169    2.8986   -4.4071 C   0  0  0  0  0  0  0  0  0  0  0  0
   -2.8008    3.6166   -4.3129 N   0  0  0  0  0  0  0  0  0  0  0  0
   -3.2745    3.6638   -3.4282 H   0  0  0  0  0  0  0  0  0  0  0  0
   -3.1628    4.1153   -5.1048 H   0  0  0  0  0  0  0  0  0  0  0  0
   -1.1242    2.8551   -5.5664 N   0  0  0  0  0  0  0  0  0  0  0  0
   -0.2853    2.3145   -5.6882 H   0  0  0  0  0  0  0  0  0  0  0  0
   -1.5031    3.3609   -6.3457 H   0  0  0  0  0  0  0  0  0  0  0  0
   -0.9523    0.1012    2.4848 C   0  0  0  0  0  0  0  0  0  0  0  0
    0.2133   -0.1319    2.7814 O   0  0  0  0  0  0  0  0  0  0  0  0
   -1.8684    0.5006    3.3725 N   0  0  0  0  0  0  0  0  0  0  0  0
   -2.7946    0.7048    3.0343 H   0  0  0  0  0  0  0  0  0  0  0  0
   -1.5848    0.7472    4.7873 C   0  0  0  0  0  0  0  0  0  0  0  0
   -0.8819    1.5774    4.8838 H   0  0  0  0  0  0  0  0  0  0  0  0
   -2.5030    0.9948    5.3214 H   0  0  0  0  0  0  0  0  0  0  0  0
   -1.1344   -0.1399    5.2381 H   0  0  0  0  0  0  0  0  0  0  0  0
  5  6  2  0  0  0  0
  5  7  1  0  0  0  0
  2  3  1  0  0  0  0
  2  4  1  0  0  0  0
  2  5  1  0  0  0  0
  1  2  1  0  0  0  0
 29 30  2  0  0  0  0
 29 31  1  0  0  0  0
 26 27  1  0  0  0  0
 26 28  1  0  0  0  0
 23 24  1  0  0  0  0
 23 25  1  0  0  0  0
 22 23  1  0  0  0  0
 22 26  1  0  0  0  0
 20 21  1  0  0  0  0
 20 22  2  0  0  0  0
 17 18  1  0  0  0  0
 17 19  1  0  0  0  0
 17 20  1  0  0  0  0
 14 15  1  0  0  0  0
 14 16  1  0  0  0  0
 14 17  1  0  0  0  0
 11 12  1  0  0  0  0
 11 13  1  0  0  0  0
 11 14  1  0  0  0  0
  9 10  1  0  0  0  0
  9 11  1  0  0  0  0
  9 29  1  0  0  0  0
  7  8  1  0  0  0  0
  7  9  1  0  0  0  0
 33 34  1  0  0  0  0
 33 35  1  0  0  0  0
 33 36  1  0  0  0  0
 31 32  1  0  0  0  0
 31 33  1  0  0  0  0
M  CHG  1  20   1
M  END
$$$$
default_name
  -OEChem-02102213163D

 36 35  0     1  0  0  0  0  0999 V2000
   -4.2256   -3.6731    1.8584 H   0  0  0  0  0  0  0  0  0  0  0  0
   -4.2396   -2.6781    1.4144 C   0  0  0  0  0  0  0  0  0  0  0  0
   -4.9506   -2.0521    1.9514 H   0  0  0  0  0  0  0  0  0  0  0  0
   -4.5266   -2.7521    0.3674 H   0  0  0  0  0  0  0  0  0  0  0  0
   -2.8576   -2.0761    1.5184 C   0  0  0  0  0  0  0  0  0  0  0  0
   -1.9456   -2.7051    2.0404 O   0  0  0  0  0  0  0  0  0  0  0  0
   -2.6926   -0.8481    1.0174 N   0  0  0  0  0  0  0  0  0  0  0  0
   -3.4926   -0.3971    0.5954 H   0  0  0  0  0  0  0  0  0  0  0  0
   -1.4216   -0.1071    1.0434 C   0  0  1  0  0  0  0  0  0  0  0  0
   -0.6709   -0.6930    0.5106 H   0  0  0  0  0  0  0  0  0  0  0  0
   -1.6221    1.2315    0.3051 C   0  0  0  0  0  0  0  0  0  0  0  0
   -2.6933    1.4133    0.1981 H   0  0  0  0  0  0  0  0  0  0  0  0
   -1.1998    2.0384    0.9081 H   0  0  0  0  0  0  0  0  0  0  0  0
   -0.9858    1.2602   -1.0922 C   0  0  0  0  0  0  0  0  0  0  0  0
    0.0968    1.3599   -1.0027 H   0  0  0  0  0  0  0  0  0  0  0  0
   -1.2203    0.3321   -1.6145 H   0  0  0  0  0  0  0  0  0  0  0  0
   -1.5356    2.4490   -1.8923 C   0  0  0  0  0  0  0  0  0  0  0  0
   -2.6222    2.3551   -1.9540 H   0  0  0  0  0  0  0  0  0  0  0  0
   -1.2911    3.3703   -1.3583 H   0  0  0  0  0  0  0  0  0  0  0  0
   -0.9674    2.5025   -3.2551 N   0  3  0  0  0  0  0  0  0  0  0  0
   -0.2746    1.8101   -3.4831 H   0  0  0  0  0  0  0  0  0  0  0  0
   -1.2834    3.3721   -4.2000 C   0  0  0  0  0  0  0  0  0  0  0  0
   -2.1682    4.3105   -4.0106 N   0  0  0  0  0  0  0  0  0  0  0  0
   -2.6245    4.3721   -3.1177 H   0  0  0  0  0  0  0  0  0  0  0  0
   -2.3961    4.9628   -4.7383 H   0  0  0  0  0  0  0  0  0  0  0  0
   -0.7084    3.3157   -5.3677 N   0  0  0  0  0  0  0  0  0  0  0  0
   -0.0197    2.6092   -5.5613 H   0  0  0  0  0  0  0  0  0  0  0  0
   -0.9511    3.9774   -6.0817 H   0  0  0  0  0  0  0  0  0  0  0  0
   -0.9523    0.1012    2.4848 C   0  0  0  0  0  0  0  0  0  0  0  0
    0.2133   -0.1319    2.7814 O   0  0  0  0  0  0  0  0  0  0  0  0
   -1.8684    0.5006    3.3725 N   0  0  0  0  0  0  0  0  0  0  0  0
   -2.7946    0.7048    3.0343 H   0  0  0  0  0  0  0  0  0  0  0  0
   -1.5848    0.7472    4.7873 C   0  0  0  0  0  0  0  0  0  0  0  0
   -0.8819    1.5774    4.8838 H   0  0  0  0  0  0  0  0  0  0  0  0
   -2.5030    0.9948    5.3214 H   0  0  0  0  0  0  0  0  0  0  0  0
   -1.1344   -0.1399    5.2381 H   0  0  0  0  0  0  0  0  0  0  0  0
  5  6  2  0  0  0  0
  5  7  1  0  0  0  0
  2  3  1  0  0  0  0
  2  4  1  0  0  0  0
  2  5  1  0  0  0  0
  1  2  1  0  0  0  0
 29 30  2  0  0  0  0
 29 31  1  0  0  0  0
 26 27  1  0  0  0  0
 26 28  1  0  0  0  0
 23 24  1  0  0  0  0
 23 25  1  0  0  0  0
 22 23  1  0  0  0  0
 22 26  1  0  0  0  0
 20 21  1  0  0  0  0
 20 22  2  0  0  0  0
 17 18  1  0  0  0  0
 17 19  1  0  0  0  0
 17 20  1  0  0  0  0
 14 15  1  0  0  0  0
 14 16  1  0  0  0  0
 14 17  1  0  0  0  0
 11 12  1  0  0  0  0
 11 13  1  0  0  0  0
 11 14  1  0  0  0  0
  9 10  1  0  0  0  0
  9 11  1  0  0  0  0
  9 29  1  0  0  0  0
  7  8  1  0  0  0  0
  7  9  1  0  0  0  0
 33 34  1  0  0  0  0
 33 35  1  0  0  0  0
 33 36  1  0  0  0  0
 31 32  1  0  0  0  0
 31 33  1  0  0  0  0
M  CHG  1  20   1
M  END
$$$$
default_name
  -OEChem-02102213163D

 36 35  0     1  0  0  0  0  0999 V2000
   -4.2256   -3.6731    1.8584 H   0  0  0  0  0  0  0  0  0  0  0  0
   -4.2396   -2.6781    1.4144 C   0  0  0  0  0  0  0  0  0  0  0  0
   -4.9506   -2.0521    1.9514 H   0  0  0  0  0  0  0  0  0  0  0  0
   -4.5266   -2.7521    0.3674 H   0  0  0  0  0  0  0  0  0  0  0  0
   -2.8576   -2.0761    1.5184 C   0  0  0  0  0  0  0  0  0  0  0  0
   -1.9456   -2.7051    2.0404 O   0  0  0  0  0  0  0  0  0  0  0  0
   -2.6926   -0.8481    1.0174 N   0  0  0  0  0  0  0  0  0  0  0  0
   -3.4926   -0.3971    0.5954 H   0  0  0  0  0  0  0  0  0  0  0  0
   -1.4216   -0.1071    1.0434 C   0  0  1  0  0  0  0  0  0  0  0  0
   -0.6709   -0.6930    0.5106 H   0  0  0  0  0  0  0  0  0  0  0  0
   -1.6221    1.2315    0.3051 C   0  0  0  0  0  0  0  0  0  0  0  0
   -2.6599    1.5466    0.4307 H   0  0  0  0  0  0  0  0  0  0  0  0
   -0.9803    1.9894    0.7597 H   0  0  0  0  0  0  0  0  0  0  0  0
   -1.3207    1.1515   -1.1985 C   0  0  0  0  0  0  0  0  0  0  0  0
   -0.2837    0.8490   -1.3514 H   0  0  0  0  0  0  0  0  0  0  0  0
   -1.9819    0.4176   -1.6604 H   0  0  0  0  0  0  0  0  0  0  0  0
   -1.5456    2.5226   -1.8502 C   0  0  0  0  0  0  0  0  0  0  0  0
   -2.5783    2.8295   -1.6694 H   0  0  0  0  0  0  0  0  0  0  0  0
   -0.8754    3.2456   -1.3792 H   0  0  0  0  0  0  0  0  0  0  0  0
   -1.2897    2.4870   -3.3049 N   0  3  0  0  0  0  0  0  0  0  0  0
   -0.9629    1.6151   -3.6848 H   0  0  0  0  0  0  0  0  0  0  0  0
   -1.4497    3.4904   -4.1514 C   0  0  0  0  0  0  0  0  0  0  0  0
   -1.8680    4.6631   -3.7653 N   0  0  0  0  0  0  0  0  0  0  0  0
   -2.0763    4.8064   -2.7929 H   0  0  0  0  0  0  0  0  0  0  0  0
   -1.9837    5.4140   -4.4207 H   0  0  0  0  0  0  0  0  0  0  0  0
   -1.1882    3.3332   -5.4180 N   0  0  0  0  0  0  0  0  0  0  0  0
   -0.8632    2.4466   -5.7635 H   0  0  0  0  0  0  0  0  0  0  0  0
   -1.3111    4.0970   -6.0568 H   0  0  0  0  0  0  0  0  0  0  0  0
   -0.9523    0.1012    2.4848 C   0  0  0  0  0  0  0  0  0  0  0  0
    0.2133   -0.1319    2.7814 O   0  0  0  0  0  0  0  0  0  0  0  0
   -1.8684    0.5006    3.3725 N   0  0  0  0  0  0  0  0  0  0  0  0
   -2.7946    0.7048    3.0343 H   0  0  0  0  0  0  0  0  0  0  0  0
   -1.5848    0.7472    4.7873 C   0  0  0  0  0  0  0  0  0  0  0  0
   -0.8819    1.5774    4.8838 H   0  0  0  0  0  0  0  0  0  0  0  0
   -2.5030    0.9948    5.3214 H   0  0  0  0  0  0  0  0  0  0  0  0
   -1.1344   -0.1399    5.2381 H   0  0  0  0  0  0  0  0  0  0  0  0
  5  6  2  0  0  0  0
  5  7  1  0  0  0  0
  2  3  1  0  0  0  0
  2  4  1  0  0  0  0
  2  5  1  0  0  0  0
  1  2  1  0  0  0  0
 29 30  2  0  0  0  0
 29 31  1  0  0  0  0
 26 27  1  0  0  0  0
 26 28  1  0  0  0  0
 23 24  1  0  0  0  0
 23 25  1  0  0  0  0
 22 23  1  0  0  0  0
 22 26  1  0  0  0  0
 20 21  1  0  0  0  0
 20 22  2  0  0  0  0
 17 18  1  0  0  0  0
 17 19  1  0  0  0  0
 17 20  1  0  0  0  0
 14 15  1  0  0  0  0
 14 16  1  0  0  0  0
 14 17  1  0  0  0  0
 11 12  1  0  0  0  0
 11 13  1  0  0  0  0
 11 14  1  0  0  0  0
  9 10  1  0  0  0  0
  9 11  1  0  0  0  0
  9 29  1  0  0  0  0
  7  8  1  0  0  0  0
  7  9  1  0  0  0  0
 33 34  1  0  0  0  0
 33 35  1  0  0  0  0
 33 36  1  0  0  0  0
 31 32  1  0  0  0  0
 31 33  1  0  0  0  0
M  CHG  1  20   1
M  END
$$$$
default_name
  -OEChem-02102213163D

 36 35  0     1  0  0  0  0  0999 V2000
   -4.2256   -3.6731    1.8584 H   0  0  0  0  0  0  0  0  0  0  0  0
   -4.2396   -2.6781    1.4144 C   0  0  0  0  0  0  0  0  0  0  0  0
   -4.9506   -2.0521    1.9514 H   0  0  0  0  0  0  0  0  0  0  0  0
   -4.5266   -2.7521    0.3674 H   0  0  0  0  0  0  0  0  0  0  0  0
   -2.8576   -2.0761    1.5184 C   0  0  0  0  0  0  0  0  0  0  0  0
   -1.9456   -2.7051    2.0404 O   0  0  0  0  0  0  0  0  0  0  0  0
   -2.6926   -0.8481    1.0174 N   0  0  0  0  0  0  0  0  0  0  0  0
   -3.4926   -0.3971    0.5954 H   0  0  0  0  0  0  0  0  0  0  0  0
   -1.4216   -0.1071    1.0434 C   0  0  1  0  0  0  0  0  0  0  0  0
   -0.6709   -0.6930    0.5106 H   0  0  0  0  0  0  0  0  0  0  0  0
   -1.6221    1.2315    0.3051 C   0  0  0  0  0  0  0  0  0  0  0  0
   -2.6599    1.5466    0.4307 H   0  0  0  0  0  0  0  0  0  0  0  0
   -0.9803    1.9894    0.7597 H   0  0  0  0  0  0  0  0  0  0  0  0
   -1.3207    1.1515   -1.1985 C   0  0  0  0  0  0  0  0  0  0  0  0
   -0.3912    0.6036   -1.3599 H   0  0  0  0  0  0  0  0  0  0  0  0
   -2.1367    0.6330   -1.7029 H   0  0  0  0  0  0  0  0  0  0  0  0
   -1.1781    2.5651   -1.7788 C   0  0  0  0  0  0  0  0  0  0  0  0
   -2.1030    3.1147   -1.5893 H   0  0  0  0  0  0  0  0  0  0  0  0
   -0.3564    3.0703   -1.2659 H   0  0  0  0  0  0  0  0  0  0  0  0
   -0.9105    2.5371   -3.2315 N   0  3  0  0  0  0  0  0  0  0  0  0
   -0.8075    1.6305   -3.6545 H   0  0  0  0  0  0  0  0  0  0  0  0
   -0.7944    3.5885   -4.0253 C   0  0  0  0  0  0  0  0  0  0  0  0
   -0.9100    4.8086   -3.5810 N   0  0  0  0  0  0  0  0  0  0  0  0
   -1.0946    4.9521   -2.6039 H   0  0  0  0  0  0  0  0  0  0  0  0
   -0.8187    5.5955   -4.1968 H   0  0  0  0  0  0  0  0  0  0  0  0
   -0.5558    3.4324   -5.2965 N   0  0  0  0  0  0  0  0  0  0  0  0
   -0.4590    2.5105   -5.6858 H   0  0  0  0  0  0  0  0  0  0  0  0
   -0.4686    4.2328   -5.8952 H   0  0  0  0  0  0  0  0  0  0  0  0
   -0.9523    0.1012    2.4848 C   0  0  0  0  0  0  0  0  0  0  0  0
    0.2133   -0.1319    2.7814 O   0  0  0  0  0  0  0  0  0  0  0  0
   -1.8684    0.5006    3.3725 N   0  0  0  0  0  0  0  0  0  0  0  0
   -2.7946    0.7048    3.0343 H   0  0  0  0  0  0  0  0  0  0  0  0
   -1.5848    0.7472    4.7873 C   0  0  0  0  0  0  0  0  0  0  0  0
   -0.8819    1.5774    4.8838 H   0  0  0  0  0  0  0  0  0  0  0  0
   -2.5030    0.9948    5.3214 H   0  0  0  0  0  0  0  0  0  0  0  0
   -1.1344   -0.1399    5.2381 H   0  0  0  0  0  0  0  0  0  0  0  0
  5  6  2  0  0  0  0
  5  7  1  0  0  0  0
  2  3  1  0  0  0  0
  2  4  1  0  0  0  0
  2  5  1  0  0  0  0
  1  2  1  0  0  0  0
 29 30  2  0  0  0  0
 29 31  1  0  0  0  0
 26 27  1  0  0  0  0
 26 28  1  0  0  0  0
 23 24  1  0  0  0  0
 23 25  1  0  0  0  0
 22 23  1  0  0  0  0
 22 26  1  0  0  0  0
 20 21  1  0  0  0  0
 20 22  2  0  0  0  0
 17 18  1  0  0  0  0
 17 19  1  0  0  0  0
 17 20  1  0  0  0  0
 14 15  1  0  0  0  0
 14 16  1  0  0  0  0
 14 17  1  0  0  0  0
 11 12  1  0  0  0  0
 11 13  1  0  0  0  0
 11 14  1  0  0  0  0
  9 10  1  0  0  0  0
  9 11  1  0  0  0  0
  9 29  1  0  0  0  0
  7  8  1  0  0  0  0
  7  9  1  0  0  0  0
 33 34  1  0  0  0  0
 33 35  1  0  0  0  0
 33 36  1  0  0  0  0
 31 32  1  0  0  0  0
 31 33  1  0  0  0  0
M  CHG  1  20   1
M  END
$$$$
default_name
  -OEChem-02102213163D

 36 35  0     1  0  0  0  0  0999 V2000
   -4.2256   -3.6731    1.8584 H   0  0  0  0  0  0  0  0  0  0  0  0
   -4.2396   -2.6781    1.4144 C   0  0  0  0  0  0  0  0  0  0  0  0
   -4.9506   -2.0521    1.9514 H   0  0  0  0  0  0  0  0  0  0  0  0
   -4.5266   -2.7521    0.3674 H   0  0  0  0  0  0  0  0  0  0  0  0
   -2.8576   -2.0761    1.5184 C   0  0  0  0  0  0  0  0  0  0  0  0
   -1.9456   -2.7051    2.0404 O   0  0  0  0  0  0  0  0  0  0  0  0
   -2.6926   -0.8481    1.0174 N   0  0  0  0  0  0  0  0  0  0  0  0
   -3.4926   -0.3971    0.5954 H   0  0  0  0  0  0  0  0  0  0  0  0
   -1.4216   -0.1071    1.0434 C   0  0  1  0  0  0  0  0  0  0  0  0
   -0.6709   -0.6930    0.5106 H   0  0  0  0  0  0  0  0  0  0  0  0
   -1.6221    1.2315    0.3051 C   0  0  0  0  0  0  0  0  0  0  0  0
   -2.6599    1.5466    0.4307 H   0  0  0  0  0  0  0  0  0  0  0  0
   -0.9803    1.9894    0.7597 H   0  0  0  0  0  0  0  0  0  0  0  0
   -1.3207    1.1515   -1.1985 C   0  0  0  0  0  0  0  0  0  0  0  0
   -0.5571    0.3943   -1.3820 H   0  0  0  0  0  0  0  0  0  0  0  0
   -2.2311    0.8824   -1.7351 H   0  0  0  0  0  0  0  0  0  0  0  0
   -0.8134    2.5094   -1.7028 C   0  0  0  0  0  0  0  0  0  0  0  0
   -1.5727    3.2657   -1.4910 H   0  0  0  0  0  0  0  0  0  0  0  0
    0.0990    2.7637   -1.1583 H   0  0  0  0  0  0  0  0  0  0  0  0
   -0.5325    2.4856   -3.1530 N   0  3  0  0  0  0  0  0  0  0  0  0
   -0.6538    1.6045   -3.6223 H   0  0  0  0  0  0  0  0  0  0  0  0
   -0.1382    3.5108   -3.8896 C   0  0  0  0  0  0  0  0  0  0  0  0
    0.0499    4.6969   -3.3827 N   0  0  0  0  0  0  0  0  0  0  0  0
   -0.1120    4.8346   -2.4007 H   0  0  0  0  0  0  0  0  0  0  0  0
    0.3497    5.4642   -3.9557 H   0  0  0  0  0  0  0  0  0  0  0  0
    0.0785    3.3619   -5.1656 N   0  0  0  0  0  0  0  0  0  0  0  0
   -0.0533    2.4657   -5.6021 H   0  0  0  0  0  0  0  0  0  0  0  0
    0.3775    4.1422   -5.7208 H   0  0  0  0  0  0  0  0  0  0  0  0
   -0.9523    0.1012    2.4848 C   0  0  0  0  0  0  0  0  0  0  0  0
    0.2133   -0.1319    2.7814 O   0  0  0  0  0  0  0  0  0  0  0  0
   -1.8684    0.5006    3.3725 N   0  0  0  0  0  0  0  0  0  0  0  0
   -2.7946    0.7048    3.0343 H   0  0  0  0  0  0  0  0  0  0  0  0
   -1.5848    0.7472    4.7873 C   0  0  0  0  0  0  0  0  0  0  0  0
   -0.8819    1.5774    4.8838 H   0  0  0  0  0  0  0  0  0  0  0  0
   -2.5030    0.9948    5.3214 H   0  0  0  0  0  0  0  0  0  0  0  0
   -1.1344   -0.1399    5.2381 H   0  0  0  0  0  0  0  0  0  0  0  0
  5  6  2  0  0  0  0
  5  7  1  0  0  0  0
  2  3  1  0  0  0  0
  2  4  1  0  0  0  0
  2  5  1  0  0  0  0
  1  2  1  0  0  0  0
 29 30  2  0  0  0  0
 29 31  1  0  0  0  0
 26 27  1  0  0  0  0
 26 28  1  0  0  0  0
 23 24  1  0  0  0  0
 23 25  1  0  0  0  0
 22 23  1  0  0  0  0
 22 26  1  0  0  0  0
 20 21  1  0  0  0  0
 20 22  2  0  0  0  0
 17 18  1  0  0  0  0
 17 19  1  0  0  0  0
 17 20  1  0  0  0  0
 14 15  1  0  0  0  0
 14 16  1  0  0  0  0
 14 17  1  0  0  0  0
 11 12  1  0  0  0  0
 11 13  1  0  0  0  0
 11 14  1  0  0  0  0
  9 10  1  0  0  0  0
  9 11  1  0  0  0  0
  9 29  1  0  0  0  0
  7  8  1  0  0  0  0
  7  9  1  0  0  0  0
 33 34  1  0  0  0  0
 33 35  1  0  0  0  0
 33 36  1  0  0  0  0
 31 32  1  0  0  0  0
 31 33  1  0  0  0  0
M  CHG  1  20   1
M  END
$$$$
default_name
  -OEChem-02102213163D

 36 35  0     1  0  0  0  0  0999 V2000
   -4.2256   -3.6731    1.8584 H   0  0  0  0  0  0  0  0  0  0  0  0
   -4.2396   -2.6781    1.4144 C   0  0  0  0  0  0  0  0  0  0  0  0
   -4.9506   -2.0521    1.9514 H   0  0  0  0  0  0  0  0  0  0  0  0
   -4.5266   -2.7521    0.3674 H   0  0  0  0  0  0  0  0  0  0  0  0
   -2.8576   -2.0761    1.5184 C   0  0  0  0  0  0  0  0  0  0  0  0
   -1.9456   -2.7051    2.0404 O   0  0  0  0  0  0  0  0  0  0  0  0
   -2.6926   -0.8481    1.0174 N   0  0  0  0  0  0  0  0  0  0  0  0
   -3.4926   -0.3971    0.5954 H   0  0  0  0  0  0  0  0  0  0  0  0
   -1.4216   -0.1071    1.0434 C   0  0  1  0  0  0  0  0  0  0  0  0
   -0.6709   -0.6930    0.5106 H   0  0  0  0  0  0  0  0  0  0  0  0
   -1.6221    1.2315    0.3051 C   0  0  0  0  0  0  0  0  0  0  0  0
   -2.6599    1.5466    0.4307 H   0  0  0  0  0  0  0  0  0  0  0  0
   -0.9803    1.9894    0.7597 H   0  0  0  0  0  0  0  0  0  0  0  0
   -1.3207    1.1515   -1.1985 C   0  0  0  0  0  0  0  0  0  0  0  0
   -0.7700    0.2352   -1.4162 H   0  0  0  0  0  0  0  0  0  0  0  0
   -2.2586    1.1489   -1.7548 H   0  0  0  0  0  0  0  0  0  0  0  0
   -0.4763    2.3592   -1.6272 C   0  0  0  0  0  0  0  0  0  0  0  0
   -1.0235    3.2722   -1.3813 H   0  0  0  0  0  0  0  0  0  0  0  0
    0.4597    2.3466   -1.0638 H   0  0  0  0  0  0  0  0  0  0  0  0
   -0.1815    2.3362   -3.0747 N   0  3  0  0  0  0  0  0  0  0  0  0
   -0.5125    1.5388   -3.5905 H   0  0  0  0  0  0  0  0  0  0  0  0
    0.4740    3.2626   -3.7537 C   0  0  0  0  0  0  0  0  0  0  0  0
    0.9460    4.3358   -3.1838 N   0  0  0  0  0  0  0  0  0  0  0  0
    0.8046    4.4617   -2.1971 H   0  0  0  0  0  0  0  0  0  0  0  0
    1.4416    5.0290   -3.7136 H   0  0  0  0  0  0  0  0  0  0  0  0
    0.6716    3.1263   -5.0342 N   0  0  0  0  0  0  0  0  0  0  0  0
    0.3260    2.3155   -5.5181 H   0  0  0  0  0  0  0  0  0  0  0  0
    1.1693    3.8315   -5.5455 H   0  0  0  0  0  0  0  0  0  0  0  0
   -0.9523    0.1012    2.4848 C   0  0  0  0  0  0  0  0  0  0  0  0
    0.2133   -0.1319    2.7814 O   0  0  0  0  0  0  0  0  0  0  0  0
   -1.8684    0.5006    3.3725 N   0  0  0  0  0  0  0  0  0  0  0  0
   -2.7946    0.7048    3.0343 H   0  0  0  0  0  0  0  0  0  0  0  0
   -1.5848    0.7472    4.7873 C   0  0  0  0  0  0  0  0  0  0  0  0
   -0.8819    1.5774    4.8838 H   0  0  0  0  0  0  0  0  0  0  0  0
   -2.5030    0.9948    5.3214 H   0  0  0  0  0  0  0  0  0  0  0  0
   -1.1344   -0.1399    5.2381 H   0  0  0  0  0  0  0  0  0  0  0  0
  5  6  2  0  0  0  0
  5  7  1  0  0  0  0
  2  3  1  0  0  0  0
  2  4  1  0  0  0  0
  2  5  1  0  0  0  0
  1  2  1  0  0  0  0
 29 30  2  0  0  0  0
 29 31  1  0  0  0  0
 26 27  1  0  0  0  0
 26 28  1  0  0  0  0
 23 24  1  0  0  0  0
 23 25  1  0  0  0  0
 22 23  1  0  0  0  0
 22 26  1  0  0  0  0
 20 21  1  0  0  0  0
 20 22  2  0  0  0  0
 17 18  1  0  0  0  0
 17 19  1  0  0  0  0
 17 20  1  0  0  0  0
 14 15  1  0  0  0  0
 14 16  1  0  0  0  0
 14 17  1  0  0  0  0
 11 12  1  0  0  0  0
 11 13  1  0  0  0  0
 11 14  1  0  0  0  0
  9 10  1  0  0  0  0
  9 11  1  0  0  0  0
  9 29  1  0  0  0  0
  7  8  1  0  0  0  0
  7  9  1  0  0  0  0
 33 34  1  0  0  0  0
 33 35  1  0  0  0  0
 33 36  1  0  0  0  0
 31 32  1  0  0  0  0
 31 33  1  0  0  0  0
M  CHG  1  20   1
M  END
$$$$
default_name
  -OEChem-02102213163D

 36 35  0     1  0  0  0  0  0999 V2000
   -4.2256   -3.6731    1.8584 H   0  0  0  0  0  0  0  0  0  0  0  0
   -4.2396   -2.6781    1.4144 C   0  0  0  0  0  0  0  0  0  0  0  0
   -4.9506   -2.0521    1.9514 H   0  0  0  0  0  0  0  0  0  0  0  0
   -4.5266   -2.7521    0.3674 H   0  0  0  0  0  0  0  0  0  0  0  0
   -2.8576   -2.0761    1.5184 C   0  0  0  0  0  0  0  0  0  0  0  0
   -1.9456   -2.7051    2.0404 O   0  0  0  0  0  0  0  0  0  0  0  0
   -2.6926   -0.8481    1.0174 N   0  0  0  0  0  0  0  0  0  0  0  0
   -3.4926   -0.3971    0.5954 H   0  0  0  0  0  0  0  0  0  0  0  0
   -1.4216   -0.1071    1.0434 C   0  0  1  0  0  0  0  0  0  0  0  0
   -0.6709   -0.6930    0.5106 H   0  0  0  0  0  0  0  0  0  0  0  0
   -1.6221    1.2315    0.3051 C   0  0  0  0  0  0  0  0  0  0  0  0
   -2.6599    1.5466    0.4307 H   0  0  0  0  0  0  0  0  0  0  0  0
   -0.9803    1.9894    0.7597 H   0  0  0  0  0  0  0  0  0  0  0  0
   -1.3207    1.1515   -1.1985 C   0  0  0  0  0  0  0  0  0  0  0  0
   -1.0156    0.1373   -1.4602 H   0  0  0  0  0  0  0  0  0  0  0  0
   -2.2173    1.4143   -1.7607 H   0  0  0  0  0  0  0  0  0  0  0  0
   -0.1897    2.1249   -1.5573 C   0  0  0  0  0  0  0  0  0  0  0  0
   -0.4929    3.1337   -1.2676 H   0  0  0  0  0  0  0  0  0  0  0  0
    0.7011    1.8476   -0.9888 H   0  0  0  0  0  0  0  0  0  0  0  0
    0.1186    2.0989   -3.0020 N   0  3  0  0  0  0  0  0  0  0  0  0
   -0.3930    1.4378   -3.5611 H   0  0  0  0  0  0  0  0  0  0  0  0
    1.0007    2.8607   -3.6267 C   0  0  0  0  0  0  0  0  0  0  0  0
    1.7174    3.7497   -2.9980 N   0  0  0  0  0  0  0  0  0  0  0  0
    1.5927    3.8588   -2.0071 H   0  0  0  0  0  0  0  0  0  0  0  0
    2.3829    4.3196   -3.4872 H   0  0  0  0  0  0  0  0  0  0  0  0
    1.1829    2.7418   -4.9113 N   0  0  0  0  0  0  0  0  0  0  0  0
    0.6532    2.0699   -5.4395 H   0  0  0  0  0  0  0  0  0  0  0  0
    1.8531    3.3218   -5.3813 H   0  0  0  0  0  0  0  0  0  0  0  0
   -0.9523    0.1012    2.4848 C   0  0  0  0  0  0  0  0  0  0  0  0
    0.2133   -0.1319    2.7814 O   0  0  0  0  0  0  0  0  0  0  0  0
   -1.8684    0.5006    3.3725 N   0  0  0  0  0  0  0  0  0  0  0  0
   -2.7946    0.7048    3.0343 H   0  0  0  0  0  0  0  0  0  0  0  0
   -1.5848    0.7472    4.7873 C   0  0  0  0  0  0  0  0  0  0  0  0
   -0.8819    1.5774    4.8838 H   0  0  0  0  0  0  0  0  0  0  0  0
   -2.5030    0.9948    5.3214 H   0  0  0  0  0  0  0  0  0  0  0  0
   -1.1344   -0.1399    5.2381 H   0  0  0  0  0  0  0  0  0  0  0  0
  5  6  2  0  0  0  0
  5  7  1  0  0  0  0
  2  3  1  0  0  0  0
  2  4  1  0  0  0  0
  2  5  1  0  0  0  0
  1  2  1  0  0  0  0
 29 30  2  0  0  0  0
 29 31  1  0  0  0  0
 26 27  1  0  0  0  0
 26 28  1  0  0  0  0
 23 24  1  0  0  0  0
 23 25  1  0  0  0  0
 22 23  1  0  0  0  0
 22 26  1  0  0  0  0
 20 21  1  0  0  0  0
 20 22  2  0  0  0  0
 17 18  1  0  0  0  0
 17 19  1  0  0  0  0
 17 20  1  0  0  0  0
 14 15  1  0  0  0  0
 14 16  1  0  0  0  0
 14 17  1  0  0  0  0
 11 12  1  0  0  0  0
 11 13  1  0  0  0  0
 11 14  1  0  0  0  0
  9 10  1  0  0  0  0
  9 11  1  0  0  0  0
  9 29  1  0  0  0  0
  7  8  1  0  0  0  0
  7  9  1  0  0  0  0
 33 34  1  0  0  0  0
 33 35  1  0  0  0  0
 33 36  1  0  0  0  0
 31 32  1  0  0  0  0
 31 33  1  0  0  0  0
M  CHG  1  20   1
M  END
$$$$
default_name
  -OEChem-02102213163D

 36 35  0     1  0  0  0  0  0999 V2000
   -4.2256   -3.6731    1.8584 H   0  0  0  0  0  0  0  0  0  0  0  0
   -4.2396   -2.6781    1.4144 C   0  0  0  0  0  0  0  0  0  0  0  0
   -4.9506   -2.0521    1.9514 H   0  0  0  0  0  0  0  0  0  0  0  0
   -4.5266   -2.7521    0.3674 H   0  0  0  0  0  0  0  0  0  0  0  0
   -2.8576   -2.0761    1.5184 C   0  0  0  0  0  0  0  0  0  0  0  0
   -1.9456   -2.7051    2.0404 O   0  0  0  0  0  0  0  0  0  0  0  0
   -2.6926   -0.8481    1.0174 N   0  0  0  0  0  0  0  0  0  0  0  0
   -3.4926   -0.3971    0.5954 H   0  0  0  0  0  0  0  0  0  0  0  0
   -1.4216   -0.1071    1.0434 C   0  0  1  0  0  0  0  0  0  0  0  0
   -0.6709   -0.6930    0.5106 H   0  0  0  0  0  0  0  0  0  0  0  0
   -1.6221    1.2315    0.3051 C   0  0  0  0  0  0  0  0  0  0  0  0
   -2.6599    1.5466    0.4307 H   0  0  0  0  0  0  0  0  0  0  0  0
   -0.9803    1.9894    0.7597 H   0  0  0  0  0  0  0  0  0  0  0  0
   -1.3207    1.1515   -1.1985 C   0  0  0  0  0  0  0  0  0  0  0  0
   -1.2770    0.1072   -1.5110 H   0  0  0  0  0  0  0  0  0  0  0  0
   -2.1102    1.6605   -1.7523 H   0  0  0  0  0  0  0  0  0  0  0  0
    0.0268    1.8224   -1.4978 C   0  0  0  0  0  0  0  0  0  0  0  0
   -0.0170    2.8596   -1.1576 H   0  0  0  0  0  0  0  0  0  0  0  0
    0.8069    1.3006   -0.9385 H   0  0  0  0  0  0  0  0  0  0  0  0
    0.3473    1.7899   -2.9397 N   0  3  0  0  0  0  0  0  0  0  0  0
   -0.3036    1.3086   -3.5363 H   0  0  0  0  0  0  0  0  0  0  0  0
    1.4059    2.3327   -3.5174 C   0  0  0  0  0  0  0  0  0  0  0  0
    2.3115    2.9787   -2.8379 N   0  0  0  0  0  0  0  0  0  0  0  0
    2.1987    3.0671   -1.8435 H   0  0  0  0  0  0  0  0  0  0  0  0
    3.1092    3.3843   -3.2919 H   0  0  0  0  0  0  0  0  0  0  0  0
    1.5778    2.2345   -4.8051 N   0  0  0  0  0  0  0  0  0  0  0  0
    0.9060    1.7458   -5.3716 H   0  0  0  0  0  0  0  0  0  0  0  0
    2.3822    2.6478   -5.2394 H   0  0  0  0  0  0  0  0  0  0  0  0
   -0.9523    0.1012    2.4848 C   0  0  0  0  0  0  0  0  0  0  0  0
    0.2133   -0.1319    2.7814 O   0  0  0  0  0  0  0  0  0  0  0  0
   -1.8684    0.5006    3.3725 N   0  0  0  0  0  0  0  0  0  0  0  0
   -2.7946    0.7048    3.0343 H   0  0  0  0  0  0  0  0  0  0  0  0
   -1.5848    0.7472    4.7873 C   0  0  0  0  0  0  0  0  0  0  0  0
   -0.8819    1.5774    4.8838 H   0  0  0  0  0  0  0  0  0  0  0  0
   -2.5030    0.9948    5.3214 H   0  0  0  0  0  0  0  0  0  0  0  0
   -1.1344   -0.1399    5.2381 H   0  0  0  0  0  0  0  0  0  0  0  0
  5  6  2  0  0  0  0
  5  7  1  0  0  0  0
  2  3  1  0  0  0  0
  2  4  1  0  0  0  0
  2  5  1  0  0  0  0
  1  2  1  0  0  0  0
 29 30  2  0  0  0  0
 29 31  1  0  0  0  0
 26 27  1  0  0  0  0
 26 28  1  0  0  0  0
 23 24  1  0  0  0  0
 23 25  1  0  0  0  0
 22 23  1  0  0  0  0
 22 26  1  0  0  0  0
 20 21  1  0  0  0  0
 20 22  2  0  0  0  0
 17 18  1  0  0  0  0
 17 19  1  0  0  0  0
 17 20  1  0  0  0  0
 14 15  1  0  0  0  0
 14 16  1  0  0  0  0
 14 17  1  0  0  0  0
 11 12  1  0  0  0  0
 11 13  1  0  0  0  0
 11 14  1  0  0  0  0
  9 10  1  0  0  0  0
  9 11  1  0  0  0  0
  9 29  1  0  0  0  0
  7  8  1  0  0  0  0
  7  9  1  0  0  0  0
 33 34  1  0  0  0  0
 33 35  1  0  0  0  0
 33 36  1  0  0  0  0
 31 32  1  0  0  0  0
 31 33  1  0  0  0  0
M  CHG  1  20   1
M  END
$$$$
default_name
  -OEChem-02102213163D

 36 35  0     1  0  0  0  0  0999 V2000
   -4.2256   -3.6731    1.8584 H   0  0  0  0  0  0  0  0  0  0  0  0
   -4.2396   -2.6781    1.4144 C   0  0  0  0  0  0  0  0  0  0  0  0
   -4.9506   -2.0521    1.9514 H   0  0  0  0  0  0  0  0  0  0  0  0
   -4.5266   -2.7521    0.3674 H   0  0  0  0  0  0  0  0  0  0  0  0
   -2.8576   -2.0761    1.5184 C   0  0  0  0  0  0  0  0  0  0  0  0
   -1.9456   -2.7051    2.0404 O   0  0  0  0  0  0  0  0  0  0  0  0
   -2.6926   -0.8481    1.0174 N   0  0  0  0  0  0  0  0  0  0  0  0
   -3.4926   -0.3971    0.5954 H   0  0  0  0  0  0  0  0  0  0  0  0
   -1.4216   -0.1071    1.0434 C   0  0  1  0  0  0  0  0  0  0  0  0
   -0.6709   -0.6930    0.5106 H   0  0  0  0  0  0  0  0  0  0  0  0
   -1.6221    1.2315    0.3051 C   0  0  0  0  0  0  0  0  0  0  0  0
   -2.6599    1.5466    0.4307 H   0  0  0  0  0  0  0  0  0  0  0  0
   -0.9803    1.9894    0.7597 H   0  0  0  0  0  0  0  0  0  0  0  0
   -1.3207    1.1515   -1.1985 C   0  0  0  0  0  0  0  0  0  0  0  0
   -1.5364    0.1469   -1.5651 H   0  0  0  0  0  0  0  0  0  0  0  0
   -1.9444    1.8707   -1.7303 H   0  0  0  0  0  0  0  0  0  0  0  0
    0.1585    1.4724   -1.4528 C   0  0  0  0  0  0  0  0  0  0  0  0
    0.3718    2.4687   -1.0589 H   0  0  0  0  0  0  0  0  0  0  0  0
    0.7697    0.7428   -0.9163 H   0  0  0  0  0  0  0  0  0  0  0  0
    0.4891    1.4303   -2.8921 N   0  3  0  0  0  0  0  0  0  0  0  0
   -0.2503    1.1598   -3.5177 H   0  0  0  0  0  0  0  0  0  0  0  0
    1.6620    1.7143   -3.4332 C   0  0  0  0  0  0  0  0  0  0  0  0
    2.6878    2.0753   -2.7144 N   0  0  0  0  0  0  0  0  0  0  0  0
    2.5811    2.1405   -1.7175 H   0  0  0  0  0  0  0  0  0  0  0  0
    3.5711    2.2870   -3.1409 H   0  0  0  0  0  0  0  0  0  0  0  0
    1.8292    1.6391   -4.7230 N   0  0  0  0  0  0  0  0  0  0  0  0
    1.0671    1.3653   -5.3190 H   0  0  0  0  0  0  0  0  0  0  0  0
    2.7206    1.8555   -5.1294 H   0  0  0  0  0  0  0  0  0  0  0  0
   -0.9523    0.1012    2.4848 C   0  0  0  0  0  0  0  0  0  0  0  0
    0.2133   -0.1319    2.7814 O   0  0  0  0  0  0  0  0  0  0  0  0
   -1.8684    0.5006    3.3725 N   0  0  0  0  0  0  0  0  0  0  0  0
   -2.7946    0.7048    3.0343 H   0  0  0  0  0  0  0  0  0  0  0  0
   -1.5848    0.7472    4.7873 C   0  0  0  0  0  0  0  0  0  0  0  0
   -0.8819    1.5774    4.8838 H   0  0  0  0  0  0  0  0  0  0  0  0
   -2.5030    0.9948    5.3214 H   0  0  0  0  0  0  0  0  0  0  0  0
   -1.1344   -0.1399    5.2381 H   0  0  0  0  0  0  0  0  0  0  0  0
  5  6  2  0  0  0  0
  5  7  1  0  0  0  0
  2  3  1  0  0  0  0
  2  4  1  0  0  0  0
  2  5  1  0  0  0  0
  1  2  1  0  0  0  0
 29 30  2  0  0  0  0
 29 31  1  0  0  0  0
 26 27  1  0  0  0  0
 26 28  1  0  0  0  0
 23 24  1  0  0  0  0
 23 25  1  0  0  0  0
 22 23  1  0  0  0  0
 22 26  1  0  0  0  0
 20 21  1  0  0  0  0
 20 22  2  0  0  0  0
 17 18  1  0  0  0  0
 17 19  1  0  0  0  0
 17 20  1  0  0  0  0
 14 15  1  0  0  0  0
 14 16  1  0  0  0  0
 14 17  1  0  0  0  0
 11 12  1  0  0  0  0
 11 13  1  0  0  0  0
 11 14  1  0  0  0  0
  9 10  1  0  0  0  0
  9 11  1  0  0  0  0
  9 29  1  0  0  0  0
  7  8  1  0  0  0  0
  7  9  1  0  0  0  0
 33 34  1  0  0  0  0
 33 35  1  0  0  0  0
 33 36  1  0  0  0  0
 31 32  1  0  0  0  0
 31 33  1  0  0  0  0
M  CHG  1  20   1
M  END
$$$$
default_name
  -OEChem-02102213163D

 36 35  0     1  0  0  0  0  0999 V2000
   -4.2256   -3.6731    1.8584 H   0  0  0  0  0  0  0  0  0  0  0  0
   -4.2396   -2.6781    1.4144 C   0  0  0  0  0  0  0  0  0  0  0  0
   -4.9506   -2.0521    1.9514 H   0  0  0  0  0  0  0  0  0  0  0  0
   -4.5266   -2.7521    0.3674 H   0  0  0  0  0  0  0  0  0  0  0  0
   -2.8576   -2.0761    1.5184 C   0  0  0  0  0  0  0  0  0  0  0  0
   -1.9456   -2.7051    2.0404 O   0  0  0  0  0  0  0  0  0  0  0  0
   -2.6926   -0.8481    1.0174 N   0  0  0  0  0  0  0  0  0  0  0  0
   -3.4926   -0.3971    0.5954 H   0  0  0  0  0  0  0  0  0  0  0  0
   -1.4216   -0.1071    1.0434 C   0  0  1  0  0  0  0  0  0  0  0  0
   -0.6709   -0.6930    0.5106 H   0  0  0  0  0  0  0  0  0  0  0  0
   -1.6221    1.2315    0.3051 C   0  0  0  0  0  0  0  0  0  0  0  0
   -2.6599    1.5466    0.4307 H   0  0  0  0  0  0  0  0  0  0  0  0
   -0.9803    1.9894    0.7597 H   0  0  0  0  0  0  0  0  0  0  0  0
   -1.3207    1.1515   -1.1985 C   0  0  0  0  0  0  0  0  0  0  0  0
   -1.7763    0.2538   -1.6188 H   0  0  0  0  0  0  0  0  0  0  0  0
   -1.7313    2.0307   -1.6961 H   0  0  0  0  0  0  0  0  0  0  0  0
    0.1963    1.0986   -1.4253 C   0  0  0  0  0  0  0  0  0  0  0  0
    0.6469    1.9876   -0.9781 H   0  0  0  0  0  0  0  0  0  0  0  0
    0.5921    0.2124   -0.9236 H   0  0  0  0  0  0  0  0  0  0  0  0
    0.5344    1.0446   -2.8625 N   0  3  0  0  0  0  0  0  0  0  0  0
   -0.2368    1.0017   -3.5066 H   0  0  0  0  0  0  0  0  0  0  0  0
    1.7515    1.0479   -3.3798 C   0  0  0  0  0  0  0  0  0  0  0  0
    2.8207    1.1010   -2.6359 N   0  0  0  0  0  0  0  0  0  0  0  0
    2.7140    1.1422   -1.6377 H   0  0  0  0  0  0  0  0  0  0  0  0
    3.7371    1.1023   -3.0445 H   0  0  0  0  0  0  0  0  0  0  0  0
    1.9200    0.9960   -4.6706 N   0  0  0  0  0  0  0  0  0  0  0  0
    1.1255    0.9542   -5.2854 H   0  0  0  0  0  0  0  0  0  0  0  0
    2.8451    0.9988   -5.0588 H   0  0  0  0  0  0  0  0  0  0  0  0
   -0.9523    0.1012    2.4848 C   0  0  0  0  0  0  0  0  0  0  0  0
    0.2133   -0.1319    2.7814 O   0  0  0  0  0  0  0  0  0  0  0  0
   -1.8684    0.5006    3.3725 N   0  0  0  0  0  0  0  0  0  0  0  0
   -2.7946    0.7048    3.0343 H   0  0  0  0  0  0  0  0  0  0  0  0
   -1.5848    0.7472    4.7873 C   0  0  0  0  0  0  0  0  0  0  0  0
   -0.8819    1.5774    4.8838 H   0  0  0  0  0  0  0  0  0  0  0  0
   -2.5030    0.9948    5.3214 H   0  0  0  0  0  0  0  0  0  0  0  0
   -1.1344   -0.1399    5.2381 H   0  0  0  0  0  0  0  0  0  0  0  0
  5  6  2  0  0  0  0
  5  7  1  0  0  0  0
  2  3  1  0  0  0  0
  2  4  1  0  0  0  0
  2  5  1  0  0  0  0
  1  2  1  0  0  0  0
 29 30  2  0  0  0  0
 29 31  1  0  0  0  0
 26 27  1  0  0  0  0
 26 28  1  0  0  0  0
 23 24  1  0  0  0  0
 23 25  1  0  0  0  0
 22 23  1  0  0  0  0
 22 26  1  0  0  0  0
 20 21  1  0  0  0  0
 20 22  2  0  0  0  0
 17 18  1  0  0  0  0
 17 19  1  0  0  0  0
 17 20  1  0  0  0  0
 14 15  1  0  0  0  0
 14 16  1  0  0  0  0
 14 17  1  0  0  0  0
 11 12  1  0  0  0  0
 11 13  1  0  0  0  0
 11 14  1  0  0  0  0
  9 10  1  0  0  0  0
  9 11  1  0  0  0  0
  9 29  1  0  0  0  0
  7  8  1  0  0  0  0
  7  9  1  0  0  0  0
 33 34  1  0  0  0  0
 33 35  1  0  0  0  0
 33 36  1  0  0  0  0
 31 32  1  0  0  0  0
 31 33  1  0  0  0  0
M  CHG  1  20   1
M  END
$$$$
default_name
  -OEChem-02102213163D

 36 35  0     1  0  0  0  0  0999 V2000
   -4.2256   -3.6731    1.8584 H   0  0  0  0  0  0  0  0  0  0  0  0
   -4.2396   -2.6781    1.4144 C   0  0  0  0  0  0  0  0  0  0  0  0
   -4.9506   -2.0521    1.9514 H   0  0  0  0  0  0  0  0  0  0  0  0
   -4.5266   -2.7521    0.3674 H   0  0  0  0  0  0  0  0  0  0  0  0
   -2.8576   -2.0761    1.5184 C   0  0  0  0  0  0  0  0  0  0  0  0
   -1.9456   -2.7051    2.0404 O   0  0  0  0  0  0  0  0  0  0  0  0
   -2.6926   -0.8481    1.0174 N   0  0  0  0  0  0  0  0  0  0  0  0
   -3.4926   -0.3971    0.5954 H   0  0  0  0  0  0  0  0  0  0  0  0
   -1.4216   -0.1071    1.0434 C   0  0  1  0  0  0  0  0  0  0  0  0
   -0.6709   -0.6930    0.5106 H   0  0  0  0  0  0  0  0  0  0  0  0
   -1.6221    1.2315    0.3051 C   0  0  0  0  0  0  0  0  0  0  0  0
   -2.6599    1.5466    0.4307 H   0  0  0  0  0  0  0  0  0  0  0  0
   -0.9803    1.9894    0.7597 H   0  0  0  0  0  0  0  0  0  0  0  0
   -1.3207    1.1515   -1.1985 C   0  0  0  0  0  0  0  0  0  0  0  0
   -1.9801    0.4205   -1.6686 H   0  0  0  0  0  0  0  0  0  0  0  0
   -1.4853    2.1294   -1.6520 H   0  0  0  0  0  0  0  0  0  0  0  0
    0.1378    0.7265   -1.4172 C   0  0  0  0  0  0  0  0  0  0  0  0
    0.7897    1.4490   -0.9208 H   0  0  0  0  0  0  0  0  0  0  0  0
    0.2863   -0.2546   -0.9600 H   0  0  0  0  0  0  0  0  0  0  0  0
    0.4799    0.6591   -2.8529 N   0  3  0  0  0  0  0  0  0  0  0  0
   -0.2639    0.8449   -3.5037 H   0  0  0  0  0  0  0  0  0  0  0  0
    1.6684    0.3788   -3.3608 C   0  0  0  0  0  0  0  0  0  0  0  0
    2.7010    0.1223   -2.6078 N   0  0  0  0  0  0  0  0  0  0  0  0
    2.5883    0.1402   -1.6096 H   0  0  0  0  0  0  0  0  0  0  0  0
    3.5960   -0.0890   -3.0094 H   0  0  0  0  0  0  0  0  0  0  0  0
    1.8441    0.3492   -4.6514 N   0  0  0  0  0  0  0  0  0  0  0  0
    1.0774    0.5406   -5.2730 H   0  0  0  0  0  0  0  0  0  0  0  0
    2.7474    0.1362   -5.0325 H   0  0  0  0  0  0  0  0  0  0  0  0
   -0.9523    0.1012    2.4848 C   0  0  0  0  0  0  0  0  0  0  0  0
    0.2133   -0.1319    2.7814 O   0  0  0  0  0  0  0  0  0  0  0  0
   -1.8684    0.5006    3.3725 N   0  0  0  0  0  0  0  0  0  0  0  0
   -2.7946    0.7048    3.0343 H   0  0  0  0  0  0  0  0  0  0  0  0
   -1.5848    0.7472    4.7873 C   0  0  0  0  0  0  0  0  0  0  0  0
   -0.8819    1.5774    4.8838 H   0  0  0  0  0  0  0  0  0  0  0  0
   -2.5030    0.9948    5.3214 H   0  0  0  0  0  0  0  0  0  0  0  0
   -1.1344   -0.1399    5.2381 H   0  0  0  0  0  0  0  0  0  0  0  0
  5  6  2  0  0  0  0
  5  7  1  0  0  0  0
  2  3  1  0  0  0  0
  2  4  1  0  0  0  0
  2  5  1  0  0  0  0
  1  2  1  0  0  0  0
 29 30  2  0  0  0  0
 29 31  1  0  0  0  0
 26 27  1  0  0  0  0
 26 28  1  0  0  0  0
 23 24  1  0  0  0  0
 23 25  1  0  0  0  0
 22 23  1  0  0  0  0
 22 26  1  0  0  0  0
 20 21  1  0  0  0  0
 20 22  2  0  0  0  0
 17 18  1  0  0  0  0
 17 19  1  0  0  0  0
 17 20  1  0  0  0  0
 14 15  1  0  0  0  0
 14 16  1  0  0  0  0
 14 17  1  0  0  0  0
 11 12  1  0  0  0  0
 11 13  1  0  0  0  0
 11 14  1  0  0  0  0
  9 10  1  0  0  0  0
  9 11  1  0  0  0  0
  9 29  1  0  0  0  0
  7  8  1  0  0  0  0
  7  9  1  0  0  0  0
 33 34  1  0  0  0  0
 33 35  1  0  0  0  0
 33 36  1  0  0  0  0
 31 32  1  0  0  0  0
 31 33  1  0  0  0  0
M  CHG  1  20   1
M  END
$$$$
default_name
  -OEChem-02102213163D

 36 35  0     1  0  0  0  0  0999 V2000
   -4.2256   -3.6731    1.8584 H   0  0  0  0  0  0  0  0  0  0  0  0
   -4.2396   -2.6781    1.4144 C   0  0  0  0  0  0  0  0  0  0  0  0
   -4.9506   -2.0521    1.9514 H   0  0  0  0  0  0  0  0  0  0  0  0
   -4.5266   -2.7521    0.3674 H   0  0  0  0  0  0  0  0  0  0  0  0
   -2.8576   -2.0761    1.5184 C   0  0  0  0  0  0  0  0  0  0  0  0
   -1.9456   -2.7051    2.0404 O   0  0  0  0  0  0  0  0  0  0  0  0
   -2.6926   -0.8481    1.0174 N   0  0  0  0  0  0  0  0  0  0  0  0
   -3.4926   -0.3971    0.5954 H   0  0  0  0  0  0  0  0  0  0  0  0
   -1.4216   -0.1071    1.0434 C   0  0  1  0  0  0  0  0  0  0  0  0
   -0.6709   -0.6930    0.5106 H   0  0  0  0  0  0  0  0  0  0  0  0
   -1.6221    1.2315    0.3051 C   0  0  0  0  0  0  0  0  0  0  0  0
   -2.6599    1.5466    0.4307 H   0  0  0  0  0  0  0  0  0  0  0  0
   -0.9803    1.9894    0.7597 H   0  0  0  0  0  0  0  0  0  0  0  0
   -1.3207    1.1515   -1.1985 C   0  0  0  0  0  0  0  0  0  0  0  0
   -2.1341    0.6358   -1.7109 H   0  0  0  0  0  0  0  0  0  0  0  0
   -1.2234    2.1602   -1.6011 H   0  0  0  0  0  0  0  0  0  0  0  0
   -0.0132    0.3816   -1.4291 C   0  0  0  0  0  0  0  0  0  0  0  0
    0.7903    0.8898   -0.8909 H   0  0  0  0  0  0  0  0  0  0  0  0
   -0.1270   -0.6263   -1.0231 H   0  0  0  0  0  0  0  0  0  0  0  0
    0.3295    0.3001   -2.8639 N   0  3  0  0  0  0  0  0  0  0  0  0
   -0.3299    0.7002   -3.5092 H   0  0  0  0  0  0  0  0  0  0  0  0
    1.4182   -0.2474   -3.3776 C   0  0  0  0  0  0  0  0  0  0  0  0
    2.3370   -0.7942   -2.6319 N   0  0  0  0  0  0  0  0  0  0  0  0
    2.2125   -0.7973   -1.6350 H   0  0  0  0  0  0  0  0  0  0  0  0
    3.1572   -1.2058   -3.0379 H   0  0  0  0  0  0  0  0  0  0  0  0
    1.6066   -0.2573   -4.6667 N   0  0  0  0  0  0  0  0  0  0  0  0
    0.9259    0.1527   -5.2828 H   0  0  0  0  0  0  0  0  0  0  0  0
    2.4340   -0.6736   -5.0522 H   0  0  0  0  0  0  0  0  0  0  0  0
   -0.9523    0.1012    2.4848 C   0  0  0  0  0  0  0  0  0  0  0  0
    0.2133   -0.1319    2.7814 O   0  0  0  0  0  0  0  0  0  0  0  0
   -1.8684    0.5006    3.3725 N   0  0  0  0  0  0  0  0  0  0  0  0
   -2.7946    0.7048    3.0343 H   0  0  0  0  0  0  0  0  0  0  0  0
   -1.5848    0.7472    4.7873 C   0  0  0  0  0  0  0  0  0  0  0  0
   -0.8819    1.5774    4.8838 H   0  0  0  0  0  0  0  0  0  0  0  0
   -2.5030    0.9948    5.3214 H   0  0  0  0  0  0  0  0  0  0  0  0
   -1.1344   -0.1399    5.2381 H   0  0  0  0  0  0  0  0  0  0  0  0
  5  6  2  0  0  0  0
  5  7  1  0  0  0  0
  2  3  1  0  0  0  0
  2  4  1  0  0  0  0
  2  5  1  0  0  0  0
  1  2  1  0  0  0  0
 29 30  2  0  0  0  0
 29 31  1  0  0  0  0
 26 27  1  0  0  0  0
 26 28  1  0  0  0  0
 23 24  1  0  0  0  0
 23 25  1  0  0  0  0
 22 23  1  0  0  0  0
 22 26  1  0  0  0  0
 20 21  1  0  0  0  0
 20 22  2  0  0  0  0
 17 18  1  0  0  0  0
 17 19  1  0  0  0  0
 17 20  1  0  0  0  0
 14 15  1  0  0  0  0
 14 16  1  0  0  0  0
 14 17  1  0  0  0  0
 11 12  1  0  0  0  0
 11 13  1  0  0  0  0
 11 14  1  0  0  0  0
  9 10  1  0  0  0  0
  9 11  1  0  0  0  0
  9 29  1  0  0  0  0
  7  8  1  0  0  0  0
  7  9  1  0  0  0  0
 33 34  1  0  0  0  0
 33 35  1  0  0  0  0
 33 36  1  0  0  0  0
 31 32  1  0  0  0  0
 31 33  1  0  0  0  0
M  CHG  1  20   1
M  END
$$$$
default_name
  -OEChem-02102213163D

 36 35  0     1  0  0  0  0  0999 V2000
   -4.2256   -3.6731    1.8584 H   0  0  0  0  0  0  0  0  0  0  0  0
   -4.2396   -2.6781    1.4144 C   0  0  0  0  0  0  0  0  0  0  0  0
   -4.9506   -2.0521    1.9514 H   0  0  0  0  0  0  0  0  0  0  0  0
   -4.5266   -2.7521    0.3674 H   0  0  0  0  0  0  0  0  0  0  0  0
   -2.8576   -2.0761    1.5184 C   0  0  0  0  0  0  0  0  0  0  0  0
   -1.9456   -2.7051    2.0404 O   0  0  0  0  0  0  0  0  0  0  0  0
   -2.6926   -0.8481    1.0174 N   0  0  0  0  0  0  0  0  0  0  0  0
   -3.4926   -0.3971    0.5954 H   0  0  0  0  0  0  0  0  0  0  0  0
   -1.4216   -0.1071    1.0434 C   0  0  1  0  0  0  0  0  0  0  0  0
   -0.6709   -0.6930    0.5106 H   0  0  0  0  0  0  0  0  0  0  0  0
   -1.6221    1.2315    0.3051 C   0  0  0  0  0  0  0  0  0  0  0  0
   -2.6599    1.5466    0.4307 H   0  0  0  0  0  0  0  0  0  0  0  0
   -0.9803    1.9894    0.7597 H   0  0  0  0  0  0  0  0  0  0  0  0
   -1.3207    1.1515   -1.1985 C   0  0  0  0  0  0  0  0  0  0  0  0
   -2.2276    0.8848   -1.7429 H   0  0  0  0  0  0  0  0  0  0  0  0
   -0.9632    2.1210   -1.5469 H   0  0  0  0  0  0  0  0  0  0  0  0
   -0.2462    0.0872   -1.4602 C   0  0  0  0  0  0  0  0  0  0  0  0
    0.6487    0.3479   -0.8905 H   0  0  0  0  0  0  0  0  0  0  0  0
   -0.6195   -0.8775   -1.1084 H   0  0  0  0  0  0  0  0  0  0  0  0
    0.0933   -0.0081   -2.8949 N   0  3  0  0  0  0  0  0  0  0  0  0
   -0.4303    0.5775   -3.5228 H   0  0  0  0  0  0  0  0  0  0  0  0
    1.0181   -0.7881   -3.4290 C   0  0  0  0  0  0  0  0  0  0  0  0
    1.7535   -1.5860   -2.7068 N   0  0  0  0  0  0  0  0  0  0  0  0
    1.6123   -1.6063   -1.7122 H   0  0  0  0  0  0  0  0  0  0  0  0
    2.4508   -2.1718   -3.1281 H   0  0  0  0  0  0  0  0  0  0  0  0
    1.2237   -0.7821   -4.7155 N   0  0  0  0  0  0  0  0  0  0  0  0
    0.6813   -0.1831   -5.3139 H   0  0  0  0  0  0  0  0  0  0  0  0
    1.9263   -1.3754   -5.1166 H   0  0  0  0  0  0  0  0  0  0  0  0
   -0.9523    0.1012    2.4848 C   0  0  0  0  0  0  0  0  0  0  0  0
    0.2133   -0.1319    2.7814 O   0  0  0  0  0  0  0  0  0  0  0  0
   -1.8684    0.5006    3.3725 N   0  0  0  0  0  0  0  0  0  0  0  0
   -2.7946    0.7048    3.0343 H   0  0  0  0  0  0  0  0  0  0  0  0
   -1.5848    0.7472    4.7873 C   0  0  0  0  0  0  0  0  0  0  0  0
   -0.8819    1.5774    4.8838 H   0  0  0  0  0  0  0  0  0  0  0  0
   -2.5030    0.9948    5.3214 H   0  0  0  0  0  0  0  0  0  0  0  0
   -1.1344   -0.1399    5.2381 H   0  0  0  0  0  0  0  0  0  0  0  0
  5  6  2  0  0  0  0
  5  7  1  0  0  0  0
  2  3  1  0  0  0  0
  2  4  1  0  0  0  0
  2  5  1  0  0  0  0
  1  2  1  0  0  0  0
 29 30  2  0  0  0  0
 29 31  1  0  0  0  0
 26 27  1  0  0  0  0
 26 28  1  0  0  0  0
 23 24  1  0  0  0  0
 23 25  1  0  0  0  0
 22 23  1  0  0  0  0
 22 26  1  0  0  0  0
 20 21  1  0  0  0  0
 20 22  2  0  0  0  0
 17 18  1  0  0  0  0
 17 19  1  0  0  0  0
 17 20  1  0  0  0  0
 14 15  1  0  0  0  0
 14 16  1  0  0  0  0
 14 17  1  0  0  0  0
 11 12  1  0  0  0  0
 11 13  1  0  0  0  0
 11 14  1  0  0  0  0
  9 10  1  0  0  0  0
  9 11  1  0  0  0  0
  9 29  1  0  0  0  0
  7  8  1  0  0  0  0
  7  9  1  0  0  0  0
 33 34  1  0  0  0  0
 33 35  1  0  0  0  0
 33 36  1  0  0  0  0
 31 32  1  0  0  0  0
 31 33  1  0  0  0  0
M  CHG  1  20   1
M  END
$$$$
default_name
  -OEChem-02102213163D

 36 35  0     1  0  0  0  0  0999 V2000
   -4.2256   -3.6731    1.8584 H   0  0  0  0  0  0  0  0  0  0  0  0
   -4.2396   -2.6781    1.4144 C   0  0  0  0  0  0  0  0  0  0  0  0
   -4.9506   -2.0521    1.9514 H   0  0  0  0  0  0  0  0  0  0  0  0
   -4.5266   -2.7521    0.3674 H   0  0  0  0  0  0  0  0  0  0  0  0
   -2.8576   -2.0761    1.5184 C   0  0  0  0  0  0  0  0  0  0  0  0
   -1.9456   -2.7051    2.0404 O   0  0  0  0  0  0  0  0  0  0  0  0
   -2.6926   -0.8481    1.0174 N   0  0  0  0  0  0  0  0  0  0  0  0
   -3.4926   -0.3971    0.5954 H   0  0  0  0  0  0  0  0  0  0  0  0
   -1.4216   -0.1071    1.0434 C   0  0  1  0  0  0  0  0  0  0  0  0
   -0.6709   -0.6930    0.5106 H   0  0  0  0  0  0  0  0  0  0  0  0
   -1.6221    1.2315    0.3051 C   0  0  0  0  0  0  0  0  0  0  0  0
   -2.6599    1.5466    0.4307 H   0  0  0  0  0  0  0  0  0  0  0  0
   -0.9803    1.9894    0.7597 H   0  0  0  0  0  0  0  0  0  0  0  0
   -1.3207    1.1515   -1.1985 C   0  0  0  0  0  0  0  0  0  0  0  0
   -2.2545    1.1508   -1.7625 H   0  0  0  0  0  0  0  0  0  0  0  0
   -0.7226    2.0144   -1.4930 H   0  0  0  0  0  0  0  0  0  0  0  0
   -0.5455   -0.1365   -1.5082 C   0  0  0  0  0  0  0  0  0  0  0  0
    0.3746   -0.1397   -0.9194 H   0  0  0  0  0  0  0  0  0  0  0  0
   -1.1578   -0.9909   -1.2103 H   0  0  0  0  0  0  0  0  0  0  0  0
   -0.2125   -0.2443   -2.9436 N   0  3  0  0  0  0  0  0  0  0  0  0
   -0.5581    0.4851   -3.5435 H   0  0  0  0  0  0  0  0  0  0  0  0
    0.4953   -1.2063   -3.5115 C   0  0  0  0  0  0  0  0  0  0  0  0
    0.9902   -2.1992   -2.8271 N   0  0  0  0  0  0  0  0  0  0  0  0
    0.8286   -2.2317   -1.8360 H   0  0  0  0  0  0  0  0  0  0  0  0
    1.5249   -2.9214   -3.2737 H   0  0  0  0  0  0  0  0  0  0  0  0
    0.7214   -1.1896   -4.7945 N   0  0  0  0  0  0  0  0  0  0  0  0
    0.3605   -0.4440   -5.3643 H   0  0  0  0  0  0  0  0  0  0  0  0
    1.2590   -1.9213   -5.2213 H   0  0  0  0  0  0  0  0  0  0  0  0
   -0.9523    0.1012    2.4848 C   0  0  0  0  0  0  0  0  0  0  0  0
    0.2133   -0.1319    2.7814 O   0  0  0  0  0  0  0  0  0  0  0  0
   -1.8684    0.5006    3.3725 N   0  0  0  0  0  0  0  0  0  0  0  0
   -2.7946    0.7048    3.0343 H   0  0  0  0  0  0  0  0  0  0  0  0
   -1.5848    0.7472    4.7873 C   0  0  0  0  0  0  0  0  0  0  0  0
   -0.8819    1.5774    4.8838 H   0  0  0  0  0  0  0  0  0  0  0  0
   -2.5030    0.9948    5.3214 H   0  0  0  0  0  0  0  0  0  0  0  0
   -1.1344   -0.1399    5.2381 H   0  0  0  0  0  0  0  0  0  0  0  0
  5  6  2  0  0  0  0
  5  7  1  0  0  0  0
  2  3  1  0  0  0  0
  2  4  1  0  0  0  0
  2  5  1  0  0  0  0
  1  2  1  0  0  0  0
 29 30  2  0  0  0  0
 29 31  1  0  0  0  0
 26 27  1  0  0  0  0
 26 28  1  0  0  0  0
 23 24  1  0  0  0  0
 23 25  1  0  0  0  0
 22 23  1  0  0  0  0
 22 26  1  0  0  0  0
 20 21  1  0  0  0  0
 20 22  2  0  0  0  0
 17 18  1  0  0  0  0
 17 19  1  0  0  0  0
 17 20  1  0  0  0  0
 14 15  1  0  0  0  0
 14 16  1  0  0  0  0
 14 17  1  0  0  0  0
 11 12  1  0  0  0  0
 11 13  1  0  0  0  0
 11 14  1  0  0  0  0
  9 10  1  0  0  0  0
  9 11  1  0  0  0  0
  9 29  1  0  0  0  0
  7  8  1  0  0  0  0
  7  9  1  0  0  0  0
 33 34  1  0  0  0  0
 33 35  1  0  0  0  0
 33 36  1  0  0  0  0
 31 32  1  0  0  0  0
 31 33  1  0  0  0  0
M  CHG  1  20   1
M  END
$$$$
default_name
  -OEChem-02102213163D

 36 35  0     1  0  0  0  0  0999 V2000
   -4.2256   -3.6731    1.8584 H   0  0  0  0  0  0  0  0  0  0  0  0
   -4.2396   -2.6781    1.4144 C   0  0  0  0  0  0  0  0  0  0  0  0
   -4.9506   -2.0521    1.9514 H   0  0  0  0  0  0  0  0  0  0  0  0
   -4.5266   -2.7521    0.3674 H   0  0  0  0  0  0  0  0  0  0  0  0
   -2.8576   -2.0761    1.5184 C   0  0  0  0  0  0  0  0  0  0  0  0
   -1.9456   -2.7051    2.0404 O   0  0  0  0  0  0  0  0  0  0  0  0
   -2.6926   -0.8481    1.0174 N   0  0  0  0  0  0  0  0  0  0  0  0
   -3.4926   -0.3971    0.5954 H   0  0  0  0  0  0  0  0  0  0  0  0
   -1.4216   -0.1071    1.0434 C   0  0  1  0  0  0  0  0  0  0  0  0
   -0.6709   -0.6930    0.5106 H   0  0  0  0  0  0  0  0  0  0  0  0
   -1.6221    1.2315    0.3051 C   0  0  0  0  0  0  0  0  0  0  0  0
   -2.6599    1.5466    0.4307 H   0  0  0  0  0  0  0  0  0  0  0  0
   -0.9803    1.9894    0.7597 H   0  0  0  0  0  0  0  0  0  0  0  0
   -1.3207    1.1515   -1.1985 C   0  0  0  0  0  0  0  0  0  0  0  0
   -2.2128    1.4154   -1.7682 H   0  0  0  0  0  0  0  0  0  0  0  0
   -0.5179    1.8477   -1.4431 H   0  0  0  0  0  0  0  0  0  0  0  0
   -0.8907   -0.2742   -1.5701 C   0  0  0  0  0  0  0  0  0  0  0  0
   -0.0133   -0.5398   -0.9759 H   0  0  0  0  0  0  0  0  0  0  0  0
   -1.7050   -0.9589   -1.3217 H   0  0  0  0  0  0  0  0  0  0  0  0
   -0.5670   -0.3925   -3.0068 N   0  3  0  0  0  0  0  0  0  0  0  0
   -0.7048    0.4292   -3.5699 H   0  0  0  0  0  0  0  0  0  0  0  0
   -0.1145   -1.4735   -3.6196 C   0  0  0  0  0  0  0  0  0  0  0  0
    0.0992   -2.5919   -2.9848 N   0  0  0  0  0  0  0  0  0  0  0  0
   -0.0852   -2.6309   -1.9979 H   0  0  0  0  0  0  0  0  0  0  0  0
    0.4425   -3.4033   -3.4650 H   0  0  0  0  0  0  0  0  0  0  0  0
    0.1341   -1.4519   -4.8982 N   0  0  0  0  0  0  0  0  0  0  0  0
   -0.0149   -0.6120   -5.4306 H   0  0  0  0  0  0  0  0  0  0  0  0
    0.4774   -2.2742   -5.3592 H   0  0  0  0  0  0  0  0  0  0  0  0
   -0.9523    0.1012    2.4848 C   0  0  0  0  0  0  0  0  0  0  0  0
    0.2133   -0.1319    2.7814 O   0  0  0  0  0  0  0  0  0  0  0  0
   -1.8684    0.5006    3.3725 N   0  0  0  0  0  0  0  0  0  0  0  0
   -2.7946    0.7048    3.0343 H   0  0  0  0  0  0  0  0  0  0  0  0
   -1.5848    0.7472    4.7873 C   0  0  0  0  0  0  0  0  0  0  0  0
   -0.8819    1.5774    4.8838 H   0  0  0  0  0  0  0  0  0  0  0  0
   -2.5030    0.9948    5.3214 H   0  0  0  0  0  0  0  0  0  0  0  0
   -1.1344   -0.1399    5.2381 H   0  0  0  0  0  0  0  0  0  0  0  0
  5  6  2  0  0  0  0
  5  7  1  0  0  0  0
  2  3  1  0  0  0  0
  2  4  1  0  0  0  0
  2  5  1  0  0  0  0
  1  2  1  0  0  0  0
 29 30  2  0  0  0  0
 29 31  1  0  0  0  0
 26 27  1  0  0  0  0
 26 28  1  0  0  0  0
 23 24  1  0  0  0  0
 23 25  1  0  0  0  0
 22 23  1  0  0  0  0
 22 26  1  0  0  0  0
 20 21  1  0  0  0  0
 20 22  2  0  0  0  0
 17 18  1  0  0  0  0
 17 19  1  0  0  0  0
 17 20  1  0  0  0  0
 14 15  1  0  0  0  0
 14 16  1  0  0  0  0
 14 17  1  0  0  0  0
 11 12  1  0  0  0  0
 11 13  1  0  0  0  0
 11 14  1  0  0  0  0
  9 10  1  0  0  0  0
  9 11  1  0  0  0  0
  9 29  1  0  0  0  0
  7  8  1  0  0  0  0
  7  9  1  0  0  0  0
 33 34  1  0  0  0  0
 33 35  1  0  0  0  0
 33 36  1  0  0  0  0
 31 32  1  0  0  0  0
 31 33  1  0  0  0  0
M  CHG  1  20   1
M  END
$$$$
default_name
  -OEChem-02102213163D

 36 35  0     1  0  0  0  0  0999 V2000
   -4.2256   -3.6731    1.8584 H   0  0  0  0  0  0  0  0  0  0  0  0
   -4.2396   -2.6781    1.4144 C   0  0  0  0  0  0  0  0  0  0  0  0
   -4.9506   -2.0521    1.9514 H   0  0  0  0  0  0  0  0  0  0  0  0
   -4.5266   -2.7521    0.3674 H   0  0  0  0  0  0  0  0  0  0  0  0
   -2.8576   -2.0761    1.5184 C   0  0  0  0  0  0  0  0  0  0  0  0
   -1.9456   -2.7051    2.0404 O   0  0  0  0  0  0  0  0  0  0  0  0
   -2.6926   -0.8481    1.0174 N   0  0  0  0  0  0  0  0  0  0  0  0
   -3.4926   -0.3971    0.5954 H   0  0  0  0  0  0  0  0  0  0  0  0
   -1.4216   -0.1071    1.0434 C   0  0  1  0  0  0  0  0  0  0  0  0
   -0.6709   -0.6930    0.5106 H   0  0  0  0  0  0  0  0  0  0  0  0
   -1.6221    1.2315    0.3051 C   0  0  0  0  0  0  0  0  0  0  0  0
   -2.6599    1.5466    0.4307 H   0  0  0  0  0  0  0  0  0  0  0  0
   -0.9803    1.9894    0.7597 H   0  0  0  0  0  0  0  0  0  0  0  0
   -1.3207    1.1515   -1.1985 C   0  0  0  0  0  0  0  0  0  0  0  0
   -2.1053    1.6608   -1.7597 H   0  0  0  0  0  0  0  0  0  0  0  0
   -0.3631    1.6323   -1.4006 H   0  0  0  0  0  0  0  0  0  0  0  0
   -1.2581   -0.3167   -1.6415 C   0  0  0  0  0  0  0  0  0  0  0  0
   -0.4886   -0.8250   -1.0560 H   0  0  0  0  0  0  0  0  0  0  0  0
   -2.2241   -0.7836   -1.4350 H   0  0  0  0  0  0  0  0  0  0  0  0
   -0.9462   -0.4426   -3.0801 N   0  3  0  0  0  0  0  0  0  0  0  0
   -0.8602    0.4138   -3.6003 H   0  0  0  0  0  0  0  0  0  0  0  0
   -0.7698   -1.5717   -3.7457 C   0  0  0  0  0  0  0  0  0  0  0  0
   -0.8589   -2.7374   -3.1691 N   0  0  0  0  0  0  0  0  0  0  0  0
   -1.0669   -2.7767   -2.1869 H   0  0  0  0  0  0  0  0  0  0  0  0
   -0.7226   -3.5848   -3.6889 H   0  0  0  0  0  0  0  0  0  0  0  0
   -0.4982   -1.5511   -5.0197 N   0  0  0  0  0  0  0  0  0  0  0  0
   -0.4192   -0.6758   -5.5082 H   0  0  0  0  0  0  0  0  0  0  0  0
   -0.3651   -2.4100   -5.5208 H   0  0  0  0  0  0  0  0  0  0  0  0
   -0.9523    0.1012    2.4848 C   0  0  0  0  0  0  0  0  0  0  0  0
    0.2133   -0.1319    2.7814 O   0  0  0  0  0  0  0  0  0  0  0  0
   -1.8684    0.5006    3.3725 N   0  0  0  0  0  0  0  0  0  0  0  0
   -2.7946    0.7048    3.0343 H   0  0  0  0  0  0  0  0  0  0  0  0
   -1.5848    0.7472    4.7873 C   0  0  0  0  0  0  0  0  0  0  0  0
   -0.8819    1.5774    4.8838 H   0  0  0  0  0  0  0  0  0  0  0  0
   -2.5030    0.9948    5.3214 H   0  0  0  0  0  0  0  0  0  0  0  0
   -1.1344   -0.1399    5.2381 H   0  0  0  0  0  0  0  0  0  0  0  0
  5  6  2  0  0  0  0
  5  7  1  0  0  0  0
  2  3  1  0  0  0  0
  2  4  1  0  0  0  0
  2  5  1  0  0  0  0
  1  2  1  0  0  0  0
 29 30  2  0  0  0  0
 29 31  1  0  0  0  0
 26 27  1  0  0  0  0
 26 28  1  0  0  0  0
 23 24  1  0  0  0  0
 23 25  1  0  0  0  0
 22 23  1  0  0  0  0
 22 26  1  0  0  0  0
 20 21  1  0  0  0  0
 20 22  2  0  0  0  0
 17 18  1  0  0  0  0
 17 19  1  0  0  0  0
 17 20  1  0  0  0  0
 14 15  1  0  0  0  0
 14 16  1  0  0  0  0
 14 17  1  0  0  0  0
 11 12  1  0  0  0  0
 11 13  1  0  0  0  0
 11 14  1  0  0  0  0
  9 10  1  0  0  0  0
  9 11  1  0  0  0  0
  9 29  1  0  0  0  0
  7  8  1  0  0  0  0
  7  9  1  0  0  0  0
 33 34  1  0  0  0  0
 33 35  1  0  0  0  0
 33 36  1  0  0  0  0
 31 32  1  0  0  0  0
 31 33  1  0  0  0  0
M  CHG  1  20   1
M  END
$$$$
default_name
  -OEChem-02102213163D

 36 35  0     1  0  0  0  0  0999 V2000
   -4.2256   -3.6731    1.8584 H   0  0  0  0  0  0  0  0  0  0  0  0
   -4.2396   -2.6781    1.4144 C   0  0  0  0  0  0  0  0  0  0  0  0
   -4.9506   -2.0521    1.9514 H   0  0  0  0  0  0  0  0  0  0  0  0
   -4.5266   -2.7521    0.3674 H   0  0  0  0  0  0  0  0  0  0  0  0
   -2.8576   -2.0761    1.5184 C   0  0  0  0  0  0  0  0  0  0  0  0
   -1.9456   -2.7051    2.0404 O   0  0  0  0  0  0  0  0  0  0  0  0
   -2.6926   -0.8481    1.0174 N   0  0  0  0  0  0  0  0  0  0  0  0
   -3.4926   -0.3971    0.5954 H   0  0  0  0  0  0  0  0  0  0  0  0
   -1.4216   -0.1071    1.0434 C   0  0  1  0  0  0  0  0  0  0  0  0
   -0.6709   -0.6930    0.5106 H   0  0  0  0  0  0  0  0  0  0  0  0
   -1.6221    1.2315    0.3051 C   0  0  0  0  0  0  0  0  0  0  0  0
   -2.6599    1.5466    0.4307 H   0  0  0  0  0  0  0  0  0  0  0  0
   -0.9803    1.9894    0.7597 H   0  0  0  0  0  0  0  0  0  0  0  0
   -1.3207    1.1515   -1.1985 C   0  0  0  0  0  0  0  0  0  0  0  0
   -1.9395    1.8702   -1.7376 H   0  0  0  0  0  0  0  0  0  0  0  0
   -0.2687    1.3829   -1.3684 H   0  0  0  0  0  0  0  0  0  0  0  0
   -1.6228   -0.2609   -1.7175 C   0  0  0  0  0  0  0  0  0  0  0  0
   -1.0189   -0.9760   -1.1542 H   0  0  0  0  0  0  0  0  0  0  0  0
   -2.6794   -0.4769   -1.5426 H   0  0  0  0  0  0  0  0  0  0  0  0
   -1.3242   -0.3911   -3.1586 N   0  3  0  0  0  0  0  0  0  0  0  0
   -1.0139    0.4398   -3.6325 H   0  0  0  0  0  0  0  0  0  0  0  0
   -1.4260   -1.4940   -3.8813 C   0  0  0  0  0  0  0  0  0  0  0  0
   -1.8187   -2.6257   -3.3674 N   0  0  0  0  0  0  0  0  0  0  0  0
   -2.0495   -2.6591   -2.3902 H   0  0  0  0  0  0  0  0  0  0  0  0
   -1.8909   -3.4534   -3.9301 H   0  0  0  0  0  0  0  0  0  0  0  0
   -1.1326   -1.4805   -5.1506 N   0  0  0  0  0  0  0  0  0  0  0  0
   -0.8248   -0.6311   -5.5919 H   0  0  0  0  0  0  0  0  0  0  0  0
   -1.2111   -2.3194   -5.6952 H   0  0  0  0  0  0  0  0  0  0  0  0
   -0.9523    0.1012    2.4848 C   0  0  0  0  0  0  0  0  0  0  0  0
    0.2133   -0.1319    2.7814 O   0  0  0  0  0  0  0  0  0  0  0  0
   -1.8684    0.5006    3.3725 N   0  0  0  0  0  0  0  0  0  0  0  0
   -2.7946    0.7048    3.0343 H   0  0  0  0  0  0  0  0  0  0  0  0
   -1.5848    0.7472    4.7873 C   0  0  0  0  0  0  0  0  0  0  0  0
   -0.8819    1.5774    4.8838 H   0  0  0  0  0  0  0  0  0  0  0  0
   -2.5030    0.9948    5.3214 H   0  0  0  0  0  0  0  0  0  0  0  0
   -1.1344   -0.1399    5.2381 H   0  0  0  0  0  0  0  0  0  0  0  0
  5  6  2  0  0  0  0
  5  7  1  0  0  0  0
  2  3  1  0  0  0  0
  2  4  1  0  0  0  0
  2  5  1  0  0  0  0
  1  2  1  0  0  0  0
 29 30  2  0  0  0  0
 29 31  1  0  0  0  0
 26 27  1  0  0  0  0
 26 28  1  0  0  0  0
 23 24  1  0  0  0  0
 23 25  1  0  0  0  0
 22 23  1  0  0  0  0
 22 26  1  0  0  0  0
 20 21  1  0  0  0  0
 20 22  2  0  0  0  0
 17 18  1  0  0  0  0
 17 19  1  0  0  0  0
 17 20  1  0  0  0  0
 14 15  1  0  0  0  0
 14 16  1  0  0  0  0
 14 17  1  0  0  0  0
 11 12  1  0  0  0  0
 11 13  1  0  0  0  0
 11 14  1  0  0  0  0
  9 10  1  0  0  0  0
  9 11  1  0  0  0  0
  9 29  1  0  0  0  0
  7  8  1  0  0  0  0
  7  9  1  0  0  0  0
 33 34  1  0  0  0  0
 33 35  1  0  0  0  0
 33 36  1  0  0  0  0
 31 32  1  0  0  0  0
 31 33  1  0  0  0  0
M  CHG  1  20   1
M  END
$$$$
default_name
  -OEChem-02102213163D

 36 35  0     1  0  0  0  0  0999 V2000
   -4.2256   -3.6731    1.8584 H   0  0  0  0  0  0  0  0  0  0  0  0
   -4.2396   -2.6781    1.4144 C   0  0  0  0  0  0  0  0  0  0  0  0
   -4.9506   -2.0521    1.9514 H   0  0  0  0  0  0  0  0  0  0  0  0
   -4.5266   -2.7521    0.3674 H   0  0  0  0  0  0  0  0  0  0  0  0
   -2.8576   -2.0761    1.5184 C   0  0  0  0  0  0  0  0  0  0  0  0
   -1.9456   -2.7051    2.0404 O   0  0  0  0  0  0  0  0  0  0  0  0
   -2.6926   -0.8481    1.0174 N   0  0  0  0  0  0  0  0  0  0  0  0
   -3.4926   -0.3971    0.5954 H   0  0  0  0  0  0  0  0  0  0  0  0
   -1.4216   -0.1071    1.0434 C   0  0  1  0  0  0  0  0  0  0  0  0
   -0.6709   -0.6930    0.5106 H   0  0  0  0  0  0  0  0  0  0  0  0
   -1.6221    1.2315    0.3051 C   0  0  0  0  0  0  0  0  0  0  0  0
   -2.6599    1.5466    0.4307 H   0  0  0  0  0  0  0  0  0  0  0  0
   -0.9803    1.9894    0.7597 H   0  0  0  0  0  0  0  0  0  0  0  0
   -1.3207    1.1515   -1.1985 C   0  0  0  0  0  0  0  0  0  0  0  0
   -1.7265    2.0292   -1.7034 H   0  0  0  0  0  0  0  0  0  0  0  0
   -0.2412    1.1164   -1.3487 H   0  0  0  0  0  0  0  0  0  0  0  0
   -1.9600   -0.1108   -1.7931 C   0  0  0  0  0  0  0  0  0  0  0  0
   -1.5681   -0.9825   -1.2640 H   0  0  0  0  0  0  0  0  0  0  0  0
   -3.0401   -0.0599   -1.6371 H   0  0  0  0  0  0  0  0  0  0  0  0
   -1.6752   -0.2416   -3.2369 N   0  3  0  0  0  0  0  0  0  0  0  0
   -1.1552    0.5056   -3.6643 H   0  0  0  0  0  0  0  0  0  0  0  0
   -2.0383   -1.2457   -4.0173 C   0  0  0  0  0  0  0  0  0  0  0  0
   -2.7149   -2.2646   -3.5662 N   0  0  0  0  0  0  0  0  0  0  0  0
   -2.9662   -2.2862   -2.5937 H   0  0  0  0  0  0  0  0  0  0  0  0
   -2.9829   -3.0183   -4.1721 H   0  0  0  0  0  0  0  0  0  0  0  0
   -1.7256   -1.2449   -5.2820 N   0  0  0  0  0  0  0  0  0  0  0  0
   -1.2041   -0.4809   -5.6760 H   0  0  0  0  0  0  0  0  0  0  0  0
   -2.0030   -2.0087   -5.8705 H   0  0  0  0  0  0  0  0  0  0  0  0
   -0.9523    0.1012    2.4848 C   0  0  0  0  0  0  0  0  0  0  0  0
    0.2133   -0.1319    2.7814 O   0  0  0  0  0  0  0  0  0  0  0  0
   -1.8684    0.5006    3.3725 N   0  0  0  0  0  0  0  0  0  0  0  0
   -2.7946    0.7048    3.0343 H   0  0  0  0  0  0  0  0  0  0  0  0
   -1.5848    0.7472    4.7873 C   0  0  0  0  0  0  0  0  0  0  0  0
   -0.8819    1.5774    4.8838 H   0  0  0  0  0  0  0  0  0  0  0  0
   -2.5030    0.9948    5.3214 H   0  0  0  0  0  0  0  0  0  0  0  0
   -1.1344   -0.1399    5.2381 H   0  0  0  0  0  0  0  0  0  0  0  0
  5  6  2  0  0  0  0
  5  7  1  0  0  0  0
  2  3  1  0  0  0  0
  2  4  1  0  0  0  0
  2  5  1  0  0  0  0
  1  2  1  0  0  0  0
 29 30  2  0  0  0  0
 29 31  1  0  0  0  0
 26 27  1  0  0  0  0
 26 28  1  0  0  0  0
 23 24  1  0  0  0  0
 23 25  1  0  0  0  0
 22 23  1  0  0  0  0
 22 26  1  0  0  0  0
 20 21  1  0  0  0  0
 20 22  2  0  0  0  0
 17 18  1  0  0  0  0
 17 19  1  0  0  0  0
 17 20  1  0  0  0  0
 14 15  1  0  0  0  0
 14 16  1  0  0  0  0
 14 17  1  0  0  0  0
 11 12  1  0  0  0  0
 11 13  1  0  0  0  0
 11 14  1  0  0  0  0
  9 10  1  0  0  0  0
  9 11  1  0  0  0  0
  9 29  1  0  0  0  0
  7  8  1  0  0  0  0
  7  9  1  0  0  0  0
 33 34  1  0  0  0  0
 33 35  1  0  0  0  0
 33 36  1  0  0  0  0
 31 32  1  0  0  0  0
 31 33  1  0  0  0  0
M  CHG  1  20   1
M  END
$$$$
default_name
  -OEChem-02102213163D

 36 35  0     1  0  0  0  0  0999 V2000
   -4.2256   -3.6731    1.8584 H   0  0  0  0  0  0  0  0  0  0  0  0
   -4.2396   -2.6781    1.4144 C   0  0  0  0  0  0  0  0  0  0  0  0
   -4.9506   -2.0521    1.9514 H   0  0  0  0  0  0  0  0  0  0  0  0
   -4.5266   -2.7521    0.3674 H   0  0  0  0  0  0  0  0  0  0  0  0
   -2.8576   -2.0761    1.5184 C   0  0  0  0  0  0  0  0  0  0  0  0
   -1.9456   -2.7051    2.0404 O   0  0  0  0  0  0  0  0  0  0  0  0
   -2.6926   -0.8481    1.0174 N   0  0  0  0  0  0  0  0  0  0  0  0
   -3.4926   -0.3971    0.5954 H   0  0  0  0  0  0  0  0  0  0  0  0
   -1.4216   -0.1071    1.0434 C   0  0  1  0  0  0  0  0  0  0  0  0
   -0.6709   -0.6930    0.5106 H   0  0  0  0  0  0  0  0  0  0  0  0
   -1.6221    1.2315    0.3051 C   0  0  0  0  0  0  0  0  0  0  0  0
   -2.6599    1.5466    0.4307 H   0  0  0  0  0  0  0  0  0  0  0  0
   -0.9803    1.9894    0.7597 H   0  0  0  0  0  0  0  0  0  0  0  0
   -1.3207    1.1515   -1.1985 C   0  0  0  0  0  0  0  0  0  0  0  0
   -1.4810    2.1271   -1.6594 H   0  0  0  0  0  0  0  0  0  0  0  0
   -0.2824    0.8510   -1.3429 H   0  0  0  0  0  0  0  0  0  0  0  0
   -2.2466    0.1235   -1.8630 C   0  0  0  0  0  0  0  0  0  0  0  0
   -2.0987   -0.8440   -1.3777 H   0  0  0  0  0  0  0  0  0  0  0  0
   -3.2816    0.4391   -1.7121 H   0  0  0  0  0  0  0  0  0  0  0  0
   -1.9753   -0.0043   -3.3097 N   0  3  0  0  0  0  0  0  0  0  0  0
   -1.2747    0.6065   -3.6936 H   0  0  0  0  0  0  0  0  0  0  0  0
   -2.5650   -0.8439   -4.1442 C   0  0  0  0  0  0  0  0  0  0  0  0
   -3.4863   -1.6786   -3.7521 N   0  0  0  0  0  0  0  0  0  0  0  0
   -3.7543   -1.6833   -2.7838 H   0  0  0  0  0  0  0  0  0  0  0  0
   -3.9241   -2.3089   -4.3985 H   0  0  0  0  0  0  0  0  0  0  0  0
   -2.2370   -0.8604   -5.4050 N   0  0  0  0  0  0  0  0  0  0  0  0
   -1.5313   -0.2353   -5.7546 H   0  0  0  0  0  0  0  0  0  0  0  0
   -2.6868   -1.4990   -6.0347 H   0  0  0  0  0  0  0  0  0  0  0  0
   -0.9523    0.1012    2.4848 C   0  0  0  0  0  0  0  0  0  0  0  0
    0.2133   -0.1319    2.7814 O   0  0  0  0  0  0  0  0  0  0  0  0
   -1.8684    0.5006    3.3725 N   0  0  0  0  0  0  0  0  0  0  0  0
   -2.7946    0.7048    3.0343 H   0  0  0  0  0  0  0  0  0  0  0  0
   -1.5848    0.7472    4.7873 C   0  0  0  0  0  0  0  0  0  0  0  0
   -0.8819    1.5774    4.8838 H   0  0  0  0  0  0  0  0  0  0  0  0
   -2.5030    0.9948    5.3214 H   0  0  0  0  0  0  0  0  0  0  0  0
   -1.1344   -0.1399    5.2381 H   0  0  0  0  0  0  0  0  0  0  0  0
  5  6  2  0  0  0  0
  5  7  1  0  0  0  0
  2  3  1  0  0  0  0
  2  4  1  0  0  0  0
  2  5  1  0  0  0  0
  1  2  1  0  0  0  0
 29 30  2  0  0  0  0
 29 31  1  0  0  0  0
 26 27  1  0  0  0  0
 26 28  1  0  0  0  0
 23 24  1  0  0  0  0
 23 25  1  0  0  0  0
 22 23  1  0  0  0  0
 22 26  1  0  0  0  0
 20 21  1  0  0  0  0
 20 22  2  0  0  0  0
 17 18  1  0  0  0  0
 17 19  1  0  0  0  0
 17 20  1  0  0  0  0
 14 15  1  0  0  0  0
 14 16  1  0  0  0  0
 14 17  1  0  0  0  0
 11 12  1  0  0  0  0
 11 13  1  0  0  0  0
 11 14  1  0  0  0  0
  9 10  1  0  0  0  0
  9 11  1  0  0  0  0
  9 29  1  0  0  0  0
  7  8  1  0  0  0  0
  7  9  1  0  0  0  0
 33 34  1  0  0  0  0
 33 35  1  0  0  0  0
 33 36  1  0  0  0  0
 31 32  1  0  0  0  0
 31 33  1  0  0  0  0
M  CHG  1  20   1
M  END
$$$$
default_name
  -OEChem-02102213163D

 36 35  0     1  0  0  0  0  0999 V2000
   -4.2256   -3.6731    1.8584 H   0  0  0  0  0  0  0  0  0  0  0  0
   -4.2396   -2.6781    1.4144 C   0  0  0  0  0  0  0  0  0  0  0  0
   -4.9506   -2.0521    1.9514 H   0  0  0  0  0  0  0  0  0  0  0  0
   -4.5266   -2.7521    0.3674 H   0  0  0  0  0  0  0  0  0  0  0  0
   -2.8576   -2.0761    1.5184 C   0  0  0  0  0  0  0  0  0  0  0  0
   -1.9456   -2.7051    2.0404 O   0  0  0  0  0  0  0  0  0  0  0  0
   -2.6926   -0.8481    1.0174 N   0  0  0  0  0  0  0  0  0  0  0  0
   -3.4926   -0.3971    0.5954 H   0  0  0  0  0  0  0  0  0  0  0  0
   -1.4216   -0.1071    1.0434 C   0  0  1  0  0  0  0  0  0  0  0  0
   -0.6709   -0.6930    0.5106 H   0  0  0  0  0  0  0  0  0  0  0  0
   -1.6221    1.2315    0.3051 C   0  0  0  0  0  0  0  0  0  0  0  0
   -2.6599    1.5466    0.4307 H   0  0  0  0  0  0  0  0  0  0  0  0
   -0.9803    1.9894    0.7597 H   0  0  0  0  0  0  0  0  0  0  0  0
   -1.3207    1.1515   -1.1985 C   0  0  0  0  0  0  0  0  0  0  0  0
   -1.2195    2.1573   -1.6086 H   0  0  0  0  0  0  0  0  0  0  0  0
   -0.3896    0.6048   -1.3512 H   0  0  0  0  0  0  0  0  0  0  0  0
   -2.4631    0.4260   -1.9225 C   0  0  0  0  0  0  0  0  0  0  0  0
   -2.5746   -0.5699   -1.4877 H   0  0  0  0  0  0  0  0  0  0  0  0
   -3.3873    0.9862   -1.7624 H   0  0  0  0  0  0  0  0  0  0  0  0
   -2.2041    0.3046   -3.3720 N   0  3  0  0  0  0  0  0  0  0  0  0
   -1.3641    0.7357   -3.7184 H   0  0  0  0  0  0  0  0  0  0  0  0
   -2.9701   -0.3158   -4.2536 C   0  0  0  0  0  0  0  0  0  0  0  0
   -4.0804   -0.9076   -3.9122 N   0  0  0  0  0  0  0  0  0  0  0  0
   -4.3602   -0.8916   -2.9474 H   0  0  0  0  0  0  0  0  0  0  0  0
   -4.6504   -1.3736   -4.5939 H   0  0  0  0  0  0  0  0  0  0  0  0
   -2.6319   -0.3532   -5.5111 N   0  0  0  0  0  0  0  0  0  0  0  0
   -1.7841    0.0888   -5.8225 H   0  0  0  0  0  0  0  0  0  0  0  0
   -3.2159   -0.8250   -6.1766 H   0  0  0  0  0  0  0  0  0  0  0  0
   -0.9523    0.1012    2.4848 C   0  0  0  0  0  0  0  0  0  0  0  0
    0.2133   -0.1319    2.7814 O   0  0  0  0  0  0  0  0  0  0  0  0
   -1.8684    0.5006    3.3725 N   0  0  0  0  0  0  0  0  0  0  0  0
   -2.7946    0.7048    3.0343 H   0  0  0  0  0  0  0  0  0  0  0  0
   -1.5848    0.7472    4.7873 C   0  0  0  0  0  0  0  0  0  0  0  0
   -0.8819    1.5774    4.8838 H   0  0  0  0  0  0  0  0  0  0  0  0
   -2.5030    0.9948    5.3214 H   0  0  0  0  0  0  0  0  0  0  0  0
   -1.1344   -0.1399    5.2381 H   0  0  0  0  0  0  0  0  0  0  0  0
  5  6  2  0  0  0  0
  5  7  1  0  0  0  0
  2  3  1  0  0  0  0
  2  4  1  0  0  0  0
  2  5  1  0  0  0  0
  1  2  1  0  0  0  0
 29 30  2  0  0  0  0
 29 31  1  0  0  0  0
 26 27  1  0  0  0  0
 26 28  1  0  0  0  0
 23 24  1  0  0  0  0
 23 25  1  0  0  0  0
 22 23  1  0  0  0  0
 22 26  1  0  0  0  0
 20 21  1  0  0  0  0
 20 22  2  0  0  0  0
 17 18  1  0  0  0  0
 17 19  1  0  0  0  0
 17 20  1  0  0  0  0
 14 15  1  0  0  0  0
 14 16  1  0  0  0  0
 14 17  1  0  0  0  0
 11 12  1  0  0  0  0
 11 13  1  0  0  0  0
 11 14  1  0  0  0  0
  9 10  1  0  0  0  0
  9 11  1  0  0  0  0
  9 29  1  0  0  0  0
  7  8  1  0  0  0  0
  7  9  1  0  0  0  0
 33 34  1  0  0  0  0
 33 35  1  0  0  0  0
 33 36  1  0  0  0  0
 31 32  1  0  0  0  0
 31 33  1  0  0  0  0
M  CHG  1  20   1
M  END
$$$$
default_name
  -OEChem-02102213163D

 36 35  0     1  0  0  0  0  0999 V2000
   -4.2256   -3.6731    1.8584 H   0  0  0  0  0  0  0  0  0  0  0  0
   -4.2396   -2.6781    1.4144 C   0  0  0  0  0  0  0  0  0  0  0  0
   -4.9506   -2.0521    1.9514 H   0  0  0  0  0  0  0  0  0  0  0  0
   -4.5266   -2.7521    0.3674 H   0  0  0  0  0  0  0  0  0  0  0  0
   -2.8576   -2.0761    1.5184 C   0  0  0  0  0  0  0  0  0  0  0  0
   -1.9456   -2.7051    2.0404 O   0  0  0  0  0  0  0  0  0  0  0  0
   -2.6926   -0.8481    1.0174 N   0  0  0  0  0  0  0  0  0  0  0  0
   -3.4926   -0.3971    0.5954 H   0  0  0  0  0  0  0  0  0  0  0  0
   -1.4216   -0.1071    1.0434 C   0  0  1  0  0  0  0  0  0  0  0  0
   -0.6709   -0.6930    0.5106 H   0  0  0  0  0  0  0  0  0  0  0  0
   -1.6221    1.2315    0.3051 C   0  0  0  0  0  0  0  0  0  0  0  0
   -2.6599    1.5466    0.4307 H   0  0  0  0  0  0  0  0  0  0  0  0
   -0.9803    1.9894    0.7597 H   0  0  0  0  0  0  0  0  0  0  0  0
   -1.3207    1.1515   -1.1985 C   0  0  0  0  0  0  0  0  0  0  0  0
   -0.9601    2.1175   -1.5545 H   0  0  0  0  0  0  0  0  0  0  0  0
   -0.5554    0.3946   -1.3733 H   0  0  0  0  0  0  0  0  0  0  0  0
   -2.5947    0.7761   -1.9675 C   0  0  0  0  0  0  0  0  0  0  0  0
   -2.9634   -0.1790   -1.5864 H   0  0  0  0  0  0  0  0  0  0  0  0
   -3.3501    1.5439   -1.7846 H   0  0  0  0  0  0  0  0  0  0  0  0
   -2.3459    0.6642   -3.4195 N   0  3  0  0  0  0  0  0  0  0  0  0
   -1.4174    0.8845   -3.7370 H   0  0  0  0  0  0  0  0  0  0  0  0
   -3.2262    0.3025   -4.3378 C   0  0  0  0  0  0  0  0  0  0  0  0
   -4.4567   -0.0041   -4.0357 N   0  0  0  0  0  0  0  0  0  0  0  0
   -4.7426    0.0349   -3.0733 H   0  0  0  0  0  0  0  0  0  0  0  0
   -5.1123   -0.2762   -4.7449 H   0  0  0  0  0  0  0  0  0  0  0  0
   -2.8833    0.2423   -5.5932 N   0  0  0  0  0  0  0  0  0  0  0  0
   -1.9452    0.4693   -5.8751 H   0  0  0  0  0  0  0  0  0  0  0  0
   -3.5542   -0.0327   -6.2866 H   0  0  0  0  0  0  0  0  0  0  0  0
   -0.9523    0.1012    2.4848 C   0  0  0  0  0  0  0  0  0  0  0  0
    0.2133   -0.1319    2.7814 O   0  0  0  0  0  0  0  0  0  0  0  0
   -1.8684    0.5006    3.3725 N   0  0  0  0  0  0  0  0  0  0  0  0
   -2.7946    0.7048    3.0343 H   0  0  0  0  0  0  0  0  0  0  0  0
   -1.5848    0.7472    4.7873 C   0  0  0  0  0  0  0  0  0  0  0  0
   -0.8819    1.5774    4.8838 H   0  0  0  0  0  0  0  0  0  0  0  0
   -2.5030    0.9948    5.3214 H   0  0  0  0  0  0  0  0  0  0  0  0
   -1.1344   -0.1399    5.2381 H   0  0  0  0  0  0  0  0  0  0  0  0
  5  6  2  0  0  0  0
  5  7  1  0  0  0  0
  2  3  1  0  0  0  0
  2  4  1  0  0  0  0
  2  5  1  0  0  0  0
  1  2  1  0  0  0  0
 29 30  2  0  0  0  0
 29 31  1  0  0  0  0
 26 27  1  0  0  0  0
 26 28  1  0  0  0  0
 23 24  1  0  0  0  0
 23 25  1  0  0  0  0
 22 23  1  0  0  0  0
 22 26  1  0  0  0  0
 20 21  1  0  0  0  0
 20 22  2  0  0  0  0
 17 18  1  0  0  0  0
 17 19  1  0  0  0  0
 17 20  1  0  0  0  0
 14 15  1  0  0  0  0
 14 16  1  0  0  0  0
 14 17  1  0  0  0  0
 11 12  1  0  0  0  0
 11 13  1  0  0  0  0
 11 14  1  0  0  0  0
  9 10  1  0  0  0  0
  9 11  1  0  0  0  0
  9 29  1  0  0  0  0
  7  8  1  0  0  0  0
  7  9  1  0  0  0  0
 33 34  1  0  0  0  0
 33 35  1  0  0  0  0
 33 36  1  0  0  0  0
 31 32  1  0  0  0  0
 31 33  1  0  0  0  0
M  CHG  1  20   1
M  END
$$$$
default_name
  -OEChem-02102213163D

 36 35  0     1  0  0  0  0  0999 V2000
   -4.2256   -3.6731    1.8584 H   0  0  0  0  0  0  0  0  0  0  0  0
   -4.2396   -2.6781    1.4144 C   0  0  0  0  0  0  0  0  0  0  0  0
   -4.9506   -2.0521    1.9514 H   0  0  0  0  0  0  0  0  0  0  0  0
   -4.5266   -2.7521    0.3674 H   0  0  0  0  0  0  0  0  0  0  0  0
   -2.8576   -2.0761    1.5184 C   0  0  0  0  0  0  0  0  0  0  0  0
   -1.9456   -2.7051    2.0404 O   0  0  0  0  0  0  0  0  0  0  0  0
   -2.6926   -0.8481    1.0174 N   0  0  0  0  0  0  0  0  0  0  0  0
   -3.4926   -0.3971    0.5954 H   0  0  0  0  0  0  0  0  0  0  0  0
   -1.4216   -0.1071    1.0434 C   0  0  1  0  0  0  0  0  0  0  0  0
   -0.6709   -0.6930    0.5106 H   0  0  0  0  0  0  0  0  0  0  0  0
   -1.6221    1.2315    0.3051 C   0  0  0  0  0  0  0  0  0  0  0  0
   -2.6599    1.5466    0.4307 H   0  0  0  0  0  0  0  0  0  0  0  0
   -0.9803    1.9894    0.7597 H   0  0  0  0  0  0  0  0  0  0  0  0
   -1.3207    1.1515   -1.1985 C   0  0  0  0  0  0  0  0  0  0  0  0
   -0.7203    2.0107   -1.5007 H   0  0  0  0  0  0  0  0  0  0  0  0
   -0.7685    0.2346   -1.4075 H   0  0  0  0  0  0  0  0  0  0  0  0
   -2.6326    1.1499   -1.9950 C   0  0  0  0  0  0  0  0  0  0  0  0
   -3.2385    0.3021   -1.6672 H   0  0  0  0  0  0  0  0  0  0  0  0
   -3.1726    2.0743   -1.7773 H   0  0  0  0  0  0  0  0  0  0  0  0
   -2.3911    1.0499   -3.4491 N   0  3  0  0  0  0  0  0  0  0  0  0
   -1.4309    1.0427   -3.7481 H   0  0  0  0  0  0  0  0  0  0  0  0
   -3.3157    0.9689   -4.3912 C   0  0  0  0  0  0  0  0  0  0  0  0
   -4.5895    0.9702   -4.1142 N   0  0  0  0  0  0  0  0  0  0  0  0
   -4.8755    1.0333   -3.1531 H   0  0  0  0  0  0  0  0  0  0  0  0
   -5.2784    0.9085   -4.8412 H   0  0  0  0  0  0  0  0  0  0  0  0
   -2.9741    0.8853   -5.6456 N   0  0  0  0  0  0  0  0  0  0  0  0
   -2.0037    0.8804   -5.9087 H   0  0  0  0  0  0  0  0  0  0  0  0
   -3.6788    0.8240   -6.3571 H   0  0  0  0  0  0  0  0  0  0  0  0
   -0.9523    0.1012    2.4848 C   0  0  0  0  0  0  0  0  0  0  0  0
    0.2133   -0.1319    2.7814 O   0  0  0  0  0  0  0  0  0  0  0  0
   -1.8684    0.5006    3.3725 N   0  0  0  0  0  0  0  0  0  0  0  0
   -2.7946    0.7048    3.0343 H   0  0  0  0  0  0  0  0  0  0  0  0
   -1.5848    0.7472    4.7873 C   0  0  0  0  0  0  0  0  0  0  0  0
   -0.8819    1.5774    4.8838 H   0  0  0  0  0  0  0  0  0  0  0  0
   -2.5030    0.9948    5.3214 H   0  0  0  0  0  0  0  0  0  0  0  0
   -1.1344   -0.1399    5.2381 H   0  0  0  0  0  0  0  0  0  0  0  0
  5  6  2  0  0  0  0
  5  7  1  0  0  0  0
  2  3  1  0  0  0  0
  2  4  1  0  0  0  0
  2  5  1  0  0  0  0
  1  2  1  0  0  0  0
 29 30  2  0  0  0  0
 29 31  1  0  0  0  0
 26 27  1  0  0  0  0
 26 28  1  0  0  0  0
 23 24  1  0  0  0  0
 23 25  1  0  0  0  0
 22 23  1  0  0  0  0
 22 26  1  0  0  0  0
 20 21  1  0  0  0  0
 20 22  2  0  0  0  0
 17 18  1  0  0  0  0
 17 19  1  0  0  0  0
 17 20  1  0  0  0  0
 14 15  1  0  0  0  0
 14 16  1  0  0  0  0
 14 17  1  0  0  0  0
 11 12  1  0  0  0  0
 11 13  1  0  0  0  0
 11 14  1  0  0  0  0
  9 10  1  0  0  0  0
  9 11  1  0  0  0  0
  9 29  1  0  0  0  0
  7  8  1  0  0  0  0
  7  9  1  0  0  0  0
 33 34  1  0  0  0  0
 33 35  1  0  0  0  0
 33 36  1  0  0  0  0
 31 32  1  0  0  0  0
 31 33  1  0  0  0  0
M  CHG  1  20   1
M  END
$$$$
default_name
  -OEChem-02102213163D

 36 35  0     1  0  0  0  0  0999 V2000
   -4.2256   -3.6731    1.8584 H   0  0  0  0  0  0  0  0  0  0  0  0
   -4.2396   -2.6781    1.4144 C   0  0  0  0  0  0  0  0  0  0  0  0
   -4.9506   -2.0521    1.9514 H   0  0  0  0  0  0  0  0  0  0  0  0
   -4.5266   -2.7521    0.3674 H   0  0  0  0  0  0  0  0  0  0  0  0
   -2.8576   -2.0761    1.5184 C   0  0  0  0  0  0  0  0  0  0  0  0
   -1.9456   -2.7051    2.0404 O   0  0  0  0  0  0  0  0  0  0  0  0
   -2.6926   -0.8481    1.0174 N   0  0  0  0  0  0  0  0  0  0  0  0
   -3.4926   -0.3971    0.5954 H   0  0  0  0  0  0  0  0  0  0  0  0
   -1.4216   -0.1071    1.0434 C   0  0  1  0  0  0  0  0  0  0  0  0
   -0.6709   -0.6930    0.5106 H   0  0  0  0  0  0  0  0  0  0  0  0
   -1.6221    1.2315    0.3051 C   0  0  0  0  0  0  0  0  0  0  0  0
   -2.6599    1.5466    0.4307 H   0  0  0  0  0  0  0  0  0  0  0  0
   -0.9803    1.9894    0.7597 H   0  0  0  0  0  0  0  0  0  0  0  0
   -1.3207    1.1515   -1.1985 C   0  0  0  0  0  0  0  0  0  0  0  0
   -0.5164    1.8439   -1.4510 H   0  0  0  0  0  0  0  0  0  0  0  0
   -1.0144    0.1359   -1.4515 H   0  0  0  0  0  0  0  0  0  0  0  0
   -2.5740    1.5219   -2.0031 C   0  0  0  0  0  0  0  0  0  0  0  0
   -3.3812    0.8407   -1.7244 H   0  0  0  0  0  0  0  0  0  0  0  0
   -2.8667    2.5413   -1.7409 H   0  0  0  0  0  0  0  0  0  0  0  0
   -2.3366    1.4354   -3.4587 N   0  3  0  0  0  0  0  0  0  0  0  0
   -1.4038    1.1994   -3.7510 H   0  0  0  0  0  0  0  0  0  0  0  0
   -3.2326    1.6381   -4.4102 C   0  0  0  0  0  0  0  0  0  0  0  0
   -4.4699    1.9489   -4.1423 N   0  0  0  0  0  0  0  0  0  0  0  0
   -4.7498    2.0353   -3.1813 H   0  0  0  0  0  0  0  0  0  0  0  0
   -5.1372    2.0998   -4.8763 H   0  0  0  0  0  0  0  0  0  0  0  0
   -2.8982    1.5321   -5.6648 N   0  0  0  0  0  0  0  0  0  0  0  0
   -1.9555    1.2940   -5.9210 H   0  0  0  0  0  0  0  0  0  0  0  0
   -3.5810    1.6866   -6.3835 H   0  0  0  0  0  0  0  0  0  0  0  0
   -0.9523    0.1012    2.4848 C   0  0  0  0  0  0  0  0  0  0  0  0
    0.2133   -0.1319    2.7814 O   0  0  0  0  0  0  0  0  0  0  0  0
   -1.8684    0.5006    3.3725 N   0  0  0  0  0  0  0  0  0  0  0  0
   -2.7946    0.7048    3.0343 H   0  0  0  0  0  0  0  0  0  0  0  0
   -1.5848    0.7472    4.7873 C   0  0  0  0  0  0  0  0  0  0  0  0
   -0.8819    1.5774    4.8838 H   0  0  0  0  0  0  0  0  0  0  0  0
   -2.5030    0.9948    5.3214 H   0  0  0  0  0  0  0  0  0  0  0  0
   -1.1344   -0.1399    5.2381 H   0  0  0  0  0  0  0  0  0  0  0  0
  5  6  2  0  0  0  0
  5  7  1  0  0  0  0
  2  3  1  0  0  0  0
  2  4  1  0  0  0  0
  2  5  1  0  0  0  0
  1  2  1  0  0  0  0
 29 30  2  0  0  0  0
 29 31  1  0  0  0  0
 26 27  1  0  0  0  0
 26 28  1  0  0  0  0
 23 24  1  0  0  0  0
 23 25  1  0  0  0  0
 22 23  1  0  0  0  0
 22 26  1  0  0  0  0
 20 21  1  0  0  0  0
 20 22  2  0  0  0  0
 17 18  1  0  0  0  0
 17 19  1  0  0  0  0
 17 20  1  0  0  0  0
 14 15  1  0  0  0  0
 14 16  1  0  0  0  0
 14 17  1  0  0  0  0
 11 12  1  0  0  0  0
 11 13  1  0  0  0  0
 11 14  1  0  0  0  0
  9 10  1  0  0  0  0
  9 11  1  0  0  0  0
  9 29  1  0  0  0  0
  7  8  1  0  0  0  0
  7  9  1  0  0  0  0
 33 34  1  0  0  0  0
 33 35  1  0  0  0  0
 33 36  1  0  0  0  0
 31 32  1  0  0  0  0
 31 33  1  0  0  0  0
M  CHG  1  20   1
M  END
$$$$
default_name
  -OEChem-02102213163D

 36 35  0     1  0  0  0  0  0999 V2000
   -4.2256   -3.6731    1.8584 H   0  0  0  0  0  0  0  0  0  0  0  0
   -4.2396   -2.6781    1.4144 C   0  0  0  0  0  0  0  0  0  0  0  0
   -4.9506   -2.0521    1.9514 H   0  0  0  0  0  0  0  0  0  0  0  0
   -4.5266   -2.7521    0.3674 H   0  0  0  0  0  0  0  0  0  0  0  0
   -2.8576   -2.0761    1.5184 C   0  0  0  0  0  0  0  0  0  0  0  0
   -1.9456   -2.7051    2.0404 O   0  0  0  0  0  0  0  0  0  0  0  0
   -2.6926   -0.8481    1.0174 N   0  0  0  0  0  0  0  0  0  0  0  0
   -3.4926   -0.3971    0.5954 H   0  0  0  0  0  0  0  0  0  0  0  0
   -1.4216   -0.1071    1.0434 C   0  0  1  0  0  0  0  0  0  0  0  0
   -0.6709   -0.6930    0.5106 H   0  0  0  0  0  0  0  0  0  0  0  0
   -1.6221    1.2315    0.3051 C   0  0  0  0  0  0  0  0  0  0  0  0
   -2.6599    1.5466    0.4307 H   0  0  0  0  0  0  0  0  0  0  0  0
   -0.9803    1.9894    0.7597 H   0  0  0  0  0  0  0  0  0  0  0  0
   -1.3207    1.1515   -1.1985 C   0  0  0  0  0  0  0  0  0  0  0  0
   -0.3625    1.6287   -1.4087 H   0  0  0  0  0  0  0  0  0  0  0  0
   -1.2764    0.1051   -1.5024 H   0  0  0  0  0  0  0  0  0  0  0  0
   -2.4231    1.8669   -1.9912 C   0  0  0  0  0  0  0  0  0  0  0  0
   -3.3819    1.3999   -1.7543 H   0  0  0  0  0  0  0  0  0  0  0  0
   -2.4535    2.9131   -1.6778 H   0  0  0  0  0  0  0  0  0  0  0  0
   -2.1862    1.7944   -3.4477 N   0  3  0  0  0  0  0  0  0  0  0  0
   -1.3378    1.3441   -3.7455 H   0  0  0  0  0  0  0  0  0  0  0  0
   -2.9824    2.2643   -4.3934 C   0  0  0  0  0  0  0  0  0  0  0  0
   -4.1059    2.8654   -4.1181 N   0  0  0  0  0  0  0  0  0  0  0  0
   -4.3741    2.9728   -3.1559 H   0  0  0  0  0  0  0  0  0  0  0  0
   -4.6985    3.2165   -4.8478 H   0  0  0  0  0  0  0  0  0  0  0  0
   -2.6607    2.1386   -5.6495 N   0  0  0  0  0  0  0  0  0  0  0  0
   -1.8040    1.6819   -5.9113 H   0  0  0  0  0  0  0  0  0  0  0  0
   -3.2676    2.4964   -6.3638 H   0  0  0  0  0  0  0  0  0  0  0  0
   -0.9523    0.1012    2.4848 C   0  0  0  0  0  0  0  0  0  0  0  0
    0.2133   -0.1319    2.7814 O   0  0  0  0  0  0  0  0  0  0  0  0
   -1.8684    0.5006    3.3725 N   0  0  0  0  0  0  0  0  0  0  0  0
   -2.7946    0.7048    3.0343 H   0  0  0  0  0  0  0  0  0  0  0  0
   -1.5848    0.7472    4.7873 C   0  0  0  0  0  0  0  0  0  0  0  0
   -0.8819    1.5774    4.8838 H   0  0  0  0  0  0  0  0  0  0  0  0
   -2.5030    0.9948    5.3214 H   0  0  0  0  0  0  0  0  0  0  0  0
   -1.1344   -0.1399    5.2381 H   0  0  0  0  0  0  0  0  0  0  0  0
  5  6  2  0  0  0  0
  5  7  1  0  0  0  0
  2  3  1  0  0  0  0
  2  4  1  0  0  0  0
  2  5  1  0  0  0  0
  1  2  1  0  0  0  0
 29 30  2  0  0  0  0
 29 31  1  0  0  0  0
 26 27  1  0  0  0  0
 26 28  1  0  0  0  0
 23 24  1  0  0  0  0
 23 25  1  0  0  0  0
 22 23  1  0  0  0  0
 22 26  1  0  0  0  0
 20 21  1  0  0  0  0
 20 22  2  0  0  0  0
 17 18  1  0  0  0  0
 17 19  1  0  0  0  0
 17 20  1  0  0  0  0
 14 15  1  0  0  0  0
 14 16  1  0  0  0  0
 14 17  1  0  0  0  0
 11 12  1  0  0  0  0
 11 13  1  0  0  0  0
 11 14  1  0  0  0  0
  9 10  1  0  0  0  0
  9 11  1  0  0  0  0
  9 29  1  0  0  0  0
  7  8  1  0  0  0  0
  7  9  1  0  0  0  0
 33 34  1  0  0  0  0
 33 35  1  0  0  0  0
 33 36  1  0  0  0  0
 31 32  1  0  0  0  0
 31 33  1  0  0  0  0
M  CHG  1  20   1
M  END
$$$$
default_name
  -OEChem-02102213163D

 36 35  0     1  0  0  0  0  0999 V2000
   -4.2256   -3.6731    1.8584 H   0  0  0  0  0  0  0  0  0  0  0  0
   -4.2396   -2.6781    1.4144 C   0  0  0  0  0  0  0  0  0  0  0  0
   -4.9506   -2.0521    1.9514 H   0  0  0  0  0  0  0  0  0  0  0  0
   -4.5266   -2.7521    0.3674 H   0  0  0  0  0  0  0  0  0  0  0  0
   -2.8576   -2.0761    1.5184 C   0  0  0  0  0  0  0  0  0  0  0  0
   -1.9456   -2.7051    2.0404 O   0  0  0  0  0  0  0  0  0  0  0  0
   -2.6926   -0.8481    1.0174 N   0  0  0  0  0  0  0  0  0  0  0  0
   -3.4926   -0.3971    0.5954 H   0  0  0  0  0  0  0  0  0  0  0  0
   -1.4216   -0.1071    1.0434 C   0  0  1  0  0  0  0  0  0  0  0  0
   -0.6709   -0.6930    0.5106 H   0  0  0  0  0  0  0  0  0  0  0  0
   -1.6221    1.2315    0.3051 C   0  0  0  0  0  0  0  0  0  0  0  0
   -2.6599    1.5466    0.4307 H   0  0  0  0  0  0  0  0  0  0  0  0
   -0.9803    1.9894    0.7597 H   0  0  0  0  0  0  0  0  0  0  0  0
   -1.3207    1.1515   -1.1985 C   0  0  0  0  0  0  0  0  0  0  0  0
   -0.2689    1.3796   -1.3766 H   0  0  0  0  0  0  0  0  0  0  0  0
   -1.5366    0.1443   -1.5566 H   0  0  0  0  0  0  0  0  0  0  0  0
   -2.1900    2.1612   -1.9602 C   0  0  0  0  0  0  0  0  0  0  0  0
   -3.2403    1.9418   -1.7548 H   0  0  0  0  0  0  0  0  0  0  0  0
   -1.9609    3.1642   -1.5925 H   0  0  0  0  0  0  0  0  0  0  0  0
   -1.9500    2.1026   -3.4168 N   0  3  0  0  0  0  0  0  0  0  0  0
   -1.2374    1.4668   -3.7319 H   0  0  0  0  0  0  0  0  0  0  0  0
   -2.5824    2.8049   -4.3419 C   0  0  0  0  0  0  0  0  0  0  0  0
   -3.5224    3.6572   -4.0433 N   0  0  0  0  0  0  0  0  0  0  0  0
   -3.7739    3.7818   -3.0786 H   0  0  0  0  0  0  0  0  0  0  0  0
   -3.9920    4.1826   -4.7577 H   0  0  0  0  0  0  0  0  0  0  0  0
   -2.2777    2.6635   -5.6007 N   0  0  0  0  0  0  0  0  0  0  0  0
   -1.5595    2.0178   -5.8802 H   0  0  0  0  0  0  0  0  0  0  0  0
   -2.7600    3.1982   -6.2994 H   0  0  0  0  0  0  0  0  0  0  0  0
   -0.9523    0.1012    2.4848 C   0  0  0  0  0  0  0  0  0  0  0  0
    0.2133   -0.1319    2.7814 O   0  0  0  0  0  0  0  0  0  0  0  0
   -1.8684    0.5006    3.3725 N   0  0  0  0  0  0  0  0  0  0  0  0
   -2.7946    0.7048    3.0343 H   0  0  0  0  0  0  0  0  0  0  0  0
   -1.5848    0.7472    4.7873 C   0  0  0  0  0  0  0  0  0  0  0  0
   -0.8819    1.5774    4.8838 H   0  0  0  0  0  0  0  0  0  0  0  0
   -2.5030    0.9948    5.3214 H   0  0  0  0  0  0  0  0  0  0  0  0
   -1.1344   -0.1399    5.2381 H   0  0  0  0  0  0  0  0  0  0  0  0
  5  6  2  0  0  0  0
  5  7  1  0  0  0  0
  2  3  1  0  0  0  0
  2  4  1  0  0  0  0
  2  5  1  0  0  0  0
  1  2  1  0  0  0  0
 29 30  2  0  0  0  0
 29 31  1  0  0  0  0
 26 27  1  0  0  0  0
 26 28  1  0  0  0  0
 23 24  1  0  0  0  0
 23 25  1  0  0  0  0
 22 23  1  0  0  0  0
 22 26  1  0  0  0  0
 20 21  1  0  0  0  0
 20 22  2  0  0  0  0
 17 18  1  0  0  0  0
 17 19  1  0  0  0  0
 17 20  1  0  0  0  0
 14 15  1  0  0  0  0
 14 16  1  0  0  0  0
 14 17  1  0  0  0  0
 11 12  1  0  0  0  0
 11 13  1  0  0  0  0
 11 14  1  0  0  0  0
  9 10  1  0  0  0  0
  9 11  1  0  0  0  0
  9 29  1  0  0  0  0
  7  8  1  0  0  0  0
  7  9  1  0  0  0  0
 33 34  1  0  0  0  0
 33 35  1  0  0  0  0
 33 36  1  0  0  0  0
 31 32  1  0  0  0  0
 31 33  1  0  0  0  0
M  CHG  1  20   1
M  END
$$$$
default_name
  -OEChem-02102213163D

 36 35  0     1  0  0  0  0  0999 V2000
   -4.2256   -3.6731    1.8584 H   0  0  0  0  0  0  0  0  0  0  0  0
   -4.2396   -2.6781    1.4144 C   0  0  0  0  0  0  0  0  0  0  0  0
   -4.9506   -2.0521    1.9514 H   0  0  0  0  0  0  0  0  0  0  0  0
   -4.5266   -2.7521    0.3674 H   0  0  0  0  0  0  0  0  0  0  0  0
   -2.8576   -2.0761    1.5184 C   0  0  0  0  0  0  0  0  0  0  0  0
   -1.9456   -2.7051    2.0404 O   0  0  0  0  0  0  0  0  0  0  0  0
   -2.6926   -0.8481    1.0174 N   0  0  0  0  0  0  0  0  0  0  0  0
   -3.4926   -0.3971    0.5954 H   0  0  0  0  0  0  0  0  0  0  0  0
   -1.4216   -0.1071    1.0434 C   0  0  1  0  0  0  0  0  0  0  0  0
   -0.6709   -0.6930    0.5106 H   0  0  0  0  0  0  0  0  0  0  0  0
   -1.6221    1.2315    0.3051 C   0  0  0  0  0  0  0  0  0  0  0  0
   -2.6599    1.5466    0.4307 H   0  0  0  0  0  0  0  0  0  0  0  0
   -0.9803    1.9894    0.7597 H   0  0  0  0  0  0  0  0  0  0  0  0
   -1.3207    1.1515   -1.1985 C   0  0  0  0  0  0  0  0  0  0  0  0
   -0.2420    1.1137   -1.3571 H   0  0  0  0  0  0  0  0  0  0  0  0
   -1.7772    0.2509   -1.6105 H   0  0  0  0  0  0  0  0  0  0  0  0
   -1.8907    2.3849   -1.9121 C   0  0  0  0  0  0  0  0  0  0  0  0
   -2.9662    2.4294   -1.7258 H   0  0  0  0  0  0  0  0  0  0  0  0
   -1.4227    3.2776   -1.4906 H   0  0  0  0  0  0  0  0  0  0  0  0
   -1.6443    2.3388   -3.3681 N   0  3  0  0  0  0  0  0  0  0  0  0
   -1.1096    1.5593   -3.7112 H   0  0  0  0  0  0  0  0  0  0  0  0
   -2.0596    3.2231   -4.2594 C   0  0  0  0  0  0  0  0  0  0  0  0
   -2.7591    4.2704   -3.9230 N   0  0  0  0  0  0  0  0  0  0  0  0
   -2.9902    4.4072   -2.9548 H   0  0  0  0  0  0  0  0  0  0  0  0
   -3.0661    4.9321   -4.6120 H   0  0  0  0  0  0  0  0  0  0  0  0
   -1.7755    3.0709   -5.5217 N   0  0  0  0  0  0  0  0  0  0  0  0
   -1.2386    2.2786   -5.8297 H   0  0  0  0  0  0  0  0  0  0  0  0
   -2.0926    3.7441   -6.1947 H   0  0  0  0  0  0  0  0  0  0  0  0
   -0.9523    0.1012    2.4848 C   0  0  0  0  0  0  0  0  0  0  0  0
    0.2133   -0.1319    2.7814 O   0  0  0  0  0  0  0  0  0  0  0  0
   -1.8684    0.5006    3.3725 N   0  0  0  0  0  0  0  0  0  0  0  0
   -2.7946    0.7048    3.0343 H   0  0  0  0  0  0  0  0  0  0  0  0
   -1.5848    0.7472    4.7873 C   0  0  0  0  0  0  0  0  0  0  0  0
   -0.8819    1.5774    4.8838 H   0  0  0  0  0  0  0  0  0  0  0  0
   -2.5030    0.9948    5.3214 H   0  0  0  0  0  0  0  0  0  0  0  0
   -1.1344   -0.1399    5.2381 H   0  0  0  0  0  0  0  0  0  0  0  0
  5  6  2  0  0  0  0
  5  7  1  0  0  0  0
  2  3  1  0  0  0  0
  2  4  1  0  0  0  0
  2  5  1  0  0  0  0
  1  2  1  0  0  0  0
 29 30  2  0  0  0  0
 29 31  1  0  0  0  0
 26 27  1  0  0  0  0
 26 28  1  0  0  0  0
 23 24  1  0  0  0  0
 23 25  1  0  0  0  0
 22 23  1  0  0  0  0
 22 26  1  0  0  0  0
 20 21  1  0  0  0  0
 20 22  2  0  0  0  0
 17 18  1  0  0  0  0
 17 19  1  0  0  0  0
 17 20  1  0  0  0  0
 14 15  1  0  0  0  0
 14 16  1  0  0  0  0
 14 17  1  0  0  0  0
 11 12  1  0  0  0  0
 11 13  1  0  0  0  0
 11 14  1  0  0  0  0
  9 10  1  0  0  0  0
  9 11  1  0  0  0  0
  9 29  1  0  0  0  0
  7  8  1  0  0  0  0
  7  9  1  0  0  0  0
 33 34  1  0  0  0  0
 33 35  1  0  0  0  0
 33 36  1  0  0  0  0
 31 32  1  0  0  0  0
 31 33  1  0  0  0  0
M  CHG  1  20   1
M  END
$$$$
default_name
  -OEChem-02102213163D

 36 35  0     1  0  0  0  0  0999 V2000
   -4.2256   -3.6731    1.8584 H   0  0  0  0  0  0  0  0  0  0  0  0
   -4.2396   -2.6781    1.4144 C   0  0  0  0  0  0  0  0  0  0  0  0
   -4.9506   -2.0521    1.9514 H   0  0  0  0  0  0  0  0  0  0  0  0
   -4.5266   -2.7521    0.3674 H   0  0  0  0  0  0  0  0  0  0  0  0
   -2.8576   -2.0761    1.5184 C   0  0  0  0  0  0  0  0  0  0  0  0
   -1.9456   -2.7051    2.0404 O   0  0  0  0  0  0  0  0  0  0  0  0
   -2.6926   -0.8481    1.0174 N   0  0  0  0  0  0  0  0  0  0  0  0
   -3.4926   -0.3971    0.5954 H   0  0  0  0  0  0  0  0  0  0  0  0
   -1.4216   -0.1071    1.0434 C   0  0  1  0  0  0  0  0  0  0  0  0
   -0.6709   -0.6930    0.5106 H   0  0  0  0  0  0  0  0  0  0  0  0
   -1.6221    1.2315    0.3051 C   0  0  0  0  0  0  0  0  0  0  0  0
   -2.5588    1.6790    0.6433 H   0  0  0  0  0  0  0  0  0  0  0  0
   -0.8076    1.9099    0.5686 H   0  0  0  0  0  0  0  0  0  0  0  0
   -1.6815    1.0843   -1.2223 C   0  0  0  0  0  0  0  0  0  0  0  0
   -0.7503    0.6489   -1.5875 H   0  0  0  0  0  0  0  0  0  0  0  0
   -2.5134    0.4321   -1.4898 H   0  0  0  0  0  0  0  0  0  0  0  0
   -1.8820    2.4600   -1.8724 C   0  0  0  0  0  0  0  0  0  0  0  0
   -2.8023    2.8998   -1.4811 H   0  0  0  0  0  0  0  0  0  0  0  0
   -1.0406    3.1004   -1.5975 H   0  0  0  0  0  0  0  0  0  0  0  0
   -1.9689    2.3636   -3.3441 N   0  3  0  0  0  0  0  0  0  0  0  0
   -1.8440    1.4499   -3.7451 H   0  0  0  0  0  0  0  0  0  0  0  0
   -2.1951    3.3625   -4.1808 C   0  0  0  0  0  0  0  0  0  0  0  0
   -2.3710    4.5864   -3.7677 N   0  0  0  0  0  0  0  0  0  0  0  0
   -2.3345    4.7740   -2.7814 H   0  0  0  0  0  0  0  0  0  0  0  0
   -2.5413    5.3330   -4.4161 H   0  0  0  0  0  0  0  0  0  0  0  0
   -2.2485    3.1486   -5.4648 N   0  0  0  0  0  0  0  0  0  0  0  0
   -2.1193    2.2212   -5.8311 H   0  0  0  0  0  0  0  0  0  0  0  0
   -2.4204    3.9092   -6.0960 H   0  0  0  0  0  0  0  0  0  0  0  0
   -0.9523    0.1012    2.4848 C   0  0  0  0  0  0  0  0  0  0  0  0
    0.2133   -0.1319    2.7814 O   0  0  0  0  0  0  0  0  0  0  0  0
   -1.8684    0.5006    3.3725 N   0  0  0  0  0  0  0  0  0  0  0  0
   -2.7946    0.7048    3.0343 H   0  0  0  0  0  0  0  0  0  0  0  0
   -1.5848    0.7472    4.7873 C   0  0  0  0  0  0  0  0  0  0  0  0
   -0.8819    1.5774    4.8838 H   0  0  0  0  0  0  0  0  0  0  0  0
   -2.5030    0.9948    5.3214 H   0  0  0  0  0  0  0  0  0  0  0  0
   -1.1344   -0.1399    5.2381 H   0  0  0  0  0  0  0  0  0  0  0  0
  5  6  2  0  0  0  0
  5  7  1  0  0  0  0
  2  3  1  0  0  0  0
  2  4  1  0  0  0  0
  2  5  1  0  0  0  0
  1  2  1  0  0  0  0
 29 30  2  0  0  0  0
 29 31  1  0  0  0  0
 26 27  1  0  0  0  0
 26 28  1  0  0  0  0
 23 24  1  0  0  0  0
 23 25  1  0  0  0  0
 22 23  1  0  0  0  0
 22 26  1  0  0  0  0
 20 21  1  0  0  0  0
 20 22  2  0  0  0  0
 17 18  1  0  0  0  0
 17 19  1  0  0  0  0
 17 20  1  0  0  0  0
 14 15  1  0  0  0  0
 14 16  1  0  0  0  0
 14 17  1  0  0  0  0
 11 12  1  0  0  0  0
 11 13  1  0  0  0  0
 11 14  1  0  0  0  0
  9 10  1  0  0  0  0
  9 11  1  0  0  0  0
  9 29  1  0  0  0  0
  7  8  1  0  0  0  0
  7  9  1  0  0  0  0
 33 34  1  0  0  0  0
 33 35  1  0  0  0  0
 33 36  1  0  0  0  0
 31 32  1  0  0  0  0
 31 33  1  0  0  0  0
M  CHG  1  20   1
M  END
$$$$
default_name
  -OEChem-02102213163D

 36 35  0     1  0  0  0  0  0999 V2000
   -4.2256   -3.6731    1.8584 H   0  0  0  0  0  0  0  0  0  0  0  0
   -4.2396   -2.6781    1.4144 C   0  0  0  0  0  0  0  0  0  0  0  0
   -4.9506   -2.0521    1.9514 H   0  0  0  0  0  0  0  0  0  0  0  0
   -4.5266   -2.7521    0.3674 H   0  0  0  0  0  0  0  0  0  0  0  0
   -2.8576   -2.0761    1.5184 C   0  0  0  0  0  0  0  0  0  0  0  0
   -1.9456   -2.7051    2.0404 O   0  0  0  0  0  0  0  0  0  0  0  0
   -2.6926   -0.8481    1.0174 N   0  0  0  0  0  0  0  0  0  0  0  0
   -3.4926   -0.3971    0.5954 H   0  0  0  0  0  0  0  0  0  0  0  0
   -1.4216   -0.1071    1.0434 C   0  0  1  0  0  0  0  0  0  0  0  0
   -0.6709   -0.6930    0.5106 H   0  0  0  0  0  0  0  0  0  0  0  0
   -1.6221    1.2315    0.3051 C   0  0  0  0  0  0  0  0  0  0  0  0
   -2.5588    1.6790    0.6433 H   0  0  0  0  0  0  0  0  0  0  0  0
   -0.8076    1.9099    0.5686 H   0  0  0  0  0  0  0  0  0  0  0  0
   -1.6815    1.0843   -1.2223 C   0  0  0  0  0  0  0  0  0  0  0  0
   -0.8855    0.4192   -1.5601 H   0  0  0  0  0  0  0  0  0  0  0  0
   -2.6468    0.6646   -1.5070 H   0  0  0  0  0  0  0  0  0  0  0  0
   -1.5056    2.4566   -1.8867 C   0  0  0  0  0  0  0  0  0  0  0  0
   -2.2905    3.1234   -1.5225 H   0  0  0  0  0  0  0  0  0  0  0  0
   -0.5343    2.8625   -1.5943 H   0  0  0  0  0  0  0  0  0  0  0  0
   -1.5798    2.3663   -3.3595 N   0  3  0  0  0  0  0  0  0  0  0  0
   -1.6850    1.4459   -3.7509 H   0  0  0  0  0  0  0  0  0  0  0  0
   -1.5214    3.3786   -4.2085 C   0  0  0  0  0  0  0  0  0  0  0  0
   -1.3857    4.6118   -3.8085 N   0  0  0  0  0  0  0  0  0  0  0  0
   -1.3253    4.7968   -2.8229 H   0  0  0  0  0  0  0  0  0  0  0  0
   -1.3427    5.3685   -4.4661 H   0  0  0  0  0  0  0  0  0  0  0  0
   -1.5979    3.1686   -5.4920 N   0  0  0  0  0  0  0  0  0  0  0  0
   -1.7033    2.2343   -5.8486 H   0  0  0  0  0  0  0  0  0  0  0  0
   -1.5532    3.9394   -6.1326 H   0  0  0  0  0  0  0  0  0  0  0  0
   -0.9523    0.1012    2.4848 C   0  0  0  0  0  0  0  0  0  0  0  0
    0.2133   -0.1319    2.7814 O   0  0  0  0  0  0  0  0  0  0  0  0
   -1.8684    0.5006    3.3725 N   0  0  0  0  0  0  0  0  0  0  0  0
   -2.7946    0.7048    3.0343 H   0  0  0  0  0  0  0  0  0  0  0  0
   -1.5848    0.7472    4.7873 C   0  0  0  0  0  0  0  0  0  0  0  0
   -0.8819    1.5774    4.8838 H   0  0  0  0  0  0  0  0  0  0  0  0
   -2.5030    0.9948    5.3214 H   0  0  0  0  0  0  0  0  0  0  0  0
   -1.1344   -0.1399    5.2381 H   0  0  0  0  0  0  0  0  0  0  0  0
  5  6  2  0  0  0  0
  5  7  1  0  0  0  0
  2  3  1  0  0  0  0
  2  4  1  0  0  0  0
  2  5  1  0  0  0  0
  1  2  1  0  0  0  0
 29 30  2  0  0  0  0
 29 31  1  0  0  0  0
 26 27  1  0  0  0  0
 26 28  1  0  0  0  0
 23 24  1  0  0  0  0
 23 25  1  0  0  0  0
 22 23  1  0  0  0  0
 22 26  1  0  0  0  0
 20 21  1  0  0  0  0
 20 22  2  0  0  0  0
 17 18  1  0  0  0  0
 17 19  1  0  0  0  0
 17 20  1  0  0  0  0
 14 15  1  0  0  0  0
 14 16  1  0  0  0  0
 14 17  1  0  0  0  0
 11 12  1  0  0  0  0
 11 13  1  0  0  0  0
 11 14  1  0  0  0  0
  9 10  1  0  0  0  0
  9 11  1  0  0  0  0
  9 29  1  0  0  0  0
  7  8  1  0  0  0  0
  7  9  1  0  0  0  0
 33 34  1  0  0  0  0
 33 35  1  0  0  0  0
 33 36  1  0  0  0  0
 31 32  1  0  0  0  0
 31 33  1  0  0  0  0
M  CHG  1  20   1
M  END
$$$$
default_name
  -OEChem-02102213163D

 36 35  0     1  0  0  0  0  0999 V2000
   -4.2256   -3.6731    1.8584 H   0  0  0  0  0  0  0  0  0  0  0  0
   -4.2396   -2.6781    1.4144 C   0  0  0  0  0  0  0  0  0  0  0  0
   -4.9506   -2.0521    1.9514 H   0  0  0  0  0  0  0  0  0  0  0  0
   -4.5266   -2.7521    0.3674 H   0  0  0  0  0  0  0  0  0  0  0  0
   -2.8576   -2.0761    1.5184 C   0  0  0  0  0  0  0  0  0  0  0  0
   -1.9456   -2.7051    2.0404 O   0  0  0  0  0  0  0  0  0  0  0  0
   -2.6926   -0.8481    1.0174 N   0  0  0  0  0  0  0  0  0  0  0  0
   -3.4926   -0.3971    0.5954 H   0  0  0  0  0  0  0  0  0  0  0  0
   -1.4216   -0.1071    1.0434 C   0  0  1  0  0  0  0  0  0  0  0  0
   -0.6709   -0.6930    0.5106 H   0  0  0  0  0  0  0  0  0  0  0  0
   -1.6221    1.2315    0.3051 C   0  0  0  0  0  0  0  0  0  0  0  0
   -2.5588    1.6790    0.6433 H   0  0  0  0  0  0  0  0  0  0  0  0
   -0.8076    1.9099    0.5686 H   0  0  0  0  0  0  0  0  0  0  0  0
   -1.6815    1.0843   -1.2223 C   0  0  0  0  0  0  0  0  0  0  0  0
   -1.0760    0.2323   -1.5347 H   0  0  0  0  0  0  0  0  0  0  0  0
   -2.7154    0.9234   -1.5293 H   0  0  0  0  0  0  0  0  0  0  0  0
   -1.1425    2.3562   -1.8912 C   0  0  0  0  0  0  0  0  0  0  0  0
   -1.7375    3.2073   -1.5521 H   0  0  0  0  0  0  0  0  0  0  0  0
   -0.1066    2.5024   -1.5762 H   0  0  0  0  0  0  0  0  0  0  0  0
   -1.2029    2.2685   -3.3647 N   0  3  0  0  0  0  0  0  0  0  0  0
   -1.5323    1.4011   -3.7525 H   0  0  0  0  0  0  0  0  0  0  0  0
   -0.8657    3.2203   -4.2188 C   0  0  0  0  0  0  0  0  0  0  0  0
   -0.4265    4.3823   -3.8237 N   0  0  0  0  0  0  0  0  0  0  0  0
   -0.3437    4.5586   -2.8381 H   0  0  0  0  0  0  0  0  0  0  0  0
   -0.1746    5.0937   -4.4851 H   0  0  0  0  0  0  0  0  0  0  0  0
   -0.9636    3.0201   -5.5024 N   0  0  0  0  0  0  0  0  0  0  0  0
   -1.2976    2.1398   -5.8552 H   0  0  0  0  0  0  0  0  0  0  0  0
   -0.7068    3.7449   -6.1468 H   0  0  0  0  0  0  0  0  0  0  0  0
   -0.9523    0.1012    2.4848 C   0  0  0  0  0  0  0  0  0  0  0  0
    0.2133   -0.1319    2.7814 O   0  0  0  0  0  0  0  0  0  0  0  0
   -1.8684    0.5006    3.3725 N   0  0  0  0  0  0  0  0  0  0  0  0
   -2.7946    0.7048    3.0343 H   0  0  0  0  0  0  0  0  0  0  0  0
   -1.5848    0.7472    4.7873 C   0  0  0  0  0  0  0  0  0  0  0  0
   -0.8819    1.5774    4.8838 H   0  0  0  0  0  0  0  0  0  0  0  0
   -2.5030    0.9948    5.3214 H   0  0  0  0  0  0  0  0  0  0  0  0
   -1.1344   -0.1399    5.2381 H   0  0  0  0  0  0  0  0  0  0  0  0
  5  6  2  0  0  0  0
  5  7  1  0  0  0  0
  2  3  1  0  0  0  0
  2  4  1  0  0  0  0
  2  5  1  0  0  0  0
  1  2  1  0  0  0  0
 29 30  2  0  0  0  0
 29 31  1  0  0  0  0
 26 27  1  0  0  0  0
 26 28  1  0  0  0  0
 23 24  1  0  0  0  0
 23 25  1  0  0  0  0
 22 23  1  0  0  0  0
 22 26  1  0  0  0  0
 20 21  1  0  0  0  0
 20 22  2  0  0  0  0
 17 18  1  0  0  0  0
 17 19  1  0  0  0  0
 17 20  1  0  0  0  0
 14 15  1  0  0  0  0
 14 16  1  0  0  0  0
 14 17  1  0  0  0  0
 11 12  1  0  0  0  0
 11 13  1  0  0  0  0
 11 14  1  0  0  0  0
  9 10  1  0  0  0  0
  9 11  1  0  0  0  0
  9 29  1  0  0  0  0
  7  8  1  0  0  0  0
  7  9  1  0  0  0  0
 33 34  1  0  0  0  0
 33 35  1  0  0  0  0
 33 36  1  0  0  0  0
 31 32  1  0  0  0  0
 31 33  1  0  0  0  0
M  CHG  1  20   1
M  END
$$$$
default_name
  -OEChem-02102213163D

 36 35  0     1  0  0  0  0  0999 V2000
   -4.2256   -3.6731    1.8584 H   0  0  0  0  0  0  0  0  0  0  0  0
   -4.2396   -2.6781    1.4144 C   0  0  0  0  0  0  0  0  0  0  0  0
   -4.9506   -2.0521    1.9514 H   0  0  0  0  0  0  0  0  0  0  0  0
   -4.5266   -2.7521    0.3674 H   0  0  0  0  0  0  0  0  0  0  0  0
   -2.8576   -2.0761    1.5184 C   0  0  0  0  0  0  0  0  0  0  0  0
   -1.9456   -2.7051    2.0404 O   0  0  0  0  0  0  0  0  0  0  0  0
   -2.6926   -0.8481    1.0174 N   0  0  0  0  0  0  0  0  0  0  0  0
   -3.4926   -0.3971    0.5954 H   0  0  0  0  0  0  0  0  0  0  0  0
   -1.4216   -0.1071    1.0434 C   0  0  1  0  0  0  0  0  0  0  0  0
   -0.6709   -0.6930    0.5106 H   0  0  0  0  0  0  0  0  0  0  0  0
   -1.6221    1.2315    0.3051 C   0  0  0  0  0  0  0  0  0  0  0  0
   -2.5588    1.6790    0.6433 H   0  0  0  0  0  0  0  0  0  0  0  0
   -0.8076    1.9099    0.5686 H   0  0  0  0  0  0  0  0  0  0  0  0
   -1.6815    1.0843   -1.2223 C   0  0  0  0  0  0  0  0  0  0  0  0
   -1.3087    0.1012   -1.5130 H   0  0  0  0  0  0  0  0  0  0  0  0
   -2.7144    1.1908   -1.5551 H   0  0  0  0  0  0  0  0  0  0  0  0
   -0.8176    2.1657   -1.8854 C   0  0  0  0  0  0  0  0  0  0  0  0
   -1.1810    3.1457   -1.5678 H   0  0  0  0  0  0  0  0  0  0  0  0
    0.2134    2.0446   -1.5445 H   0  0  0  0  0  0  0  0  0  0  0  0
   -0.8638    2.0770   -3.3595 N   0  3  0  0  0  0  0  0  0  0  0  0
   -1.3964    1.3185   -3.7498 H   0  0  0  0  0  0  0  0  0  0  0  0
   -0.2729    2.8986   -4.2108 C   0  0  0  0  0  0  0  0  0  0  0  0
    0.4414    3.9136   -3.8123 N   0  0  0  0  0  0  0  0  0  0  0  0
    0.5436    4.0757   -2.8260 H   0  0  0  0  0  0  0  0  0  0  0  0
    0.8835    4.5273   -4.4717 H   0  0  0  0  0  0  0  0  0  0  0  0
   -0.3889    2.7132   -5.4951 N   0  0  0  0  0  0  0  0  0  0  0  0
   -0.9300    1.9440   -5.8506 H   0  0  0  0  0  0  0  0  0  0  0  0
    0.0610    3.3390   -6.1375 H   0  0  0  0  0  0  0  0  0  0  0  0
   -0.9523    0.1012    2.4848 C   0  0  0  0  0  0  0  0  0  0  0  0
    0.2133   -0.1319    2.7814 O   0  0  0  0  0  0  0  0  0  0  0  0
   -1.8684    0.5006    3.3725 N   0  0  0  0  0  0  0  0  0  0  0  0
   -2.7946    0.7048    3.0343 H   0  0  0  0  0  0  0  0  0  0  0  0
   -1.5848    0.7472    4.7873 C   0  0  0  0  0  0  0  0  0  0  0  0
   -0.8819    1.5774    4.8838 H   0  0  0  0  0  0  0  0  0  0  0  0
   -2.5030    0.9948    5.3214 H   0  0  0  0  0  0  0  0  0  0  0  0
   -1.1344   -0.1399    5.2381 H   0  0  0  0  0  0  0  0  0  0  0  0
  5  6  2  0  0  0  0
  5  7  1  0  0  0  0
  2  3  1  0  0  0  0
  2  4  1  0  0  0  0
  2  5  1  0  0  0  0
  1  2  1  0  0  0  0
 29 30  2  0  0  0  0
 29 31  1  0  0  0  0
 26 27  1  0  0  0  0
 26 28  1  0  0  0  0
 23 24  1  0  0  0  0
 23 25  1  0  0  0  0
 22 23  1  0  0  0  0
 22 26  1  0  0  0  0
 20 21  1  0  0  0  0
 20 22  2  0  0  0  0
 17 18  1  0  0  0  0
 17 19  1  0  0  0  0
 17 20  1  0  0  0  0
 14 15  1  0  0  0  0
 14 16  1  0  0  0  0
 14 17  1  0  0  0  0
 11 12  1  0  0  0  0
 11 13  1  0  0  0  0
 11 14  1  0  0  0  0
  9 10  1  0  0  0  0
  9 11  1  0  0  0  0
  9 29  1  0  0  0  0
  7  8  1  0  0  0  0
  7  9  1  0  0  0  0
 33 34  1  0  0  0  0
 33 35  1  0  0  0  0
 33 36  1  0  0  0  0
 31 32  1  0  0  0  0
 31 33  1  0  0  0  0
M  CHG  1  20   1
M  END
$$$$
default_name
  -OEChem-02102213163D

 36 35  0     1  0  0  0  0  0999 V2000
   -4.2256   -3.6731    1.8584 H   0  0  0  0  0  0  0  0  0  0  0  0
   -4.2396   -2.6781    1.4144 C   0  0  0  0  0  0  0  0  0  0  0  0
   -4.9506   -2.0521    1.9514 H   0  0  0  0  0  0  0  0  0  0  0  0
   -4.5266   -2.7521    0.3674 H   0  0  0  0  0  0  0  0  0  0  0  0
   -2.8576   -2.0761    1.5184 C   0  0  0  0  0  0  0  0  0  0  0  0
   -1.9456   -2.7051    2.0404 O   0  0  0  0  0  0  0  0  0  0  0  0
   -2.6926   -0.8481    1.0174 N   0  0  0  0  0  0  0  0  0  0  0  0
   -3.4926   -0.3971    0.5954 H   0  0  0  0  0  0  0  0  0  0  0  0
   -1.4216   -0.1071    1.0434 C   0  0  1  0  0  0  0  0  0  0  0  0
   -0.6709   -0.6930    0.5106 H   0  0  0  0  0  0  0  0  0  0  0  0
   -1.6221    1.2315    0.3051 C   0  0  0  0  0  0  0  0  0  0  0  0
   -2.5588    1.6790    0.6433 H   0  0  0  0  0  0  0  0  0  0  0  0
   -0.8076    1.9099    0.5686 H   0  0  0  0  0  0  0  0  0  0  0  0
   -1.6815    1.0843   -1.2223 C   0  0  0  0  0  0  0  0  0  0  0  0
   -1.5677    0.0346   -1.4965 H   0  0  0  0  0  0  0  0  0  0  0  0
   -2.6440    1.4486   -1.5827 H   0  0  0  0  0  0  0  0  0  0  0  0
   -0.5528    1.8981   -1.8699 C   0  0  0  0  0  0  0  0  0  0  0  0
   -0.6590    2.9428   -1.5686 H   0  0  0  0  0  0  0  0  0  0  0  0
    0.4038    1.5203   -1.5014 H   0  0  0  0  0  0  0  0  0  0  0  0
   -0.5857    1.8047   -3.3440 N   0  3  0  0  0  0  0  0  0  0  0  0
   -1.2864    1.2037   -3.7430 H   0  0  0  0  0  0  0  0  0  0  0  0
    0.2167    2.4353   -4.1852 C   0  0  0  0  0  0  0  0  0  0  0  0
    1.1587    3.2375   -3.7750 N   0  0  0  0  0  0  0  0  0  0  0  0
    1.2761    3.3809   -2.7876 H   0  0  0  0  0  0  0  0  0  0  0  0
    1.7593    3.7080   -4.4268 H   0  0  0  0  0  0  0  0  0  0  0  0
    0.0871    2.2690   -5.4708 N   0  0  0  0  0  0  0  0  0  0  0  0
   -0.6254    1.6602   -5.8351 H   0  0  0  0  0  0  0  0  0  0  0  0
    0.6979    2.7493   -6.1055 H   0  0  0  0  0  0  0  0  0  0  0  0
   -0.9523    0.1012    2.4848 C   0  0  0  0  0  0  0  0  0  0  0  0
    0.2133   -0.1319    2.7814 O   0  0  0  0  0  0  0  0  0  0  0  0
   -1.8684    0.5006    3.3725 N   0  0  0  0  0  0  0  0  0  0  0  0
   -2.7946    0.7048    3.0343 H   0  0  0  0  0  0  0  0  0  0  0  0
   -1.5848    0.7472    4.7873 C   0  0  0  0  0  0  0  0  0  0  0  0
   -0.8819    1.5774    4.8838 H   0  0  0  0  0  0  0  0  0  0  0  0
   -2.5030    0.9948    5.3214 H   0  0  0  0  0  0  0  0  0  0  0  0
   -1.1344   -0.1399    5.2381 H   0  0  0  0  0  0  0  0  0  0  0  0
  5  6  2  0  0  0  0
  5  7  1  0  0  0  0
  2  3  1  0  0  0  0
  2  4  1  0  0  0  0
  2  5  1  0  0  0  0
  1  2  1  0  0  0  0
 29 30  2  0  0  0  0
 29 31  1  0  0  0  0
 26 27  1  0  0  0  0
 26 28  1  0  0  0  0
 23 24  1  0  0  0  0
 23 25  1  0  0  0  0
 22 23  1  0  0  0  0
 22 26  1  0  0  0  0
 20 21  1  0  0  0  0
 20 22  2  0  0  0  0
 17 18  1  0  0  0  0
 17 19  1  0  0  0  0
 17 20  1  0  0  0  0
 14 15  1  0  0  0  0
 14 16  1  0  0  0  0
 14 17  1  0  0  0  0
 11 12  1  0  0  0  0
 11 13  1  0  0  0  0
 11 14  1  0  0  0  0
  9 10  1  0  0  0  0
  9 11  1  0  0  0  0
  9 29  1  0  0  0  0
  7  8  1  0  0  0  0
  7  9  1  0  0  0  0
 33 34  1  0  0  0  0
 33 35  1  0  0  0  0
 33 36  1  0  0  0  0
 31 32  1  0  0  0  0
 31 33  1  0  0  0  0
M  CHG  1  20   1
M  END
$$$$
default_name
  -OEChem-02102213163D

 36 35  0     1  0  0  0  0  0999 V2000
   -4.2256   -3.6731    1.8584 H   0  0  0  0  0  0  0  0  0  0  0  0
   -4.2396   -2.6781    1.4144 C   0  0  0  0  0  0  0  0  0  0  0  0
   -4.9506   -2.0521    1.9514 H   0  0  0  0  0  0  0  0  0  0  0  0
   -4.5266   -2.7521    0.3674 H   0  0  0  0  0  0  0  0  0  0  0  0
   -2.8576   -2.0761    1.5184 C   0  0  0  0  0  0  0  0  0  0  0  0
   -1.9456   -2.7051    2.0404 O   0  0  0  0  0  0  0  0  0  0  0  0
   -2.6926   -0.8481    1.0174 N   0  0  0  0  0  0  0  0  0  0  0  0
   -3.4926   -0.3971    0.5954 H   0  0  0  0  0  0  0  0  0  0  0  0
   -1.4216   -0.1071    1.0434 C   0  0  1  0  0  0  0  0  0  0  0  0
   -0.6709   -0.6930    0.5106 H   0  0  0  0  0  0  0  0  0  0  0  0
   -1.6221    1.2315    0.3051 C   0  0  0  0  0  0  0  0  0  0  0  0
   -2.5588    1.6790    0.6433 H   0  0  0  0  0  0  0  0  0  0  0  0
   -0.8076    1.9099    0.5686 H   0  0  0  0  0  0  0  0  0  0  0  0
   -1.6815    1.0843   -1.2223 C   0  0  0  0  0  0  0  0  0  0  0  0
   -1.8355    0.0371   -1.4863 H   0  0  0  0  0  0  0  0  0  0  0  0
   -2.5090    1.6792   -1.6101 H   0  0  0  0  0  0  0  0  0  0  0  0
   -0.3664    1.5716   -1.8457 C   0  0  0  0  0  0  0  0  0  0  0  0
   -0.2070    2.6123   -1.5543 H   0  0  0  0  0  0  0  0  0  0  0  0
    0.4517    0.9654   -1.4498 H   0  0  0  0  0  0  0  0  0  0  0  0
   -0.3876    1.4703   -3.3195 N   0  3  0  0  0  0  0  0  0  0  0  0
   -1.2098    1.0646   -3.7326 H   0  0  0  0  0  0  0  0  0  0  0  0
    0.5696    1.8620   -4.1437 C   0  0  0  0  0  0  0  0  0  0  0  0
    1.6766    2.4002   -3.7145 N   0  0  0  0  0  0  0  0  0  0  0  0
    1.8037    2.5216   -2.7253 H   0  0  0  0  0  0  0  0  0  0  0  0
    2.3933    2.6916   -4.3535 H   0  0  0  0  0  0  0  0  0  0  0  0
    0.4319    1.7176   -5.4311 N   0  0  0  0  0  0  0  0  0  0  0  0
   -0.4046    1.3078   -5.8098 H   0  0  0  0  0  0  0  0  0  0  0  0
    1.1605    2.0162   -6.0528 H   0  0  0  0  0  0  0  0  0  0  0  0
   -0.9523    0.1012    2.4848 C   0  0  0  0  0  0  0  0  0  0  0  0
    0.2133   -0.1319    2.7814 O   0  0  0  0  0  0  0  0  0  0  0  0
   -1.8684    0.5006    3.3725 N   0  0  0  0  0  0  0  0  0  0  0  0
   -2.7946    0.7048    3.0343 H   0  0  0  0  0  0  0  0  0  0  0  0
   -1.5848    0.7472    4.7873 C   0  0  0  0  0  0  0  0  0  0  0  0
   -0.8819    1.5774    4.8838 H   0  0  0  0  0  0  0  0  0  0  0  0
   -2.5030    0.9948    5.3214 H   0  0  0  0  0  0  0  0  0  0  0  0
   -1.1344   -0.1399    5.2381 H   0  0  0  0  0  0  0  0  0  0  0  0
  5  6  2  0  0  0  0
  5  7  1  0  0  0  0
  2  3  1  0  0  0  0
  2  4  1  0  0  0  0
  2  5  1  0  0  0  0
  1  2  1  0  0  0  0
 29 30  2  0  0  0  0
 29 31  1  0  0  0  0
 26 27  1  0  0  0  0
 26 28  1  0  0  0  0
 23 24  1  0  0  0  0
 23 25  1  0  0  0  0
 22 23  1  0  0  0  0
 22 26  1  0  0  0  0
 20 21  1  0  0  0  0
 20 22  2  0  0  0  0
 17 18  1  0  0  0  0
 17 19  1  0  0  0  0
 17 20  1  0  0  0  0
 14 15  1  0  0  0  0
 14 16  1  0  0  0  0
 14 17  1  0  0  0  0
 11 12  1  0  0  0  0
 11 13  1  0  0  0  0
 11 14  1  0  0  0  0
  9 10  1  0  0  0  0
  9 11  1  0  0  0  0
  9 29  1  0  0  0  0
  7  8  1  0  0  0  0
  7  9  1  0  0  0  0
 33 34  1  0  0  0  0
 33 35  1  0  0  0  0
 33 36  1  0  0  0  0
 31 32  1  0  0  0  0
 31 33  1  0  0  0  0
M  CHG  1  20   1
M  END
$$$$
default_name
  -OEChem-02102213163D

 36 35  0     1  0  0  0  0  0999 V2000
   -4.2256   -3.6731    1.8584 H   0  0  0  0  0  0  0  0  0  0  0  0
   -4.2396   -2.6781    1.4144 C   0  0  0  0  0  0  0  0  0  0  0  0
   -4.9506   -2.0521    1.9514 H   0  0  0  0  0  0  0  0  0  0  0  0
   -4.5266   -2.7521    0.3674 H   0  0  0  0  0  0  0  0  0  0  0  0
   -2.8576   -2.0761    1.5184 C   0  0  0  0  0  0  0  0  0  0  0  0
   -1.9456   -2.7051    2.0404 O   0  0  0  0  0  0  0  0  0  0  0  0
   -2.6926   -0.8481    1.0174 N   0  0  0  0  0  0  0  0  0  0  0  0
   -3.4926   -0.3971    0.5954 H   0  0  0  0  0  0  0  0  0  0  0  0
   -1.4216   -0.1071    1.0434 C   0  0  1  0  0  0  0  0  0  0  0  0
   -0.6709   -0.6930    0.5106 H   0  0  0  0  0  0  0  0  0  0  0  0
   -1.6221    1.2315    0.3051 C   0  0  0  0  0  0  0  0  0  0  0  0
   -2.5588    1.6790    0.6433 H   0  0  0  0  0  0  0  0  0  0  0  0
   -0.8076    1.9099    0.5686 H   0  0  0  0  0  0  0  0  0  0  0  0
   -1.6815    1.0843   -1.2223 C   0  0  0  0  0  0  0  0  0  0  0  0
   -2.0938    0.1086   -1.4832 H   0  0  0  0  0  0  0  0  0  0  0  0
   -2.3185    1.8669   -1.6356 H   0  0  0  0  0  0  0  0  0  0  0  0
   -0.2710    1.2086   -1.8145 C   0  0  0  0  0  0  0  0  0  0  0  0
    0.1442    2.1770   -1.5260 H   0  0  0  0  0  0  0  0  0  0  0  0
    0.3538    0.4175   -1.3932 H   0  0  0  0  0  0  0  0  0  0  0  0
   -0.2829    1.0966   -3.2876 N   0  3  0  0  0  0  0  0  0  0  0  0
   -1.1720    0.9106   -3.7193 H   0  0  0  0  0  0  0  0  0  0  0  0
    0.7620    1.2178   -4.0891 C   0  0  0  0  0  0  0  0  0  0  0  0
    1.9599    1.4586   -3.6348 N   0  0  0  0  0  0  0  0  0  0  0  0
    2.0907    1.5564   -2.6434 H   0  0  0  0  0  0  0  0  0  0  0  0
    2.7422    1.5474   -4.2568 H   0  0  0  0  0  0  0  0  0  0  0  0
    0.6220    1.0966   -5.3787 N   0  0  0  0  0  0  0  0  0  0  0  0
   -0.2827    0.9109   -5.7763 H   0  0  0  0  0  0  0  0  0  0  0  0
    1.4173    1.1894   -5.9832 H   0  0  0  0  0  0  0  0  0  0  0  0
   -0.9523    0.1012    2.4848 C   0  0  0  0  0  0  0  0  0  0  0  0
    0.2133   -0.1319    2.7814 O   0  0  0  0  0  0  0  0  0  0  0  0
   -1.8684    0.5006    3.3725 N   0  0  0  0  0  0  0  0  0  0  0  0
   -2.7946    0.7048    3.0343 H   0  0  0  0  0  0  0  0  0  0  0  0
   -1.5848    0.7472    4.7873 C   0  0  0  0  0  0  0  0  0  0  0  0
   -0.8819    1.5774    4.8838 H   0  0  0  0  0  0  0  0  0  0  0  0
   -2.5030    0.9948    5.3214 H   0  0  0  0  0  0  0  0  0  0  0  0
   -1.1344   -0.1399    5.2381 H   0  0  0  0  0  0  0  0  0  0  0  0
  5  6  2  0  0  0  0
  5  7  1  0  0  0  0
  2  3  1  0  0  0  0
  2  4  1  0  0  0  0
  2  5  1  0  0  0  0
  1  2  1  0  0  0  0
 29 30  2  0  0  0  0
 29 31  1  0  0  0  0
 26 27  1  0  0  0  0
 26 28  1  0  0  0  0
 23 24  1  0  0  0  0
 23 25  1  0  0  0  0
 22 23  1  0  0  0  0
 22 26  1  0  0  0  0
 20 21  1  0  0  0  0
 20 22  2  0  0  0  0
 17 18  1  0  0  0  0
 17 19  1  0  0  0  0
 17 20  1  0  0  0  0
 14 15  1  0  0  0  0
 14 16  1  0  0  0  0
 14 17  1  0  0  0  0
 11 12  1  0  0  0  0
 11 13  1  0  0  0  0
 11 14  1  0  0  0  0
  9 10  1  0  0  0  0
  9 11  1  0  0  0  0
  9 29  1  0  0  0  0
  7  8  1  0  0  0  0
  7  9  1  0  0  0  0
 33 34  1  0  0  0  0
 33 35  1  0  0  0  0
 33 36  1  0  0  0  0
 31 32  1  0  0  0  0
 31 33  1  0  0  0  0
M  CHG  1  20   1
M  END
$$$$
default_name
  -OEChem-02102213163D

 36 35  0     1  0  0  0  0  0999 V2000
   -4.2256   -3.6731    1.8584 H   0  0  0  0  0  0  0  0  0  0  0  0
   -4.2396   -2.6781    1.4144 C   0  0  0  0  0  0  0  0  0  0  0  0
   -4.9506   -2.0521    1.9514 H   0  0  0  0  0  0  0  0  0  0  0  0
   -4.5266   -2.7521    0.3674 H   0  0  0  0  0  0  0  0  0  0  0  0
   -2.8576   -2.0761    1.5184 C   0  0  0  0  0  0  0  0  0  0  0  0
   -1.9456   -2.7051    2.0404 O   0  0  0  0  0  0  0  0  0  0  0  0
   -2.6926   -0.8481    1.0174 N   0  0  0  0  0  0  0  0  0  0  0  0
   -3.4926   -0.3971    0.5954 H   0  0  0  0  0  0  0  0  0  0  0  0
   -1.4216   -0.1071    1.0434 C   0  0  1  0  0  0  0  0  0  0  0  0
   -0.6709   -0.6930    0.5106 H   0  0  0  0  0  0  0  0  0  0  0  0
   -1.6221    1.2315    0.3051 C   0  0  0  0  0  0  0  0  0  0  0  0
   -2.5588    1.6790    0.6433 H   0  0  0  0  0  0  0  0  0  0  0  0
   -0.8076    1.9099    0.5686 H   0  0  0  0  0  0  0  0  0  0  0  0
   -1.6815    1.0843   -1.2223 C   0  0  0  0  0  0  0  0  0  0  0  0
   -2.3249    0.2442   -1.4872 H   0  0  0  0  0  0  0  0  0  0  0  0
   -2.0856    1.9989   -1.6574 H   0  0  0  0  0  0  0  0  0  0  0  0
   -0.2731    0.8336   -1.7782 C   0  0  0  0  0  0  0  0  0  0  0  0
    0.3706    1.6663   -1.4856 H   0  0  0  0  0  0  0  0  0  0  0  0
    0.1169   -0.0860   -1.3355 H   0  0  0  0  0  0  0  0  0  0  0  0
   -0.2788    0.7089   -3.2504 N   0  3  0  0  0  0  0  0  0  0  0  0
   -1.1754    0.7523   -3.7039 H   0  0  0  0  0  0  0  0  0  0  0  0
    0.7806    0.5465   -4.0251 C   0  0  0  0  0  0  0  0  0  0  0  0
    1.9891    0.4771   -3.5413 N   0  0  0  0  0  0  0  0  0  0  0  0
    2.1173    0.5510   -2.5476 H   0  0  0  0  0  0  0  0  0  0  0  0
    2.7823    0.3533   -4.1433 H   0  0  0  0  0  0  0  0  0  0  0  0
    0.6444    0.4484   -5.3171 N   0  0  0  0  0  0  0  0  0  0  0  0
   -0.2679    0.4965   -5.7369 H   0  0  0  0  0  0  0  0  0  0  0  0
    1.4508    0.3254   -5.9012 H   0  0  0  0  0  0  0  0  0  0  0  0
   -0.9523    0.1012    2.4848 C   0  0  0  0  0  0  0  0  0  0  0  0
    0.2133   -0.1319    2.7814 O   0  0  0  0  0  0  0  0  0  0  0  0
   -1.8684    0.5006    3.3725 N   0  0  0  0  0  0  0  0  0  0  0  0
   -2.7946    0.7048    3.0343 H   0  0  0  0  0  0  0  0  0  0  0  0
   -1.5848    0.7472    4.7873 C   0  0  0  0  0  0  0  0  0  0  0  0
   -0.8819    1.5774    4.8838 H   0  0  0  0  0  0  0  0  0  0  0  0
   -2.5030    0.9948    5.3214 H   0  0  0  0  0  0  0  0  0  0  0  0
   -1.1344   -0.1399    5.2381 H   0  0  0  0  0  0  0  0  0  0  0  0
  5  6  2  0  0  0  0
  5  7  1  0  0  0  0
  2  3  1  0  0  0  0
  2  4  1  0  0  0  0
  2  5  1  0  0  0  0
  1  2  1  0  0  0  0
 29 30  2  0  0  0  0
 29 31  1  0  0  0  0
 26 27  1  0  0  0  0
 26 28  1  0  0  0  0
 23 24  1  0  0  0  0
 23 25  1  0  0  0  0
 22 23  1  0  0  0  0
 22 26  1  0  0  0  0
 20 21  1  0  0  0  0
 20 22  2  0  0  0  0
 17 18  1  0  0  0  0
 17 19  1  0  0  0  0
 17 20  1  0  0  0  0
 14 15  1  0  0  0  0
 14 16  1  0  0  0  0
 14 17  1  0  0  0  0
 11 12  1  0  0  0  0
 11 13  1  0  0  0  0
 11 14  1  0  0  0  0
  9 10  1  0  0  0  0
  9 11  1  0  0  0  0
  9 29  1  0  0  0  0
  7  8  1  0  0  0  0
  7  9  1  0  0  0  0
 33 34  1  0  0  0  0
 33 35  1  0  0  0  0
 33 36  1  0  0  0  0
 31 32  1  0  0  0  0
 31 33  1  0  0  0  0
M  CHG  1  20   1
M  END
$$$$
default_name
  -OEChem-02102213163D

 36 35  0     1  0  0  0  0  0999 V2000
   -4.2256   -3.6731    1.8584 H   0  0  0  0  0  0  0  0  0  0  0  0
   -4.2396   -2.6781    1.4144 C   0  0  0  0  0  0  0  0  0  0  0  0
   -4.9506   -2.0521    1.9514 H   0  0  0  0  0  0  0  0  0  0  0  0
   -4.5266   -2.7521    0.3674 H   0  0  0  0  0  0  0  0  0  0  0  0
   -2.8576   -2.0761    1.5184 C   0  0  0  0  0  0  0  0  0  0  0  0
   -1.9456   -2.7051    2.0404 O   0  0  0  0  0  0  0  0  0  0  0  0
   -2.6926   -0.8481    1.0174 N   0  0  0  0  0  0  0  0  0  0  0  0
   -3.4926   -0.3971    0.5954 H   0  0  0  0  0  0  0  0  0  0  0  0
   -1.4216   -0.1071    1.0434 C   0  0  1  0  0  0  0  0  0  0  0  0
   -0.6709   -0.6930    0.5106 H   0  0  0  0  0  0  0  0  0  0  0  0
   -1.6221    1.2315    0.3051 C   0  0  0  0  0  0  0  0  0  0  0  0
   -2.5588    1.6790    0.6433 H   0  0  0  0  0  0  0  0  0  0  0  0
   -0.8076    1.9099    0.5686 H   0  0  0  0  0  0  0  0  0  0  0  0
   -1.6815    1.0843   -1.2223 C   0  0  0  0  0  0  0  0  0  0  0  0
   -2.5132    0.4346   -1.4983 H   0  0  0  0  0  0  0  0  0  0  0  0
   -1.8260    2.0662   -1.6740 H   0  0  0  0  0  0  0  0  0  0  0  0
   -0.3725    0.4723   -1.7396 C   0  0  0  0  0  0  0  0  0  0  0  0
    0.4569    1.1151   -1.4359 H   0  0  0  0  0  0  0  0  0  0  0  0
   -0.2431   -0.5107   -1.2805 H   0  0  0  0  0  0  0  0  0  0  0  0
   -0.3756    0.3338   -3.2105 N   0  3  0  0  0  0  0  0  0  0  0  0
   -1.2198    0.6004   -3.6875 H   0  0  0  0  0  0  0  0  0  0  0  0
    0.6242   -0.1060   -3.9562 C   0  0  0  0  0  0  0  0  0  0  0  0
    1.7623   -0.4776   -3.4405 N   0  0  0  0  0  0  0  0  0  0  0  0
    1.8819   -0.4260   -2.4443 H   0  0  0  0  0  0  0  0  0  0  0  0
    2.5107   -0.8093   -4.0207 H   0  0  0  0  0  0  0  0  0  0  0  0
    0.4977   -0.1829   -5.2505 N   0  0  0  0  0  0  0  0  0  0  0  0
   -0.3613    0.0927   -5.6944 H   0  0  0  0  0  0  0  0  0  0  0  0
    1.2587   -0.5170   -5.8126 H   0  0  0  0  0  0  0  0  0  0  0  0
   -0.9523    0.1012    2.4848 C   0  0  0  0  0  0  0  0  0  0  0  0
    0.2133   -0.1319    2.7814 O   0  0  0  0  0  0  0  0  0  0  0  0
   -1.8684    0.5006    3.3725 N   0  0  0  0  0  0  0  0  0  0  0  0
   -2.7946    0.7048    3.0343 H   0  0  0  0  0  0  0  0  0  0  0  0
   -1.5848    0.7472    4.7873 C   0  0  0  0  0  0  0  0  0  0  0  0
   -0.8819    1.5774    4.8838 H   0  0  0  0  0  0  0  0  0  0  0  0
   -2.5030    0.9948    5.3214 H   0  0  0  0  0  0  0  0  0  0  0  0
   -1.1344   -0.1399    5.2381 H   0  0  0  0  0  0  0  0  0  0  0  0
  5  6  2  0  0  0  0
  5  7  1  0  0  0  0
  2  3  1  0  0  0  0
  2  4  1  0  0  0  0
  2  5  1  0  0  0  0
  1  2  1  0  0  0  0
 29 30  2  0  0  0  0
 29 31  1  0  0  0  0
 26 27  1  0  0  0  0
 26 28  1  0  0  0  0
 23 24  1  0  0  0  0
 23 25  1  0  0  0  0
 22 23  1  0  0  0  0
 22 26  1  0  0  0  0
 20 21  1  0  0  0  0
 20 22  2  0  0  0  0
 17 18  1  0  0  0  0
 17 19  1  0  0  0  0
 17 20  1  0  0  0  0
 14 15  1  0  0  0  0
 14 16  1  0  0  0  0
 14 17  1  0  0  0  0
 11 12  1  0  0  0  0
 11 13  1  0  0  0  0
 11 14  1  0  0  0  0
  9 10  1  0  0  0  0
  9 11  1  0  0  0  0
  9 29  1  0  0  0  0
  7  8  1  0  0  0  0
  7  9  1  0  0  0  0
 33 34  1  0  0  0  0
 33 35  1  0  0  0  0
 33 36  1  0  0  0  0
 31 32  1  0  0  0  0
 31 33  1  0  0  0  0
M  CHG  1  20   1
M  END
$$$$
default_name
  -OEChem-02102213163D

 36 35  0     1  0  0  0  0  0999 V2000
   -4.2256   -3.6731    1.8584 H   0  0  0  0  0  0  0  0  0  0  0  0
   -4.2396   -2.6781    1.4144 C   0  0  0  0  0  0  0  0  0  0  0  0
   -4.9506   -2.0521    1.9514 H   0  0  0  0  0  0  0  0  0  0  0  0
   -4.5266   -2.7521    0.3674 H   0  0  0  0  0  0  0  0  0  0  0  0
   -2.8576   -2.0761    1.5184 C   0  0  0  0  0  0  0  0  0  0  0  0
   -1.9456   -2.7051    2.0404 O   0  0  0  0  0  0  0  0  0  0  0  0
   -2.6926   -0.8481    1.0174 N   0  0  0  0  0  0  0  0  0  0  0  0
   -3.4926   -0.3971    0.5954 H   0  0  0  0  0  0  0  0  0  0  0  0
   -1.4216   -0.1071    1.0434 C   0  0  1  0  0  0  0  0  0  0  0  0
   -0.6709   -0.6930    0.5106 H   0  0  0  0  0  0  0  0  0  0  0  0
   -1.6221    1.2315    0.3051 C   0  0  0  0  0  0  0  0  0  0  0  0
   -2.5588    1.6790    0.6433 H   0  0  0  0  0  0  0  0  0  0  0  0
   -0.8076    1.9099    0.5686 H   0  0  0  0  0  0  0  0  0  0  0  0
   -1.6815    1.0843   -1.2223 C   0  0  0  0  0  0  0  0  0  0  0  0
   -2.6457    0.6669   -1.5155 H   0  0  0  0  0  0  0  0  0  0  0  0
   -1.5576    2.0643   -1.6842 H   0  0  0  0  0  0  0  0  0  0  0  0
   -0.5625    0.1493   -1.7010 C   0  0  0  0  0  0  0  0  0  0  0  0
    0.3971    0.5611   -1.3801 H   0  0  0  0  0  0  0  0  0  0  0  0
   -0.7014   -0.8277   -1.2321 H   0  0  0  0  0  0  0  0  0  0  0  0
   -0.5666   -0.0032   -3.1706 N   0  3  0  0  0  0  0  0  0  0  0  0
   -1.3022    0.4652   -3.6713 H   0  0  0  0  0  0  0  0  0  0  0  0
    0.3034   -0.6953   -3.8869 C   0  0  0  0  0  0  0  0  0  0  0  0
    1.2949   -1.3404   -3.3392 N   0  0  0  0  0  0  0  0  0  0  0  0
    1.4003   -1.3081   -2.3406 H   0  0  0  0  0  0  0  0  0  0  0  0
    1.9461   -1.8612   -3.8974 H   0  0  0  0  0  0  0  0  0  0  0  0
    0.1919   -0.7542   -5.1836 N   0  0  0  0  0  0  0  0  0  0  0  0
   -0.5566   -0.2728   -5.6516 H   0  0  0  0  0  0  0  0  0  0  0  0
    0.8541   -1.2803   -5.7233 H   0  0  0  0  0  0  0  0  0  0  0  0
   -0.9523    0.1012    2.4848 C   0  0  0  0  0  0  0  0  0  0  0  0
    0.2133   -0.1319    2.7814 O   0  0  0  0  0  0  0  0  0  0  0  0
   -1.8684    0.5006    3.3725 N   0  0  0  0  0  0  0  0  0  0  0  0
   -2.7946    0.7048    3.0343 H   0  0  0  0  0  0  0  0  0  0  0  0
   -1.5848    0.7472    4.7873 C   0  0  0  0  0  0  0  0  0  0  0  0
   -0.8819    1.5774    4.8838 H   0  0  0  0  0  0  0  0  0  0  0  0
   -2.5030    0.9948    5.3214 H   0  0  0  0  0  0  0  0  0  0  0  0
   -1.1344   -0.1399    5.2381 H   0  0  0  0  0  0  0  0  0  0  0  0
  5  6  2  0  0  0  0
  5  7  1  0  0  0  0
  2  3  1  0  0  0  0
  2  4  1  0  0  0  0
  2  5  1  0  0  0  0
  1  2  1  0  0  0  0
 29 30  2  0  0  0  0
 29 31  1  0  0  0  0
 26 27  1  0  0  0  0
 26 28  1  0  0  0  0
 23 24  1  0  0  0  0
 23 25  1  0  0  0  0
 22 23  1  0  0  0  0
 22 26  1  0  0  0  0
 20 21  1  0  0  0  0
 20 22  2  0  0  0  0
 17 18  1  0  0  0  0
 17 19  1  0  0  0  0
 17 20  1  0  0  0  0
 14 15  1  0  0  0  0
 14 16  1  0  0  0  0
 14 17  1  0  0  0  0
 11 12  1  0  0  0  0
 11 13  1  0  0  0  0
 11 14  1  0  0  0  0
  9 10  1  0  0  0  0
  9 11  1  0  0  0  0
  9 29  1  0  0  0  0
  7  8  1  0  0  0  0
  7  9  1  0  0  0  0
 33 34  1  0  0  0  0
 33 35  1  0  0  0  0
 33 36  1  0  0  0  0
 31 32  1  0  0  0  0
 31 33  1  0  0  0  0
M  CHG  1  20   1
M  END
$$$$
default_name
  -OEChem-02102213163D

 36 35  0     1  0  0  0  0  0999 V2000
   -4.2256   -3.6731    1.8584 H   0  0  0  0  0  0  0  0  0  0  0  0
   -4.2396   -2.6781    1.4144 C   0  0  0  0  0  0  0  0  0  0  0  0
   -4.9506   -2.0521    1.9514 H   0  0  0  0  0  0  0  0  0  0  0  0
   -4.5266   -2.7521    0.3674 H   0  0  0  0  0  0  0  0  0  0  0  0
   -2.8576   -2.0761    1.5184 C   0  0  0  0  0  0  0  0  0  0  0  0
   -1.9456   -2.7051    2.0404 O   0  0  0  0  0  0  0  0  0  0  0  0
   -2.6926   -0.8481    1.0174 N   0  0  0  0  0  0  0  0  0  0  0  0
   -3.4926   -0.3971    0.5954 H   0  0  0  0  0  0  0  0  0  0  0  0
   -1.4216   -0.1071    1.0434 C   0  0  1  0  0  0  0  0  0  0  0  0
   -0.6709   -0.6930    0.5106 H   0  0  0  0  0  0  0  0  0  0  0  0
   -1.6221    1.2315    0.3051 C   0  0  0  0  0  0  0  0  0  0  0  0
   -2.5588    1.6790    0.6433 H   0  0  0  0  0  0  0  0  0  0  0  0
   -0.8076    1.9099    0.5686 H   0  0  0  0  0  0  0  0  0  0  0  0
   -1.6815    1.0843   -1.2223 C   0  0  0  0  0  0  0  0  0  0  0  0
   -2.7136    0.9252   -1.5378 H   0  0  0  0  0  0  0  0  0  0  0  0
   -1.2985    1.9932   -1.6875 H   0  0  0  0  0  0  0  0  0  0  0  0
   -0.8302   -0.1134   -1.6653 C   0  0  0  0  0  0  0  0  0  0  0  0
    0.1953    0.0418   -1.3223 H   0  0  0  0  0  0  0  0  0  0  0  0
   -1.2270   -1.0154   -1.1936 H   0  0  0  0  0  0  0  0  0  0  0  0
   -0.8389   -0.2792   -3.1334 N   0  3  0  0  0  0  0  0  0  0  0  0
   -1.4170    0.3561   -3.6563 H   0  0  0  0  0  0  0  0  0  0  0  0
   -0.1599   -1.1813   -3.8221 C   0  0  0  0  0  0  0  0  0  0  0  0
    0.6189   -2.0524   -3.2443 N   0  0  0  0  0  0  0  0  0  0  0  0
    0.7056   -2.0351   -2.2435 H   0  0  0  0  0  0  0  0  0  0  0  0
    1.1269   -2.7306   -3.7817 H   0  0  0  0  0  0  0  0  0  0  0  0
   -0.2523   -1.2267   -5.1208 N   0  0  0  0  0  0  0  0  0  0  0  0
   -0.8403   -0.5751   -5.6114 H   0  0  0  0  0  0  0  0  0  0  0  0
    0.2646   -1.9126   -5.6394 H   0  0  0  0  0  0  0  0  0  0  0  0
   -0.9523    0.1012    2.4848 C   0  0  0  0  0  0  0  0  0  0  0  0
    0.2133   -0.1319    2.7814 O   0  0  0  0  0  0  0  0  0  0  0  0
   -1.8684    0.5006    3.3725 N   0  0  0  0  0  0  0  0  0  0  0  0
   -2.7946    0.7048    3.0343 H   0  0  0  0  0  0  0  0  0  0  0  0
   -1.5848    0.7472    4.7873 C   0  0  0  0  0  0  0  0  0  0  0  0
   -0.8819    1.5774    4.8838 H   0  0  0  0  0  0  0  0  0  0  0  0
   -2.5030    0.9948    5.3214 H   0  0  0  0  0  0  0  0  0  0  0  0
   -1.1344   -0.1399    5.2381 H   0  0  0  0  0  0  0  0  0  0  0  0
  5  6  2  0  0  0  0
  5  7  1  0  0  0  0
  2  3  1  0  0  0  0
  2  4  1  0  0  0  0
  2  5  1  0  0  0  0
  1  2  1  0  0  0  0
 29 30  2  0  0  0  0
 29 31  1  0  0  0  0
 26 27  1  0  0  0  0
 26 28  1  0  0  0  0
 23 24  1  0  0  0  0
 23 25  1  0  0  0  0
 22 23  1  0  0  0  0
 22 26  1  0  0  0  0
 20 21  1  0  0  0  0
 20 22  2  0  0  0  0
 17 18  1  0  0  0  0
 17 19  1  0  0  0  0
 17 20  1  0  0  0  0
 14 15  1  0  0  0  0
 14 16  1  0  0  0  0
 14 17  1  0  0  0  0
 11 12  1  0  0  0  0
 11 13  1  0  0  0  0
 11 14  1  0  0  0  0
  9 10  1  0  0  0  0
  9 11  1  0  0  0  0
  9 29  1  0  0  0  0
  7  8  1  0  0  0  0
  7  9  1  0  0  0  0
 33 34  1  0  0  0  0
 33 35  1  0  0  0  0
 33 36  1  0  0  0  0
 31 32  1  0  0  0  0
 31 33  1  0  0  0  0
M  CHG  1  20   1
M  END
$$$$
default_name
  -OEChem-02102213163D

 36 35  0     1  0  0  0  0  0999 V2000
   -4.2256   -3.6731    1.8584 H   0  0  0  0  0  0  0  0  0  0  0  0
   -4.2396   -2.6781    1.4144 C   0  0  0  0  0  0  0  0  0  0  0  0
   -4.9506   -2.0521    1.9514 H   0  0  0  0  0  0  0  0  0  0  0  0
   -4.5266   -2.7521    0.3674 H   0  0  0  0  0  0  0  0  0  0  0  0
   -2.8576   -2.0761    1.5184 C   0  0  0  0  0  0  0  0  0  0  0  0
   -1.9456   -2.7051    2.0404 O   0  0  0  0  0  0  0  0  0  0  0  0
   -2.6926   -0.8481    1.0174 N   0  0  0  0  0  0  0  0  0  0  0  0
   -3.4926   -0.3971    0.5954 H   0  0  0  0  0  0  0  0  0  0  0  0
   -1.4216   -0.1071    1.0434 C   0  0  1  0  0  0  0  0  0  0  0  0
   -0.6709   -0.6930    0.5106 H   0  0  0  0  0  0  0  0  0  0  0  0
   -1.6221    1.2315    0.3051 C   0  0  0  0  0  0  0  0  0  0  0  0
   -2.5588    1.6790    0.6433 H   0  0  0  0  0  0  0  0  0  0  0  0
   -0.8076    1.9099    0.5686 H   0  0  0  0  0  0  0  0  0  0  0  0
   -1.6815    1.0843   -1.2223 C   0  0  0  0  0  0  0  0  0  0  0  0
   -2.7120    1.1920   -1.5635 H   0  0  0  0  0  0  0  0  0  0  0  0
   -1.0665    1.8578   -1.6834 H   0  0  0  0  0  0  0  0  0  0  0  0
   -1.1572   -0.2979   -1.6348 C   0  0  0  0  0  0  0  0  0  0  0  0
   -0.1347   -0.4072   -1.2662 H   0  0  0  0  0  0  0  0  0  0  0  0
   -1.7839   -1.0611   -1.1676 H   0  0  0  0  0  0  0  0  0  0  0  0
   -1.1738   -0.4753   -3.1014 N   0  3  0  0  0  0  0  0  0  0  0  0
   -1.5564    0.2804   -3.6436 H   0  0  0  0  0  0  0  0  0  0  0  0
   -0.7341   -1.5308   -3.7660 C   0  0  0  0  0  0  0  0  0  0  0  0
   -0.2197   -2.5653   -3.1622 N   0  0  0  0  0  0  0  0  0  0  0  0
   -0.1551   -2.5575   -2.1597 H   0  0  0  0  0  0  0  0  0  0  0  0
    0.1089   -3.3584   -3.6816 H   0  0  0  0  0  0  0  0  0  0  0  0
   -0.8046   -1.5681   -5.0664 N   0  0  0  0  0  0  0  0  0  0  0  0
   -1.1932   -0.7937   -5.5766 H   0  0  0  0  0  0  0  0  0  0  0  0
   -0.4697   -2.3707   -5.5667 H   0  0  0  0  0  0  0  0  0  0  0  0
   -0.9523    0.1012    2.4848 C   0  0  0  0  0  0  0  0  0  0  0  0
    0.2133   -0.1319    2.7814 O   0  0  0  0  0  0  0  0  0  0  0  0
   -1.8684    0.5006    3.3725 N   0  0  0  0  0  0  0  0  0  0  0  0
   -2.7946    0.7048    3.0343 H   0  0  0  0  0  0  0  0  0  0  0  0
   -1.5848    0.7472    4.7873 C   0  0  0  0  0  0  0  0  0  0  0  0
   -0.8819    1.5774    4.8838 H   0  0  0  0  0  0  0  0  0  0  0  0
   -2.5030    0.9948    5.3214 H   0  0  0  0  0  0  0  0  0  0  0  0
   -1.1344   -0.1399    5.2381 H   0  0  0  0  0  0  0  0  0  0  0  0
  5  6  2  0  0  0  0
  5  7  1  0  0  0  0
  2  3  1  0  0  0  0
  2  4  1  0  0  0  0
  2  5  1  0  0  0  0
  1  2  1  0  0  0  0
 29 30  2  0  0  0  0
 29 31  1  0  0  0  0
 26 27  1  0  0  0  0
 26 28  1  0  0  0  0
 23 24  1  0  0  0  0
 23 25  1  0  0  0  0
 22 23  1  0  0  0  0
 22 26  1  0  0  0  0
 20 21  1  0  0  0  0
 20 22  2  0  0  0  0
 17 18  1  0  0  0  0
 17 19  1  0  0  0  0
 17 20  1  0  0  0  0
 14 15  1  0  0  0  0
 14 16  1  0  0  0  0
 14 17  1  0  0  0  0
 11 12  1  0  0  0  0
 11 13  1  0  0  0  0
 11 14  1  0  0  0  0
  9 10  1  0  0  0  0
  9 11  1  0  0  0  0
  9 29  1  0  0  0  0
  7  8  1  0  0  0  0
  7  9  1  0  0  0  0
 33 34  1  0  0  0  0
 33 35  1  0  0  0  0
 33 36  1  0  0  0  0
 31 32  1  0  0  0  0
 31 33  1  0  0  0  0
M  CHG  1  20   1
M  END
$$$$
default_name
  -OEChem-02102213163D

 36 35  0     1  0  0  0  0  0999 V2000
   -4.2256   -3.6731    1.8584 H   0  0  0  0  0  0  0  0  0  0  0  0
   -4.2396   -2.6781    1.4144 C   0  0  0  0  0  0  0  0  0  0  0  0
   -4.9506   -2.0521    1.9514 H   0  0  0  0  0  0  0  0  0  0  0  0
   -4.5266   -2.7521    0.3674 H   0  0  0  0  0  0  0  0  0  0  0  0
   -2.8576   -2.0761    1.5184 C   0  0  0  0  0  0  0  0  0  0  0  0
   -1.9456   -2.7051    2.0404 O   0  0  0  0  0  0  0  0  0  0  0  0
   -2.6926   -0.8481    1.0174 N   0  0  0  0  0  0  0  0  0  0  0  0
   -3.4926   -0.3971    0.5954 H   0  0  0  0  0  0  0  0  0  0  0  0
   -1.4216   -0.1071    1.0434 C   0  0  1  0  0  0  0  0  0  0  0  0
   -0.6709   -0.6930    0.5106 H   0  0  0  0  0  0  0  0  0  0  0  0
   -1.6221    1.2315    0.3051 C   0  0  0  0  0  0  0  0  0  0  0  0
   -2.5588    1.6790    0.6433 H   0  0  0  0  0  0  0  0  0  0  0  0
   -0.8076    1.9099    0.5686 H   0  0  0  0  0  0  0  0  0  0  0  0
   -1.6815    1.0843   -1.2223 C   0  0  0  0  0  0  0  0  0  0  0  0
   -2.6412    1.4490   -1.5910 H   0  0  0  0  0  0  0  0  0  0  0  0
   -0.8774    1.6674   -1.6725 H   0  0  0  0  0  0  0  0  0  0  0  0
   -1.5213   -0.3916   -1.6116 C   0  0  0  0  0  0  0  0  0  0  0  0
   -0.5704   -0.7555   -1.2156 H   0  0  0  0  0  0  0  0  0  0  0  0
   -2.3343   -0.9616   -1.1557 H   0  0  0  0  0  0  0  0  0  0  0  0
   -1.5486   -0.5782   -3.0770 N   0  3  0  0  0  0  0  0  0  0  0  0
   -1.7108    0.2432   -3.6340 H   0  0  0  0  0  0  0  0  0  0  0  0
   -1.3801   -1.7200   -3.7227 C   0  0  0  0  0  0  0  0  0  0  0  0
   -1.1639   -2.8439   -3.0987 N   0  0  0  0  0  0  0  0  0  0  0  0
   -1.1230   -2.8398   -2.0948 H   0  0  0  0  0  0  0  0  0  0  0  0
   -1.0384   -3.7017   -3.6039 H   0  0  0  0  0  0  0  0  0  0  0  0
   -1.4272   -1.7552   -5.0242 N   0  0  0  0  0  0  0  0  0  0  0  0
   -1.5912   -0.9137   -5.5496 H   0  0  0  0  0  0  0  0  0  0  0  0
   -1.2988   -2.6235   -5.5101 H   0  0  0  0  0  0  0  0  0  0  0  0
   -0.9523    0.1012    2.4848 C   0  0  0  0  0  0  0  0  0  0  0  0
    0.2133   -0.1319    2.7814 O   0  0  0  0  0  0  0  0  0  0  0  0
   -1.8684    0.5006    3.3725 N   0  0  0  0  0  0  0  0  0  0  0  0
   -2.7946    0.7048    3.0343 H   0  0  0  0  0  0  0  0  0  0  0  0
   -1.5848    0.7472    4.7873 C   0  0  0  0  0  0  0  0  0  0  0  0
   -0.8819    1.5774    4.8838 H   0  0  0  0  0  0  0  0  0  0  0  0
   -2.5030    0.9948    5.3214 H   0  0  0  0  0  0  0  0  0  0  0  0
   -1.1344   -0.1399    5.2381 H   0  0  0  0  0  0  0  0  0  0  0  0
  5  6  2  0  0  0  0
  5  7  1  0  0  0  0
  2  3  1  0  0  0  0
  2  4  1  0  0  0  0
  2  5  1  0  0  0  0
  1  2  1  0  0  0  0
 29 30  2  0  0  0  0
 29 31  1  0  0  0  0
 26 27  1  0  0  0  0
 26 28  1  0  0  0  0
 23 24  1  0  0  0  0
 23 25  1  0  0  0  0
 22 23  1  0  0  0  0
 22 26  1  0  0  0  0
 20 21  1  0  0  0  0
 20 22  2  0  0  0  0
 17 18  1  0  0  0  0
 17 19  1  0  0  0  0
 17 20  1  0  0  0  0
 14 15  1  0  0  0  0
 14 16  1  0  0  0  0
 14 17  1  0  0  0  0
 11 12  1  0  0  0  0
 11 13  1  0  0  0  0
 11 14  1  0  0  0  0
  9 10  1  0  0  0  0
  9 11  1  0  0  0  0
  9 29  1  0  0  0  0
  7  8  1  0  0  0  0
  7  9  1  0  0  0  0
 33 34  1  0  0  0  0
 33 35  1  0  0  0  0
 33 36  1  0  0  0  0
 31 32  1  0  0  0  0
 31 33  1  0  0  0  0
M  CHG  1  20   1
M  END
$$$$
default_name
  -OEChem-02102213163D

 36 35  0     1  0  0  0  0  0999 V2000
   -4.2256   -3.6731    1.8584 H   0  0  0  0  0  0  0  0  0  0  0  0
   -4.2396   -2.6781    1.4144 C   0  0  0  0  0  0  0  0  0  0  0  0
   -4.9506   -2.0521    1.9514 H   0  0  0  0  0  0  0  0  0  0  0  0
   -4.5266   -2.7521    0.3674 H   0  0  0  0  0  0  0  0  0  0  0  0
   -2.8576   -2.0761    1.5184 C   0  0  0  0  0  0  0  0  0  0  0  0
   -1.9456   -2.7051    2.0404 O   0  0  0  0  0  0  0  0  0  0  0  0
   -2.6926   -0.8481    1.0174 N   0  0  0  0  0  0  0  0  0  0  0  0
   -3.4926   -0.3971    0.5954 H   0  0  0  0  0  0  0  0  0  0  0  0
   -1.4216   -0.1071    1.0434 C   0  0  1  0  0  0  0  0  0  0  0  0
   -0.6709   -0.6930    0.5106 H   0  0  0  0  0  0  0  0  0  0  0  0
   -1.6221    1.2315    0.3051 C   0  0  0  0  0  0  0  0  0  0  0  0
   -2.5588    1.6790    0.6433 H   0  0  0  0  0  0  0  0  0  0  0  0
   -0.8076    1.9099    0.5686 H   0  0  0  0  0  0  0  0  0  0  0  0
   -1.6815    1.0843   -1.2223 C   0  0  0  0  0  0  0  0  0  0  0  0
   -2.5060    1.6787   -1.6184 H   0  0  0  0  0  0  0  0  0  0  0  0
   -0.7440    1.4348   -1.6552 H   0  0  0  0  0  0  0  0  0  0  0  0
   -1.8978   -0.3881   -1.5973 C   0  0  0  0  0  0  0  0  0  0  0  0
   -1.0822   -0.9791   -1.1742 H   0  0  0  0  0  0  0  0  0  0  0  0
   -2.8406   -0.7236   -1.1590 H   0  0  0  0  0  0  0  0  0  0  0  0
   -1.9378   -0.5809   -3.0616 N   0  3  0  0  0  0  0  0  0  0  0  0
   -1.8698    0.2472   -3.6282 H   0  0  0  0  0  0  0  0  0  0  0  0
   -2.0538   -1.7360   -3.6949 C   0  0  0  0  0  0  0  0  0  0  0  0
   -2.1491   -2.8693   -3.0579 N   0  0  0  0  0  0  0  0  0  0  0  0
   -2.1321   -2.8626   -2.0534 H   0  0  0  0  0  0  0  0  0  0  0  0
   -2.2370   -3.7371   -3.5539 H   0  0  0  0  0  0  0  0  0  0  0  0
   -2.0779   -1.7751   -4.9969 N   0  0  0  0  0  0  0  0  0  0  0  0
   -2.0072   -0.9269   -5.5321 H   0  0  0  0  0  0  0  0  0  0  0  0
   -2.1660   -2.6536   -5.4735 H   0  0  0  0  0  0  0  0  0  0  0  0
   -0.9523    0.1012    2.4848 C   0  0  0  0  0  0  0  0  0  0  0  0
    0.2133   -0.1319    2.7814 O   0  0  0  0  0  0  0  0  0  0  0  0
   -1.8684    0.5006    3.3725 N   0  0  0  0  0  0  0  0  0  0  0  0
   -2.7946    0.7048    3.0343 H   0  0  0  0  0  0  0  0  0  0  0  0
   -1.5848    0.7472    4.7873 C   0  0  0  0  0  0  0  0  0  0  0  0
   -0.8819    1.5774    4.8838 H   0  0  0  0  0  0  0  0  0  0  0  0
   -2.5030    0.9948    5.3214 H   0  0  0  0  0  0  0  0  0  0  0  0
   -1.1344   -0.1399    5.2381 H   0  0  0  0  0  0  0  0  0  0  0  0
  5  6  2  0  0  0  0
  5  7  1  0  0  0  0
  2  3  1  0  0  0  0
  2  4  1  0  0  0  0
  2  5  1  0  0  0  0
  1  2  1  0  0  0  0
 29 30  2  0  0  0  0
 29 31  1  0  0  0  0
 26 27  1  0  0  0  0
 26 28  1  0  0  0  0
 23 24  1  0  0  0  0
 23 25  1  0  0  0  0
 22 23  1  0  0  0  0
 22 26  1  0  0  0  0
 20 21  1  0  0  0  0
 20 22  2  0  0  0  0
 17 18  1  0  0  0  0
 17 19  1  0  0  0  0
 17 20  1  0  0  0  0
 14 15  1  0  0  0  0
 14 16  1  0  0  0  0
 14 17  1  0  0  0  0
 11 12  1  0  0  0  0
 11 13  1  0  0  0  0
 11 14  1  0  0  0  0
  9 10  1  0  0  0  0
  9 11  1  0  0  0  0
  9 29  1  0  0  0  0
  7  8  1  0  0  0  0
  7  9  1  0  0  0  0
 33 34  1  0  0  0  0
 33 35  1  0  0  0  0
 33 36  1  0  0  0  0
 31 32  1  0  0  0  0
 31 33  1  0  0  0  0
M  CHG  1  20   1
M  END
$$$$
default_name
  -OEChem-02102213163D

 36 35  0     1  0  0  0  0  0999 V2000
   -4.2256   -3.6731    1.8584 H   0  0  0  0  0  0  0  0  0  0  0  0
   -4.2396   -2.6781    1.4144 C   0  0  0  0  0  0  0  0  0  0  0  0
   -4.9506   -2.0521    1.9514 H   0  0  0  0  0  0  0  0  0  0  0  0
   -4.5266   -2.7521    0.3674 H   0  0  0  0  0  0  0  0  0  0  0  0
   -2.8576   -2.0761    1.5184 C   0  0  0  0  0  0  0  0  0  0  0  0
   -1.9456   -2.7051    2.0404 O   0  0  0  0  0  0  0  0  0  0  0  0
   -2.6926   -0.8481    1.0174 N   0  0  0  0  0  0  0  0  0  0  0  0
   -3.4926   -0.3971    0.5954 H   0  0  0  0  0  0  0  0  0  0  0  0
   -1.4216   -0.1071    1.0434 C   0  0  1  0  0  0  0  0  0  0  0  0
   -0.6709   -0.6930    0.5106 H   0  0  0  0  0  0  0  0  0  0  0  0
   -1.6221    1.2315    0.3051 C   0  0  0  0  0  0  0  0  0  0  0  0
   -2.5588    1.6790    0.6433 H   0  0  0  0  0  0  0  0  0  0  0  0
   -0.8076    1.9099    0.5686 H   0  0  0  0  0  0  0  0  0  0  0  0
   -1.6815    1.0843   -1.2223 C   0  0  0  0  0  0  0  0  0  0  0  0
   -2.3155    1.8655   -1.6438 H   0  0  0  0  0  0  0  0  0  0  0  0
   -0.6755    1.1761   -1.6330 H   0  0  0  0  0  0  0  0  0  0  0  0
   -2.2608   -0.2877   -1.5929 C   0  0  0  0  0  0  0  0  0  0  0  0
   -1.6352   -1.0630   -1.1446 H   0  0  0  0  0  0  0  0  0  0  0  0
   -3.2683   -0.3635   -1.1771 H   0  0  0  0  0  0  0  0  0  0  0  0
   -2.3147   -0.4831   -3.0563 N   0  3  0  0  0  0  0  0  0  0  0  0
   -2.0225    0.2920   -3.6266 H   0  0  0  0  0  0  0  0  0  0  0  0
   -2.7095   -1.5778   -3.6847 C   0  0  0  0  0  0  0  0  0  0  0  0
   -3.1084   -2.6398   -3.0427 N   0  0  0  0  0  0  0  0  0  0  0  0
   -3.1138   -2.6244   -2.0382 H   0  0  0  0  0  0  0  0  0  0  0  0
   -3.4052   -3.4623   -3.5350 H   0  0  0  0  0  0  0  0  0  0  0  0
   -2.7122   -1.6266   -4.9866 N   0  0  0  0  0  0  0  0  0  0  0  0
   -2.4128   -0.8323   -5.5254 H   0  0  0  0  0  0  0  0  0  0  0  0
   -3.0124   -2.4591   -5.4593 H   0  0  0  0  0  0  0  0  0  0  0  0
   -0.9523    0.1012    2.4848 C   0  0  0  0  0  0  0  0  0  0  0  0
    0.2133   -0.1319    2.7814 O   0  0  0  0  0  0  0  0  0  0  0  0
   -1.8684    0.5006    3.3725 N   0  0  0  0  0  0  0  0  0  0  0  0
   -2.7946    0.7048    3.0343 H   0  0  0  0  0  0  0  0  0  0  0  0
   -1.5848    0.7472    4.7873 C   0  0  0  0  0  0  0  0  0  0  0  0
   -0.8819    1.5774    4.8838 H   0  0  0  0  0  0  0  0  0  0  0  0
   -2.5030    0.9948    5.3214 H   0  0  0  0  0  0  0  0  0  0  0  0
   -1.1344   -0.1399    5.2381 H   0  0  0  0  0  0  0  0  0  0  0  0
  5  6  2  0  0  0  0
  5  7  1  0  0  0  0
  2  3  1  0  0  0  0
  2  4  1  0  0  0  0
  2  5  1  0  0  0  0
  1  2  1  0  0  0  0
 29 30  2  0  0  0  0
 29 31  1  0  0  0  0
 26 27  1  0  0  0  0
 26 28  1  0  0  0  0
 23 24  1  0  0  0  0
 23 25  1  0  0  0  0
 22 23  1  0  0  0  0
 22 26  1  0  0  0  0
 20 21  1  0  0  0  0
 20 22  2  0  0  0  0
 17 18  1  0  0  0  0
 17 19  1  0  0  0  0
 17 20  1  0  0  0  0
 14 15  1  0  0  0  0
 14 16  1  0  0  0  0
 14 17  1  0  0  0  0
 11 12  1  0  0  0  0
 11 13  1  0  0  0  0
 11 14  1  0  0  0  0
  9 10  1  0  0  0  0
  9 11  1  0  0  0  0
  9 29  1  0  0  0  0
  7  8  1  0  0  0  0
  7  9  1  0  0  0  0
 33 34  1  0  0  0  0
 33 35  1  0  0  0  0
 33 36  1  0  0  0  0
 31 32  1  0  0  0  0
 31 33  1  0  0  0  0
M  CHG  1  20   1
M  END
$$$$
default_name
  -OEChem-02102213163D

 36 35  0     1  0  0  0  0  0999 V2000
   -4.2256   -3.6731    1.8584 H   0  0  0  0  0  0  0  0  0  0  0  0
   -4.2396   -2.6781    1.4144 C   0  0  0  0  0  0  0  0  0  0  0  0
   -4.9506   -2.0521    1.9514 H   0  0  0  0  0  0  0  0  0  0  0  0
   -4.5266   -2.7521    0.3674 H   0  0  0  0  0  0  0  0  0  0  0  0
   -2.8576   -2.0761    1.5184 C   0  0  0  0  0  0  0  0  0  0  0  0
   -1.9456   -2.7051    2.0404 O   0  0  0  0  0  0  0  0  0  0  0  0
   -2.6926   -0.8481    1.0174 N   0  0  0  0  0  0  0  0  0  0  0  0
   -3.4926   -0.3971    0.5954 H   0  0  0  0  0  0  0  0  0  0  0  0
   -1.4216   -0.1071    1.0434 C   0  0  1  0  0  0  0  0  0  0  0  0
   -0.6709   -0.6930    0.5106 H   0  0  0  0  0  0  0  0  0  0  0  0
   -1.6221    1.2315    0.3051 C   0  0  0  0  0  0  0  0  0  0  0  0
   -2.5588    1.6790    0.6433 H   0  0  0  0  0  0  0  0  0  0  0  0
   -0.8076    1.9099    0.5686 H   0  0  0  0  0  0  0  0  0  0  0  0
   -1.6815    1.0843   -1.2223 C   0  0  0  0  0  0  0  0  0  0  0  0
   -2.0828    1.9967   -1.6655 H   0  0  0  0  0  0  0  0  0  0  0  0
   -0.6764    0.9087   -1.6072 H   0  0  0  0  0  0  0  0  0  0  0  0
   -2.5858   -0.0972   -1.5986 C   0  0  0  0  0  0  0  0  0  0  0  0
   -2.1917   -1.0014   -1.1289 H   0  0  0  0  0  0  0  0  0  0  0  0
   -3.5883    0.0943   -1.2087 H   0  0  0  0  0  0  0  0  0  0  0  0
   -2.6538   -0.2915   -3.0616 N   0  3  0  0  0  0  0  0  0  0  0  0
   -2.1584    0.3746   -3.6292 H   0  0  0  0  0  0  0  0  0  0  0  0
   -3.3023   -1.2560   -3.6926 C   0  0  0  0  0  0  0  0  0  0  0  0
   -3.9762   -2.1711   -3.0541 N   0  0  0  0  0  0  0  0  0  0  0  0
   -4.0011   -2.1414   -2.0502 H   0  0  0  0  0  0  0  0  0  0  0  0
   -4.4632   -2.8960   -3.5484 H   0  0  0  0  0  0  0  0  0  0  0  0
   -3.2869   -1.3198   -4.9938 N   0  0  0  0  0  0  0  0  0  0  0  0
   -2.7805   -0.6365   -5.5300 H   0  0  0  0  0  0  0  0  0  0  0  0
   -3.7802   -2.0532   -5.4686 H   0  0  0  0  0  0  0  0  0  0  0  0
   -0.9523    0.1012    2.4848 C   0  0  0  0  0  0  0  0  0  0  0  0
    0.2133   -0.1319    2.7814 O   0  0  0  0  0  0  0  0  0  0  0  0
   -1.8684    0.5006    3.3725 N   0  0  0  0  0  0  0  0  0  0  0  0
   -2.7946    0.7048    3.0343 H   0  0  0  0  0  0  0  0  0  0  0  0
   -1.5848    0.7472    4.7873 C   0  0  0  0  0  0  0  0  0  0  0  0
   -0.8819    1.5774    4.8838 H   0  0  0  0  0  0  0  0  0  0  0  0
   -2.5030    0.9948    5.3214 H   0  0  0  0  0  0  0  0  0  0  0  0
   -1.1344   -0.1399    5.2381 H   0  0  0  0  0  0  0  0  0  0  0  0
  5  6  2  0  0  0  0
  5  7  1  0  0  0  0
  2  3  1  0  0  0  0
  2  4  1  0  0  0  0
  2  5  1  0  0  0  0
  1  2  1  0  0  0  0
 29 30  2  0  0  0  0
 29 31  1  0  0  0  0
 26 27  1  0  0  0  0
 26 28  1  0  0  0  0
 23 24  1  0  0  0  0
 23 25  1  0  0  0  0
 22 23  1  0  0  0  0
 22 26  1  0  0  0  0
 20 21  1  0  0  0  0
 20 22  2  0  0  0  0
 17 18  1  0  0  0  0
 17 19  1  0  0  0  0
 17 20  1  0  0  0  0
 14 15  1  0  0  0  0
 14 16  1  0  0  0  0
 14 17  1  0  0  0  0
 11 12  1  0  0  0  0
 11 13  1  0  0  0  0
 11 14  1  0  0  0  0
  9 10  1  0  0  0  0
  9 11  1  0  0  0  0
  9 29  1  0  0  0  0
  7  8  1  0  0  0  0
  7  9  1  0  0  0  0
 33 34  1  0  0  0  0
 33 35  1  0  0  0  0
 33 36  1  0  0  0  0
 31 32  1  0  0  0  0
 31 33  1  0  0  0  0
M  CHG  1  20   1
M  END
$$$$
default_name
  -OEChem-02102213163D

 36 35  0     1  0  0  0  0  0999 V2000
   -4.2256   -3.6731    1.8584 H   0  0  0  0  0  0  0  0  0  0  0  0
   -4.2396   -2.6781    1.4144 C   0  0  0  0  0  0  0  0  0  0  0  0
   -4.9506   -2.0521    1.9514 H   0  0  0  0  0  0  0  0  0  0  0  0
   -4.5266   -2.7521    0.3674 H   0  0  0  0  0  0  0  0  0  0  0  0
   -2.8576   -2.0761    1.5184 C   0  0  0  0  0  0  0  0  0  0  0  0
   -1.9456   -2.7051    2.0404 O   0  0  0  0  0  0  0  0  0  0  0  0
   -2.6926   -0.8481    1.0174 N   0  0  0  0  0  0  0  0  0  0  0  0
   -3.4926   -0.3971    0.5954 H   0  0  0  0  0  0  0  0  0  0  0  0
   -1.4216   -0.1071    1.0434 C   0  0  1  0  0  0  0  0  0  0  0  0
   -0.6709   -0.6930    0.5106 H   0  0  0  0  0  0  0  0  0  0  0  0
   -1.6221    1.2315    0.3051 C   0  0  0  0  0  0  0  0  0  0  0  0
   -2.5588    1.6790    0.6433 H   0  0  0  0  0  0  0  0  0  0  0  0
   -0.8076    1.9099    0.5686 H   0  0  0  0  0  0  0  0  0  0  0  0
   -1.6815    1.0843   -1.2223 C   0  0  0  0  0  0  0  0  0  0  0  0
   -1.8237    2.0633   -1.6820 H   0  0  0  0  0  0  0  0  0  0  0  0
   -0.7468    0.6509   -1.5796 H   0  0  0  0  0  0  0  0  0  0  0  0
   -2.8505    0.1703   -1.6141 C   0  0  0  0  0  0  0  0  0  0  0  0
   -2.7137   -0.7984   -1.1282 H   0  0  0  0  0  0  0  0  0  0  0  0
   -3.7787    0.6185   -1.2518 H   0  0  0  0  0  0  0  0  0  0  0  0
   -2.9318   -0.0193   -3.0770 N   0  3  0  0  0  0  0  0  0  0  0  0
   -2.2684    0.4894   -3.6360 H   0  0  0  0  0  0  0  0  0  0  0  0
   -3.7919   -0.7927   -3.7183 C   0  0  0  0  0  0  0  0  0  0  0  0
   -4.6936   -1.4950   -3.0914 N   0  0  0  0  0  0  0  0  0  0  0  0
   -4.7336   -1.4466   -2.0887 H   0  0  0  0  0  0  0  0  0  0  0  0
   -5.3391   -2.0767   -3.5933 H   0  0  0  0  0  0  0  0  0  0  0  0
   -3.7629   -0.8756   -5.0181 N   0  0  0  0  0  0  0  0  0  0  0  0
   -3.0851   -0.3527   -5.5455 H   0  0  0  0  0  0  0  0  0  0  0  0
   -4.4171   -1.4636   -5.5006 H   0  0  0  0  0  0  0  0  0  0  0  0
   -0.9523    0.1012    2.4848 C   0  0  0  0  0  0  0  0  0  0  0  0
    0.2133   -0.1319    2.7814 O   0  0  0  0  0  0  0  0  0  0  0  0
   -1.8684    0.5006    3.3725 N   0  0  0  0  0  0  0  0  0  0  0  0
   -2.7946    0.7048    3.0343 H   0  0  0  0  0  0  0  0  0  0  0  0
   -1.5848    0.7472    4.7873 C   0  0  0  0  0  0  0  0  0  0  0  0
   -0.8819    1.5774    4.8838 H   0  0  0  0  0  0  0  0  0  0  0  0
   -2.5030    0.9948    5.3214 H   0  0  0  0  0  0  0  0  0  0  0  0
   -1.1344   -0.1399    5.2381 H   0  0  0  0  0  0  0  0  0  0  0  0
  5  6  2  0  0  0  0
  5  7  1  0  0  0  0
  2  3  1  0  0  0  0
  2  4  1  0  0  0  0
  2  5  1  0  0  0  0
  1  2  1  0  0  0  0
 29 30  2  0  0  0  0
 29 31  1  0  0  0  0
 26 27  1  0  0  0  0
 26 28  1  0  0  0  0
 23 24  1  0  0  0  0
 23 25  1  0  0  0  0
 22 23  1  0  0  0  0
 22 26  1  0  0  0  0
 20 21  1  0  0  0  0
 20 22  2  0  0  0  0
 17 18  1  0  0  0  0
 17 19  1  0  0  0  0
 17 20  1  0  0  0  0
 14 15  1  0  0  0  0
 14 16  1  0  0  0  0
 14 17  1  0  0  0  0
 11 12  1  0  0  0  0
 11 13  1  0  0  0  0
 11 14  1  0  0  0  0
  9 10  1  0  0  0  0
  9 11  1  0  0  0  0
  9 29  1  0  0  0  0
  7  8  1  0  0  0  0
  7  9  1  0  0  0  0
 33 34  1  0  0  0  0
 33 35  1  0  0  0  0
 33 36  1  0  0  0  0
 31 32  1  0  0  0  0
 31 33  1  0  0  0  0
M  CHG  1  20   1
M  END
$$$$
default_name
  -OEChem-02102213163D

 36 35  0     1  0  0  0  0  0999 V2000
   -4.2256   -3.6731    1.8584 H   0  0  0  0  0  0  0  0  0  0  0  0
   -4.2396   -2.6781    1.4144 C   0  0  0  0  0  0  0  0  0  0  0  0
   -4.9506   -2.0521    1.9514 H   0  0  0  0  0  0  0  0  0  0  0  0
   -4.5266   -2.7521    0.3674 H   0  0  0  0  0  0  0  0  0  0  0  0
   -2.8576   -2.0761    1.5184 C   0  0  0  0  0  0  0  0  0  0  0  0
   -1.9456   -2.7051    2.0404 O   0  0  0  0  0  0  0  0  0  0  0  0
   -2.6926   -0.8481    1.0174 N   0  0  0  0  0  0  0  0  0  0  0  0
   -3.4926   -0.3971    0.5954 H   0  0  0  0  0  0  0  0  0  0  0  0
   -1.4216   -0.1071    1.0434 C   0  0  1  0  0  0  0  0  0  0  0  0
   -0.6709   -0.6930    0.5106 H   0  0  0  0  0  0  0  0  0  0  0  0
   -1.6221    1.2315    0.3051 C   0  0  0  0  0  0  0  0  0  0  0  0
   -2.5588    1.6790    0.6433 H   0  0  0  0  0  0  0  0  0  0  0  0
   -0.8076    1.9099    0.5686 H   0  0  0  0  0  0  0  0  0  0  0  0
   -1.6815    1.0843   -1.2223 C   0  0  0  0  0  0  0  0  0  0  0  0
   -1.5559    2.0608   -1.6922 H   0  0  0  0  0  0  0  0  0  0  0  0
   -0.8818    0.4203   -1.5521 H   0  0  0  0  0  0  0  0  0  0  0  0
   -3.0369    0.4968   -1.6383 C   0  0  0  0  0  0  0  0  0  0  0  0
   -3.1657   -0.4680   -1.1424 H   0  0  0  0  0  0  0  0  0  0  0  0
   -3.8266    1.1735   -1.3035 H   0  0  0  0  0  0  0  0  0  0  0  0
   -3.1299    0.3151   -3.1015 N   0  3  0  0  0  0  0  0  0  0  0  0
   -2.3450    0.6285   -3.6465 H   0  0  0  0  0  0  0  0  0  0  0  0
   -4.1449   -0.2194   -3.7598 C   0  0  0  0  0  0  0  0  0  0  0  0
   -5.2115   -0.6577   -3.1519 N   0  0  0  0  0  0  0  0  0  0  0  0
   -5.2612   -0.5873   -2.1509 H   0  0  0  0  0  0  0  0  0  0  0  0
   -5.9730   -1.0603   -3.6666 H   0  0  0  0  0  0  0  0  0  0  0  0
   -4.1076   -0.3242   -5.0578 N   0  0  0  0  0  0  0  0  0  0  0  0
   -3.3058   -0.0004   -5.5709 H   0  0  0  0  0  0  0  0  0  0  0  0
   -4.8797   -0.7304   -5.5533 H   0  0  0  0  0  0  0  0  0  0  0  0
   -0.9523    0.1012    2.4848 C   0  0  0  0  0  0  0  0  0  0  0  0
    0.2133   -0.1319    2.7814 O   0  0  0  0  0  0  0  0  0  0  0  0
   -1.8684    0.5006    3.3725 N   0  0  0  0  0  0  0  0  0  0  0  0
   -2.7946    0.7048    3.0343 H   0  0  0  0  0  0  0  0  0  0  0  0
   -1.5848    0.7472    4.7873 C   0  0  0  0  0  0  0  0  0  0  0  0
   -0.8819    1.5774    4.8838 H   0  0  0  0  0  0  0  0  0  0  0  0
   -2.5030    0.9948    5.3214 H   0  0  0  0  0  0  0  0  0  0  0  0
   -1.1344   -0.1399    5.2381 H   0  0  0  0  0  0  0  0  0  0  0  0
  5  6  2  0  0  0  0
  5  7  1  0  0  0  0
  2  3  1  0  0  0  0
  2  4  1  0  0  0  0
  2  5  1  0  0  0  0
  1  2  1  0  0  0  0
 29 30  2  0  0  0  0
 29 31  1  0  0  0  0
 26 27  1  0  0  0  0
 26 28  1  0  0  0  0
 23 24  1  0  0  0  0
 23 25  1  0  0  0  0
 22 23  1  0  0  0  0
 22 26  1  0  0  0  0
 20 21  1  0  0  0  0
 20 22  2  0  0  0  0
 17 18  1  0  0  0  0
 17 19  1  0  0  0  0
 17 20  1  0  0  0  0
 14 15  1  0  0  0  0
 14 16  1  0  0  0  0
 14 17  1  0  0  0  0
 11 12  1  0  0  0  0
 11 13  1  0  0  0  0
 11 14  1  0  0  0  0
  9 10  1  0  0  0  0
  9 11  1  0  0  0  0
  9 29  1  0  0  0  0
  7  8  1  0  0  0  0
  7  9  1  0  0  0  0
 33 34  1  0  0  0  0
 33 35  1  0  0  0  0
 33 36  1  0  0  0  0
 31 32  1  0  0  0  0
 31 33  1  0  0  0  0
M  CHG  1  20   1
M  END
$$$$
default_name
  -OEChem-02102213163D

 36 35  0     1  0  0  0  0  0999 V2000
   -4.2256   -3.6731    1.8584 H   0  0  0  0  0  0  0  0  0  0  0  0
   -4.2396   -2.6781    1.4144 C   0  0  0  0  0  0  0  0  0  0  0  0
   -4.9506   -2.0521    1.9514 H   0  0  0  0  0  0  0  0  0  0  0  0
   -4.5266   -2.7521    0.3674 H   0  0  0  0  0  0  0  0  0  0  0  0
   -2.8576   -2.0761    1.5184 C   0  0  0  0  0  0  0  0  0  0  0  0
   -1.9456   -2.7051    2.0404 O   0  0  0  0  0  0  0  0  0  0  0  0
   -2.6926   -0.8481    1.0174 N   0  0  0  0  0  0  0  0  0  0  0  0
   -3.4926   -0.3971    0.5954 H   0  0  0  0  0  0  0  0  0  0  0  0
   -1.4216   -0.1071    1.0434 C   0  0  1  0  0  0  0  0  0  0  0  0
   -0.6709   -0.6930    0.5106 H   0  0  0  0  0  0  0  0  0  0  0  0
   -1.6221    1.2315    0.3051 C   0  0  0  0  0  0  0  0  0  0  0  0
   -2.5588    1.6790    0.6433 H   0  0  0  0  0  0  0  0  0  0  0  0
   -0.8076    1.9099    0.5686 H   0  0  0  0  0  0  0  0  0  0  0  0
   -1.6815    1.0843   -1.2223 C   0  0  0  0  0  0  0  0  0  0  0  0
   -1.2977    1.9893   -1.6954 H   0  0  0  0  0  0  0  0  0  0  0  0
   -1.0723    0.2326   -1.5266 H   0  0  0  0  0  0  0  0  0  0  0  0
   -3.1323    0.8599   -1.6696 C   0  0  0  0  0  0  0  0  0  0  0  0
   -3.5169   -0.0327   -1.1707 H   0  0  0  0  0  0  0  0  0  0  0  0
   -3.7288    1.7214   -1.3601 H   0  0  0  0  0  0  0  0  0  0  0  0
   -3.2346    0.6889   -3.1335 N   0  3  0  0  0  0  0  0  0  0  0  0
   -2.3828    0.7825   -3.6598 H   0  0  0  0  0  0  0  0  0  0  0  0
   -4.3372    0.4248   -3.8144 C   0  0  0  0  0  0  0  0  0  0  0  0
   -5.4947    0.2839   -3.2317 N   0  0  0  0  0  0  0  0  0  0  0  0
   -5.5482    0.3779   -2.2328 H   0  0  0  0  0  0  0  0  0  0  0  0
   -6.3220    0.0840   -3.7633 H   0  0  0  0  0  0  0  0  0  0  0  0
   -4.2977    0.2968   -5.1103 N   0  0  0  0  0  0  0  0  0  0  0  0
   -3.4278    0.3966   -5.6044 H   0  0  0  0  0  0  0  0  0  0  0  0
   -5.1365    0.0964   -5.6229 H   0  0  0  0  0  0  0  0  0  0  0  0
   -0.9523    0.1012    2.4848 C   0  0  0  0  0  0  0  0  0  0  0  0
    0.2133   -0.1319    2.7814 O   0  0  0  0  0  0  0  0  0  0  0  0
   -1.8684    0.5006    3.3725 N   0  0  0  0  0  0  0  0  0  0  0  0
   -2.7946    0.7048    3.0343 H   0  0  0  0  0  0  0  0  0  0  0  0
   -1.5848    0.7472    4.7873 C   0  0  0  0  0  0  0  0  0  0  0  0
   -0.8819    1.5774    4.8838 H   0  0  0  0  0  0  0  0  0  0  0  0
   -2.5030    0.9948    5.3214 H   0  0  0  0  0  0  0  0  0  0  0  0
   -1.1344   -0.1399    5.2381 H   0  0  0  0  0  0  0  0  0  0  0  0
  5  6  2  0  0  0  0
  5  7  1  0  0  0  0
  2  3  1  0  0  0  0
  2  4  1  0  0  0  0
  2  5  1  0  0  0  0
  1  2  1  0  0  0  0
 29 30  2  0  0  0  0
 29 31  1  0  0  0  0
 26 27  1  0  0  0  0
 26 28  1  0  0  0  0
 23 24  1  0  0  0  0
 23 25  1  0  0  0  0
 22 23  1  0  0  0  0
 22 26  1  0  0  0  0
 20 21  1  0  0  0  0
 20 22  2  0  0  0  0
 17 18  1  0  0  0  0
 17 19  1  0  0  0  0
 17 20  1  0  0  0  0
 14 15  1  0  0  0  0
 14 16  1  0  0  0  0
 14 17  1  0  0  0  0
 11 12  1  0  0  0  0
 11 13  1  0  0  0  0
 11 14  1  0  0  0  0
  9 10  1  0  0  0  0
  9 11  1  0  0  0  0
  9 29  1  0  0  0  0
  7  8  1  0  0  0  0
  7  9  1  0  0  0  0
 33 34  1  0  0  0  0
 33 35  1  0  0  0  0
 33 36  1  0  0  0  0
 31 32  1  0  0  0  0
 31 33  1  0  0  0  0
M  CHG  1  20   1
M  END
$$$$
default_name
  -OEChem-02102213163D

 36 35  0     1  0  0  0  0  0999 V2000
   -4.2256   -3.6731    1.8584 H   0  0  0  0  0  0  0  0  0  0  0  0
   -4.2396   -2.6781    1.4144 C   0  0  0  0  0  0  0  0  0  0  0  0
   -4.9506   -2.0521    1.9514 H   0  0  0  0  0  0  0  0  0  0  0  0
   -4.5266   -2.7521    0.3674 H   0  0  0  0  0  0  0  0  0  0  0  0
   -2.8576   -2.0761    1.5184 C   0  0  0  0  0  0  0  0  0  0  0  0
   -1.9456   -2.7051    2.0404 O   0  0  0  0  0  0  0  0  0  0  0  0
   -2.6926   -0.8481    1.0174 N   0  0  0  0  0  0  0  0  0  0  0  0
   -3.4926   -0.3971    0.5954 H   0  0  0  0  0  0  0  0  0  0  0  0
   -1.4216   -0.1071    1.0434 C   0  0  1  0  0  0  0  0  0  0  0  0
   -0.6709   -0.6930    0.5106 H   0  0  0  0  0  0  0  0  0  0  0  0
   -1.6221    1.2315    0.3051 C   0  0  0  0  0  0  0  0  0  0  0  0
   -2.5588    1.6790    0.6433 H   0  0  0  0  0  0  0  0  0  0  0  0
   -0.8076    1.9099    0.5686 H   0  0  0  0  0  0  0  0  0  0  0  0
   -1.6815    1.0843   -1.2223 C   0  0  0  0  0  0  0  0  0  0  0  0
   -1.0665    1.8537   -1.6913 H   0  0  0  0  0  0  0  0  0  0  0  0
   -1.3053    0.1006   -1.5048 H   0  0  0  0  0  0  0  0  0  0  0  0
   -3.1303    1.2349   -1.7058 C   0  0  0  0  0  0  0  0  0  0  0  0
   -3.7434    0.4780   -1.2111 H   0  0  0  0  0  0  0  0  0  0  0  0
   -3.4918    2.2248   -1.4178 H   0  0  0  0  0  0  0  0  0  0  0  0
   -3.2387    1.0765   -3.1707 N   0  3  0  0  0  0  0  0  0  0  0  0
   -2.3794    0.9408   -3.6752 H   0  0  0  0  0  0  0  0  0  0  0  0
   -4.3558    1.0960   -3.8783 C   0  0  0  0  0  0  0  0  0  0  0  0
   -5.5239    1.2654   -3.3251 N   0  0  0  0  0  0  0  0  0  0  0  0
   -5.5748    1.3833   -2.3286 H   0  0  0  0  0  0  0  0  0  0  0  0
   -6.3620    1.2781   -3.8768 H   0  0  0  0  0  0  0  0  0  0  0  0
   -4.3202    0.9450   -5.1719 N   0  0  0  0  0  0  0  0  0  0  0  0
   -3.4425    0.8110   -5.6438 H   0  0  0  0  0  0  0  0  0  0  0  0
   -5.1700    0.9604   -5.7049 H   0  0  0  0  0  0  0  0  0  0  0  0
   -0.9523    0.1012    2.4848 C   0  0  0  0  0  0  0  0  0  0  0  0
    0.2133   -0.1319    2.7814 O   0  0  0  0  0  0  0  0  0  0  0  0
   -1.8684    0.5006    3.3725 N   0  0  0  0  0  0  0  0  0  0  0  0
   -2.7946    0.7048    3.0343 H   0  0  0  0  0  0  0  0  0  0  0  0
   -1.5848    0.7472    4.7873 C   0  0  0  0  0  0  0  0  0  0  0  0
   -0.8819    1.5774    4.8838 H   0  0  0  0  0  0  0  0  0  0  0  0
   -2.5030    0.9948    5.3214 H   0  0  0  0  0  0  0  0  0  0  0  0
   -1.1344   -0.1399    5.2381 H   0  0  0  0  0  0  0  0  0  0  0  0
  5  6  2  0  0  0  0
  5  7  1  0  0  0  0
  2  3  1  0  0  0  0
  2  4  1  0  0  0  0
  2  5  1  0  0  0  0
  1  2  1  0  0  0  0
 29 30  2  0  0  0  0
 29 31  1  0  0  0  0
 26 27  1  0  0  0  0
 26 28  1  0  0  0  0
 23 24  1  0  0  0  0
 23 25  1  0  0  0  0
 22 23  1  0  0  0  0
 22 26  1  0  0  0  0
 20 21  1  0  0  0  0
 20 22  2  0  0  0  0
 17 18  1  0  0  0  0
 17 19  1  0  0  0  0
 17 20  1  0  0  0  0
 14 15  1  0  0  0  0
 14 16  1  0  0  0  0
 14 17  1  0  0  0  0
 11 12  1  0  0  0  0
 11 13  1  0  0  0  0
 11 14  1  0  0  0  0
  9 10  1  0  0  0  0
  9 11  1  0  0  0  0
  9 29  1  0  0  0  0
  7  8  1  0  0  0  0
  7  9  1  0  0  0  0
 33 34  1  0  0  0  0
 33 35  1  0  0  0  0
 33 36  1  0  0  0  0
 31 32  1  0  0  0  0
 31 33  1  0  0  0  0
M  CHG  1  20   1
M  END
$$$$
default_name
  -OEChem-02102213163D

 36 35  0     1  0  0  0  0  0999 V2000
   -4.2256   -3.6731    1.8584 H   0  0  0  0  0  0  0  0  0  0  0  0
   -4.2396   -2.6781    1.4144 C   0  0  0  0  0  0  0  0  0  0  0  0
   -4.9506   -2.0521    1.9514 H   0  0  0  0  0  0  0  0  0  0  0  0
   -4.5266   -2.7521    0.3674 H   0  0  0  0  0  0  0  0  0  0  0  0
   -2.8576   -2.0761    1.5184 C   0  0  0  0  0  0  0  0  0  0  0  0
   -1.9456   -2.7051    2.0404 O   0  0  0  0  0  0  0  0  0  0  0  0
   -2.6926   -0.8481    1.0174 N   0  0  0  0  0  0  0  0  0  0  0  0
   -3.4926   -0.3971    0.5954 H   0  0  0  0  0  0  0  0  0  0  0  0
   -1.4216   -0.1071    1.0434 C   0  0  1  0  0  0  0  0  0  0  0  0
   -0.6709   -0.6930    0.5106 H   0  0  0  0  0  0  0  0  0  0  0  0
   -1.6221    1.2315    0.3051 C   0  0  0  0  0  0  0  0  0  0  0  0
   -2.5588    1.6790    0.6433 H   0  0  0  0  0  0  0  0  0  0  0  0
   -0.8076    1.9099    0.5686 H   0  0  0  0  0  0  0  0  0  0  0  0
   -1.6815    1.0843   -1.2223 C   0  0  0  0  0  0  0  0  0  0  0  0
   -0.8783    1.6633   -1.6803 H   0  0  0  0  0  0  0  0  0  0  0  0
   -1.5648    0.0332   -1.4882 H   0  0  0  0  0  0  0  0  0  0  0  0
   -3.0308    1.5962   -1.7445 C   0  0  0  0  0  0  0  0  0  0  0  0
   -3.8296    1.0292   -1.2609 H   0  0  0  0  0  0  0  0  0  0  0  0
   -3.1318    2.6495   -1.4727 H   0  0  0  0  0  0  0  0  0  0  0  0
   -3.1420    1.4516   -3.2106 N   0  3  0  0  0  0  0  0  0  0  0  0
   -2.3350    1.0927   -3.6916 H   0  0  0  0  0  0  0  0  0  0  0  0
   -4.1994    1.7485   -3.9473 C   0  0  0  0  0  0  0  0  0  0  0  0
   -5.2972    2.2201   -3.4259 N   0  0  0  0  0  0  0  0  0  0  0  0
   -5.3393    2.3603   -2.4320 H   0  0  0  0  0  0  0  0  0  0  0  0
   -6.0905    2.4407   -3.9994 H   0  0  0  0  0  0  0  0  0  0  0  0
   -4.1735    1.5763   -5.2384 N   0  0  0  0  0  0  0  0  0  0  0  0
   -3.3491    1.2147   -5.6863 H   0  0  0  0  0  0  0  0  0  0  0  0
   -4.9779    1.8028   -5.7936 H   0  0  0  0  0  0  0  0  0  0  0  0
   -0.9523    0.1012    2.4848 C   0  0  0  0  0  0  0  0  0  0  0  0
    0.2133   -0.1319    2.7814 O   0  0  0  0  0  0  0  0  0  0  0  0
   -1.8684    0.5006    3.3725 N   0  0  0  0  0  0  0  0  0  0  0  0
   -2.7946    0.7048    3.0343 H   0  0  0  0  0  0  0  0  0  0  0  0
   -1.5848    0.7472    4.7873 C   0  0  0  0  0  0  0  0  0  0  0  0
   -0.8819    1.5774    4.8838 H   0  0  0  0  0  0  0  0  0  0  0  0
   -2.5030    0.9948    5.3214 H   0  0  0  0  0  0  0  0  0  0  0  0
   -1.1344   -0.1399    5.2381 H   0  0  0  0  0  0  0  0  0  0  0  0
  5  6  2  0  0  0  0
  5  7  1  0  0  0  0
  2  3  1  0  0  0  0
  2  4  1  0  0  0  0
  2  5  1  0  0  0  0
  1  2  1  0  0  0  0
 29 30  2  0  0  0  0
 29 31  1  0  0  0  0
 26 27  1  0  0  0  0
 26 28  1  0  0  0  0
 23 24  1  0  0  0  0
 23 25  1  0  0  0  0
 22 23  1  0  0  0  0
 22 26  1  0  0  0  0
 20 21  1  0  0  0  0
 20 22  2  0  0  0  0
 17 18  1  0  0  0  0
 17 19  1  0  0  0  0
 17 20  1  0  0  0  0
 14 15  1  0  0  0  0
 14 16  1  0  0  0  0
 14 17  1  0  0  0  0
 11 12  1  0  0  0  0
 11 13  1  0  0  0  0
 11 14  1  0  0  0  0
  9 10  1  0  0  0  0
  9 11  1  0  0  0  0
  9 29  1  0  0  0  0
  7  8  1  0  0  0  0
  7  9  1  0  0  0  0
 33 34  1  0  0  0  0
 33 35  1  0  0  0  0
 33 36  1  0  0  0  0
 31 32  1  0  0  0  0
 31 33  1  0  0  0  0
M  CHG  1  20   1
M  END
$$$$
default_name
  -OEChem-02102213163D

 36 35  0     1  0  0  0  0  0999 V2000
   -4.2256   -3.6731    1.8584 H   0  0  0  0  0  0  0  0  0  0  0  0
   -4.2396   -2.6781    1.4144 C   0  0  0  0  0  0  0  0  0  0  0  0
   -4.9506   -2.0521    1.9514 H   0  0  0  0  0  0  0  0  0  0  0  0
   -4.5266   -2.7521    0.3674 H   0  0  0  0  0  0  0  0  0  0  0  0
   -2.8576   -2.0761    1.5184 C   0  0  0  0  0  0  0  0  0  0  0  0
   -1.9456   -2.7051    2.0404 O   0  0  0  0  0  0  0  0  0  0  0  0
   -2.6926   -0.8481    1.0174 N   0  0  0  0  0  0  0  0  0  0  0  0
   -3.4926   -0.3971    0.5954 H   0  0  0  0  0  0  0  0  0  0  0  0
   -1.4216   -0.1071    1.0434 C   0  0  1  0  0  0  0  0  0  0  0  0
   -0.6709   -0.6930    0.5106 H   0  0  0  0  0  0  0  0  0  0  0  0
   -1.6221    1.2315    0.3051 C   0  0  0  0  0  0  0  0  0  0  0  0
   -2.5588    1.6790    0.6433 H   0  0  0  0  0  0  0  0  0  0  0  0
   -0.8076    1.9099    0.5686 H   0  0  0  0  0  0  0  0  0  0  0  0
   -1.6815    1.0843   -1.2223 C   0  0  0  0  0  0  0  0  0  0  0  0
   -0.7457    1.4310   -1.6630 H   0  0  0  0  0  0  0  0  0  0  0  0
   -1.8332    0.0352   -1.4780 H   0  0  0  0  0  0  0  0  0  0  0  0
   -2.8408    1.9192   -1.7830 C   0  0  0  0  0  0  0  0  0  0  0  0
   -3.7698    1.5833   -1.3166 H   0  0  0  0  0  0  0  0  0  0  0  0
   -2.6735    2.9666   -1.5211 H   0  0  0  0  0  0  0  0  0  0  0  0
   -2.9510    1.7887   -3.2505 N   0  3  0  0  0  0  0  0  0  0  0  0
   -2.2526    1.2279   -3.7078 H   0  0  0  0  0  0  0  0  0  0  0  0
   -3.8786    2.3379   -4.0166 C   0  0  0  0  0  0  0  0  0  0  0  0
   -4.8298    3.0829   -3.5272 N   0  0  0  0  0  0  0  0  0  0  0  0
   -4.8578    3.2424   -2.5357 H   0  0  0  0  0  0  0  0  0  0  0  0
   -5.5259    3.4925   -4.1227 H   0  0  0  0  0  0  0  0  0  0  0  0
   -3.8676    2.1477   -5.3054 N   0  0  0  0  0  0  0  0  0  0  0  0
   -3.1539    1.5802   -5.7291 H   0  0  0  0  0  0  0  0  0  0  0  0
   -4.5733    2.5661   -5.8828 H   0  0  0  0  0  0  0  0  0  0  0  0
   -0.9523    0.1012    2.4848 C   0  0  0  0  0  0  0  0  0  0  0  0
    0.2133   -0.1319    2.7814 O   0  0  0  0  0  0  0  0  0  0  0  0
   -1.8684    0.5006    3.3725 N   0  0  0  0  0  0  0  0  0  0  0  0
   -2.7946    0.7048    3.0343 H   0  0  0  0  0  0  0  0  0  0  0  0
   -1.5848    0.7472    4.7873 C   0  0  0  0  0  0  0  0  0  0  0  0
   -0.8819    1.5774    4.8838 H   0  0  0  0  0  0  0  0  0  0  0  0
   -2.5030    0.9948    5.3214 H   0  0  0  0  0  0  0  0  0  0  0  0
   -1.1344   -0.1399    5.2381 H   0  0  0  0  0  0  0  0  0  0  0  0
  5  6  2  0  0  0  0
  5  7  1  0  0  0  0
  2  3  1  0  0  0  0
  2  4  1  0  0  0  0
  2  5  1  0  0  0  0
  1  2  1  0  0  0  0
 29 30  2  0  0  0  0
 29 31  1  0  0  0  0
 26 27  1  0  0  0  0
 26 28  1  0  0  0  0
 23 24  1  0  0  0  0
 23 25  1  0  0  0  0
 22 23  1  0  0  0  0
 22 26  1  0  0  0  0
 20 21  1  0  0  0  0
 20 22  2  0  0  0  0
 17 18  1  0  0  0  0
 17 19  1  0  0  0  0
 17 20  1  0  0  0  0
 14 15  1  0  0  0  0
 14 16  1  0  0  0  0
 14 17  1  0  0  0  0
 11 12  1  0  0  0  0
 11 13  1  0  0  0  0
 11 14  1  0  0  0  0
  9 10  1  0  0  0  0
  9 11  1  0  0  0  0
  9 29  1  0  0  0  0
  7  8  1  0  0  0  0
  7  9  1  0  0  0  0
 33 34  1  0  0  0  0
 33 35  1  0  0  0  0
 33 36  1  0  0  0  0
 31 32  1  0  0  0  0
 31 33  1  0  0  0  0
M  CHG  1  20   1
M  END
$$$$
default_name
  -OEChem-02102213163D

 36 35  0     1  0  0  0  0  0999 V2000
   -4.2256   -3.6731    1.8584 H   0  0  0  0  0  0  0  0  0  0  0  0
   -4.2396   -2.6781    1.4144 C   0  0  0  0  0  0  0  0  0  0  0  0
   -4.9506   -2.0521    1.9514 H   0  0  0  0  0  0  0  0  0  0  0  0
   -4.5266   -2.7521    0.3674 H   0  0  0  0  0  0  0  0  0  0  0  0
   -2.8576   -2.0761    1.5184 C   0  0  0  0  0  0  0  0  0  0  0  0
   -1.9456   -2.7051    2.0404 O   0  0  0  0  0  0  0  0  0  0  0  0
   -2.6926   -0.8481    1.0174 N   0  0  0  0  0  0  0  0  0  0  0  0
   -3.4926   -0.3971    0.5954 H   0  0  0  0  0  0  0  0  0  0  0  0
   -1.4216   -0.1071    1.0434 C   0  0  1  0  0  0  0  0  0  0  0  0
   -0.6709   -0.6930    0.5106 H   0  0  0  0  0  0  0  0  0  0  0  0
   -1.6221    1.2315    0.3051 C   0  0  0  0  0  0  0  0  0  0  0  0
   -2.5588    1.6790    0.6433 H   0  0  0  0  0  0  0  0  0  0  0  0
   -0.8076    1.9099    0.5686 H   0  0  0  0  0  0  0  0  0  0  0  0
   -1.6815    1.0843   -1.2223 C   0  0  0  0  0  0  0  0  0  0  0  0
   -0.6779    1.1727   -1.6408 H   0  0  0  0  0  0  0  0  0  0  0  0
   -2.0923    0.1062   -1.4748 H   0  0  0  0  0  0  0  0  0  0  0  0
   -2.5732    2.1818   -1.8187 C   0  0  0  0  0  0  0  0  0  0  0  0
   -3.5680    2.1025   -1.3745 H   0  0  0  0  0  0  0  0  0  0  0  0
   -2.1479    3.1543   -1.5596 H   0  0  0  0  0  0  0  0  0  0  0  0
   -2.6787    2.0646   -3.2877 N   0  3  0  0  0  0  0  0  0  0  0  0
   -2.1378    1.3370   -3.7228 H   0  0  0  0  0  0  0  0  0  0  0  0
   -3.4153    2.8238   -4.0814 C   0  0  0  0  0  0  0  0  0  0  0  0
   -4.1538    3.7949   -3.6221 N   0  0  0  0  0  0  0  0  0  0  0  0
   -4.1631    3.9694   -2.6328 H   0  0  0  0  0  0  0  0  0  0  0  0
   -4.7067    4.3620   -4.2383 H   0  0  0  0  0  0  0  0  0  0  0  0
   -3.4234    2.6201   -5.3682 N   0  0  0  0  0  0  0  0  0  0  0  0
   -2.8702    1.8826   -5.7693 H   0  0  0  0  0  0  0  0  0  0  0  0
   -3.9838    3.1984   -5.9667 H   0  0  0  0  0  0  0  0  0  0  0  0
   -0.9523    0.1012    2.4848 C   0  0  0  0  0  0  0  0  0  0  0  0
    0.2133   -0.1319    2.7814 O   0  0  0  0  0  0  0  0  0  0  0  0
   -1.8684    0.5006    3.3725 N   0  0  0  0  0  0  0  0  0  0  0  0
   -2.7946    0.7048    3.0343 H   0  0  0  0  0  0  0  0  0  0  0  0
   -1.5848    0.7472    4.7873 C   0  0  0  0  0  0  0  0  0  0  0  0
   -0.8819    1.5774    4.8838 H   0  0  0  0  0  0  0  0  0  0  0  0
   -2.5030    0.9948    5.3214 H   0  0  0  0  0  0  0  0  0  0  0  0
   -1.1344   -0.1399    5.2381 H   0  0  0  0  0  0  0  0  0  0  0  0
  5  6  2  0  0  0  0
  5  7  1  0  0  0  0
  2  3  1  0  0  0  0
  2  4  1  0  0  0  0
  2  5  1  0  0  0  0
  1  2  1  0  0  0  0
 29 30  2  0  0  0  0
 29 31  1  0  0  0  0
 26 27  1  0  0  0  0
 26 28  1  0  0  0  0
 23 24  1  0  0  0  0
 23 25  1  0  0  0  0
 22 23  1  0  0  0  0
 22 26  1  0  0  0  0
 20 21  1  0  0  0  0
 20 22  2  0  0  0  0
 17 18  1  0  0  0  0
 17 19  1  0  0  0  0
 17 20  1  0  0  0  0
 14 15  1  0  0  0  0
 14 16  1  0  0  0  0
 14 17  1  0  0  0  0
 11 12  1  0  0  0  0
 11 13  1  0  0  0  0
 11 14  1  0  0  0  0
  9 10  1  0  0  0  0
  9 11  1  0  0  0  0
  9 29  1  0  0  0  0
  7  8  1  0  0  0  0
  7  9  1  0  0  0  0
 33 34  1  0  0  0  0
 33 35  1  0  0  0  0
 33 36  1  0  0  0  0
 31 32  1  0  0  0  0
 31 33  1  0  0  0  0
M  CHG  1  20   1
M  END
$$$$
default_name
  -OEChem-02102213163D

 36 35  0     1  0  0  0  0  0999 V2000
   -4.2256   -3.6731    1.8584 H   0  0  0  0  0  0  0  0  0  0  0  0
   -4.2396   -2.6781    1.4144 C   0  0  0  0  0  0  0  0  0  0  0  0
   -4.9506   -2.0521    1.9514 H   0  0  0  0  0  0  0  0  0  0  0  0
   -4.5266   -2.7521    0.3674 H   0  0  0  0  0  0  0  0  0  0  0  0
   -2.8576   -2.0761    1.5184 C   0  0  0  0  0  0  0  0  0  0  0  0
   -1.9456   -2.7051    2.0404 O   0  0  0  0  0  0  0  0  0  0  0  0
   -2.6926   -0.8481    1.0174 N   0  0  0  0  0  0  0  0  0  0  0  0
   -3.4926   -0.3971    0.5954 H   0  0  0  0  0  0  0  0  0  0  0  0
   -1.4216   -0.1071    1.0434 C   0  0  1  0  0  0  0  0  0  0  0  0
   -0.6709   -0.6930    0.5106 H   0  0  0  0  0  0  0  0  0  0  0  0
   -1.6221    1.2315    0.3051 C   0  0  0  0  0  0  0  0  0  0  0  0
   -2.5588    1.6790    0.6433 H   0  0  0  0  0  0  0  0  0  0  0  0
   -0.8076    1.9099    0.5686 H   0  0  0  0  0  0  0  0  0  0  0  0
   -1.6815    1.0843   -1.2223 C   0  0  0  0  0  0  0  0  0  0  0  0
   -0.6795    0.9059   -1.6150 H   0  0  0  0  0  0  0  0  0  0  0  0
   -2.3243    0.2416   -1.4788 H   0  0  0  0  0  0  0  0  0  0  0  0
   -2.2461    2.3663   -1.8492 C   0  0  0  0  0  0  0  0  0  0  0  0
   -3.2380    2.5515   -1.4306 H   0  0  0  0  0  0  0  0  0  0  0  0
   -1.5910    3.2000   -1.5857 H   0  0  0  0  0  0  0  0  0  0  0  0
   -2.3437    2.2607   -3.3196 N   0  3  0  0  0  0  0  0  0  0  0  0
   -1.9984    1.4127   -3.7355 H   0  0  0  0  0  0  0  0  0  0  0  0
   -2.8411    3.1733   -4.1374 C   0  0  0  0  0  0  0  0  0  0  0  0
   -3.3151    4.3078   -3.7042 N   0  0  0  0  0  0  0  0  0  0  0  0
   -3.3024    4.4918   -2.7166 H   0  0  0  0  0  0  0  0  0  0  0  0
   -3.6887    4.9897   -4.3384 H   0  0  0  0  0  0  0  0  0  0  0  0
   -2.8712    2.9615   -5.4225 N   0  0  0  0  0  0  0  0  0  0  0  0
   -2.5173    2.1012   -5.8041 H   0  0  0  0  0  0  0  0  0  0  0  0
   -3.2495    3.6565   -6.0394 H   0  0  0  0  0  0  0  0  0  0  0  0
   -0.9523    0.1012    2.4848 C   0  0  0  0  0  0  0  0  0  0  0  0
    0.2133   -0.1319    2.7814 O   0  0  0  0  0  0  0  0  0  0  0  0
   -1.8684    0.5006    3.3725 N   0  0  0  0  0  0  0  0  0  0  0  0
   -2.7946    0.7048    3.0343 H   0  0  0  0  0  0  0  0  0  0  0  0
   -1.5848    0.7472    4.7873 C   0  0  0  0  0  0  0  0  0  0  0  0
   -0.8819    1.5774    4.8838 H   0  0  0  0  0  0  0  0  0  0  0  0
   -2.5030    0.9948    5.3214 H   0  0  0  0  0  0  0  0  0  0  0  0
   -1.1344   -0.1399    5.2381 H   0  0  0  0  0  0  0  0  0  0  0  0
  5  6  2  0  0  0  0
  5  7  1  0  0  0  0
  2  3  1  0  0  0  0
  2  4  1  0  0  0  0
  2  5  1  0  0  0  0
  1  2  1  0  0  0  0
 29 30  2  0  0  0  0
 29 31  1  0  0  0  0
 26 27  1  0  0  0  0
 26 28  1  0  0  0  0
 23 24  1  0  0  0  0
 23 25  1  0  0  0  0
 22 23  1  0  0  0  0
 22 26  1  0  0  0  0
 20 21  1  0  0  0  0
 20 22  2  0  0  0  0
 17 18  1  0  0  0  0
 17 19  1  0  0  0  0
 17 20  1  0  0  0  0
 14 15  1  0  0  0  0
 14 16  1  0  0  0  0
 14 17  1  0  0  0  0
 11 12  1  0  0  0  0
 11 13  1  0  0  0  0
 11 14  1  0  0  0  0
  9 10  1  0  0  0  0
  9 11  1  0  0  0  0
  9 29  1  0  0  0  0
  7  8  1  0  0  0  0
  7  9  1  0  0  0  0
 33 34  1  0  0  0  0
 33 35  1  0  0  0  0
 33 36  1  0  0  0  0
 31 32  1  0  0  0  0
 31 33  1  0  0  0  0
M  CHG  1  20   1
M  END
$$$$
default_name
  -OEChem-02102213163D

 36 35  0     1  0  0  0  0  0999 V2000
   -4.2256   -3.6731    1.8584 H   0  0  0  0  0  0  0  0  0  0  0  0
   -4.2396   -2.6781    1.4144 C   0  0  0  0  0  0  0  0  0  0  0  0
   -4.9506   -2.0521    1.9514 H   0  0  0  0  0  0  0  0  0  0  0  0
   -4.5266   -2.7521    0.3674 H   0  0  0  0  0  0  0  0  0  0  0  0
   -2.8576   -2.0761    1.5184 C   0  0  0  0  0  0  0  0  0  0  0  0
   -1.9456   -2.7051    2.0404 O   0  0  0  0  0  0  0  0  0  0  0  0
   -2.6926   -0.8481    1.0174 N   0  0  0  0  0  0  0  0  0  0  0  0
   -3.4926   -0.3971    0.5954 H   0  0  0  0  0  0  0  0  0  0  0  0
   -1.4216   -0.1071    1.0434 C   0  0  1  0  0  0  0  0  0  0  0  0
   -0.6709   -0.6930    0.5106 H   0  0  0  0  0  0  0  0  0  0  0  0
   -1.6221    1.2315    0.3051 C   0  0  0  0  0  0  0  0  0  0  0  0
   -2.3970    1.8016    0.8216 H   0  0  0  0  0  0  0  0  0  0  0  0
   -0.6937    1.8053    0.3480 H   0  0  0  0  0  0  0  0  0  0  0  0
   -2.0436    1.0634   -1.1619 C   0  0  0  0  0  0  0  0  0  0  0  0
   -1.2787    0.5055   -1.7040 H   0  0  0  0  0  0  0  0  0  0  0  0
   -2.9867    0.5177   -1.2060 H   0  0  0  0  0  0  0  0  0  0  0  0
   -2.2197    2.4405   -1.8161 C   0  0  0  0  0  0  0  0  0  0  0  0
   -2.9676    3.0018   -1.2513 H   0  0  0  0  0  0  0  0  0  0  0  0
   -1.2672    2.9734   -1.7663 H   0  0  0  0  0  0  0  0  0  0  0  0
   -2.6491    2.3273   -3.2252 N   0  3  0  0  0  0  0  0  0  0  0  0
   -2.7290    1.3975   -3.5998 H   0  0  0  0  0  0  0  0  0  0  0  0
   -2.9376    3.3305   -4.0373 C   0  0  0  0  0  0  0  0  0  0  0  0
   -2.8669    4.5746   -3.6545 N   0  0  0  0  0  0  0  0  0  0  0  0
   -2.5854    4.7752   -2.7112 H   0  0  0  0  0  0  0  0  0  0  0  0
   -3.0889    5.3241   -4.2837 H   0  0  0  0  0  0  0  0  0  0  0  0
   -3.3061    3.1001   -5.2655 N   0  0  0  0  0  0  0  0  0  0  0  0
   -3.3756    2.1568   -5.6066 H   0  0  0  0  0  0  0  0  0  0  0  0
   -3.5241    3.8640   -5.8782 H   0  0  0  0  0  0  0  0  0  0  0  0
   -0.9523    0.1012    2.4848 C   0  0  0  0  0  0  0  0  0  0  0  0
    0.2133   -0.1319    2.7814 O   0  0  0  0  0  0  0  0  0  0  0  0
   -1.8684    0.5006    3.3725 N   0  0  0  0  0  0  0  0  0  0  0  0
   -2.7946    0.7048    3.0343 H   0  0  0  0  0  0  0  0  0  0  0  0
   -1.5848    0.7472    4.7873 C   0  0  0  0  0  0  0  0  0  0  0  0
   -0.8819    1.5774    4.8838 H   0  0  0  0  0  0  0  0  0  0  0  0
   -2.5030    0.9948    5.3214 H   0  0  0  0  0  0  0  0  0  0  0  0
   -1.1344   -0.1399    5.2381 H   0  0  0  0  0  0  0  0  0  0  0  0
  5  6  2  0  0  0  0
  5  7  1  0  0  0  0
  2  3  1  0  0  0  0
  2  4  1  0  0  0  0
  2  5  1  0  0  0  0
  1  2  1  0  0  0  0
 29 30  2  0  0  0  0
 29 31  1  0  0  0  0
 26 27  1  0  0  0  0
 26 28  1  0  0  0  0
 23 24  1  0  0  0  0
 23 25  1  0  0  0  0
 22 23  1  0  0  0  0
 22 26  1  0  0  0  0
 20 21  1  0  0  0  0
 20 22  2  0  0  0  0
 17 18  1  0  0  0  0
 17 19  1  0  0  0  0
 17 20  1  0  0  0  0
 14 15  1  0  0  0  0
 14 16  1  0  0  0  0
 14 17  1  0  0  0  0
 11 12  1  0  0  0  0
 11 13  1  0  0  0  0
 11 14  1  0  0  0  0
  9 10  1  0  0  0  0
  9 11  1  0  0  0  0
  9 29  1  0  0  0  0
  7  8  1  0  0  0  0
  7  9  1  0  0  0  0
 33 34  1  0  0  0  0
 33 35  1  0  0  0  0
 33 36  1  0  0  0  0
 31 32  1  0  0  0  0
 31 33  1  0  0  0  0
M  CHG  1  20   1
M  END
$$$$
default_name
  -OEChem-02102213163D

 36 35  0     1  0  0  0  0  0999 V2000
   -4.2256   -3.6731    1.8584 H   0  0  0  0  0  0  0  0  0  0  0  0
   -4.2396   -2.6781    1.4144 C   0  0  0  0  0  0  0  0  0  0  0  0
   -4.9506   -2.0521    1.9514 H   0  0  0  0  0  0  0  0  0  0  0  0
   -4.5266   -2.7521    0.3674 H   0  0  0  0  0  0  0  0  0  0  0  0
   -2.8576   -2.0761    1.5184 C   0  0  0  0  0  0  0  0  0  0  0  0
   -1.9456   -2.7051    2.0404 O   0  0  0  0  0  0  0  0  0  0  0  0
   -2.6926   -0.8481    1.0174 N   0  0  0  0  0  0  0  0  0  0  0  0
   -3.4926   -0.3971    0.5954 H   0  0  0  0  0  0  0  0  0  0  0  0
   -1.4216   -0.1071    1.0434 C   0  0  1  0  0  0  0  0  0  0  0  0
   -0.6709   -0.6930    0.5106 H   0  0  0  0  0  0  0  0  0  0  0  0
   -1.6221    1.2315    0.3051 C   0  0  0  0  0  0  0  0  0  0  0  0
   -2.3970    1.8016    0.8216 H   0  0  0  0  0  0  0  0  0  0  0  0
   -0.6937    1.8053    0.3480 H   0  0  0  0  0  0  0  0  0  0  0  0
   -2.0436    1.0634   -1.1619 C   0  0  0  0  0  0  0  0  0  0  0  0
   -1.4308    0.2955   -1.6362 H   0  0  0  0  0  0  0  0  0  0  0  0
   -3.0916    0.7650   -1.2042 H   0  0  0  0  0  0  0  0  0  0  0  0
   -1.8595    2.3887   -1.9137 C   0  0  0  0  0  0  0  0  0  0  0  0
   -2.4555    3.1574   -1.4162 H   0  0  0  0  0  0  0  0  0  0  0  0
   -0.8057    2.6728   -1.8645 H   0  0  0  0  0  0  0  0  0  0  0  0
   -2.2762    2.2799   -3.3269 N   0  3  0  0  0  0  0  0  0  0  0  0
   -2.5772    1.3731   -3.6406 H   0  0  0  0  0  0  0  0  0  0  0  0
   -2.2907    3.2597   -4.2151 C   0  0  0  0  0  0  0  0  0  0  0  0
   -1.9208    4.4731   -3.9147 N   0  0  0  0  0  0  0  0  0  0  0  0
   -1.6167    4.6680   -2.9773 H   0  0  0  0  0  0  0  0  0  0  0  0
   -1.9375    5.2051   -4.6009 H   0  0  0  0  0  0  0  0  0  0  0  0
   -2.6810    3.0362   -5.4378 N   0  0  0  0  0  0  0  0  0  0  0  0
   -2.9760    2.1164   -5.7168 H   0  0  0  0  0  0  0  0  0  0  0  0
   -2.6906    3.7824   -6.1084 H   0  0  0  0  0  0  0  0  0  0  0  0
   -0.9523    0.1012    2.4848 C   0  0  0  0  0  0  0  0  0  0  0  0
    0.2133   -0.1319    2.7814 O   0  0  0  0  0  0  0  0  0  0  0  0
   -1.8684    0.5006    3.3725 N   0  0  0  0  0  0  0  0  0  0  0  0
   -2.7946    0.7048    3.0343 H   0  0  0  0  0  0  0  0  0  0  0  0
   -1.5848    0.7472    4.7873 C   0  0  0  0  0  0  0  0  0  0  0  0
   -0.8819    1.5774    4.8838 H   0  0  0  0  0  0  0  0  0  0  0  0
   -2.5030    0.9948    5.3214 H   0  0  0  0  0  0  0  0  0  0  0  0
   -1.1344   -0.1399    5.2381 H   0  0  0  0  0  0  0  0  0  0  0  0
  5  6  2  0  0  0  0
  5  7  1  0  0  0  0
  2  3  1  0  0  0  0
  2  4  1  0  0  0  0
  2  5  1  0  0  0  0
  1  2  1  0  0  0  0
 29 30  2  0  0  0  0
 29 31  1  0  0  0  0
 26 27  1  0  0  0  0
 26 28  1  0  0  0  0
 23 24  1  0  0  0  0
 23 25  1  0  0  0  0
 22 23  1  0  0  0  0
 22 26  1  0  0  0  0
 20 21  1  0  0  0  0
 20 22  2  0  0  0  0
 17 18  1  0  0  0  0
 17 19  1  0  0  0  0
 17 20  1  0  0  0  0
 14 15  1  0  0  0  0
 14 16  1  0  0  0  0
 14 17  1  0  0  0  0
 11 12  1  0  0  0  0
 11 13  1  0  0  0  0
 11 14  1  0  0  0  0
  9 10  1  0  0  0  0
  9 11  1  0  0  0  0
  9 29  1  0  0  0  0
  7  8  1  0  0  0  0
  7  9  1  0  0  0  0
 33 34  1  0  0  0  0
 33 35  1  0  0  0  0
 33 36  1  0  0  0  0
 31 32  1  0  0  0  0
 31 33  1  0  0  0  0
M  CHG  1  20   1
M  END
$$$$
default_name
  -OEChem-02102213163D

 36 35  0     1  0  0  0  0  0999 V2000
   -4.2256   -3.6731    1.8584 H   0  0  0  0  0  0  0  0  0  0  0  0
   -4.2396   -2.6781    1.4144 C   0  0  0  0  0  0  0  0  0  0  0  0
   -4.9506   -2.0521    1.9514 H   0  0  0  0  0  0  0  0  0  0  0  0
   -4.5266   -2.7521    0.3674 H   0  0  0  0  0  0  0  0  0  0  0  0
   -2.8576   -2.0761    1.5184 C   0  0  0  0  0  0  0  0  0  0  0  0
   -1.9456   -2.7051    2.0404 O   0  0  0  0  0  0  0  0  0  0  0  0
   -2.6926   -0.8481    1.0174 N   0  0  0  0  0  0  0  0  0  0  0  0
   -3.4926   -0.3971    0.5954 H   0  0  0  0  0  0  0  0  0  0  0  0
   -1.4216   -0.1071    1.0434 C   0  0  1  0  0  0  0  0  0  0  0  0
   -0.6709   -0.6930    0.5106 H   0  0  0  0  0  0  0  0  0  0  0  0
   -1.6221    1.2315    0.3051 C   0  0  0  0  0  0  0  0  0  0  0  0
   -2.3970    1.8016    0.8216 H   0  0  0  0  0  0  0  0  0  0  0  0
   -0.6937    1.8053    0.3480 H   0  0  0  0  0  0  0  0  0  0  0  0
   -2.0436    1.0634   -1.1619 C   0  0  0  0  0  0  0  0  0  0  0  0
   -1.6316    0.1351   -1.5601 H   0  0  0  0  0  0  0  0  0  0  0  0
   -3.1318    1.0299   -1.2230 H   0  0  0  0  0  0  0  0  0  0  0  0
   -1.5217    2.2427   -1.9940 C   0  0  0  0  0  0  0  0  0  0  0  0
   -1.9176    3.1693   -1.5722 H   0  0  0  0  0  0  0  0  0  0  0  0
   -0.4315    2.2614   -1.9249 H   0  0  0  0  0  0  0  0  0  0  0  0
   -1.9248    2.1347   -3.4112 N   0  3  0  0  0  0  0  0  0  0  0  0
   -2.4354    1.3091   -3.6740 H   0  0  0  0  0  0  0  0  0  0  0  0
   -1.6784    3.0188   -4.3634 C   0  0  0  0  0  0  0  0  0  0  0  0
   -1.0247    4.1227   -4.1321 N   0  0  0  0  0  0  0  0  0  0  0  0
   -0.6999    4.3061   -3.1992 H   0  0  0  0  0  0  0  0  0  0  0  0
   -0.8458    4.7829   -4.8662 H   0  0  0  0  0  0  0  0  0  0  0  0
   -2.0882    2.8077   -5.5820 N   0  0  0  0  0  0  0  0  0  0  0  0
   -2.5968    1.9706   -5.8091 H   0  0  0  0  0  0  0  0  0  0  0  0
   -1.8992    3.4811   -6.3013 H   0  0  0  0  0  0  0  0  0  0  0  0
   -0.9523    0.1012    2.4848 C   0  0  0  0  0  0  0  0  0  0  0  0
    0.2133   -0.1319    2.7814 O   0  0  0  0  0  0  0  0  0  0  0  0
   -1.8684    0.5006    3.3725 N   0  0  0  0  0  0  0  0  0  0  0  0
   -2.7946    0.7048    3.0343 H   0  0  0  0  0  0  0  0  0  0  0  0
   -1.5848    0.7472    4.7873 C   0  0  0  0  0  0  0  0  0  0  0  0
   -0.8819    1.5774    4.8838 H   0  0  0  0  0  0  0  0  0  0  0  0
   -2.5030    0.9948    5.3214 H   0  0  0  0  0  0  0  0  0  0  0  0
   -1.1344   -0.1399    5.2381 H   0  0  0  0  0  0  0  0  0  0  0  0
  5  6  2  0  0  0  0
  5  7  1  0  0  0  0
  2  3  1  0  0  0  0
  2  4  1  0  0  0  0
  2  5  1  0  0  0  0
  1  2  1  0  0  0  0
 29 30  2  0  0  0  0
 29 31  1  0  0  0  0
 26 27  1  0  0  0  0
 26 28  1  0  0  0  0
 23 24  1  0  0  0  0
 23 25  1  0  0  0  0
 22 23  1  0  0  0  0
 22 26  1  0  0  0  0
 20 21  1  0  0  0  0
 20 22  2  0  0  0  0
 17 18  1  0  0  0  0
 17 19  1  0  0  0  0
 17 20  1  0  0  0  0
 14 15  1  0  0  0  0
 14 16  1  0  0  0  0
 14 17  1  0  0  0  0
 11 12  1  0  0  0  0
 11 13  1  0  0  0  0
 11 14  1  0  0  0  0
  9 10  1  0  0  0  0
  9 11  1  0  0  0  0
  9 29  1  0  0  0  0
  7  8  1  0  0  0  0
  7  9  1  0  0  0  0
 33 34  1  0  0  0  0
 33 35  1  0  0  0  0
 33 36  1  0  0  0  0
 31 32  1  0  0  0  0
 31 33  1  0  0  0  0
M  CHG  1  20   1
M  END
$$$$
default_name
  -OEChem-02102213163D

 36 35  0     1  0  0  0  0  0999 V2000
   -4.2256   -3.6731    1.8584 H   0  0  0  0  0  0  0  0  0  0  0  0
   -4.2396   -2.6781    1.4144 C   0  0  0  0  0  0  0  0  0  0  0  0
   -4.9506   -2.0521    1.9514 H   0  0  0  0  0  0  0  0  0  0  0  0
   -4.5266   -2.7521    0.3674 H   0  0  0  0  0  0  0  0  0  0  0  0
   -2.8576   -2.0761    1.5184 C   0  0  0  0  0  0  0  0  0  0  0  0
   -1.9456   -2.7051    2.0404 O   0  0  0  0  0  0  0  0  0  0  0  0
   -2.6926   -0.8481    1.0174 N   0  0  0  0  0  0  0  0  0  0  0  0
   -3.4926   -0.3971    0.5954 H   0  0  0  0  0  0  0  0  0  0  0  0
   -1.4216   -0.1071    1.0434 C   0  0  1  0  0  0  0  0  0  0  0  0
   -0.6709   -0.6930    0.5106 H   0  0  0  0  0  0  0  0  0  0  0  0
   -1.6221    1.2315    0.3051 C   0  0  0  0  0  0  0  0  0  0  0  0
   -2.3970    1.8016    0.8216 H   0  0  0  0  0  0  0  0  0  0  0  0
   -0.6937    1.8053    0.3480 H   0  0  0  0  0  0  0  0  0  0  0  0
   -2.0436    1.0634   -1.1619 C   0  0  0  0  0  0  0  0  0  0  0  0
   -1.8673    0.0352   -1.4809 H   0  0  0  0  0  0  0  0  0  0  0  0
   -3.1047    1.2945   -1.2611 H   0  0  0  0  0  0  0  0  0  0  0  0
   -1.2292    2.0124   -2.0517 C   0  0  0  0  0  0  0  0  0  0  0  0
   -1.3908    3.0368   -1.7084 H   0  0  0  0  0  0  0  0  0  0  0  0
   -0.1700    1.7672   -1.9434 H   0  0  0  0  0  0  0  0  0  0  0  0
   -1.6189    1.9015   -3.4724 N   0  3  0  0  0  0  0  0  0  0  0  0
   -2.3133    1.2099   -3.6977 H   0  0  0  0  0  0  0  0  0  0  0  0
   -1.1423    2.6242   -4.4722 C   0  0  0  0  0  0  0  0  0  0  0  0
   -0.2396    3.5472   -4.2917 N   0  0  0  0  0  0  0  0  0  0  0  0
    0.1024    3.7141   -3.3619 H   0  0  0  0  0  0  0  0  0  0  0  0
    0.1118    4.0864   -5.0615 H   0  0  0  0  0  0  0  0  0  0  0  0
   -1.5679    2.4302   -5.6882 N   0  0  0  0  0  0  0  0  0  0  0  0
   -2.2639    1.7296   -5.8771 H   0  0  0  0  0  0  0  0  0  0  0  0
   -1.2037    2.9807   -6.4438 H   0  0  0  0  0  0  0  0  0  0  0  0
   -0.9523    0.1012    2.4848 C   0  0  0  0  0  0  0  0  0  0  0  0
    0.2133   -0.1319    2.7814 O   0  0  0  0  0  0  0  0  0  0  0  0
   -1.8684    0.5006    3.3725 N   0  0  0  0  0  0  0  0  0  0  0  0
   -2.7946    0.7048    3.0343 H   0  0  0  0  0  0  0  0  0  0  0  0
   -1.5848    0.7472    4.7873 C   0  0  0  0  0  0  0  0  0  0  0  0
   -0.8819    1.5774    4.8838 H   0  0  0  0  0  0  0  0  0  0  0  0
   -2.5030    0.9948    5.3214 H   0  0  0  0  0  0  0  0  0  0  0  0
   -1.1344   -0.1399    5.2381 H   0  0  0  0  0  0  0  0  0  0  0  0
  5  6  2  0  0  0  0
  5  7  1  0  0  0  0
  2  3  1  0  0  0  0
  2  4  1  0  0  0  0
  2  5  1  0  0  0  0
  1  2  1  0  0  0  0
 29 30  2  0  0  0  0
 29 31  1  0  0  0  0
 26 27  1  0  0  0  0
 26 28  1  0  0  0  0
 23 24  1  0  0  0  0
 23 25  1  0  0  0  0
 22 23  1  0  0  0  0
 22 26  1  0  0  0  0
 20 21  1  0  0  0  0
 20 22  2  0  0  0  0
 17 18  1  0  0  0  0
 17 19  1  0  0  0  0
 17 20  1  0  0  0  0
 14 15  1  0  0  0  0
 14 16  1  0  0  0  0
 14 17  1  0  0  0  0
 11 12  1  0  0  0  0
 11 13  1  0  0  0  0
 11 14  1  0  0  0  0
  9 10  1  0  0  0  0
  9 11  1  0  0  0  0
  9 29  1  0  0  0  0
  7  8  1  0  0  0  0
  7  9  1  0  0  0  0
 33 34  1  0  0  0  0
 33 35  1  0  0  0  0
 33 36  1  0  0  0  0
 31 32  1  0  0  0  0
 31 33  1  0  0  0  0
M  CHG  1  20   1
M  END
$$$$
default_name
  -OEChem-02102213163D

 36 35  0     1  0  0  0  0  0999 V2000
   -4.2256   -3.6731    1.8584 H   0  0  0  0  0  0  0  0  0  0  0  0
   -4.2396   -2.6781    1.4144 C   0  0  0  0  0  0  0  0  0  0  0  0
   -4.9506   -2.0521    1.9514 H   0  0  0  0  0  0  0  0  0  0  0  0
   -4.5266   -2.7521    0.3674 H   0  0  0  0  0  0  0  0  0  0  0  0
   -2.8576   -2.0761    1.5184 C   0  0  0  0  0  0  0  0  0  0  0  0
   -1.9456   -2.7051    2.0404 O   0  0  0  0  0  0  0  0  0  0  0  0
   -2.6926   -0.8481    1.0174 N   0  0  0  0  0  0  0  0  0  0  0  0
   -3.4926   -0.3971    0.5954 H   0  0  0  0  0  0  0  0  0  0  0  0
   -1.4216   -0.1071    1.0434 C   0  0  1  0  0  0  0  0  0  0  0  0
   -0.6709   -0.6930    0.5106 H   0  0  0  0  0  0  0  0  0  0  0  0
   -1.6221    1.2315    0.3051 C   0  0  0  0  0  0  0  0  0  0  0  0
   -2.3970    1.8016    0.8216 H   0  0  0  0  0  0  0  0  0  0  0  0
   -0.6937    1.8053    0.3480 H   0  0  0  0  0  0  0  0  0  0  0  0
   -2.0436    1.0634   -1.1619 C   0  0  0  0  0  0  0  0  0  0  0  0
   -2.1219    0.0026   -1.4040 H   0  0  0  0  0  0  0  0  0  0  0  0
   -3.0119    1.5406   -1.3160 H   0  0  0  0  0  0  0  0  0  0  0  0
   -1.0020    1.7135   -2.0827 C   0  0  0  0  0  0  0  0  0  0  0  0
   -0.9108    2.7688   -1.8156 H   0  0  0  0  0  0  0  0  0  0  0  0
   -0.0392    1.2238   -1.9187 H   0  0  0  0  0  0  0  0  0  0  0  0
   -1.3794    1.5964   -3.5063 N   0  3  0  0  0  0  0  0  0  0  0  0
   -2.2192    1.0821   -3.7101 H   0  0  0  0  0  0  0  0  0  0  0  0
   -0.7189    2.1027   -4.5341 C   0  0  0  0  0  0  0  0  0  0  0  0
    0.3809    2.7858   -4.3828 N   0  0  0  0  0  0  0  0  0  0  0  0
    0.7356    2.9323   -3.4542 H   0  0  0  0  0  0  0  0  0  0  0  0
    0.8701    3.1629   -5.1736 H   0  0  0  0  0  0  0  0  0  0  0  0
   -1.1557    1.9293   -5.7492 N   0  0  0  0  0  0  0  0  0  0  0  0
   -2.0001    1.4096   -5.9162 H   0  0  0  0  0  0  0  0  0  0  0  0
   -0.6517    2.3152   -6.5261 H   0  0  0  0  0  0  0  0  0  0  0  0
   -0.9523    0.1012    2.4848 C   0  0  0  0  0  0  0  0  0  0  0  0
    0.2133   -0.1319    2.7814 O   0  0  0  0  0  0  0  0  0  0  0  0
   -1.8684    0.5006    3.3725 N   0  0  0  0  0  0  0  0  0  0  0  0
   -2.7946    0.7048    3.0343 H   0  0  0  0  0  0  0  0  0  0  0  0
   -1.5848    0.7472    4.7873 C   0  0  0  0  0  0  0  0  0  0  0  0
   -0.8819    1.5774    4.8838 H   0  0  0  0  0  0  0  0  0  0  0  0
   -2.5030    0.9948    5.3214 H   0  0  0  0  0  0  0  0  0  0  0  0
   -1.1344   -0.1399    5.2381 H   0  0  0  0  0  0  0  0  0  0  0  0
  5  6  2  0  0  0  0
  5  7  1  0  0  0  0
  2  3  1  0  0  0  0
  2  4  1  0  0  0  0
  2  5  1  0  0  0  0
  1  2  1  0  0  0  0
 29 30  2  0  0  0  0
 29 31  1  0  0  0  0
 26 27  1  0  0  0  0
 26 28  1  0  0  0  0
 23 24  1  0  0  0  0
 23 25  1  0  0  0  0
 22 23  1  0  0  0  0
 22 26  1  0  0  0  0
 20 21  1  0  0  0  0
 20 22  2  0  0  0  0
 17 18  1  0  0  0  0
 17 19  1  0  0  0  0
 17 20  1  0  0  0  0
 14 15  1  0  0  0  0
 14 16  1  0  0  0  0
 14 17  1  0  0  0  0
 11 12  1  0  0  0  0
 11 13  1  0  0  0  0
 11 14  1  0  0  0  0
  9 10  1  0  0  0  0
  9 11  1  0  0  0  0
  9 29  1  0  0  0  0
  7  8  1  0  0  0  0
  7  9  1  0  0  0  0
 33 34  1  0  0  0  0
 33 35  1  0  0  0  0
 33 36  1  0  0  0  0
 31 32  1  0  0  0  0
 31 33  1  0  0  0  0
M  CHG  1  20   1
M  END
$$$$
default_name
  -OEChem-02102213163D

 36 35  0     1  0  0  0  0  0999 V2000
   -4.2256   -3.6731    1.8584 H   0  0  0  0  0  0  0  0  0  0  0  0
   -4.2396   -2.6781    1.4144 C   0  0  0  0  0  0  0  0  0  0  0  0
   -4.9506   -2.0521    1.9514 H   0  0  0  0  0  0  0  0  0  0  0  0
   -4.5266   -2.7521    0.3674 H   0  0  0  0  0  0  0  0  0  0  0  0
   -2.8576   -2.0761    1.5184 C   0  0  0  0  0  0  0  0  0  0  0  0
   -1.9456   -2.7051    2.0404 O   0  0  0  0  0  0  0  0  0  0  0  0
   -2.6926   -0.8481    1.0174 N   0  0  0  0  0  0  0  0  0  0  0  0
   -3.4926   -0.3971    0.5954 H   0  0  0  0  0  0  0  0  0  0  0  0
   -1.4216   -0.1071    1.0434 C   0  0  1  0  0  0  0  0  0  0  0  0
   -0.6709   -0.6930    0.5106 H   0  0  0  0  0  0  0  0  0  0  0  0
   -1.6221    1.2315    0.3051 C   0  0  0  0  0  0  0  0  0  0  0  0
   -2.3970    1.8016    0.8216 H   0  0  0  0  0  0  0  0  0  0  0  0
   -0.6937    1.8053    0.3480 H   0  0  0  0  0  0  0  0  0  0  0  0
   -2.0436    1.0634   -1.1619 C   0  0  0  0  0  0  0  0  0  0  0  0
   -2.3782    0.0395   -1.3346 H   0  0  0  0  0  0  0  0  0  0  0  0
   -2.8600    1.7514   -1.3838 H   0  0  0  0  0  0  0  0  0  0  0  0
   -0.8555    1.3664   -2.0850 C   0  0  0  0  0  0  0  0  0  0  0  0
   -0.5104    2.3837   -1.8865 H   0  0  0  0  0  0  0  0  0  0  0  0
   -0.0478    0.6684   -1.8526 H   0  0  0  0  0  0  0  0  0  0  0  0
   -1.2225    1.2399   -3.5105 N   0  3  0  0  0  0  0  0  0  0  0  0
   -2.1596    0.9346   -3.7104 H   0  0  0  0  0  0  0  0  0  0  0  0
   -0.4372    1.4899   -4.5449 C   0  0  0  0  0  0  0  0  0  0  0  0
    0.7947    1.8905   -4.3991 N   0  0  0  0  0  0  0  0  0  0  0  0
    1.1565    2.0140   -3.4700 H   0  0  0  0  0  0  0  0  0  0  0  0
    1.3774    2.0755   -5.1947 H   0  0  0  0  0  0  0  0  0  0  0  0
   -0.8797    1.3393   -5.7609 N   0  0  0  0  0  0  0  0  0  0  0  0
   -1.8233    1.0325   -5.9238 H   0  0  0  0  0  0  0  0  0  0  0  0
   -0.2807    1.5301   -6.5428 H   0  0  0  0  0  0  0  0  0  0  0  0
   -0.9523    0.1012    2.4848 C   0  0  0  0  0  0  0  0  0  0  0  0
    0.2133   -0.1319    2.7814 O   0  0  0  0  0  0  0  0  0  0  0  0
   -1.8684    0.5006    3.3725 N   0  0  0  0  0  0  0  0  0  0  0  0
   -2.7946    0.7048    3.0343 H   0  0  0  0  0  0  0  0  0  0  0  0
   -1.5848    0.7472    4.7873 C   0  0  0  0  0  0  0  0  0  0  0  0
   -0.8819    1.5774    4.8838 H   0  0  0  0  0  0  0  0  0  0  0  0
   -2.5030    0.9948    5.3214 H   0  0  0  0  0  0  0  0  0  0  0  0
   -1.1344   -0.1399    5.2381 H   0  0  0  0  0  0  0  0  0  0  0  0
  5  6  2  0  0  0  0
  5  7  1  0  0  0  0
  2  3  1  0  0  0  0
  2  4  1  0  0  0  0
  2  5  1  0  0  0  0
  1  2  1  0  0  0  0
 29 30  2  0  0  0  0
 29 31  1  0  0  0  0
 26 27  1  0  0  0  0
 26 28  1  0  0  0  0
 23 24  1  0  0  0  0
 23 25  1  0  0  0  0
 22 23  1  0  0  0  0
 22 26  1  0  0  0  0
 20 21  1  0  0  0  0
 20 22  2  0  0  0  0
 17 18  1  0  0  0  0
 17 19  1  0  0  0  0
 17 20  1  0  0  0  0
 14 15  1  0  0  0  0
 14 16  1  0  0  0  0
 14 17  1  0  0  0  0
 11 12  1  0  0  0  0
 11 13  1  0  0  0  0
 11 14  1  0  0  0  0
  9 10  1  0  0  0  0
  9 11  1  0  0  0  0
  9 29  1  0  0  0  0
  7  8  1  0  0  0  0
  7  9  1  0  0  0  0
 33 34  1  0  0  0  0
 33 35  1  0  0  0  0
 33 36  1  0  0  0  0
 31 32  1  0  0  0  0
 31 33  1  0  0  0  0
M  CHG  1  20   1
M  END
$$$$
default_name
  -OEChem-02102213163D

 36 35  0     1  0  0  0  0  0999 V2000
   -4.2256   -3.6731    1.8584 H   0  0  0  0  0  0  0  0  0  0  0  0
   -4.2396   -2.6781    1.4144 C   0  0  0  0  0  0  0  0  0  0  0  0
   -4.9506   -2.0521    1.9514 H   0  0  0  0  0  0  0  0  0  0  0  0
   -4.5266   -2.7521    0.3674 H   0  0  0  0  0  0  0  0  0  0  0  0
   -2.8576   -2.0761    1.5184 C   0  0  0  0  0  0  0  0  0  0  0  0
   -1.9456   -2.7051    2.0404 O   0  0  0  0  0  0  0  0  0  0  0  0
   -2.6926   -0.8481    1.0174 N   0  0  0  0  0  0  0  0  0  0  0  0
   -3.4926   -0.3971    0.5954 H   0  0  0  0  0  0  0  0  0  0  0  0
   -1.4216   -0.1071    1.0434 C   0  0  1  0  0  0  0  0  0  0  0  0
   -0.6709   -0.6930    0.5106 H   0  0  0  0  0  0  0  0  0  0  0  0
   -1.6221    1.2315    0.3051 C   0  0  0  0  0  0  0  0  0  0  0  0
   -2.3970    1.8016    0.8216 H   0  0  0  0  0  0  0  0  0  0  0  0
   -0.6937    1.8053    0.3480 H   0  0  0  0  0  0  0  0  0  0  0  0
   -2.0436    1.0634   -1.1619 C   0  0  0  0  0  0  0  0  0  0  0  0
   -2.6185    0.1435   -1.2775 H   0  0  0  0  0  0  0  0  0  0  0  0
   -2.6591    1.9127   -1.4600 H   0  0  0  0  0  0  0  0  0  0  0  0
   -0.7998    0.9948   -2.0584 C   0  0  0  0  0  0  0  0  0  0  0  0
   -0.2168    1.9076   -1.9163 H   0  0  0  0  0  0  0  0  0  0  0  0
   -0.1953    0.1387   -1.7495 H   0  0  0  0  0  0  0  0  0  0  0  0
   -1.1589    0.8566   -3.4848 N   0  3  0  0  0  0  0  0  0  0  0  0
   -2.1384    0.7774   -3.6984 H   0  0  0  0  0  0  0  0  0  0  0  0
   -0.3163    0.8276   -4.5037 C   0  0  0  0  0  0  0  0  0  0  0  0
    0.9735    0.9222   -4.3395 N   0  0  0  0  0  0  0  0  0  0  0  0
    1.3365    1.0218   -3.4080 H   0  0  0  0  0  0  0  0  0  0  0  0
    1.5992    0.8981   -5.1235 H   0  0  0  0  0  0  0  0  0  0  0  0
   -0.7586    0.7002   -5.7225 N   0  0  0  0  0  0  0  0  0  0  0  0
   -1.7455    0.6239   -5.8994 H   0  0  0  0  0  0  0  0  0  0  0  0
   -0.1159    0.6788   -6.4925 H   0  0  0  0  0  0  0  0  0  0  0  0
   -0.9523    0.1012    2.4848 C   0  0  0  0  0  0  0  0  0  0  0  0
    0.2133   -0.1319    2.7814 O   0  0  0  0  0  0  0  0  0  0  0  0
   -1.8684    0.5006    3.3725 N   0  0  0  0  0  0  0  0  0  0  0  0
   -2.7946    0.7048    3.0343 H   0  0  0  0  0  0  0  0  0  0  0  0
   -1.5848    0.7472    4.7873 C   0  0  0  0  0  0  0  0  0  0  0  0
   -0.8819    1.5774    4.8838 H   0  0  0  0  0  0  0  0  0  0  0  0
   -2.5030    0.9948    5.3214 H   0  0  0  0  0  0  0  0  0  0  0  0
   -1.1344   -0.1399    5.2381 H   0  0  0  0  0  0  0  0  0  0  0  0
  5  6  2  0  0  0  0
  5  7  1  0  0  0  0
  2  3  1  0  0  0  0
  2  4  1  0  0  0  0
  2  5  1  0  0  0  0
  1  2  1  0  0  0  0
 29 30  2  0  0  0  0
 29 31  1  0  0  0  0
 26 27  1  0  0  0  0
 26 28  1  0  0  0  0
 23 24  1  0  0  0  0
 23 25  1  0  0  0  0
 22 23  1  0  0  0  0
 22 26  1  0  0  0  0
 20 21  1  0  0  0  0
 20 22  2  0  0  0  0
 17 18  1  0  0  0  0
 17 19  1  0  0  0  0
 17 20  1  0  0  0  0
 14 15  1  0  0  0  0
 14 16  1  0  0  0  0
 14 17  1  0  0  0  0
 11 12  1  0  0  0  0
 11 13  1  0  0  0  0
 11 14  1  0  0  0  0
  9 10  1  0  0  0  0
  9 11  1  0  0  0  0
  9 29  1  0  0  0  0
  7  8  1  0  0  0  0
  7  9  1  0  0  0  0
 33 34  1  0  0  0  0
 33 35  1  0  0  0  0
 33 36  1  0  0  0  0
 31 32  1  0  0  0  0
 31 33  1  0  0  0  0
M  CHG  1  20   1
M  END
$$$$
default_name
  -OEChem-02102213163D

 36 35  0     1  0  0  0  0  0999 V2000
   -4.2256   -3.6731    1.8584 H   0  0  0  0  0  0  0  0  0  0  0  0
   -4.2396   -2.6781    1.4144 C   0  0  0  0  0  0  0  0  0  0  0  0
   -4.9506   -2.0521    1.9514 H   0  0  0  0  0  0  0  0  0  0  0  0
   -4.5266   -2.7521    0.3674 H   0  0  0  0  0  0  0  0  0  0  0  0
   -2.8576   -2.0761    1.5184 C   0  0  0  0  0  0  0  0  0  0  0  0
   -1.9456   -2.7051    2.0404 O   0  0  0  0  0  0  0  0  0  0  0  0
   -2.6926   -0.8481    1.0174 N   0  0  0  0  0  0  0  0  0  0  0  0
   -3.4926   -0.3971    0.5954 H   0  0  0  0  0  0  0  0  0  0  0  0
   -1.4216   -0.1071    1.0434 C   0  0  1  0  0  0  0  0  0  0  0  0
   -0.6709   -0.6930    0.5106 H   0  0  0  0  0  0  0  0  0  0  0  0
   -1.6221    1.2315    0.3051 C   0  0  0  0  0  0  0  0  0  0  0  0
   -2.3970    1.8016    0.8216 H   0  0  0  0  0  0  0  0  0  0  0  0
   -0.6937    1.8053    0.3480 H   0  0  0  0  0  0  0  0  0  0  0  0
   -2.0436    1.0634   -1.1619 C   0  0  0  0  0  0  0  0  0  0  0  0
   -2.8265    0.3073   -1.2365 H   0  0  0  0  0  0  0  0  0  0  0  0
   -2.4230    2.0134   -1.5394 H   0  0  0  0  0  0  0  0  0  0  0  0
   -0.8386    0.6239   -2.0048 C   0  0  0  0  0  0  0  0  0  0  0  0
   -0.0501    1.3731   -1.9029 H   0  0  0  0  0  0  0  0  0  0  0  0
   -0.4717   -0.3291   -1.6164 H   0  0  0  0  0  0  0  0  0  0  0  0
   -1.1931    0.4724   -3.4310 N   0  3  0  0  0  0  0  0  0  0  0  0
   -2.1573    0.6211   -3.6751 H   0  0  0  0  0  0  0  0  0  0  0  0
   -0.3644    0.1609   -4.4135 C   0  0  0  0  0  0  0  0  0  0  0  0
    0.9050   -0.0530   -4.2080 N   0  0  0  0  0  0  0  0  0  0  0  0
    1.2633    0.0233   -3.2725 H   0  0  0  0  0  0  0  0  0  0  0  0
    1.5202   -0.2889   -4.9648 H   0  0  0  0  0  0  0  0  0  0  0  0
   -0.8008    0.0558   -5.6365 N   0  0  0  0  0  0  0  0  0  0  0  0
   -1.7721    0.2118   -5.8445 H   0  0  0  0  0  0  0  0  0  0  0  0
   -0.1687   -0.1807   -6.3789 H   0  0  0  0  0  0  0  0  0  0  0  0
   -0.9523    0.1012    2.4848 C   0  0  0  0  0  0  0  0  0  0  0  0
    0.2133   -0.1319    2.7814 O   0  0  0  0  0  0  0  0  0  0  0  0
   -1.8684    0.5006    3.3725 N   0  0  0  0  0  0  0  0  0  0  0  0
   -2.7946    0.7048    3.0343 H   0  0  0  0  0  0  0  0  0  0  0  0
   -1.5848    0.7472    4.7873 C   0  0  0  0  0  0  0  0  0  0  0  0
   -0.8819    1.5774    4.8838 H   0  0  0  0  0  0  0  0  0  0  0  0
   -2.5030    0.9948    5.3214 H   0  0  0  0  0  0  0  0  0  0  0  0
   -1.1344   -0.1399    5.2381 H   0  0  0  0  0  0  0  0  0  0  0  0
  5  6  2  0  0  0  0
  5  7  1  0  0  0  0
  2  3  1  0  0  0  0
  2  4  1  0  0  0  0
  2  5  1  0  0  0  0
  1  2  1  0  0  0  0
 29 30  2  0  0  0  0
 29 31  1  0  0  0  0
 26 27  1  0  0  0  0
 26 28  1  0  0  0  0
 23 24  1  0  0  0  0
 23 25  1  0  0  0  0
 22 23  1  0  0  0  0
 22 26  1  0  0  0  0
 20 21  1  0  0  0  0
 20 22  2  0  0  0  0
 17 18  1  0  0  0  0
 17 19  1  0  0  0  0
 17 20  1  0  0  0  0
 14 15  1  0  0  0  0
 14 16  1  0  0  0  0
 14 17  1  0  0  0  0
 11 12  1  0  0  0  0
 11 13  1  0  0  0  0
 11 14  1  0  0  0  0
  9 10  1  0  0  0  0
  9 11  1  0  0  0  0
  9 29  1  0  0  0  0
  7  8  1  0  0  0  0
  7  9  1  0  0  0  0
 33 34  1  0  0  0  0
 33 35  1  0  0  0  0
 33 36  1  0  0  0  0
 31 32  1  0  0  0  0
 31 33  1  0  0  0  0
M  CHG  1  20   1
M  END
$$$$
default_name
  -OEChem-02102213163D

 36 35  0     1  0  0  0  0  0999 V2000
   -4.2256   -3.6731    1.8584 H   0  0  0  0  0  0  0  0  0  0  0  0
   -4.2396   -2.6781    1.4144 C   0  0  0  0  0  0  0  0  0  0  0  0
   -4.9506   -2.0521    1.9514 H   0  0  0  0  0  0  0  0  0  0  0  0
   -4.5266   -2.7521    0.3674 H   0  0  0  0  0  0  0  0  0  0  0  0
   -2.8576   -2.0761    1.5184 C   0  0  0  0  0  0  0  0  0  0  0  0
   -1.9456   -2.7051    2.0404 O   0  0  0  0  0  0  0  0  0  0  0  0
   -2.6926   -0.8481    1.0174 N   0  0  0  0  0  0  0  0  0  0  0  0
   -3.4926   -0.3971    0.5954 H   0  0  0  0  0  0  0  0  0  0  0  0
   -1.4216   -0.1071    1.0434 C   0  0  1  0  0  0  0  0  0  0  0  0
   -0.6709   -0.6930    0.5106 H   0  0  0  0  0  0  0  0  0  0  0  0
   -1.6221    1.2315    0.3051 C   0  0  0  0  0  0  0  0  0  0  0  0
   -2.3970    1.8016    0.8216 H   0  0  0  0  0  0  0  0  0  0  0  0
   -0.6937    1.8053    0.3480 H   0  0  0  0  0  0  0  0  0  0  0  0
   -2.0436    1.0634   -1.1619 C   0  0  0  0  0  0  0  0  0  0  0  0
   -2.9881    0.5200   -1.2144 H   0  0  0  0  0  0  0  0  0  0  0  0
   -2.1679    2.0467   -1.6165 H   0  0  0  0  0  0  0  0  0  0  0  0
   -0.9693    0.2791   -1.9277 C   0  0  0  0  0  0  0  0  0  0  0  0
   -0.0216    0.8165   -1.8473 H   0  0  0  0  0  0  0  0  0  0  0  0
   -0.8582   -0.7032   -1.4625 H   0  0  0  0  0  0  0  0  0  0  0  0
   -1.3226    0.1135   -3.3527 N   0  3  0  0  0  0  0  0  0  0  0  0
   -2.2147    0.4764   -3.6420 H   0  0  0  0  0  0  0  0  0  0  0  0
   -0.5783   -0.4648   -4.2803 C   0  0  0  0  0  0  0  0  0  0  0  0
    0.5940   -0.9687   -4.0137 N   0  0  0  0  0  0  0  0  0  0  0  0
    0.9418   -0.9134   -3.0727 H   0  0  0  0  0  0  0  0  0  0  0  0
    1.1460   -1.4046   -4.7294 H   0  0  0  0  0  0  0  0  0  0  0  0
   -1.0033   -0.5502   -5.5088 N   0  0  0  0  0  0  0  0  0  0  0  0
   -1.9012   -0.1757   -5.7630 H   0  0  0  0  0  0  0  0  0  0  0  0
   -0.4354   -0.9897   -6.2095 H   0  0  0  0  0  0  0  0  0  0  0  0
   -0.9523    0.1012    2.4848 C   0  0  0  0  0  0  0  0  0  0  0  0
    0.2133   -0.1319    2.7814 O   0  0  0  0  0  0  0  0  0  0  0  0
   -1.8684    0.5006    3.3725 N   0  0  0  0  0  0  0  0  0  0  0  0
   -2.7946    0.7048    3.0343 H   0  0  0  0  0  0  0  0  0  0  0  0
   -1.5848    0.7472    4.7873 C   0  0  0  0  0  0  0  0  0  0  0  0
   -0.8819    1.5774    4.8838 H   0  0  0  0  0  0  0  0  0  0  0  0
   -2.5030    0.9948    5.3214 H   0  0  0  0  0  0  0  0  0  0  0  0
   -1.1344   -0.1399    5.2381 H   0  0  0  0  0  0  0  0  0  0  0  0
  5  6  2  0  0  0  0
  5  7  1  0  0  0  0
  2  3  1  0  0  0  0
  2  4  1  0  0  0  0
  2  5  1  0  0  0  0
  1  2  1  0  0  0  0
 29 30  2  0  0  0  0
 29 31  1  0  0  0  0
 26 27  1  0  0  0  0
 26 28  1  0  0  0  0
 23 24  1  0  0  0  0
 23 25  1  0  0  0  0
 22 23  1  0  0  0  0
 22 26  1  0  0  0  0
 20 21  1  0  0  0  0
 20 22  2  0  0  0  0
 17 18  1  0  0  0  0
 17 19  1  0  0  0  0
 17 20  1  0  0  0  0
 14 15  1  0  0  0  0
 14 16  1  0  0  0  0
 14 17  1  0  0  0  0
 11 12  1  0  0  0  0
 11 13  1  0  0  0  0
 11 14  1  0  0  0  0
  9 10  1  0  0  0  0
  9 11  1  0  0  0  0
  9 29  1  0  0  0  0
  7  8  1  0  0  0  0
  7  9  1  0  0  0  0
 33 34  1  0  0  0  0
 33 35  1  0  0  0  0
 33 36  1  0  0  0  0
 31 32  1  0  0  0  0
 31 33  1  0  0  0  0
M  CHG  1  20   1
M  END
$$$$
default_name
  -OEChem-02102213163D

 36 35  0     1  0  0  0  0  0999 V2000
   -4.2256   -3.6731    1.8584 H   0  0  0  0  0  0  0  0  0  0  0  0
   -4.2396   -2.6781    1.4144 C   0  0  0  0  0  0  0  0  0  0  0  0
   -4.9506   -2.0521    1.9514 H   0  0  0  0  0  0  0  0  0  0  0  0
   -4.5266   -2.7521    0.3674 H   0  0  0  0  0  0  0  0  0  0  0  0
   -2.8576   -2.0761    1.5184 C   0  0  0  0  0  0  0  0  0  0  0  0
   -1.9456   -2.7051    2.0404 O   0  0  0  0  0  0  0  0  0  0  0  0
   -2.6926   -0.8481    1.0174 N   0  0  0  0  0  0  0  0  0  0  0  0
   -3.4926   -0.3971    0.5954 H   0  0  0  0  0  0  0  0  0  0  0  0
   -1.4216   -0.1071    1.0434 C   0  0  1  0  0  0  0  0  0  0  0  0
   -0.6709   -0.6930    0.5106 H   0  0  0  0  0  0  0  0  0  0  0  0
   -1.6221    1.2315    0.3051 C   0  0  0  0  0  0  0  0  0  0  0  0
   -2.3970    1.8016    0.8216 H   0  0  0  0  0  0  0  0  0  0  0  0
   -0.6937    1.8053    0.3480 H   0  0  0  0  0  0  0  0  0  0  0  0
   -2.0436    1.0634   -1.1619 C   0  0  0  0  0  0  0  0  0  0  0  0
   -3.0922    0.7670   -1.2128 H   0  0  0  0  0  0  0  0  0  0  0  0
   -1.9110    2.0103   -1.6862 H   0  0  0  0  0  0  0  0  0  0  0  0
   -1.1830   -0.0161   -1.8324 C   0  0  0  0  0  0  0  0  0  0  0  0
   -0.1333    0.2758   -1.7533 H   0  0  0  0  0  0  0  0  0  0  0  0
   -1.3283   -0.9580   -1.2982 H   0  0  0  0  0  0  0  0  0  0  0  0
   -1.5386   -0.1955   -3.2552 N   0  3  0  0  0  0  0  0  0  0  0  0
   -2.3069    0.3533   -3.6014 H   0  0  0  0  0  0  0  0  0  0  0  0
   -0.9434   -1.0069   -4.1133 C   0  0  0  0  0  0  0  0  0  0  0  0
    0.0617   -1.7626   -3.7698 N   0  0  0  0  0  0  0  0  0  0  0  0
    0.3940   -1.7245   -2.8224 H   0  0  0  0  0  0  0  0  0  0  0  0
    0.5020   -2.3731   -4.4333 H   0  0  0  0  0  0  0  0  0  0  0  0
   -1.3524   -1.0763   -5.3482 N   0  0  0  0  0  0  0  0  0  0  0  0
   -2.1241   -0.5124   -5.6604 H   0  0  0  0  0  0  0  0  0  0  0  0
   -0.8979   -1.6932   -5.9960 H   0  0  0  0  0  0  0  0  0  0  0  0
   -0.9523    0.1012    2.4848 C   0  0  0  0  0  0  0  0  0  0  0  0
    0.2133   -0.1319    2.7814 O   0  0  0  0  0  0  0  0  0  0  0  0
   -1.8684    0.5006    3.3725 N   0  0  0  0  0  0  0  0  0  0  0  0
   -2.7946    0.7048    3.0343 H   0  0  0  0  0  0  0  0  0  0  0  0
   -1.5848    0.7472    4.7873 C   0  0  0  0  0  0  0  0  0  0  0  0
   -0.8819    1.5774    4.8838 H   0  0  0  0  0  0  0  0  0  0  0  0
   -2.5030    0.9948    5.3214 H   0  0  0  0  0  0  0  0  0  0  0  0
   -1.1344   -0.1399    5.2381 H   0  0  0  0  0  0  0  0  0  0  0  0
  5  6  2  0  0  0  0
  5  7  1  0  0  0  0
  2  3  1  0  0  0  0
  2  4  1  0  0  0  0
  2  5  1  0  0  0  0
  1  2  1  0  0  0  0
 29 30  2  0  0  0  0
 29 31  1  0  0  0  0
 26 27  1  0  0  0  0
 26 28  1  0  0  0  0
 23 24  1  0  0  0  0
 23 25  1  0  0  0  0
 22 23  1  0  0  0  0
 22 26  1  0  0  0  0
 20 21  1  0  0  0  0
 20 22  2  0  0  0  0
 17 18  1  0  0  0  0
 17 19  1  0  0  0  0
 17 20  1  0  0  0  0
 14 15  1  0  0  0  0
 14 16  1  0  0  0  0
 14 17  1  0  0  0  0
 11 12  1  0  0  0  0
 11 13  1  0  0  0  0
 11 14  1  0  0  0  0
  9 10  1  0  0  0  0
  9 11  1  0  0  0  0
  9 29  1  0  0  0  0
  7  8  1  0  0  0  0
  7  9  1  0  0  0  0
 33 34  1  0  0  0  0
 33 35  1  0  0  0  0
 33 36  1  0  0  0  0
 31 32  1  0  0  0  0
 31 33  1  0  0  0  0
M  CHG  1  20   1
M  END
$$$$
default_name
  -OEChem-02102213163D

 36 35  0     1  0  0  0  0  0999 V2000
   -4.2256   -3.6731    1.8584 H   0  0  0  0  0  0  0  0  0  0  0  0
   -4.2396   -2.6781    1.4144 C   0  0  0  0  0  0  0  0  0  0  0  0
   -4.9506   -2.0521    1.9514 H   0  0  0  0  0  0  0  0  0  0  0  0
   -4.5266   -2.7521    0.3674 H   0  0  0  0  0  0  0  0  0  0  0  0
   -2.8576   -2.0761    1.5184 C   0  0  0  0  0  0  0  0  0  0  0  0
   -1.9456   -2.7051    2.0404 O   0  0  0  0  0  0  0  0  0  0  0  0
   -2.6926   -0.8481    1.0174 N   0  0  0  0  0  0  0  0  0  0  0  0
   -3.4926   -0.3971    0.5954 H   0  0  0  0  0  0  0  0  0  0  0  0
   -1.4216   -0.1071    1.0434 C   0  0  1  0  0  0  0  0  0  0  0  0
   -0.6709   -0.6930    0.5106 H   0  0  0  0  0  0  0  0  0  0  0  0
   -1.6221    1.2315    0.3051 C   0  0  0  0  0  0  0  0  0  0  0  0
   -2.3970    1.8016    0.8216 H   0  0  0  0  0  0  0  0  0  0  0  0
   -0.6937    1.8053    0.3480 H   0  0  0  0  0  0  0  0  0  0  0  0
   -2.0436    1.0634   -1.1619 C   0  0  0  0  0  0  0  0  0  0  0  0
   -3.1318    1.0313   -1.2318 H   0  0  0  0  0  0  0  0  0  0  0  0
   -1.6699    1.9066   -1.7436 H   0  0  0  0  0  0  0  0  0  0  0  0
   -1.4651   -0.2417   -1.7255 C   0  0  0  0  0  0  0  0  0  0  0  0
   -0.3776   -0.2122   -1.6272 H   0  0  0  0  0  0  0  0  0  0  0  0
   -1.8500   -1.0763   -1.1347 H   0  0  0  0  0  0  0  0  0  0  0  0
   -1.8265   -0.4336   -3.1452 N   0  3  0  0  0  0  0  0  0  0  0  0
   -2.4276    0.2600   -3.5560 H   0  0  0  0  0  0  0  0  0  0  0  0
   -1.4348   -1.4283   -3.9238 C   0  0  0  0  0  0  0  0  0  0  0  0
   -0.6556   -2.3804   -3.4928 N   0  0  0  0  0  0  0  0  0  0  0  0
   -0.3428   -2.3548   -2.5384 H   0  0  0  0  0  0  0  0  0  0  0  0
   -0.3680   -3.1283   -4.0968 H   0  0  0  0  0  0  0  0  0  0  0  0
   -1.8242   -1.4869   -5.1656 N   0  0  0  0  0  0  0  0  0  0  0  0
   -2.4255   -0.7752   -5.5436 H   0  0  0  0  0  0  0  0  0  0  0  0
   -1.5246   -2.2432   -5.7529 H   0  0  0  0  0  0  0  0  0  0  0  0
   -0.9523    0.1012    2.4848 C   0  0  0  0  0  0  0  0  0  0  0  0
    0.2133   -0.1319    2.7814 O   0  0  0  0  0  0  0  0  0  0  0  0
   -1.8684    0.5006    3.3725 N   0  0  0  0  0  0  0  0  0  0  0  0
   -2.7946    0.7048    3.0343 H   0  0  0  0  0  0  0  0  0  0  0  0
   -1.5848    0.7472    4.7873 C   0  0  0  0  0  0  0  0  0  0  0  0
   -0.8819    1.5774    4.8838 H   0  0  0  0  0  0  0  0  0  0  0  0
   -2.5030    0.9948    5.3214 H   0  0  0  0  0  0  0  0  0  0  0  0
   -1.1344   -0.1399    5.2381 H   0  0  0  0  0  0  0  0  0  0  0  0
  5  6  2  0  0  0  0
  5  7  1  0  0  0  0
  2  3  1  0  0  0  0
  2  4  1  0  0  0  0
  2  5  1  0  0  0  0
  1  2  1  0  0  0  0
 29 30  2  0  0  0  0
 29 31  1  0  0  0  0
 26 27  1  0  0  0  0
 26 28  1  0  0  0  0
 23 24  1  0  0  0  0
 23 25  1  0  0  0  0
 22 23  1  0  0  0  0
 22 26  1  0  0  0  0
 20 21  1  0  0  0  0
 20 22  2  0  0  0  0
 17 18  1  0  0  0  0
 17 19  1  0  0  0  0
 17 20  1  0  0  0  0
 14 15  1  0  0  0  0
 14 16  1  0  0  0  0
 14 17  1  0  0  0  0
 11 12  1  0  0  0  0
 11 13  1  0  0  0  0
 11 14  1  0  0  0  0
  9 10  1  0  0  0  0
  9 11  1  0  0  0  0
  9 29  1  0  0  0  0
  7  8  1  0  0  0  0
  7  9  1  0  0  0  0
 33 34  1  0  0  0  0
 33 35  1  0  0  0  0
 33 36  1  0  0  0  0
 31 32  1  0  0  0  0
 31 33  1  0  0  0  0
M  CHG  1  20   1
M  END
$$$$
default_name
  -OEChem-02102213163D

 36 35  0     1  0  0  0  0  0999 V2000
   -4.2256   -3.6731    1.8584 H   0  0  0  0  0  0  0  0  0  0  0  0
   -4.2396   -2.6781    1.4144 C   0  0  0  0  0  0  0  0  0  0  0  0
   -4.9506   -2.0521    1.9514 H   0  0  0  0  0  0  0  0  0  0  0  0
   -4.5266   -2.7521    0.3674 H   0  0  0  0  0  0  0  0  0  0  0  0
   -2.8576   -2.0761    1.5184 C   0  0  0  0  0  0  0  0  0  0  0  0
   -1.9456   -2.7051    2.0404 O   0  0  0  0  0  0  0  0  0  0  0  0
   -2.6926   -0.8481    1.0174 N   0  0  0  0  0  0  0  0  0  0  0  0
   -3.4926   -0.3971    0.5954 H   0  0  0  0  0  0  0  0  0  0  0  0
   -1.4216   -0.1071    1.0434 C   0  0  1  0  0  0  0  0  0  0  0  0
   -0.6709   -0.6930    0.5106 H   0  0  0  0  0  0  0  0  0  0  0  0
   -1.6221    1.2315    0.3051 C   0  0  0  0  0  0  0  0  0  0  0  0
   -2.3970    1.8016    0.8216 H   0  0  0  0  0  0  0  0  0  0  0  0
   -0.6937    1.8053    0.3480 H   0  0  0  0  0  0  0  0  0  0  0  0
   -2.0436    1.0634   -1.1619 C   0  0  0  0  0  0  0  0  0  0  0  0
   -3.1041    1.2952   -1.2699 H   0  0  0  0  0  0  0  0  0  0  0  0
   -1.4610    1.7428   -1.7848 H   0  0  0  0  0  0  0  0  0  0  0  0
   -1.7965   -0.3823   -1.6142 C   0  0  0  0  0  0  0  0  0  0  0  0
   -0.7377   -0.6142   -1.4776 H   0  0  0  0  0  0  0  0  0  0  0  0
   -2.3879   -1.0499   -0.9832 H   0  0  0  0  0  0  0  0  0  0  0  0
   -2.1665   -0.5847   -3.0301 N   0  3  0  0  0  0  0  0  0  0  0  0
   -2.5685    0.2030   -3.5090 H   0  0  0  0  0  0  0  0  0  0  0  0
   -2.0190   -1.7004   -3.7247 C   0  0  0  0  0  0  0  0  0  0  0  0
   -1.5092   -2.7802   -3.2018 N   0  0  0  0  0  0  0  0  0  0  0  0
   -1.2183   -2.7612   -2.2403 H   0  0  0  0  0  0  0  0  0  0  0  0
   -1.4046   -3.6188   -3.7427 H   0  0  0  0  0  0  0  0  0  0  0  0
   -2.3866   -1.7538   -4.9734 N   0  0  0  0  0  0  0  0  0  0  0  0
   -2.7849   -0.9462   -5.4207 H   0  0  0  0  0  0  0  0  0  0  0  0
   -2.2728   -2.6022   -5.4967 H   0  0  0  0  0  0  0  0  0  0  0  0
   -0.9523    0.1012    2.4848 C   0  0  0  0  0  0  0  0  0  0  0  0
    0.2133   -0.1319    2.7814 O   0  0  0  0  0  0  0  0  0  0  0  0
   -1.8684    0.5006    3.3725 N   0  0  0  0  0  0  0  0  0  0  0  0
   -2.7946    0.7048    3.0343 H   0  0  0  0  0  0  0  0  0  0  0  0
   -1.5848    0.7472    4.7873 C   0  0  0  0  0  0  0  0  0  0  0  0
   -0.8819    1.5774    4.8838 H   0  0  0  0  0  0  0  0  0  0  0  0
   -2.5030    0.9948    5.3214 H   0  0  0  0  0  0  0  0  0  0  0  0
   -1.1344   -0.1399    5.2381 H   0  0  0  0  0  0  0  0  0  0  0  0
  5  6  2  0  0  0  0
  5  7  1  0  0  0  0
  2  3  1  0  0  0  0
  2  4  1  0  0  0  0
  2  5  1  0  0  0  0
  1  2  1  0  0  0  0
 29 30  2  0  0  0  0
 29 31  1  0  0  0  0
 26 27  1  0  0  0  0
 26 28  1  0  0  0  0
 23 24  1  0  0  0  0
 23 25  1  0  0  0  0
 22 23  1  0  0  0  0
 22 26  1  0  0  0  0
 20 21  1  0  0  0  0
 20 22  2  0  0  0  0
 17 18  1  0  0  0  0
 17 19  1  0  0  0  0
 17 20  1  0  0  0  0
 14 15  1  0  0  0  0
 14 16  1  0  0  0  0
 14 17  1  0  0  0  0
 11 12  1  0  0  0  0
 11 13  1  0  0  0  0
 11 14  1  0  0  0  0
  9 10  1  0  0  0  0
  9 11  1  0  0  0  0
  9 29  1  0  0  0  0
  7  8  1  0  0  0  0
  7  9  1  0  0  0  0
 33 34  1  0  0  0  0
 33 35  1  0  0  0  0
 33 36  1  0  0  0  0
 31 32  1  0  0  0  0
 31 33  1  0  0  0  0
M  CHG  1  20   1
M  END
$$$$
default_name
  -OEChem-02102213163D

 36 35  0     1  0  0  0  0  0999 V2000
   -4.2256   -3.6731    1.8584 H   0  0  0  0  0  0  0  0  0  0  0  0
   -4.2396   -2.6781    1.4144 C   0  0  0  0  0  0  0  0  0  0  0  0
   -4.9506   -2.0521    1.9514 H   0  0  0  0  0  0  0  0  0  0  0  0
   -4.5266   -2.7521    0.3674 H   0  0  0  0  0  0  0  0  0  0  0  0
   -2.8576   -2.0761    1.5184 C   0  0  0  0  0  0  0  0  0  0  0  0
   -1.9456   -2.7051    2.0404 O   0  0  0  0  0  0  0  0  0  0  0  0
   -2.6926   -0.8481    1.0174 N   0  0  0  0  0  0  0  0  0  0  0  0
   -3.4926   -0.3971    0.5954 H   0  0  0  0  0  0  0  0  0  0  0  0
   -1.4216   -0.1071    1.0434 C   0  0  1  0  0  0  0  0  0  0  0  0
   -0.6709   -0.6930    0.5106 H   0  0  0  0  0  0  0  0  0  0  0  0
   -1.6221    1.2315    0.3051 C   0  0  0  0  0  0  0  0  0  0  0  0
   -2.3970    1.8016    0.8216 H   0  0  0  0  0  0  0  0  0  0  0  0
   -0.6937    1.8053    0.3480 H   0  0  0  0  0  0  0  0  0  0  0  0
   -2.0436    1.0634   -1.1619 C   0  0  0  0  0  0  0  0  0  0  0  0
   -3.0110    1.5404   -1.3248 H   0  0  0  0  0  0  0  0  0  0  0  0
   -1.2986    1.5300   -1.8071 H   0  0  0  0  0  0  0  0  0  0  0  0
   -2.1544   -0.4282   -1.5061 C   0  0  0  0  0  0  0  0  0  0  0  0
   -1.1892   -0.9028   -1.3148 H   0  0  0  0  0  0  0  0  0  0  0  0
   -2.9052   -0.8806   -0.8540 H   0  0  0  0  0  0  0  0  0  0  0  0
   -2.5356   -0.6383   -2.9179 N   0  3  0  0  0  0  0  0  0  0  0  0
   -2.7201    0.1861   -3.4635 H   0  0  0  0  0  0  0  0  0  0  0  0
   -2.6563   -1.8046   -3.5296 C   0  0  0  0  0  0  0  0  0  0  0  0
   -2.4407   -2.9346   -2.9164 N   0  0  0  0  0  0  0  0  0  0  0  0
   -2.1730   -2.9162   -1.9482 H   0  0  0  0  0  0  0  0  0  0  0  0
   -2.5371   -3.8111   -3.3953 H   0  0  0  0  0  0  0  0  0  0  0  0
   -3.0013   -1.8589   -4.7847 N   0  0  0  0  0  0  0  0  0  0  0  0
   -3.1779   -1.0138   -5.3001 H   0  0  0  0  0  0  0  0  0  0  0  0
   -3.0916   -2.7458   -5.2450 H   0  0  0  0  0  0  0  0  0  0  0  0
   -0.9523    0.1012    2.4848 C   0  0  0  0  0  0  0  0  0  0  0  0
    0.2133   -0.1319    2.7814 O   0  0  0  0  0  0  0  0  0  0  0  0
   -1.8684    0.5006    3.3725 N   0  0  0  0  0  0  0  0  0  0  0  0
   -2.7946    0.7048    3.0343 H   0  0  0  0  0  0  0  0  0  0  0  0
   -1.5848    0.7472    4.7873 C   0  0  0  0  0  0  0  0  0  0  0  0
   -0.8819    1.5774    4.8838 H   0  0  0  0  0  0  0  0  0  0  0  0
   -2.5030    0.9948    5.3214 H   0  0  0  0  0  0  0  0  0  0  0  0
   -1.1344   -0.1399    5.2381 H   0  0  0  0  0  0  0  0  0  0  0  0
  5  6  2  0  0  0  0
  5  7  1  0  0  0  0
  2  3  1  0  0  0  0
  2  4  1  0  0  0  0
  2  5  1  0  0  0  0
  1  2  1  0  0  0  0
 29 30  2  0  0  0  0
 29 31  1  0  0  0  0
 26 27  1  0  0  0  0
 26 28  1  0  0  0  0
 23 24  1  0  0  0  0
 23 25  1  0  0  0  0
 22 23  1  0  0  0  0
 22 26  1  0  0  0  0
 20 21  1  0  0  0  0
 20 22  2  0  0  0  0
 17 18  1  0  0  0  0
 17 19  1  0  0  0  0
 17 20  1  0  0  0  0
 14 15  1  0  0  0  0
 14 16  1  0  0  0  0
 14 17  1  0  0  0  0
 11 12  1  0  0  0  0
 11 13  1  0  0  0  0
 11 14  1  0  0  0  0
  9 10  1  0  0  0  0
  9 11  1  0  0  0  0
  9 29  1  0  0  0  0
  7  8  1  0  0  0  0
  7  9  1  0  0  0  0
 33 34  1  0  0  0  0
 33 35  1  0  0  0  0
 33 36  1  0  0  0  0
 31 32  1  0  0  0  0
 31 33  1  0  0  0  0
M  CHG  1  20   1
M  END
$$$$
default_name
  -OEChem-02102213163D

 36 35  0     1  0  0  0  0  0999 V2000
   -4.2256   -3.6731    1.8584 H   0  0  0  0  0  0  0  0  0  0  0  0
   -4.2396   -2.6781    1.4144 C   0  0  0  0  0  0  0  0  0  0  0  0
   -4.9506   -2.0521    1.9514 H   0  0  0  0  0  0  0  0  0  0  0  0
   -4.5266   -2.7521    0.3674 H   0  0  0  0  0  0  0  0  0  0  0  0
   -2.8576   -2.0761    1.5184 C   0  0  0  0  0  0  0  0  0  0  0  0
   -1.9456   -2.7051    2.0404 O   0  0  0  0  0  0  0  0  0  0  0  0
   -2.6926   -0.8481    1.0174 N   0  0  0  0  0  0  0  0  0  0  0  0
   -3.4926   -0.3971    0.5954 H   0  0  0  0  0  0  0  0  0  0  0  0
   -1.4216   -0.1071    1.0434 C   0  0  1  0  0  0  0  0  0  0  0  0
   -0.6709   -0.6930    0.5106 H   0  0  0  0  0  0  0  0  0  0  0  0
   -1.6221    1.2315    0.3051 C   0  0  0  0  0  0  0  0  0  0  0  0
   -2.3970    1.8016    0.8216 H   0  0  0  0  0  0  0  0  0  0  0  0
   -0.6937    1.8053    0.3480 H   0  0  0  0  0  0  0  0  0  0  0  0
   -2.0436    1.0634   -1.1619 C   0  0  0  0  0  0  0  0  0  0  0  0
   -2.8590    1.7504   -1.3926 H   0  0  0  0  0  0  0  0  0  0  0  0
   -1.1937    1.2827   -1.8089 H   0  0  0  0  0  0  0  0  0  0  0  0
   -2.5146   -0.3764   -1.4085 C   0  0  0  0  0  0  0  0  0  0  0  0
   -1.7014   -1.0584   -1.1498 H   0  0  0  0  0  0  0  0  0  0  0  0
   -3.3667   -0.5801   -0.7558 H   0  0  0  0  0  0  0  0  0  0  0  0
   -2.9085   -0.5909   -2.8162 N   0  3  0  0  0  0  0  0  0  0  0  0
   -2.8719    0.2104   -3.4227 H   0  0  0  0  0  0  0  0  0  0  0  0
   -3.3031   -1.7339   -3.3519 C   0  0  0  0  0  0  0  0  0  0  0  0
   -3.3868   -2.8331   -2.6562 N   0  0  0  0  0  0  0  0  0  0  0  0
   -3.1417   -2.8090   -1.6821 H   0  0  0  0  0  0  0  0  0  0  0  0
   -3.6885   -3.6921   -3.0781 H   0  0  0  0  0  0  0  0  0  0  0  0
   -3.6264   -1.7950   -4.6125 N   0  0  0  0  0  0  0  0  0  0  0  0
   -3.5775   -0.9733   -5.1899 H   0  0  0  0  0  0  0  0  0  0  0  0
   -3.9251   -2.6641   -5.0148 H   0  0  0  0  0  0  0  0  0  0  0  0
   -0.9523    0.1012    2.4848 C   0  0  0  0  0  0  0  0  0  0  0  0
    0.2133   -0.1319    2.7814 O   0  0  0  0  0  0  0  0  0  0  0  0
   -1.8684    0.5006    3.3725 N   0  0  0  0  0  0  0  0  0  0  0  0
   -2.7946    0.7048    3.0343 H   0  0  0  0  0  0  0  0  0  0  0  0
   -1.5848    0.7472    4.7873 C   0  0  0  0  0  0  0  0  0  0  0  0
   -0.8819    1.5774    4.8838 H   0  0  0  0  0  0  0  0  0  0  0  0
   -2.5030    0.9948    5.3214 H   0  0  0  0  0  0  0  0  0  0  0  0
   -1.1344   -0.1399    5.2381 H   0  0  0  0  0  0  0  0  0  0  0  0
  5  6  2  0  0  0  0
  5  7  1  0  0  0  0
  2  3  1  0  0  0  0
  2  4  1  0  0  0  0
  2  5  1  0  0  0  0
  1  2  1  0  0  0  0
 29 30  2  0  0  0  0
 29 31  1  0  0  0  0
 26 27  1  0  0  0  0
 26 28  1  0  0  0  0
 23 24  1  0  0  0  0
 23 25  1  0  0  0  0
 22 23  1  0  0  0  0
 22 26  1  0  0  0  0
 20 21  1  0  0  0  0
 20 22  2  0  0  0  0
 17 18  1  0  0  0  0
 17 19  1  0  0  0  0
 17 20  1  0  0  0  0
 14 15  1  0  0  0  0
 14 16  1  0  0  0  0
 14 17  1  0  0  0  0
 11 12  1  0  0  0  0
 11 13  1  0  0  0  0
 11 14  1  0  0  0  0
  9 10  1  0  0  0  0
  9 11  1  0  0  0  0
  9 29  1  0  0  0  0
  7  8  1  0  0  0  0
  7  9  1  0  0  0  0
 33 34  1  0  0  0  0
 33 35  1  0  0  0  0
 33 36  1  0  0  0  0
 31 32  1  0  0  0  0
 31 33  1  0  0  0  0
M  CHG  1  20   1
M  END
$$$$
default_name
  -OEChem-02102213163D

 36 35  0     1  0  0  0  0  0999 V2000
   -4.2256   -3.6731    1.8584 H   0  0  0  0  0  0  0  0  0  0  0  0
   -4.2396   -2.6781    1.4144 C   0  0  0  0  0  0  0  0  0  0  0  0
   -4.9506   -2.0521    1.9514 H   0  0  0  0  0  0  0  0  0  0  0  0
   -4.5266   -2.7521    0.3674 H   0  0  0  0  0  0  0  0  0  0  0  0
   -2.8576   -2.0761    1.5184 C   0  0  0  0  0  0  0  0  0  0  0  0
   -1.9456   -2.7051    2.0404 O   0  0  0  0  0  0  0  0  0  0  0  0
   -2.6926   -0.8481    1.0174 N   0  0  0  0  0  0  0  0  0  0  0  0
   -3.4926   -0.3971    0.5954 H   0  0  0  0  0  0  0  0  0  0  0  0
   -1.4216   -0.1071    1.0434 C   0  0  1  0  0  0  0  0  0  0  0  0
   -0.6709   -0.6930    0.5106 H   0  0  0  0  0  0  0  0  0  0  0  0
   -1.6221    1.2315    0.3051 C   0  0  0  0  0  0  0  0  0  0  0  0
   -2.3970    1.8016    0.8216 H   0  0  0  0  0  0  0  0  0  0  0  0
   -0.6937    1.8053    0.3480 H   0  0  0  0  0  0  0  0  0  0  0  0
   -2.0436    1.0634   -1.1619 C   0  0  0  0  0  0  0  0  0  0  0  0
   -2.6582    1.9108   -1.4686 H   0  0  0  0  0  0  0  0  0  0  0  0
   -1.1534    1.0178   -1.7901 H   0  0  0  0  0  0  0  0  0  0  0  0
   -2.8524   -0.2304   -1.3282 C   0  0  0  0  0  0  0  0  0  0  0  0
   -2.2392   -1.0703   -0.9939 H   0  0  0  0  0  0  0  0  0  0  0  0
   -3.7409   -0.1686   -0.6954 H   0  0  0  0  0  0  0  0  0  0  0  0
   -3.2599   -0.4457   -2.7319 N   0  3  0  0  0  0  0  0  0  0  0  0
   -3.0137    0.2744   -3.3893 H   0  0  0  0  0  0  0  0  0  0  0  0
   -3.9154   -1.4930   -3.2035 C   0  0  0  0  0  0  0  0  0  0  0  0
   -4.2829   -2.4827   -2.4388 N   0  0  0  0  0  0  0  0  0  0  0  0
   -4.0584   -2.4471   -1.4602 H   0  0  0  0  0  0  0  0  0  0  0  0
   -4.7802   -3.2699   -2.8127 H   0  0  0  0  0  0  0  0  0  0  0  0
   -4.2192   -1.5665   -4.4683 N   0  0  0  0  0  0  0  0  0  0  0  0
   -3.9567   -0.8276   -5.0976 H   0  0  0  0  0  0  0  0  0  0  0  0
   -4.7165   -2.3628   -4.8220 H   0  0  0  0  0  0  0  0  0  0  0  0
   -0.9523    0.1012    2.4848 C   0  0  0  0  0  0  0  0  0  0  0  0
    0.2133   -0.1319    2.7814 O   0  0  0  0  0  0  0  0  0  0  0  0
   -1.8684    0.5006    3.3725 N   0  0  0  0  0  0  0  0  0  0  0  0
   -2.7946    0.7048    3.0343 H   0  0  0  0  0  0  0  0  0  0  0  0
   -1.5848    0.7472    4.7873 C   0  0  0  0  0  0  0  0  0  0  0  0
   -0.8819    1.5774    4.8838 H   0  0  0  0  0  0  0  0  0  0  0  0
   -2.5030    0.9948    5.3214 H   0  0  0  0  0  0  0  0  0  0  0  0
   -1.1344   -0.1399    5.2381 H   0  0  0  0  0  0  0  0  0  0  0  0
  5  6  2  0  0  0  0
  5  7  1  0  0  0  0
  2  3  1  0  0  0  0
  2  4  1  0  0  0  0
  2  5  1  0  0  0  0
  1  2  1  0  0  0  0
 29 30  2  0  0  0  0
 29 31  1  0  0  0  0
 26 27  1  0  0  0  0
 26 28  1  0  0  0  0
 23 24  1  0  0  0  0
 23 25  1  0  0  0  0
 22 23  1  0  0  0  0
 22 26  1  0  0  0  0
 20 21  1  0  0  0  0
 20 22  2  0  0  0  0
 17 18  1  0  0  0  0
 17 19  1  0  0  0  0
 17 20  1  0  0  0  0
 14 15  1  0  0  0  0
 14 16  1  0  0  0  0
 14 17  1  0  0  0  0
 11 12  1  0  0  0  0
 11 13  1  0  0  0  0
 11 14  1  0  0  0  0
  9 10  1  0  0  0  0
  9 11  1  0  0  0  0
  9 29  1  0  0  0  0
  7  8  1  0  0  0  0
  7  9  1  0  0  0  0
 33 34  1  0  0  0  0
 33 35  1  0  0  0  0
 33 36  1  0  0  0  0
 31 32  1  0  0  0  0
 31 33  1  0  0  0  0
M  CHG  1  20   1
M  END
$$$$
default_name
  -OEChem-02102213163D

 36 35  0     1  0  0  0  0  0999 V2000
   -4.2256   -3.6731    1.8584 H   0  0  0  0  0  0  0  0  0  0  0  0
   -4.2396   -2.6781    1.4144 C   0  0  0  0  0  0  0  0  0  0  0  0
   -4.9506   -2.0521    1.9514 H   0  0  0  0  0  0  0  0  0  0  0  0
   -4.5266   -2.7521    0.3674 H   0  0  0  0  0  0  0  0  0  0  0  0
   -2.8576   -2.0761    1.5184 C   0  0  0  0  0  0  0  0  0  0  0  0
   -1.9456   -2.7051    2.0404 O   0  0  0  0  0  0  0  0  0  0  0  0
   -2.6926   -0.8481    1.0174 N   0  0  0  0  0  0  0  0  0  0  0  0
   -3.4926   -0.3971    0.5954 H   0  0  0  0  0  0  0  0  0  0  0  0
   -1.4216   -0.1071    1.0434 C   0  0  1  0  0  0  0  0  0  0  0  0
   -0.6709   -0.6930    0.5106 H   0  0  0  0  0  0  0  0  0  0  0  0
   -1.6221    1.2315    0.3051 C   0  0  0  0  0  0  0  0  0  0  0  0
   -2.3970    1.8016    0.8216 H   0  0  0  0  0  0  0  0  0  0  0  0
   -0.6937    1.8053    0.3480 H   0  0  0  0  0  0  0  0  0  0  0  0
   -2.0436    1.0634   -1.1619 C   0  0  0  0  0  0  0  0  0  0  0  0
   -2.4225    2.0108   -1.5478 H   0  0  0  0  0  0  0  0  0  0  0  0
   -1.1806    0.7533   -1.7520 H   0  0  0  0  0  0  0  0  0  0  0  0
   -3.1449   -0.0001   -1.2705 C   0  0  0  0  0  0  0  0  0  0  0  0
   -2.7660   -0.9378   -0.8577 H   0  0  0  0  0  0  0  0  0  0  0  0
   -4.0024    0.3256   -0.6769 H   0  0  0  0  0  0  0  0  0  0  0  0
   -3.5658   -0.2125   -2.6707 N   0  3  0  0  0  0  0  0  0  0  0  0
   -3.1358    0.3737   -3.3656 H   0  0  0  0  0  0  0  0  0  0  0  0
   -4.4515   -1.0984   -3.0947 C   0  0  0  0  0  0  0  0  0  0  0  0
   -5.0680   -1.9072   -2.2792 N   0  0  0  0  0  0  0  0  0  0  0  0
   -4.8607   -1.8550   -1.2975 H   0  0  0  0  0  0  0  0  0  0  0  0
   -5.7378   -2.5734   -2.6174 H   0  0  0  0  0  0  0  0  0  0  0  0
   -4.7395   -1.1890   -4.3621 N   0  0  0  0  0  0  0  0  0  0  0  0
   -4.2896   -0.5865   -5.0296 H   0  0  0  0  0  0  0  0  0  0  0  0
   -5.4120   -1.8624   -4.6795 H   0  0  0  0  0  0  0  0  0  0  0  0
   -0.9523    0.1012    2.4848 C   0  0  0  0  0  0  0  0  0  0  0  0
    0.2133   -0.1319    2.7814 O   0  0  0  0  0  0  0  0  0  0  0  0
   -1.8684    0.5006    3.3725 N   0  0  0  0  0  0  0  0  0  0  0  0
   -2.7946    0.7048    3.0343 H   0  0  0  0  0  0  0  0  0  0  0  0
   -1.5848    0.7472    4.7873 C   0  0  0  0  0  0  0  0  0  0  0  0
   -0.8819    1.5774    4.8838 H   0  0  0  0  0  0  0  0  0  0  0  0
   -2.5030    0.9948    5.3214 H   0  0  0  0  0  0  0  0  0  0  0  0
   -1.1344   -0.1399    5.2381 H   0  0  0  0  0  0  0  0  0  0  0  0
  5  6  2  0  0  0  0
  5  7  1  0  0  0  0
  2  3  1  0  0  0  0
  2  4  1  0  0  0  0
  2  5  1  0  0  0  0
  1  2  1  0  0  0  0
 29 30  2  0  0  0  0
 29 31  1  0  0  0  0
 26 27  1  0  0  0  0
 26 28  1  0  0  0  0
 23 24  1  0  0  0  0
 23 25  1  0  0  0  0
 22 23  1  0  0  0  0
 22 26  1  0  0  0  0
 20 21  1  0  0  0  0
 20 22  2  0  0  0  0
 17 18  1  0  0  0  0
 17 19  1  0  0  0  0
 17 20  1  0  0  0  0
 14 15  1  0  0  0  0
 14 16  1  0  0  0  0
 14 17  1  0  0  0  0
 11 12  1  0  0  0  0
 11 13  1  0  0  0  0
 11 14  1  0  0  0  0
  9 10  1  0  0  0  0
  9 11  1  0  0  0  0
  9 29  1  0  0  0  0
  7  8  1  0  0  0  0
  7  9  1  0  0  0  0
 33 34  1  0  0  0  0
 33 35  1  0  0  0  0
 33 36  1  0  0  0  0
 31 32  1  0  0  0  0
 31 33  1  0  0  0  0
M  CHG  1  20   1
M  END
$$$$
default_name
  -OEChem-02102213163D

 36 35  0     1  0  0  0  0  0999 V2000
   -4.2256   -3.6731    1.8584 H   0  0  0  0  0  0  0  0  0  0  0  0
   -4.2396   -2.6781    1.4144 C   0  0  0  0  0  0  0  0  0  0  0  0
   -4.9506   -2.0521    1.9514 H   0  0  0  0  0  0  0  0  0  0  0  0
   -4.5266   -2.7521    0.3674 H   0  0  0  0  0  0  0  0  0  0  0  0
   -2.8576   -2.0761    1.5184 C   0  0  0  0  0  0  0  0  0  0  0  0
   -1.9456   -2.7051    2.0404 O   0  0  0  0  0  0  0  0  0  0  0  0
   -2.6926   -0.8481    1.0174 N   0  0  0  0  0  0  0  0  0  0  0  0
   -3.4926   -0.3971    0.5954 H   0  0  0  0  0  0  0  0  0  0  0  0
   -1.4216   -0.1071    1.0434 C   0  0  1  0  0  0  0  0  0  0  0  0
   -0.6709   -0.6930    0.5106 H   0  0  0  0  0  0  0  0  0  0  0  0
   -1.6221    1.2315    0.3051 C   0  0  0  0  0  0  0  0  0  0  0  0
   -2.3970    1.8016    0.8216 H   0  0  0  0  0  0  0  0  0  0  0  0
   -0.6937    1.8053    0.3480 H   0  0  0  0  0  0  0  0  0  0  0  0
   -2.0436    1.0634   -1.1619 C   0  0  0  0  0  0  0  0  0  0  0  0
   -2.1678    2.0434   -1.6247 H   0  0  0  0  0  0  0  0  0  0  0  0
   -1.2733    0.5072   -1.6971 H   0  0  0  0  0  0  0  0  0  0  0  0
   -3.3721    0.2988   -1.2395 C   0  0  0  0  0  0  0  0  0  0  0  0
   -3.2460   -0.6699   -0.7505 H   0  0  0  0  0  0  0  0  0  0  0  0
   -4.1332    0.8689   -0.7016 H   0  0  0  0  0  0  0  0  0  0  0  0
   -3.8053    0.0926   -2.6368 N   0  3  0  0  0  0  0  0  0  0  0  0
   -3.2299    0.5014   -3.3532 H   0  0  0  0  0  0  0  0  0  0  0  0
   -4.8749   -0.5769   -3.0328 C   0  0  0  0  0  0  0  0  0  0  0  0
   -5.6886   -1.1458   -2.1881 N   0  0  0  0  0  0  0  0  0  0  0  0
   -5.4939   -1.0732   -1.2051 H   0  0  0  0  0  0  0  0  0  0  0  0
   -6.4961   -1.6499   -2.5053 H   0  0  0  0  0  0  0  0  0  0  0  0
   -5.1517   -0.6881   -4.3010 N   0  0  0  0  0  0  0  0  0  0  0  0
   -4.5534   -0.2665   -4.9905 H   0  0  0  0  0  0  0  0  0  0  0  0
   -5.9640   -1.1970   -4.5971 H   0  0  0  0  0  0  0  0  0  0  0  0
   -0.9523    0.1012    2.4848 C   0  0  0  0  0  0  0  0  0  0  0  0
    0.2133   -0.1319    2.7814 O   0  0  0  0  0  0  0  0  0  0  0  0
   -1.8684    0.5006    3.3725 N   0  0  0  0  0  0  0  0  0  0  0  0
   -2.7946    0.7048    3.0343 H   0  0  0  0  0  0  0  0  0  0  0  0
   -1.5848    0.7472    4.7873 C   0  0  0  0  0  0  0  0  0  0  0  0
   -0.8819    1.5774    4.8838 H   0  0  0  0  0  0  0  0  0  0  0  0
   -2.5030    0.9948    5.3214 H   0  0  0  0  0  0  0  0  0  0  0  0
   -1.1344   -0.1399    5.2381 H   0  0  0  0  0  0  0  0  0  0  0  0
  5  6  2  0  0  0  0
  5  7  1  0  0  0  0
  2  3  1  0  0  0  0
  2  4  1  0  0  0  0
  2  5  1  0  0  0  0
  1  2  1  0  0  0  0
 29 30  2  0  0  0  0
 29 31  1  0  0  0  0
 26 27  1  0  0  0  0
 26 28  1  0  0  0  0
 23 24  1  0  0  0  0
 23 25  1  0  0  0  0
 22 23  1  0  0  0  0
 22 26  1  0  0  0  0
 20 21  1  0  0  0  0
 20 22  2  0  0  0  0
 17 18  1  0  0  0  0
 17 19  1  0  0  0  0
 17 20  1  0  0  0  0
 14 15  1  0  0  0  0
 14 16  1  0  0  0  0
 14 17  1  0  0  0  0
 11 12  1  0  0  0  0
 11 13  1  0  0  0  0
 11 14  1  0  0  0  0
  9 10  1  0  0  0  0
  9 11  1  0  0  0  0
  9 29  1  0  0  0  0
  7  8  1  0  0  0  0
  7  9  1  0  0  0  0
 33 34  1  0  0  0  0
 33 35  1  0  0  0  0
 33 36  1  0  0  0  0
 31 32  1  0  0  0  0
 31 33  1  0  0  0  0
M  CHG  1  20   1
M  END
$$$$
default_name
  -OEChem-02102213163D

 36 35  0     1  0  0  0  0  0999 V2000
   -4.2256   -3.6731    1.8584 H   0  0  0  0  0  0  0  0  0  0  0  0
   -4.2396   -2.6781    1.4144 C   0  0  0  0  0  0  0  0  0  0  0  0
   -4.9506   -2.0521    1.9514 H   0  0  0  0  0  0  0  0  0  0  0  0
   -4.5266   -2.7521    0.3674 H   0  0  0  0  0  0  0  0  0  0  0  0
   -2.8576   -2.0761    1.5184 C   0  0  0  0  0  0  0  0  0  0  0  0
   -1.9456   -2.7051    2.0404 O   0  0  0  0  0  0  0  0  0  0  0  0
   -2.6926   -0.8481    1.0174 N   0  0  0  0  0  0  0  0  0  0  0  0
   -3.4926   -0.3971    0.5954 H   0  0  0  0  0  0  0  0  0  0  0  0
   -1.4216   -0.1071    1.0434 C   0  0  1  0  0  0  0  0  0  0  0  0
   -0.6709   -0.6930    0.5106 H   0  0  0  0  0  0  0  0  0  0  0  0
   -1.6221    1.2315    0.3051 C   0  0  0  0  0  0  0  0  0  0  0  0
   -2.3970    1.8016    0.8216 H   0  0  0  0  0  0  0  0  0  0  0  0
   -0.6937    1.8053    0.3480 H   0  0  0  0  0  0  0  0  0  0  0  0
   -2.0436    1.0634   -1.1619 C   0  0  0  0  0  0  0  0  0  0  0  0
   -1.9116    2.0064   -1.6941 H   0  0  0  0  0  0  0  0  0  0  0  0
   -1.4253    0.2963   -1.6293 H   0  0  0  0  0  0  0  0  0  0  0  0
   -3.5186    0.6459   -1.2372 C   0  0  0  0  0  0  0  0  0  0  0  0
   -3.6464   -0.2847   -0.6795 H   0  0  0  0  0  0  0  0  0  0  0  0
   -4.1246    1.4243   -0.7677 H   0  0  0  0  0  0  0  0  0  0  0  0
   -3.9622    0.4491   -2.6326 N   0  3  0  0  0  0  0  0  0  0  0  0
   -3.2895    0.6489   -3.3529 H   0  0  0  0  0  0  0  0  0  0  0  0
   -5.1566    0.0359   -3.0221 C   0  0  0  0  0  0  0  0  0  0  0  0
   -6.1023   -0.2505   -2.1718 N   0  0  0  0  0  0  0  0  0  0  0  0
   -5.9149   -0.1549   -1.1894 H   0  0  0  0  0  0  0  0  0  0  0  0
   -7.0034   -0.5625   -2.4842 H   0  0  0  0  0  0  0  0  0  0  0  0
   -5.4277   -0.0980   -4.2893 N   0  0  0  0  0  0  0  0  0  0  0  0
   -4.7302    0.1106   -4.9829 H   0  0  0  0  0  0  0  0  0  0  0  0
   -6.3351   -0.4118   -4.5805 H   0  0  0  0  0  0  0  0  0  0  0  0
   -0.9523    0.1012    2.4848 C   0  0  0  0  0  0  0  0  0  0  0  0
    0.2133   -0.1319    2.7814 O   0  0  0  0  0  0  0  0  0  0  0  0
   -1.8684    0.5006    3.3725 N   0  0  0  0  0  0  0  0  0  0  0  0
   -2.7946    0.7048    3.0343 H   0  0  0  0  0  0  0  0  0  0  0  0
   -1.5848    0.7472    4.7873 C   0  0  0  0  0  0  0  0  0  0  0  0
   -0.8819    1.5774    4.8838 H   0  0  0  0  0  0  0  0  0  0  0  0
   -2.5030    0.9948    5.3214 H   0  0  0  0  0  0  0  0  0  0  0  0
   -1.1344   -0.1399    5.2381 H   0  0  0  0  0  0  0  0  0  0  0  0
  5  6  2  0  0  0  0
  5  7  1  0  0  0  0
  2  3  1  0  0  0  0
  2  4  1  0  0  0  0
  2  5  1  0  0  0  0
  1  2  1  0  0  0  0
 29 30  2  0  0  0  0
 29 31  1  0  0  0  0
 26 27  1  0  0  0  0
 26 28  1  0  0  0  0
 23 24  1  0  0  0  0
 23 25  1  0  0  0  0
 22 23  1  0  0  0  0
 22 26  1  0  0  0  0
 20 21  1  0  0  0  0
 20 22  2  0  0  0  0
 17 18  1  0  0  0  0
 17 19  1  0  0  0  0
 17 20  1  0  0  0  0
 14 15  1  0  0  0  0
 14 16  1  0  0  0  0
 14 17  1  0  0  0  0
 11 12  1  0  0  0  0
 11 13  1  0  0  0  0
 11 14  1  0  0  0  0
  9 10  1  0  0  0  0
  9 11  1  0  0  0  0
  9 29  1  0  0  0  0
  7  8  1  0  0  0  0
  7  9  1  0  0  0  0
 33 34  1  0  0  0  0
 33 35  1  0  0  0  0
 33 36  1  0  0  0  0
 31 32  1  0  0  0  0
 31 33  1  0  0  0  0
M  CHG  1  20   1
M  END
$$$$
default_name
  -OEChem-02102213163D

 36 35  0     1  0  0  0  0  0999 V2000
   -4.2256   -3.6731    1.8584 H   0  0  0  0  0  0  0  0  0  0  0  0
   -4.2396   -2.6781    1.4144 C   0  0  0  0  0  0  0  0  0  0  0  0
   -4.9506   -2.0521    1.9514 H   0  0  0  0  0  0  0  0  0  0  0  0
   -4.5266   -2.7521    0.3674 H   0  0  0  0  0  0  0  0  0  0  0  0
   -2.8576   -2.0761    1.5184 C   0  0  0  0  0  0  0  0  0  0  0  0
   -1.9456   -2.7051    2.0404 O   0  0  0  0  0  0  0  0  0  0  0  0
   -2.6926   -0.8481    1.0174 N   0  0  0  0  0  0  0  0  0  0  0  0
   -3.4926   -0.3971    0.5954 H   0  0  0  0  0  0  0  0  0  0  0  0
   -1.4216   -0.1071    1.0434 C   0  0  1  0  0  0  0  0  0  0  0  0
   -0.6709   -0.6930    0.5106 H   0  0  0  0  0  0  0  0  0  0  0  0
   -1.6221    1.2315    0.3051 C   0  0  0  0  0  0  0  0  0  0  0  0
   -2.3970    1.8016    0.8216 H   0  0  0  0  0  0  0  0  0  0  0  0
   -0.6937    1.8053    0.3480 H   0  0  0  0  0  0  0  0  0  0  0  0
   -2.0436    1.0634   -1.1619 C   0  0  0  0  0  0  0  0  0  0  0  0
   -1.6713    1.9025   -1.7513 H   0  0  0  0  0  0  0  0  0  0  0  0
   -1.6262    0.1350   -1.5531 H   0  0  0  0  0  0  0  0  0  0  0  0
   -3.5743    1.0175   -1.2638 C   0  0  0  0  0  0  0  0  0  0  0  0
   -3.9400    0.1913   -0.6497 H   0  0  0  0  0  0  0  0  0  0  0  0
   -3.9771    1.9540   -0.8708 H   0  0  0  0  0  0  0  0  0  0  0  0
   -4.0258    0.8324   -2.6583 N   0  3  0  0  0  0  0  0  0  0  0  0
   -3.3106    0.8062   -3.3649 H   0  0  0  0  0  0  0  0  0  0  0  0
   -5.2776    0.6982   -3.0632 C   0  0  0  0  0  0  0  0  0  0  0  0
   -6.2811    0.7177   -2.2314 N   0  0  0  0  0  0  0  0  0  0  0  0
   -6.0948    0.8373   -1.2514 H   0  0  0  0  0  0  0  0  0  0  0  0
   -7.2252    0.6149   -2.5554 H   0  0  0  0  0  0  0  0  0  0  0  0
   -5.5487    0.5410   -4.3278 N   0  0  0  0  0  0  0  0  0  0  0  0
   -4.8080    0.5191   -5.0073 H   0  0  0  0  0  0  0  0  0  0  0  0
   -6.4998    0.4395   -4.6307 H   0  0  0  0  0  0  0  0  0  0  0  0
   -0.9523    0.1012    2.4848 C   0  0  0  0  0  0  0  0  0  0  0  0
    0.2133   -0.1319    2.7814 O   0  0  0  0  0  0  0  0  0  0  0  0
   -1.8684    0.5006    3.3725 N   0  0  0  0  0  0  0  0  0  0  0  0
   -2.7946    0.7048    3.0343 H   0  0  0  0  0  0  0  0  0  0  0  0
   -1.5848    0.7472    4.7873 C   0  0  0  0  0  0  0  0  0  0  0  0
   -0.8819    1.5774    4.8838 H   0  0  0  0  0  0  0  0  0  0  0  0
   -2.5030    0.9948    5.3214 H   0  0  0  0  0  0  0  0  0  0  0  0
   -1.1344   -0.1399    5.2381 H   0  0  0  0  0  0  0  0  0  0  0  0
  5  6  2  0  0  0  0
  5  7  1  0  0  0  0
  2  3  1  0  0  0  0
  2  4  1  0  0  0  0
  2  5  1  0  0  0  0
  1  2  1  0  0  0  0
 29 30  2  0  0  0  0
 29 31  1  0  0  0  0
 26 27  1  0  0  0  0
 26 28  1  0  0  0  0
 23 24  1  0  0  0  0
 23 25  1  0  0  0  0
 22 23  1  0  0  0  0
 22 26  1  0  0  0  0
 20 21  1  0  0  0  0
 20 22  2  0  0  0  0
 17 18  1  0  0  0  0
 17 19  1  0  0  0  0
 17 20  1  0  0  0  0
 14 15  1  0  0  0  0
 14 16  1  0  0  0  0
 14 17  1  0  0  0  0
 11 12  1  0  0  0  0
 11 13  1  0  0  0  0
 11 14  1  0  0  0  0
  9 10  1  0  0  0  0
  9 11  1  0  0  0  0
  9 29  1  0  0  0  0
  7  8  1  0  0  0  0
  7  9  1  0  0  0  0
 33 34  1  0  0  0  0
 33 35  1  0  0  0  0
 33 36  1  0  0  0  0
 31 32  1  0  0  0  0
 31 33  1  0  0  0  0
M  CHG  1  20   1
M  END
$$$$
default_name
  -OEChem-02102213163D

 36 35  0     1  0  0  0  0  0999 V2000
   -4.2256   -3.6731    1.8584 H   0  0  0  0  0  0  0  0  0  0  0  0
   -4.2396   -2.6781    1.4144 C   0  0  0  0  0  0  0  0  0  0  0  0
   -4.9506   -2.0521    1.9514 H   0  0  0  0  0  0  0  0  0  0  0  0
   -4.5266   -2.7521    0.3674 H   0  0  0  0  0  0  0  0  0  0  0  0
   -2.8576   -2.0761    1.5184 C   0  0  0  0  0  0  0  0  0  0  0  0
   -1.9456   -2.7051    2.0404 O   0  0  0  0  0  0  0  0  0  0  0  0
   -2.6926   -0.8481    1.0174 N   0  0  0  0  0  0  0  0  0  0  0  0
   -3.4926   -0.3971    0.5954 H   0  0  0  0  0  0  0  0  0  0  0  0
   -1.4216   -0.1071    1.0434 C   0  0  1  0  0  0  0  0  0  0  0  0
   -0.6709   -0.6930    0.5106 H   0  0  0  0  0  0  0  0  0  0  0  0
   -1.6221    1.2315    0.3051 C   0  0  0  0  0  0  0  0  0  0  0  0
   -2.3970    1.8016    0.8216 H   0  0  0  0  0  0  0  0  0  0  0  0
   -0.6937    1.8053    0.3480 H   0  0  0  0  0  0  0  0  0  0  0  0
   -2.0436    1.0634   -1.1619 C   0  0  0  0  0  0  0  0  0  0  0  0
   -1.4633    1.7386   -1.7923 H   0  0  0  0  0  0  0  0  0  0  0  0
   -1.8622    0.0343   -1.4737 H   0  0  0  0  0  0  0  0  0  0  0  0
   -3.5355    1.3884   -1.3174 C   0  0  0  0  0  0  0  0  0  0  0  0
   -4.1067    0.7258   -0.6631 H   0  0  0  0  0  0  0  0  0  0  0  0
   -3.7007    2.4218   -1.0039 H   0  0  0  0  0  0  0  0  0  0  0  0
   -3.9916    1.2166   -2.7121 N   0  3  0  0  0  0  0  0  0  0  0  0
   -3.2918    0.9625   -3.3882 H   0  0  0  0  0  0  0  0  0  0  0  0
   -5.2294    1.3650   -3.1535 C   0  0  0  0  0  0  0  0  0  0  0  0
   -6.2126    1.6930   -2.3629 N   0  0  0  0  0  0  0  0  0  0  0  0
   -6.0216    1.8357   -1.3869 H   0  0  0  0  0  0  0  0  0  0  0  0
   -7.1462    1.8019   -2.7141 H   0  0  0  0  0  0  0  0  0  0  0  0
   -5.5066    1.1854   -4.4137 N   0  0  0  0  0  0  0  0  0  0  0  0
   -4.7814    0.9312   -5.0622 H   0  0  0  0  0  0  0  0  0  0  0  0
   -6.4470    1.2989   -4.7444 H   0  0  0  0  0  0  0  0  0  0  0  0
   -0.9523    0.1012    2.4848 C   0  0  0  0  0  0  0  0  0  0  0  0
    0.2133   -0.1319    2.7814 O   0  0  0  0  0  0  0  0  0  0  0  0
   -1.8684    0.5006    3.3725 N   0  0  0  0  0  0  0  0  0  0  0  0
   -2.7946    0.7048    3.0343 H   0  0  0  0  0  0  0  0  0  0  0  0
   -1.5848    0.7472    4.7873 C   0  0  0  0  0  0  0  0  0  0  0  0
   -0.8819    1.5774    4.8838 H   0  0  0  0  0  0  0  0  0  0  0  0
   -2.5030    0.9948    5.3214 H   0  0  0  0  0  0  0  0  0  0  0  0
   -1.1344   -0.1399    5.2381 H   0  0  0  0  0  0  0  0  0  0  0  0
  5  6  2  0  0  0  0
  5  7  1  0  0  0  0
  2  3  1  0  0  0  0
  2  4  1  0  0  0  0
  2  5  1  0  0  0  0
  1  2  1  0  0  0  0
 29 30  2  0  0  0  0
 29 31  1  0  0  0  0
 26 27  1  0  0  0  0
 26 28  1  0  0  0  0
 23 24  1  0  0  0  0
 23 25  1  0  0  0  0
 22 23  1  0  0  0  0
 22 26  1  0  0  0  0
 20 21  1  0  0  0  0
 20 22  2  0  0  0  0
 17 18  1  0  0  0  0
 17 19  1  0  0  0  0
 17 20  1  0  0  0  0
 14 15  1  0  0  0  0
 14 16  1  0  0  0  0
 14 17  1  0  0  0  0
 11 12  1  0  0  0  0
 11 13  1  0  0  0  0
 11 14  1  0  0  0  0
  9 10  1  0  0  0  0
  9 11  1  0  0  0  0
  9 29  1  0  0  0  0
  7  8  1  0  0  0  0
  7  9  1  0  0  0  0
 33 34  1  0  0  0  0
 33 35  1  0  0  0  0
 33 36  1  0  0  0  0
 31 32  1  0  0  0  0
 31 33  1  0  0  0  0
M  CHG  1  20   1
M  END
$$$$
default_name
  -OEChem-02102213163D

 36 35  0     1  0  0  0  0  0999 V2000
   -4.2256   -3.6731    1.8584 H   0  0  0  0  0  0  0  0  0  0  0  0
   -4.2396   -2.6781    1.4144 C   0  0  0  0  0  0  0  0  0  0  0  0
   -4.9506   -2.0521    1.9514 H   0  0  0  0  0  0  0  0  0  0  0  0
   -4.5266   -2.7521    0.3674 H   0  0  0  0  0  0  0  0  0  0  0  0
   -2.8576   -2.0761    1.5184 C   0  0  0  0  0  0  0  0  0  0  0  0
   -1.9456   -2.7051    2.0404 O   0  0  0  0  0  0  0  0  0  0  0  0
   -2.6926   -0.8481    1.0174 N   0  0  0  0  0  0  0  0  0  0  0  0
   -3.4926   -0.3971    0.5954 H   0  0  0  0  0  0  0  0  0  0  0  0
   -1.4216   -0.1071    1.0434 C   0  0  1  0  0  0  0  0  0  0  0  0
   -0.6709   -0.6930    0.5106 H   0  0  0  0  0  0  0  0  0  0  0  0
   -1.6221    1.2315    0.3051 C   0  0  0  0  0  0  0  0  0  0  0  0
   -2.3970    1.8016    0.8216 H   0  0  0  0  0  0  0  0  0  0  0  0
   -0.6937    1.8053    0.3480 H   0  0  0  0  0  0  0  0  0  0  0  0
   -2.0436    1.0634   -1.1619 C   0  0  0  0  0  0  0  0  0  0  0  0
   -1.3017    1.5259   -1.8143 H   0  0  0  0  0  0  0  0  0  0  0  0
   -2.1174    0.0010   -1.3966 H   0  0  0  0  0  0  0  0  0  0  0  0
   -3.4048    1.7332   -1.3945 C   0  0  0  0  0  0  0  0  0  0  0  0
   -4.1352    1.2824   -0.7187 H   0  0  0  0  0  0  0  0  0  0  0  0
   -3.3143    2.7959   -1.1578 H   0  0  0  0  0  0  0  0  0  0  0  0
   -3.8621    1.5755   -2.7905 N   0  3  0  0  0  0  0  0  0  0  0  0
   -3.2344    1.1071   -3.4213 H   0  0  0  0  0  0  0  0  0  0  0  0
   -5.0156    1.9907   -3.2867 C   0  0  0  0  0  0  0  0  0  0  0  0
   -5.9016    2.6087   -2.5572 N   0  0  0  0  0  0  0  0  0  0  0  0
   -5.7001    2.7725   -1.5866 H   0  0  0  0  0  0  0  0  0  0  0  0
   -6.7720    2.9176   -2.9495 H   0  0  0  0  0  0  0  0  0  0  0  0
   -5.3041    1.7914   -4.5414 N   0  0  0  0  0  0  0  0  0  0  0  0
   -4.6523    1.3188   -5.1437 H   0  0  0  0  0  0  0  0  0  0  0  0
   -6.1803    2.1079   -4.9137 H   0  0  0  0  0  0  0  0  0  0  0  0
   -0.9523    0.1012    2.4848 C   0  0  0  0  0  0  0  0  0  0  0  0
    0.2133   -0.1319    2.7814 O   0  0  0  0  0  0  0  0  0  0  0  0
   -1.8684    0.5006    3.3725 N   0  0  0  0  0  0  0  0  0  0  0  0
   -2.7946    0.7048    3.0343 H   0  0  0  0  0  0  0  0  0  0  0  0
   -1.5848    0.7472    4.7873 C   0  0  0  0  0  0  0  0  0  0  0  0
   -0.8819    1.5774    4.8838 H   0  0  0  0  0  0  0  0  0  0  0  0
   -2.5030    0.9948    5.3214 H   0  0  0  0  0  0  0  0  0  0  0  0
   -1.1344   -0.1399    5.2381 H   0  0  0  0  0  0  0  0  0  0  0  0
  5  6  2  0  0  0  0
  5  7  1  0  0  0  0
  2  3  1  0  0  0  0
  2  4  1  0  0  0  0
  2  5  1  0  0  0  0
  1  2  1  0  0  0  0
 29 30  2  0  0  0  0
 29 31  1  0  0  0  0
 26 27  1  0  0  0  0
 26 28  1  0  0  0  0
 23 24  1  0  0  0  0
 23 25  1  0  0  0  0
 22 23  1  0  0  0  0
 22 26  1  0  0  0  0
 20 21  1  0  0  0  0
 20 22  2  0  0  0  0
 17 18  1  0  0  0  0
 17 19  1  0  0  0  0
 17 20  1  0  0  0  0
 14 15  1  0  0  0  0
 14 16  1  0  0  0  0
 14 17  1  0  0  0  0
 11 12  1  0  0  0  0
 11 13  1  0  0  0  0
 11 14  1  0  0  0  0
  9 10  1  0  0  0  0
  9 11  1  0  0  0  0
  9 29  1  0  0  0  0
  7  8  1  0  0  0  0
  7  9  1  0  0  0  0
 33 34  1  0  0  0  0
 33 35  1  0  0  0  0
 33 36  1  0  0  0  0
 31 32  1  0  0  0  0
 31 33  1  0  0  0  0
M  CHG  1  20   1
M  END
$$$$
default_name
  -OEChem-02102213163D

 36 35  0     1  0  0  0  0  0999 V2000
   -4.2256   -3.6731    1.8584 H   0  0  0  0  0  0  0  0  0  0  0  0
   -4.2396   -2.6781    1.4144 C   0  0  0  0  0  0  0  0  0  0  0  0
   -4.9506   -2.0521    1.9514 H   0  0  0  0  0  0  0  0  0  0  0  0
   -4.5266   -2.7521    0.3674 H   0  0  0  0  0  0  0  0  0  0  0  0
   -2.8576   -2.0761    1.5184 C   0  0  0  0  0  0  0  0  0  0  0  0
   -1.9456   -2.7051    2.0404 O   0  0  0  0  0  0  0  0  0  0  0  0
   -2.6926   -0.8481    1.0174 N   0  0  0  0  0  0  0  0  0  0  0  0
   -3.4926   -0.3971    0.5954 H   0  0  0  0  0  0  0  0  0  0  0  0
   -1.4216   -0.1071    1.0434 C   0  0  1  0  0  0  0  0  0  0  0  0
   -0.6709   -0.6930    0.5106 H   0  0  0  0  0  0  0  0  0  0  0  0
   -1.6221    1.2315    0.3051 C   0  0  0  0  0  0  0  0  0  0  0  0
   -2.3970    1.8016    0.8216 H   0  0  0  0  0  0  0  0  0  0  0  0
   -0.6937    1.8053    0.3480 H   0  0  0  0  0  0  0  0  0  0  0  0
   -2.0436    1.0634   -1.1619 C   0  0  0  0  0  0  0  0  0  0  0  0
   -1.1976    1.2790   -1.8159 H   0  0  0  0  0  0  0  0  0  0  0  0
   -2.3743    0.0374   -1.3269 H   0  0  0  0  0  0  0  0  0  0  0  0
   -3.1911    2.0284   -1.4898 C   0  0  0  0  0  0  0  0  0  0  0  0
   -4.0235    1.8231   -0.8128 H   0  0  0  0  0  0  0  0  0  0  0  0
   -2.8441    3.0508   -1.3221 H   0  0  0  0  0  0  0  0  0  0  0  0
   -3.6461    1.8845   -2.8880 N   0  3  0  0  0  0  0  0  0  0  0  0
   -3.1422    1.2303   -3.4619 H   0  0  0  0  0  0  0  0  0  0  0  0
   -4.6505    2.5327   -3.4537 C   0  0  0  0  0  0  0  0  0  0  0  0
   -5.3693    3.4026   -2.8011 N   0  0  0  0  0  0  0  0  0  0  0  0
   -5.1523    3.5836   -1.8370 H   0  0  0  0  0  0  0  0  0  0  0  0
   -6.1280    3.8861   -3.2456 H   0  0  0  0  0  0  0  0  0  0  0  0
   -4.9550    2.3176   -4.7020 N   0  0  0  0  0  0  0  0  0  0  0  0
   -4.4294    1.6555   -5.2464 H   0  0  0  0  0  0  0  0  0  0  0  0
   -5.7178    2.8114   -5.1273 H   0  0  0  0  0  0  0  0  0  0  0  0
   -0.9523    0.1012    2.4848 C   0  0  0  0  0  0  0  0  0  0  0  0
    0.2133   -0.1319    2.7814 O   0  0  0  0  0  0  0  0  0  0  0  0
   -1.8684    0.5006    3.3725 N   0  0  0  0  0  0  0  0  0  0  0  0
   -2.7946    0.7048    3.0343 H   0  0  0  0  0  0  0  0  0  0  0  0
   -1.5848    0.7472    4.7873 C   0  0  0  0  0  0  0  0  0  0  0  0
   -0.8819    1.5774    4.8838 H   0  0  0  0  0  0  0  0  0  0  0  0
   -2.5030    0.9948    5.3214 H   0  0  0  0  0  0  0  0  0  0  0  0
   -1.1344   -0.1399    5.2381 H   0  0  0  0  0  0  0  0  0  0  0  0
  5  6  2  0  0  0  0
  5  7  1  0  0  0  0
  2  3  1  0  0  0  0
  2  4  1  0  0  0  0
  2  5  1  0  0  0  0
  1  2  1  0  0  0  0
 29 30  2  0  0  0  0
 29 31  1  0  0  0  0
 26 27  1  0  0  0  0
 26 28  1  0  0  0  0
 23 24  1  0  0  0  0
 23 25  1  0  0  0  0
 22 23  1  0  0  0  0
 22 26  1  0  0  0  0
 20 21  1  0  0  0  0
 20 22  2  0  0  0  0
 17 18  1  0  0  0  0
 17 19  1  0  0  0  0
 17 20  1  0  0  0  0
 14 15  1  0  0  0  0
 14 16  1  0  0  0  0
 14 17  1  0  0  0  0
 11 12  1  0  0  0  0
 11 13  1  0  0  0  0
 11 14  1  0  0  0  0
  9 10  1  0  0  0  0
  9 11  1  0  0  0  0
  9 29  1  0  0  0  0
  7  8  1  0  0  0  0
  7  9  1  0  0  0  0
 33 34  1  0  0  0  0
 33 35  1  0  0  0  0
 33 36  1  0  0  0  0
 31 32  1  0  0  0  0
 31 33  1  0  0  0  0
M  CHG  1  20   1
M  END
$$$$
default_name
  -OEChem-02102213163D

 36 35  0     1  0  0  0  0  0999 V2000
   -4.2256   -3.6731    1.8584 H   0  0  0  0  0  0  0  0  0  0  0  0
   -4.2396   -2.6781    1.4144 C   0  0  0  0  0  0  0  0  0  0  0  0
   -4.9506   -2.0521    1.9514 H   0  0  0  0  0  0  0  0  0  0  0  0
   -4.5266   -2.7521    0.3674 H   0  0  0  0  0  0  0  0  0  0  0  0
   -2.8576   -2.0761    1.5184 C   0  0  0  0  0  0  0  0  0  0  0  0
   -1.9456   -2.7051    2.0404 O   0  0  0  0  0  0  0  0  0  0  0  0
   -2.6926   -0.8481    1.0174 N   0  0  0  0  0  0  0  0  0  0  0  0
   -3.4926   -0.3971    0.5954 H   0  0  0  0  0  0  0  0  0  0  0  0
   -1.4216   -0.1071    1.0434 C   0  0  1  0  0  0  0  0  0  0  0  0
   -0.6709   -0.6930    0.5106 H   0  0  0  0  0  0  0  0  0  0  0  0
   -1.6221    1.2315    0.3051 C   0  0  0  0  0  0  0  0  0  0  0  0
   -2.3970    1.8016    0.8216 H   0  0  0  0  0  0  0  0  0  0  0  0
   -0.6937    1.8053    0.3480 H   0  0  0  0  0  0  0  0  0  0  0  0
   -2.0436    1.0634   -1.1619 C   0  0  0  0  0  0  0  0  0  0  0  0
   -1.1580    1.0146   -1.7970 H   0  0  0  0  0  0  0  0  0  0  0  0
   -2.6154    0.1411   -1.2695 H   0  0  0  0  0  0  0  0  0  0  0  0
   -2.9090    2.2540   -1.5967 C   0  0  0  0  0  0  0  0  0  0  0  0
   -3.7792    2.3111   -0.9389 H   0  0  0  0  0  0  0  0  0  0  0  0
   -2.3224    3.1690   -1.4856 H   0  0  0  0  0  0  0  0  0  0  0  0
   -3.3582    2.1226   -2.9980 N   0  3  0  0  0  0  0  0  0  0  0  0
   -3.0215    1.3235   -3.5073 H   0  0  0  0  0  0  0  0  0  0  0  0
   -4.1591    2.9541   -3.6432 C   0  0  0  0  0  0  0  0  0  0  0  0
   -4.6520    4.0204   -3.0781 N   0  0  0  0  0  0  0  0  0  0  0  0
   -4.4156    4.2139   -2.1209 H   0  0  0  0  0  0  0  0  0  0  0  0
   -5.2580    4.6413   -3.5821 H   0  0  0  0  0  0  0  0  0  0  0  0
   -4.4832    2.7281   -4.8846 N   0  0  0  0  0  0  0  0  0  0  0  0
   -4.1280    1.9182   -5.3631 H   0  0  0  0  0  0  0  0  0  0  0  0
   -5.0911    3.3614   -5.3704 H   0  0  0  0  0  0  0  0  0  0  0  0
   -0.9523    0.1012    2.4848 C   0  0  0  0  0  0  0  0  0  0  0  0
    0.2133   -0.1319    2.7814 O   0  0  0  0  0  0  0  0  0  0  0  0
   -1.8684    0.5006    3.3725 N   0  0  0  0  0  0  0  0  0  0  0  0
   -2.7946    0.7048    3.0343 H   0  0  0  0  0  0  0  0  0  0  0  0
   -1.5848    0.7472    4.7873 C   0  0  0  0  0  0  0  0  0  0  0  0
   -0.8819    1.5774    4.8838 H   0  0  0  0  0  0  0  0  0  0  0  0
   -2.5030    0.9948    5.3214 H   0  0  0  0  0  0  0  0  0  0  0  0
   -1.1344   -0.1399    5.2381 H   0  0  0  0  0  0  0  0  0  0  0  0
  5  6  2  0  0  0  0
  5  7  1  0  0  0  0
  2  3  1  0  0  0  0
  2  4  1  0  0  0  0
  2  5  1  0  0  0  0
  1  2  1  0  0  0  0
 29 30  2  0  0  0  0
 29 31  1  0  0  0  0
 26 27  1  0  0  0  0
 26 28  1  0  0  0  0
 23 24  1  0  0  0  0
 23 25  1  0  0  0  0
 22 23  1  0  0  0  0
 22 26  1  0  0  0  0
 20 21  1  0  0  0  0
 20 22  2  0  0  0  0
 17 18  1  0  0  0  0
 17 19  1  0  0  0  0
 17 20  1  0  0  0  0
 14 15  1  0  0  0  0
 14 16  1  0  0  0  0
 14 17  1  0  0  0  0
 11 12  1  0  0  0  0
 11 13  1  0  0  0  0
 11 14  1  0  0  0  0
  9 10  1  0  0  0  0
  9 11  1  0  0  0  0
  9 29  1  0  0  0  0
  7  8  1  0  0  0  0
  7  9  1  0  0  0  0
 33 34  1  0  0  0  0
 33 35  1  0  0  0  0
 33 36  1  0  0  0  0
 31 32  1  0  0  0  0
 31 33  1  0  0  0  0
M  CHG  1  20   1
M  END
$$$$
default_name
  -OEChem-02102213163D

 36 35  0     1  0  0  0  0  0999 V2000
   -4.2256   -3.6731    1.8584 H   0  0  0  0  0  0  0  0  0  0  0  0
   -4.2396   -2.6781    1.4144 C   0  0  0  0  0  0  0  0  0  0  0  0
   -4.9506   -2.0521    1.9514 H   0  0  0  0  0  0  0  0  0  0  0  0
   -4.5266   -2.7521    0.3674 H   0  0  0  0  0  0  0  0  0  0  0  0
   -2.8576   -2.0761    1.5184 C   0  0  0  0  0  0  0  0  0  0  0  0
   -1.9456   -2.7051    2.0404 O   0  0  0  0  0  0  0  0  0  0  0  0
   -2.6926   -0.8481    1.0174 N   0  0  0  0  0  0  0  0  0  0  0  0
   -3.4926   -0.3971    0.5954 H   0  0  0  0  0  0  0  0  0  0  0  0
   -1.4216   -0.1071    1.0434 C   0  0  1  0  0  0  0  0  0  0  0  0
   -0.6709   -0.6930    0.5106 H   0  0  0  0  0  0  0  0  0  0  0  0
   -1.6221    1.2315    0.3051 C   0  0  0  0  0  0  0  0  0  0  0  0
   -2.3970    1.8016    0.8216 H   0  0  0  0  0  0  0  0  0  0  0  0
   -0.6937    1.8053    0.3480 H   0  0  0  0  0  0  0  0  0  0  0  0
   -2.0436    1.0634   -1.1619 C   0  0  0  0  0  0  0  0  0  0  0  0
   -1.1857    0.7508   -1.7588 H   0  0  0  0  0  0  0  0  0  0  0  0
   -2.8243    0.3049   -1.2283 H   0  0  0  0  0  0  0  0  0  0  0  0
   -2.5776    2.3946   -1.7080 C   0  0  0  0  0  0  0  0  0  0  0  0
   -3.4191    2.7131   -1.0884 H   0  0  0  0  0  0  0  0  0  0  0  0
   -1.7845    3.1426   -1.6371 H   0  0  0  0  0  0  0  0  0  0  0  0
   -3.0182    2.2737   -3.1130 N   0  3  0  0  0  0  0  0  0  0  0  0
   -2.8806    1.3806   -3.5543 H   0  0  0  0  0  0  0  0  0  0  0  0
   -3.5748    3.2262   -3.8423 C   0  0  0  0  0  0  0  0  0  0  0  0
   -3.7984    4.4202   -3.3692 N   0  0  0  0  0  0  0  0  0  0  0  0
   -3.5400    4.6203   -2.4191 H   0  0  0  0  0  0  0  0  0  0  0  0
   -4.2214    5.1318   -3.9362 H   0  0  0  0  0  0  0  0  0  0  0  0
   -3.9208    2.9950   -5.0768 N   0  0  0  0  0  0  0  0  0  0  0  0
   -3.7686    2.0892   -5.4860 H   0  0  0  0  0  0  0  0  0  0  0  0
   -4.3429    3.7204   -5.6265 H   0  0  0  0  0  0  0  0  0  0  0  0
   -0.9523    0.1012    2.4848 C   0  0  0  0  0  0  0  0  0  0  0  0
    0.2133   -0.1319    2.7814 O   0  0  0  0  0  0  0  0  0  0  0  0
   -1.8684    0.5006    3.3725 N   0  0  0  0  0  0  0  0  0  0  0  0
   -2.7946    0.7048    3.0343 H   0  0  0  0  0  0  0  0  0  0  0  0
   -1.5848    0.7472    4.7873 C   0  0  0  0  0  0  0  0  0  0  0  0
   -0.8819    1.5774    4.8838 H   0  0  0  0  0  0  0  0  0  0  0  0
   -2.5030    0.9948    5.3214 H   0  0  0  0  0  0  0  0  0  0  0  0
   -1.1344   -0.1399    5.2381 H   0  0  0  0  0  0  0  0  0  0  0  0
  5  6  2  0  0  0  0
  5  7  1  0  0  0  0
  2  3  1  0  0  0  0
  2  4  1  0  0  0  0
  2  5  1  0  0  0  0
  1  2  1  0  0  0  0
 29 30  2  0  0  0  0
 29 31  1  0  0  0  0
 26 27  1  0  0  0  0
 26 28  1  0  0  0  0
 23 24  1  0  0  0  0
 23 25  1  0  0  0  0
 22 23  1  0  0  0  0
 22 26  1  0  0  0  0
 20 21  1  0  0  0  0
 20 22  2  0  0  0  0
 17 18  1  0  0  0  0
 17 19  1  0  0  0  0
 17 20  1  0  0  0  0
 14 15  1  0  0  0  0
 14 16  1  0  0  0  0
 14 17  1  0  0  0  0
 11 12  1  0  0  0  0
 11 13  1  0  0  0  0
 11 14  1  0  0  0  0
  9 10  1  0  0  0  0
  9 11  1  0  0  0  0
  9 29  1  0  0  0  0
  7  8  1  0  0  0  0
  7  9  1  0  0  0  0
 33 34  1  0  0  0  0
 33 35  1  0  0  0  0
 33 36  1  0  0  0  0
 31 32  1  0  0  0  0
 31 33  1  0  0  0  0
M  CHG  1  20   1
M  END
$$$$
default_name
  -OEChem-02102213163D

 36 35  0     1  0  0  0  0  0999 V2000
   -4.2256   -3.6731    1.8584 H   0  0  0  0  0  0  0  0  0  0  0  0
   -4.2396   -2.6781    1.4144 C   0  0  0  0  0  0  0  0  0  0  0  0
   -4.9506   -2.0521    1.9514 H   0  0  0  0  0  0  0  0  0  0  0  0
   -4.5266   -2.7521    0.3674 H   0  0  0  0  0  0  0  0  0  0  0  0
   -2.8576   -2.0761    1.5184 C   0  0  0  0  0  0  0  0  0  0  0  0
   -1.9456   -2.7051    2.0404 O   0  0  0  0  0  0  0  0  0  0  0  0
   -2.6926   -0.8481    1.0174 N   0  0  0  0  0  0  0  0  0  0  0  0
   -3.4926   -0.3971    0.5954 H   0  0  0  0  0  0  0  0  0  0  0  0
   -1.4216   -0.1071    1.0434 C   0  0  1  0  0  0  0  0  0  0  0  0
   -0.6709   -0.6930    0.5106 H   0  0  0  0  0  0  0  0  0  0  0  0
   -1.6221    1.2315    0.3051 C   0  0  0  0  0  0  0  0  0  0  0  0
   -2.1854    1.9059    0.9532 H   0  0  0  0  0  0  0  0  0  0  0  0
   -0.6462    1.6827    0.1128 H   0  0  0  0  0  0  0  0  0  0  0  0
   -2.3825    1.0900   -1.0215 C   0  0  0  0  0  0  0  0  0  0  0  0
   -1.8331    0.4286   -1.6929 H   0  0  0  0  0  0  0  0  0  0  0  0
   -3.3695    0.6686   -0.8284 H   0  0  0  0  0  0  0  0  0  0  0  0
   -2.5357    2.4654   -1.6852 C   0  0  0  0  0  0  0  0  0  0  0  0
   -3.0629    3.1285   -0.9955 H   0  0  0  0  0  0  0  0  0  0  0  0
   -1.5398    2.8731   -1.8742 H   0  0  0  0  0  0  0  0  0  0  0  0
   -3.2839    2.3806   -2.9563 N   0  3  0  0  0  0  0  0  0  0  0  0
   -3.5578    1.4614   -3.2588 H   0  0  0  0  0  0  0  0  0  0  0  0
   -3.6264    3.3963   -3.7308 C   0  0  0  0  0  0  0  0  0  0  0  0
   -3.3219    4.6284   -3.4333 N   0  0  0  0  0  0  0  0  0  0  0  0
   -2.8117    4.8098   -2.5870 H   0  0  0  0  0  0  0  0  0  0  0  0
   -3.5892    5.3877   -4.0324 H   0  0  0  0  0  0  0  0  0  0  0  0
   -4.2889    3.1910   -4.8337 N   0  0  0  0  0  0  0  0  0  0  0  0
   -4.5468    2.2579   -5.1053 H   0  0  0  0  0  0  0  0  0  0  0  0
   -4.5468    3.9645   -5.4184 H   0  0  0  0  0  0  0  0  0  0  0  0
   -0.9523    0.1012    2.4848 C   0  0  0  0  0  0  0  0  0  0  0  0
    0.2133   -0.1319    2.7814 O   0  0  0  0  0  0  0  0  0  0  0  0
   -1.8684    0.5006    3.3725 N   0  0  0  0  0  0  0  0  0  0  0  0
   -2.7946    0.7048    3.0343 H   0  0  0  0  0  0  0  0  0  0  0  0
   -1.5848    0.7472    4.7873 C   0  0  0  0  0  0  0  0  0  0  0  0
   -0.8819    1.5774    4.8838 H   0  0  0  0  0  0  0  0  0  0  0  0
   -2.5030    0.9948    5.3214 H   0  0  0  0  0  0  0  0  0  0  0  0
   -1.1344   -0.1399    5.2381 H   0  0  0  0  0  0  0  0  0  0  0  0
  5  6  2  0  0  0  0
  5  7  1  0  0  0  0
  2  3  1  0  0  0  0
  2  4  1  0  0  0  0
  2  5  1  0  0  0  0
  1  2  1  0  0  0  0
 29 30  2  0  0  0  0
 29 31  1  0  0  0  0
 26 27  1  0  0  0  0
 26 28  1  0  0  0  0
 23 24  1  0  0  0  0
 23 25  1  0  0  0  0
 22 23  1  0  0  0  0
 22 26  1  0  0  0  0
 20 21  1  0  0  0  0
 20 22  2  0  0  0  0
 17 18  1  0  0  0  0
 17 19  1  0  0  0  0
 17 20  1  0  0  0  0
 14 15  1  0  0  0  0
 14 16  1  0  0  0  0
 14 17  1  0  0  0  0
 11 12  1  0  0  0  0
 11 13  1  0  0  0  0
 11 14  1  0  0  0  0
  9 10  1  0  0  0  0
  9 11  1  0  0  0  0
  9 29  1  0  0  0  0
  7  8  1  0  0  0  0
  7  9  1  0  0  0  0
 33 34  1  0  0  0  0
 33 35  1  0  0  0  0
 33 36  1  0  0  0  0
 31 32  1  0  0  0  0
 31 33  1  0  0  0  0
M  CHG  1  20   1
M  END
$$$$
default_name
  -OEChem-02102213163D

 36 35  0     1  0  0  0  0  0999 V2000
   -4.2256   -3.6731    1.8584 H   0  0  0  0  0  0  0  0  0  0  0  0
   -4.2396   -2.6781    1.4144 C   0  0  0  0  0  0  0  0  0  0  0  0
   -4.9506   -2.0521    1.9514 H   0  0  0  0  0  0  0  0  0  0  0  0
   -4.5266   -2.7521    0.3674 H   0  0  0  0  0  0  0  0  0  0  0  0
   -2.8576   -2.0761    1.5184 C   0  0  0  0  0  0  0  0  0  0  0  0
   -1.9456   -2.7051    2.0404 O   0  0  0  0  0  0  0  0  0  0  0  0
   -2.6926   -0.8481    1.0174 N   0  0  0  0  0  0  0  0  0  0  0  0
   -3.4926   -0.3971    0.5954 H   0  0  0  0  0  0  0  0  0  0  0  0
   -1.4216   -0.1071    1.0434 C   0  0  1  0  0  0  0  0  0  0  0  0
   -0.6709   -0.6930    0.5106 H   0  0  0  0  0  0  0  0  0  0  0  0
   -1.6221    1.2315    0.3051 C   0  0  0  0  0  0  0  0  0  0  0  0
   -2.1854    1.9059    0.9532 H   0  0  0  0  0  0  0  0  0  0  0  0
   -0.6462    1.6827    0.1128 H   0  0  0  0  0  0  0  0  0  0  0  0
   -2.3825    1.0900   -1.0215 C   0  0  0  0  0  0  0  0  0  0  0  0
   -1.9900    0.2411   -1.5830 H   0  0  0  0  0  0  0  0  0  0  0  0
   -3.4408    0.9273   -0.8152 H   0  0  0  0  0  0  0  0  0  0  0  0
   -2.2159    2.3661   -1.8579 C   0  0  0  0  0  0  0  0  0  0  0  0
   -2.5867    3.2141   -1.2776 H   0  0  0  0  0  0  0  0  0  0  0  0
   -1.1521    2.5141   -2.0581 H   0  0  0  0  0  0  0  0  0  0  0  0
   -2.9522    2.2839   -3.1361 N   0  3  0  0  0  0  0  0  0  0  0  0
   -3.4232    1.4171   -3.3312 H   0  0  0  0  0  0  0  0  0  0  0  0
   -3.0501    3.2401   -4.0445 C   0  0  0  0  0  0  0  0  0  0  0  0
   -2.4787    4.4018   -3.8924 N   0  0  0  0  0  0  0  0  0  0  0  0
   -1.9487    4.5745   -3.0566 H   0  0  0  0  0  0  0  0  0  0  0  0
   -2.5626    5.1164   -4.5918 H   0  0  0  0  0  0  0  0  0  0  0  0
   -3.7315    3.0445   -5.1376 N   0  0  0  0  0  0  0  0  0  0  0  0
   -4.1903    2.1646   -5.2997 H   0  0  0  0  0  0  0  0  0  0  0  0
   -3.8033    3.7725   -5.8241 H   0  0  0  0  0  0  0  0  0  0  0  0
   -0.9523    0.1012    2.4848 C   0  0  0  0  0  0  0  0  0  0  0  0
    0.2133   -0.1319    2.7814 O   0  0  0  0  0  0  0  0  0  0  0  0
   -1.8684    0.5006    3.3725 N   0  0  0  0  0  0  0  0  0  0  0  0
   -2.7946    0.7048    3.0343 H   0  0  0  0  0  0  0  0  0  0  0  0
   -1.5848    0.7472    4.7873 C   0  0  0  0  0  0  0  0  0  0  0  0
   -0.8819    1.5774    4.8838 H   0  0  0  0  0  0  0  0  0  0  0  0
   -2.5030    0.9948    5.3214 H   0  0  0  0  0  0  0  0  0  0  0  0
   -1.1344   -0.1399    5.2381 H   0  0  0  0  0  0  0  0  0  0  0  0
  5  6  2  0  0  0  0
  5  7  1  0  0  0  0
  2  3  1  0  0  0  0
  2  4  1  0  0  0  0
  2  5  1  0  0  0  0
  1  2  1  0  0  0  0
 29 30  2  0  0  0  0
 29 31  1  0  0  0  0
 26 27  1  0  0  0  0
 26 28  1  0  0  0  0
 23 24  1  0  0  0  0
 23 25  1  0  0  0  0
 22 23  1  0  0  0  0
 22 26  1  0  0  0  0
 20 21  1  0  0  0  0
 20 22  2  0  0  0  0
 17 18  1  0  0  0  0
 17 19  1  0  0  0  0
 17 20  1  0  0  0  0
 14 15  1  0  0  0  0
 14 16  1  0  0  0  0
 14 17  1  0  0  0  0
 11 12  1  0  0  0  0
 11 13  1  0  0  0  0
 11 14  1  0  0  0  0
  9 10  1  0  0  0  0
  9 11  1  0  0  0  0
  9 29  1  0  0  0  0
  7  8  1  0  0  0  0
  7  9  1  0  0  0  0
 33 34  1  0  0  0  0
 33 35  1  0  0  0  0
 33 36  1  0  0  0  0
 31 32  1  0  0  0  0
 31 33  1  0  0  0  0
M  CHG  1  20   1
M  END
$$$$
default_name
  -OEChem-02102213163D

 36 35  0     1  0  0  0  0  0999 V2000
   -4.2256   -3.6731    1.8584 H   0  0  0  0  0  0  0  0  0  0  0  0
   -4.2396   -2.6781    1.4144 C   0  0  0  0  0  0  0  0  0  0  0  0
   -4.9506   -2.0521    1.9514 H   0  0  0  0  0  0  0  0  0  0  0  0
   -4.5266   -2.7521    0.3674 H   0  0  0  0  0  0  0  0  0  0  0  0
   -2.8576   -2.0761    1.5184 C   0  0  0  0  0  0  0  0  0  0  0  0
   -1.9456   -2.7051    2.0404 O   0  0  0  0  0  0  0  0  0  0  0  0
   -2.6926   -0.8481    1.0174 N   0  0  0  0  0  0  0  0  0  0  0  0
   -3.4926   -0.3971    0.5954 H   0  0  0  0  0  0  0  0  0  0  0  0
   -1.4216   -0.1071    1.0434 C   0  0  1  0  0  0  0  0  0  0  0  0
   -0.6709   -0.6930    0.5106 H   0  0  0  0  0  0  0  0  0  0  0  0
   -1.6221    1.2315    0.3051 C   0  0  0  0  0  0  0  0  0  0  0  0
   -2.1854    1.9059    0.9532 H   0  0  0  0  0  0  0  0  0  0  0  0
   -0.6462    1.6827    0.1128 H   0  0  0  0  0  0  0  0  0  0  0  0
   -2.3825    1.0900   -1.0215 C   0  0  0  0  0  0  0  0  0  0  0  0
   -2.1860    0.1091   -1.4566 H   0  0  0  0  0  0  0  0  0  0  0  0
   -3.4521    1.1948   -0.8372 H   0  0  0  0  0  0  0  0  0  0  0  0
   -1.9251    2.1765   -2.0043 C   0  0  0  0  0  0  0  0  0  0  0  0
   -2.1009    3.1542   -1.5497 H   0  0  0  0  0  0  0  0  0  0  0  0
   -0.8535    2.0572   -2.1806 H   0  0  0  0  0  0  0  0  0  0  0  0
   -2.6492    2.0934   -3.2895 N   0  3  0  0  0  0  0  0  0  0  0  0
   -3.3014    1.3348   -3.3922 H   0  0  0  0  0  0  0  0  0  0  0  0
   -2.5208    2.9200   -4.3138 C   0  0  0  0  0  0  0  0  0  0  0  0
   -1.7040    3.9356   -4.2868 N   0  0  0  0  0  0  0  0  0  0  0  0
   -1.1565    4.0942   -3.4595 H   0  0  0  0  0  0  0  0  0  0  0  0
   -1.6184    4.5532   -5.0730 H   0  0  0  0  0  0  0  0  0  0  0  0
   -3.2186    2.7393   -5.3990 N   0  0  0  0  0  0  0  0  0  0  0  0
   -3.8622    1.9698   -5.4669 H   0  0  0  0  0  0  0  0  0  0  0  0
   -3.1183    3.3689   -6.1737 H   0  0  0  0  0  0  0  0  0  0  0  0
   -0.9523    0.1012    2.4848 C   0  0  0  0  0  0  0  0  0  0  0  0
    0.2133   -0.1319    2.7814 O   0  0  0  0  0  0  0  0  0  0  0  0
   -1.8684    0.5006    3.3725 N   0  0  0  0  0  0  0  0  0  0  0  0
   -2.7946    0.7048    3.0343 H   0  0  0  0  0  0  0  0  0  0  0  0
   -1.5848    0.7472    4.7873 C   0  0  0  0  0  0  0  0  0  0  0  0
   -0.8819    1.5774    4.8838 H   0  0  0  0  0  0  0  0  0  0  0  0
   -2.5030    0.9948    5.3214 H   0  0  0  0  0  0  0  0  0  0  0  0
   -1.1344   -0.1399    5.2381 H   0  0  0  0  0  0  0  0  0  0  0  0
  5  6  2  0  0  0  0
  5  7  1  0  0  0  0
  2  3  1  0  0  0  0
  2  4  1  0  0  0  0
  2  5  1  0  0  0  0
  1  2  1  0  0  0  0
 29 30  2  0  0  0  0
 29 31  1  0  0  0  0
 26 27  1  0  0  0  0
 26 28  1  0  0  0  0
 23 24  1  0  0  0  0
 23 25  1  0  0  0  0
 22 23  1  0  0  0  0
 22 26  1  0  0  0  0
 20 21  1  0  0  0  0
 20 22  2  0  0  0  0
 17 18  1  0  0  0  0
 17 19  1  0  0  0  0
 17 20  1  0  0  0  0
 14 15  1  0  0  0  0
 14 16  1  0  0  0  0
 14 17  1  0  0  0  0
 11 12  1  0  0  0  0
 11 13  1  0  0  0  0
 11 14  1  0  0  0  0
  9 10  1  0  0  0  0
  9 11  1  0  0  0  0
  9 29  1  0  0  0  0
  7  8  1  0  0  0  0
  7  9  1  0  0  0  0
 33 34  1  0  0  0  0
 33 35  1  0  0  0  0
 33 36  1  0  0  0  0
 31 32  1  0  0  0  0
 31 33  1  0  0  0  0
M  CHG  1  20   1
M  END
$$$$
default_name
  -OEChem-02102213163D

 36 35  0     1  0  0  0  0  0999 V2000
   -4.2256   -3.6731    1.8584 H   0  0  0  0  0  0  0  0  0  0  0  0
   -4.2396   -2.6781    1.4144 C   0  0  0  0  0  0  0  0  0  0  0  0
   -4.9506   -2.0521    1.9514 H   0  0  0  0  0  0  0  0  0  0  0  0
   -4.5266   -2.7521    0.3674 H   0  0  0  0  0  0  0  0  0  0  0  0
   -2.8576   -2.0761    1.5184 C   0  0  0  0  0  0  0  0  0  0  0  0
   -1.9456   -2.7051    2.0404 O   0  0  0  0  0  0  0  0  0  0  0  0
   -2.6926   -0.8481    1.0174 N   0  0  0  0  0  0  0  0  0  0  0  0
   -3.4926   -0.3971    0.5954 H   0  0  0  0  0  0  0  0  0  0  0  0
   -1.4216   -0.1071    1.0434 C   0  0  1  0  0  0  0  0  0  0  0  0
   -0.6709   -0.6930    0.5106 H   0  0  0  0  0  0  0  0  0  0  0  0
   -1.6221    1.2315    0.3051 C   0  0  0  0  0  0  0  0  0  0  0  0
   -2.1854    1.9059    0.9532 H   0  0  0  0  0  0  0  0  0  0  0  0
   -0.6462    1.6827    0.1128 H   0  0  0  0  0  0  0  0  0  0  0  0
   -2.3825    1.0900   -1.0215 C   0  0  0  0  0  0  0  0  0  0  0  0
   -2.4079    0.0417   -1.3222 H   0  0  0  0  0  0  0  0  0  0  0  0
   -3.4027    1.4529   -0.8930 H   0  0  0  0  0  0  0  0  0  0  0  0
   -1.6832    1.9097   -2.1146 C   0  0  0  0  0  0  0  0  0  0  0  0
   -1.6385    2.9528   -1.7933 H   0  0  0  0  0  0  0  0  0  0  0  0
   -0.6644    1.5333   -2.2331 H   0  0  0  0  0  0  0  0  0  0  0  0
   -2.3954    1.8219   -3.4060 N   0  3  0  0  0  0  0  0  0  0  0  0
   -3.2007    1.2204   -3.4377 H   0  0  0  0  0  0  0  0  0  0  0  0
   -2.0748    2.4581   -4.5202 C   0  0  0  0  0  0  0  0  0  0  0  0
   -1.0506    3.2615   -4.5895 N   0  0  0  0  0  0  0  0  0  0  0  0
   -0.4890    3.4014   -3.7682 H   0  0  0  0  0  0  0  0  0  0  0  0
   -0.8208    3.7363   -5.4431 H   0  0  0  0  0  0  0  0  0  0  0  0
   -2.7853    2.2964   -5.6002 N   0  0  0  0  0  0  0  0  0  0  0  0
   -3.5849    1.6869   -5.5957 H   0  0  0  0  0  0  0  0  0  0  0  0
   -2.5386    2.7810   -6.4433 H   0  0  0  0  0  0  0  0  0  0  0  0
   -0.9523    0.1012    2.4848 C   0  0  0  0  0  0  0  0  0  0  0  0
    0.2133   -0.1319    2.7814 O   0  0  0  0  0  0  0  0  0  0  0  0
   -1.8684    0.5006    3.3725 N   0  0  0  0  0  0  0  0  0  0  0  0
   -2.7946    0.7048    3.0343 H   0  0  0  0  0  0  0  0  0  0  0  0
   -1.5848    0.7472    4.7873 C   0  0  0  0  0  0  0  0  0  0  0  0
   -0.8819    1.5774    4.8838 H   0  0  0  0  0  0  0  0  0  0  0  0
   -2.5030    0.9948    5.3214 H   0  0  0  0  0  0  0  0  0  0  0  0
   -1.1344   -0.1399    5.2381 H   0  0  0  0  0  0  0  0  0  0  0  0
  5  6  2  0  0  0  0
  5  7  1  0  0  0  0
  2  3  1  0  0  0  0
  2  4  1  0  0  0  0
  2  5  1  0  0  0  0
  1  2  1  0  0  0  0
 29 30  2  0  0  0  0
 29 31  1  0  0  0  0
 26 27  1  0  0  0  0
 26 28  1  0  0  0  0
 23 24  1  0  0  0  0
 23 25  1  0  0  0  0
 22 23  1  0  0  0  0
 22 26  1  0  0  0  0
 20 21  1  0  0  0  0
 20 22  2  0  0  0  0
 17 18  1  0  0  0  0
 17 19  1  0  0  0  0
 17 20  1  0  0  0  0
 14 15  1  0  0  0  0
 14 16  1  0  0  0  0
 14 17  1  0  0  0  0
 11 12  1  0  0  0  0
 11 13  1  0  0  0  0
 11 14  1  0  0  0  0
  9 10  1  0  0  0  0
  9 11  1  0  0  0  0
  9 29  1  0  0  0  0
  7  8  1  0  0  0  0
  7  9  1  0  0  0  0
 33 34  1  0  0  0  0
 33 35  1  0  0  0  0
 33 36  1  0  0  0  0
 31 32  1  0  0  0  0
 31 33  1  0  0  0  0
M  CHG  1  20   1
M  END
$$$$
default_name
  -OEChem-02102213163D

 36 35  0     1  0  0  0  0  0999 V2000
   -4.2256   -3.6731    1.8584 H   0  0  0  0  0  0  0  0  0  0  0  0
   -4.2396   -2.6781    1.4144 C   0  0  0  0  0  0  0  0  0  0  0  0
   -4.9506   -2.0521    1.9514 H   0  0  0  0  0  0  0  0  0  0  0  0
   -4.5266   -2.7521    0.3674 H   0  0  0  0  0  0  0  0  0  0  0  0
   -2.8576   -2.0761    1.5184 C   0  0  0  0  0  0  0  0  0  0  0  0
   -1.9456   -2.7051    2.0404 O   0  0  0  0  0  0  0  0  0  0  0  0
   -2.6926   -0.8481    1.0174 N   0  0  0  0  0  0  0  0  0  0  0  0
   -3.4926   -0.3971    0.5954 H   0  0  0  0  0  0  0  0  0  0  0  0
   -1.4216   -0.1071    1.0434 C   0  0  1  0  0  0  0  0  0  0  0  0
   -0.6709   -0.6930    0.5106 H   0  0  0  0  0  0  0  0  0  0  0  0
   -1.6221    1.2315    0.3051 C   0  0  0  0  0  0  0  0  0  0  0  0
   -2.1854    1.9059    0.9532 H   0  0  0  0  0  0  0  0  0  0  0  0
   -0.6462    1.6827    0.1128 H   0  0  0  0  0  0  0  0  0  0  0  0
   -2.3825    1.0900   -1.0215 C   0  0  0  0  0  0  0  0  0  0  0  0
   -2.6405    0.0434   -1.1891 H   0  0  0  0  0  0  0  0  0  0  0  0
   -3.2960    1.6840   -0.9788 H   0  0  0  0  0  0  0  0  0  0  0  0
   -1.5065    1.5837   -2.1811 C   0  0  0  0  0  0  0  0  0  0  0  0
   -1.2310    2.6237   -1.9917 H   0  0  0  0  0  0  0  0  0  0  0  0
   -0.5975    0.9783   -2.2123 H   0  0  0  0  0  0  0  0  0  0  0  0
   -2.2082    1.4880   -3.4777 N   0  3  0  0  0  0  0  0  0  0  0  0
   -3.1279    1.0814   -3.4646 H   0  0  0  0  0  0  0  0  0  0  0  0
   -1.7423    1.8857   -4.6497 C   0  0  0  0  0  0  0  0  0  0  0  0
   -0.5629    2.4255   -4.7798 N   0  0  0  0  0  0  0  0  0  0  0  0
    0.0081    2.5435   -3.9616 H   0  0  0  0  0  0  0  0  0  0  0  0
   -0.2242    2.7215   -5.6768 H   0  0  0  0  0  0  0  0  0  0  0  0
   -2.4609    1.7459   -5.7274 N   0  0  0  0  0  0  0  0  0  0  0  0
   -3.3772    1.3351   -5.6772 H   0  0  0  0  0  0  0  0  0  0  0  0
   -2.1036    2.0490   -6.6145 H   0  0  0  0  0  0  0  0  0  0  0  0
   -0.9523    0.1012    2.4848 C   0  0  0  0  0  0  0  0  0  0  0  0
    0.2133   -0.1319    2.7814 O   0  0  0  0  0  0  0  0  0  0  0  0
   -1.8684    0.5006    3.3725 N   0  0  0  0  0  0  0  0  0  0  0  0
   -2.7946    0.7048    3.0343 H   0  0  0  0  0  0  0  0  0  0  0  0
   -1.5848    0.7472    4.7873 C   0  0  0  0  0  0  0  0  0  0  0  0
   -0.8819    1.5774    4.8838 H   0  0  0  0  0  0  0  0  0  0  0  0
   -2.5030    0.9948    5.3214 H   0  0  0  0  0  0  0  0  0  0  0  0
   -1.1344   -0.1399    5.2381 H   0  0  0  0  0  0  0  0  0  0  0  0
  5  6  2  0  0  0  0
  5  7  1  0  0  0  0
  2  3  1  0  0  0  0
  2  4  1  0  0  0  0
  2  5  1  0  0  0  0
  1  2  1  0  0  0  0
 29 30  2  0  0  0  0
 29 31  1  0  0  0  0
 26 27  1  0  0  0  0
 26 28  1  0  0  0  0
 23 24  1  0  0  0  0
 23 25  1  0  0  0  0
 22 23  1  0  0  0  0
 22 26  1  0  0  0  0
 20 21  1  0  0  0  0
 20 22  2  0  0  0  0
 17 18  1  0  0  0  0
 17 19  1  0  0  0  0
 17 20  1  0  0  0  0
 14 15  1  0  0  0  0
 14 16  1  0  0  0  0
 14 17  1  0  0  0  0
 11 12  1  0  0  0  0
 11 13  1  0  0  0  0
 11 14  1  0  0  0  0
  9 10  1  0  0  0  0
  9 11  1  0  0  0  0
  9 29  1  0  0  0  0
  7  8  1  0  0  0  0
  7  9  1  0  0  0  0
 33 34  1  0  0  0  0
 33 35  1  0  0  0  0
 33 36  1  0  0  0  0
 31 32  1  0  0  0  0
 31 33  1  0  0  0  0
M  CHG  1  20   1
M  END
$$$$
default_name
  -OEChem-02102213163D

 36 35  0     1  0  0  0  0  0999 V2000
   -4.2256   -3.6731    1.8584 H   0  0  0  0  0  0  0  0  0  0  0  0
   -4.2396   -2.6781    1.4144 C   0  0  0  0  0  0  0  0  0  0  0  0
   -4.9506   -2.0521    1.9514 H   0  0  0  0  0  0  0  0  0  0  0  0
   -4.5266   -2.7521    0.3674 H   0  0  0  0  0  0  0  0  0  0  0  0
   -2.8576   -2.0761    1.5184 C   0  0  0  0  0  0  0  0  0  0  0  0
   -1.9456   -2.7051    2.0404 O   0  0  0  0  0  0  0  0  0  0  0  0
   -2.6926   -0.8481    1.0174 N   0  0  0  0  0  0  0  0  0  0  0  0
   -3.4926   -0.3971    0.5954 H   0  0  0  0  0  0  0  0  0  0  0  0
   -1.4216   -0.1071    1.0434 C   0  0  1  0  0  0  0  0  0  0  0  0
   -0.6709   -0.6930    0.5106 H   0  0  0  0  0  0  0  0  0  0  0  0
   -1.6221    1.2315    0.3051 C   0  0  0  0  0  0  0  0  0  0  0  0
   -2.1854    1.9059    0.9532 H   0  0  0  0  0  0  0  0  0  0  0  0
   -0.6462    1.6827    0.1128 H   0  0  0  0  0  0  0  0  0  0  0  0
   -2.3825    1.0900   -1.0215 C   0  0  0  0  0  0  0  0  0  0  0  0
   -2.8679    0.1142   -1.0663 H   0  0  0  0  0  0  0  0  0  0  0  0
   -3.1392    1.8723   -1.0888 H   0  0  0  0  0  0  0  0  0  0  0  0
   -1.4072    1.2207   -2.1993 C   0  0  0  0  0  0  0  0  0  0  0  0
   -0.9064    2.1893   -2.1315 H   0  0  0  0  0  0  0  0  0  0  0  0
   -0.6576    0.4299   -2.1194 H   0  0  0  0  0  0  0  0  0  0  0  0
   -2.1003    1.1144   -3.4997 N   0  3  0  0  0  0  0  0  0  0  0  0
   -3.0881    0.9275   -3.4711 H   0  0  0  0  0  0  0  0  0  0  0  0
   -1.5460    1.2418   -4.6936 C   0  0  0  0  0  0  0  0  0  0  0  0
   -0.2742    1.4845   -4.8450 N   0  0  0  0  0  0  0  0  0  0  0  0
    0.3011    1.5788   -4.0267 H   0  0  0  0  0  0  0  0  0  0  0  0
    0.1308    1.5779   -5.7583 H   0  0  0  0  0  0  0  0  0  0  0  0
   -2.2676    1.1253   -5.7720 N   0  0  0  0  0  0  0  0  0  0  0  0
   -3.2533    0.9384   -5.7060 H   0  0  0  0  0  0  0  0  0  0  0  0
   -1.8431    1.2227   -6.6758 H   0  0  0  0  0  0  0  0  0  0  0  0
   -0.9523    0.1012    2.4848 C   0  0  0  0  0  0  0  0  0  0  0  0
    0.2133   -0.1319    2.7814 O   0  0  0  0  0  0  0  0  0  0  0  0
   -1.8684    0.5006    3.3725 N   0  0  0  0  0  0  0  0  0  0  0  0
   -2.7946    0.7048    3.0343 H   0  0  0  0  0  0  0  0  0  0  0  0
   -1.5848    0.7472    4.7873 C   0  0  0  0  0  0  0  0  0  0  0  0
   -0.8819    1.5774    4.8838 H   0  0  0  0  0  0  0  0  0  0  0  0
   -2.5030    0.9948    5.3214 H   0  0  0  0  0  0  0  0  0  0  0  0
   -1.1344   -0.1399    5.2381 H   0  0  0  0  0  0  0  0  0  0  0  0
  5  6  2  0  0  0  0
  5  7  1  0  0  0  0
  2  3  1  0  0  0  0
  2  4  1  0  0  0  0
  2  5  1  0  0  0  0
  1  2  1  0  0  0  0
 29 30  2  0  0  0  0
 29 31  1  0  0  0  0
 26 27  1  0  0  0  0
 26 28  1  0  0  0  0
 23 24  1  0  0  0  0
 23 25  1  0  0  0  0
 22 23  1  0  0  0  0
 22 26  1  0  0  0  0
 20 21  1  0  0  0  0
 20 22  2  0  0  0  0
 17 18  1  0  0  0  0
 17 19  1  0  0  0  0
 17 20  1  0  0  0  0
 14 15  1  0  0  0  0
 14 16  1  0  0  0  0
 14 17  1  0  0  0  0
 11 12  1  0  0  0  0
 11 13  1  0  0  0  0
 11 14  1  0  0  0  0
  9 10  1  0  0  0  0
  9 11  1  0  0  0  0
  9 29  1  0  0  0  0
  7  8  1  0  0  0  0
  7  9  1  0  0  0  0
 33 34  1  0  0  0  0
 33 35  1  0  0  0  0
 33 36  1  0  0  0  0
 31 32  1  0  0  0  0
 31 33  1  0  0  0  0
M  CHG  1  20   1
M  END
$$$$
default_name
  -OEChem-02102213163D

 36 35  0     1  0  0  0  0  0999 V2000
   -4.2256   -3.6731    1.8584 H   0  0  0  0  0  0  0  0  0  0  0  0
   -4.2396   -2.6781    1.4144 C   0  0  0  0  0  0  0  0  0  0  0  0
   -4.9506   -2.0521    1.9514 H   0  0  0  0  0  0  0  0  0  0  0  0
   -4.5266   -2.7521    0.3674 H   0  0  0  0  0  0  0  0  0  0  0  0
   -2.8576   -2.0761    1.5184 C   0  0  0  0  0  0  0  0  0  0  0  0
   -1.9456   -2.7051    2.0404 O   0  0  0  0  0  0  0  0  0  0  0  0
   -2.6926   -0.8481    1.0174 N   0  0  0  0  0  0  0  0  0  0  0  0
   -3.4926   -0.3971    0.5954 H   0  0  0  0  0  0  0  0  0  0  0  0
   -1.4216   -0.1071    1.0434 C   0  0  1  0  0  0  0  0  0  0  0  0
   -0.6709   -0.6930    0.5106 H   0  0  0  0  0  0  0  0  0  0  0  0
   -1.6221    1.2315    0.3051 C   0  0  0  0  0  0  0  0  0  0  0  0
   -2.1854    1.9059    0.9532 H   0  0  0  0  0  0  0  0  0  0  0  0
   -0.6462    1.6827    0.1128 H   0  0  0  0  0  0  0  0  0  0  0  0
   -2.3825    1.0900   -1.0215 C   0  0  0  0  0  0  0  0  0  0  0  0
   -3.0747    0.2491   -0.9621 H   0  0  0  0  0  0  0  0  0  0  0  0
   -2.9429    2.0051   -1.2154 H   0  0  0  0  0  0  0  0  0  0  0  0
   -1.3919    0.8456   -2.1681 C   0  0  0  0  0  0  0  0  0  0  0  0
   -0.6866    1.6791   -2.2031 H   0  0  0  0  0  0  0  0  0  0  0  0
   -0.8404   -0.0745   -1.9608 H   0  0  0  0  0  0  0  0  0  0  0  0
   -2.0792    0.7267   -3.4705 N   0  3  0  0  0  0  0  0  0  0  0  0
   -3.0838    0.7691   -3.4566 H   0  0  0  0  0  0  0  0  0  0  0  0
   -1.4993    0.5704   -4.6488 C   0  0  0  0  0  0  0  0  0  0  0  0
   -0.2042    0.5026   -4.7804 N   0  0  0  0  0  0  0  0  0  0  0  0
    0.3700    0.5731   -3.9590 H   0  0  0  0  0  0  0  0  0  0  0  0
    0.2198    0.3835   -5.6820 H   0  0  0  0  0  0  0  0  0  0  0  0
   -2.2186    0.4769   -5.7309 N   0  0  0  0  0  0  0  0  0  0  0  0
   -3.2217    0.5239   -5.6799 H   0  0  0  0  0  0  0  0  0  0  0  0
   -1.7747    0.3585   -6.6228 H   0  0  0  0  0  0  0  0  0  0  0  0
   -0.9523    0.1012    2.4848 C   0  0  0  0  0  0  0  0  0  0  0  0
    0.2133   -0.1319    2.7814 O   0  0  0  0  0  0  0  0  0  0  0  0
   -1.8684    0.5006    3.3725 N   0  0  0  0  0  0  0  0  0  0  0  0
   -2.7946    0.7048    3.0343 H   0  0  0  0  0  0  0  0  0  0  0  0
   -1.5848    0.7472    4.7873 C   0  0  0  0  0  0  0  0  0  0  0  0
   -0.8819    1.5774    4.8838 H   0  0  0  0  0  0  0  0  0  0  0  0
   -2.5030    0.9948    5.3214 H   0  0  0  0  0  0  0  0  0  0  0  0
   -1.1344   -0.1399    5.2381 H   0  0  0  0  0  0  0  0  0  0  0  0
  5  6  2  0  0  0  0
  5  7  1  0  0  0  0
  2  3  1  0  0  0  0
  2  4  1  0  0  0  0
  2  5  1  0  0  0  0
  1  2  1  0  0  0  0
 29 30  2  0  0  0  0
 29 31  1  0  0  0  0
 26 27  1  0  0  0  0
 26 28  1  0  0  0  0
 23 24  1  0  0  0  0
 23 25  1  0  0  0  0
 22 23  1  0  0  0  0
 22 26  1  0  0  0  0
 20 21  1  0  0  0  0
 20 22  2  0  0  0  0
 17 18  1  0  0  0  0
 17 19  1  0  0  0  0
 17 20  1  0  0  0  0
 14 15  1  0  0  0  0
 14 16  1  0  0  0  0
 14 17  1  0  0  0  0
 11 12  1  0  0  0  0
 11 13  1  0  0  0  0
 11 14  1  0  0  0  0
  9 10  1  0  0  0  0
  9 11  1  0  0  0  0
  9 29  1  0  0  0  0
  7  8  1  0  0  0  0
  7  9  1  0  0  0  0
 33 34  1  0  0  0  0
 33 35  1  0  0  0  0
 33 36  1  0  0  0  0
 31 32  1  0  0  0  0
 31 33  1  0  0  0  0
M  CHG  1  20   1
M  END
$$$$
default_name
  -OEChem-02102213163D

 36 35  0     1  0  0  0  0  0999 V2000
   -4.2256   -3.6731    1.8584 H   0  0  0  0  0  0  0  0  0  0  0  0
   -4.2396   -2.6781    1.4144 C   0  0  0  0  0  0  0  0  0  0  0  0
   -4.9506   -2.0521    1.9514 H   0  0  0  0  0  0  0  0  0  0  0  0
   -4.5266   -2.7521    0.3674 H   0  0  0  0  0  0  0  0  0  0  0  0
   -2.8576   -2.0761    1.5184 C   0  0  0  0  0  0  0  0  0  0  0  0
   -1.9456   -2.7051    2.0404 O   0  0  0  0  0  0  0  0  0  0  0  0
   -2.6926   -0.8481    1.0174 N   0  0  0  0  0  0  0  0  0  0  0  0
   -3.4926   -0.3971    0.5954 H   0  0  0  0  0  0  0  0  0  0  0  0
   -1.4216   -0.1071    1.0434 C   0  0  1  0  0  0  0  0  0  0  0  0
   -0.6709   -0.6930    0.5106 H   0  0  0  0  0  0  0  0  0  0  0  0
   -1.6221    1.2315    0.3051 C   0  0  0  0  0  0  0  0  0  0  0  0
   -2.1854    1.9059    0.9532 H   0  0  0  0  0  0  0  0  0  0  0  0
   -0.6462    1.6827    0.1128 H   0  0  0  0  0  0  0  0  0  0  0  0
   -2.3825    1.0900   -1.0215 C   0  0  0  0  0  0  0  0  0  0  0  0
   -3.2468    0.4390   -0.8837 H   0  0  0  0  0  0  0  0  0  0  0  0
   -2.7207    2.0733   -1.3501 H   0  0  0  0  0  0  0  0  0  0  0  0
   -1.4618    0.4839   -2.0894 C   0  0  0  0  0  0  0  0  0  0  0  0
   -0.5866    1.1280   -2.2016 H   0  0  0  0  0  0  0  0  0  0  0  0
   -1.1335   -0.5004   -1.7474 H   0  0  0  0  0  0  0  0  0  0  0  0
   -2.1461    0.3511   -3.3921 N   0  3  0  0  0  0  0  0  0  0  0  0
   -3.1155    0.6170   -3.4222 H   0  0  0  0  0  0  0  0  0  0  0  0
   -1.6054   -0.0828   -4.5183 C   0  0  0  0  0  0  0  0  0  0  0  0
   -0.3576   -0.4531   -4.5906 N   0  0  0  0  0  0  0  0  0  0  0  0
    0.2100   -0.4050   -3.7630 H   0  0  0  0  0  0  0  0  0  0  0  0
    0.0370   -0.7804   -5.4531 H   0  0  0  0  0  0  0  0  0  0  0  0
   -2.3173   -0.1551   -5.6070 N   0  0  0  0  0  0  0  0  0  0  0  0
   -3.2844    0.1197   -5.6009 H   0  0  0  0  0  0  0  0  0  0  0  0
   -1.9031   -0.4848   -6.4593 H   0  0  0  0  0  0  0  0  0  0  0  0
   -0.9523    0.1012    2.4848 C   0  0  0  0  0  0  0  0  0  0  0  0
    0.2133   -0.1319    2.7814 O   0  0  0  0  0  0  0  0  0  0  0  0
   -1.8684    0.5006    3.3725 N   0  0  0  0  0  0  0  0  0  0  0  0
   -2.7946    0.7048    3.0343 H   0  0  0  0  0  0  0  0  0  0  0  0
   -1.5848    0.7472    4.7873 C   0  0  0  0  0  0  0  0  0  0  0  0
   -0.8819    1.5774    4.8838 H   0  0  0  0  0  0  0  0  0  0  0  0
   -2.5030    0.9948    5.3214 H   0  0  0  0  0  0  0  0  0  0  0  0
   -1.1344   -0.1399    5.2381 H   0  0  0  0  0  0  0  0  0  0  0  0
  5  6  2  0  0  0  0
  5  7  1  0  0  0  0
  2  3  1  0  0  0  0
  2  4  1  0  0  0  0
  2  5  1  0  0  0  0
  1  2  1  0  0  0  0
 29 30  2  0  0  0  0
 29 31  1  0  0  0  0
 26 27  1  0  0  0  0
 26 28  1  0  0  0  0
 23 24  1  0  0  0  0
 23 25  1  0  0  0  0
 22 23  1  0  0  0  0
 22 26  1  0  0  0  0
 20 21  1  0  0  0  0
 20 22  2  0  0  0  0
 17 18  1  0  0  0  0
 17 19  1  0  0  0  0
 17 20  1  0  0  0  0
 14 15  1  0  0  0  0
 14 16  1  0  0  0  0
 14 17  1  0  0  0  0
 11 12  1  0  0  0  0
 11 13  1  0  0  0  0
 11 14  1  0  0  0  0
  9 10  1  0  0  0  0
  9 11  1  0  0  0  0
  9 29  1  0  0  0  0
  7  8  1  0  0  0  0
  7  9  1  0  0  0  0
 33 34  1  0  0  0  0
 33 35  1  0  0  0  0
 33 36  1  0  0  0  0
 31 32  1  0  0  0  0
 31 33  1  0  0  0  0
M  CHG  1  20   1
M  END
$$$$
default_name
  -OEChem-02102213163D

 36 35  0     1  0  0  0  0  0999 V2000
   -4.2256   -3.6731    1.8584 H   0  0  0  0  0  0  0  0  0  0  0  0
   -4.2396   -2.6781    1.4144 C   0  0  0  0  0  0  0  0  0  0  0  0
   -4.9506   -2.0521    1.9514 H   0  0  0  0  0  0  0  0  0  0  0  0
   -4.5266   -2.7521    0.3674 H   0  0  0  0  0  0  0  0  0  0  0  0
   -2.8576   -2.0761    1.5184 C   0  0  0  0  0  0  0  0  0  0  0  0
   -1.9456   -2.7051    2.0404 O   0  0  0  0  0  0  0  0  0  0  0  0
   -2.6926   -0.8481    1.0174 N   0  0  0  0  0  0  0  0  0  0  0  0
   -3.4926   -0.3971    0.5954 H   0  0  0  0  0  0  0  0  0  0  0  0
   -1.4216   -0.1071    1.0434 C   0  0  1  0  0  0  0  0  0  0  0  0
   -0.6709   -0.6930    0.5106 H   0  0  0  0  0  0  0  0  0  0  0  0
   -1.6221    1.2315    0.3051 C   0  0  0  0  0  0  0  0  0  0  0  0
   -2.1854    1.9059    0.9532 H   0  0  0  0  0  0  0  0  0  0  0  0
   -0.6462    1.6827    0.1128 H   0  0  0  0  0  0  0  0  0  0  0  0
   -2.3825    1.0900   -1.0215 C   0  0  0  0  0  0  0  0  0  0  0  0
   -3.3725    0.6709   -0.8364 H   0  0  0  0  0  0  0  0  0  0  0  0
   -2.4876    2.0722   -1.4836 H   0  0  0  0  0  0  0  0  0  0  0  0
   -1.6120    0.1602   -1.9688 C   0  0  0  0  0  0  0  0  0  0  0  0
   -0.6133    0.5736   -2.1272 H   0  0  0  0  0  0  0  0  0  0  0  0
   -1.5170   -0.8190   -1.4936 H   0  0  0  0  0  0  0  0  0  0  0  0
   -2.2966    0.0133   -3.2698 N   0  3  0  0  0  0  0  0  0  0  0  0
   -3.1809    0.4816   -3.3703 H   0  0  0  0  0  0  0  0  0  0  0  0
   -1.8571   -0.6734   -4.3111 C   0  0  0  0  0  0  0  0  0  0  0  0
   -0.7241   -1.3176   -4.2883 N   0  0  0  0  0  0  0  0  0  0  0  0
   -0.1679   -1.2889   -3.4521 H   0  0  0  0  0  0  0  0  0  0  0  0
   -0.4053   -1.8344   -5.0872 H   0  0  0  0  0  0  0  0  0  0  0  0
   -2.5568   -0.7276   -5.4087 N   0  0  0  0  0  0  0  0  0  0  0  0
   -3.4373   -0.2465   -5.4742 H   0  0  0  0  0  0  0  0  0  0  0  0
   -2.2197   -1.2497   -6.1963 H   0  0  0  0  0  0  0  0  0  0  0  0
   -0.9523    0.1012    2.4848 C   0  0  0  0  0  0  0  0  0  0  0  0
    0.2133   -0.1319    2.7814 O   0  0  0  0  0  0  0  0  0  0  0  0
   -1.8684    0.5006    3.3725 N   0  0  0  0  0  0  0  0  0  0  0  0
   -2.7946    0.7048    3.0343 H   0  0  0  0  0  0  0  0  0  0  0  0
   -1.5848    0.7472    4.7873 C   0  0  0  0  0  0  0  0  0  0  0  0
   -0.8819    1.5774    4.8838 H   0  0  0  0  0  0  0  0  0  0  0  0
   -2.5030    0.9948    5.3214 H   0  0  0  0  0  0  0  0  0  0  0  0
   -1.1344   -0.1399    5.2381 H   0  0  0  0  0  0  0  0  0  0  0  0
  5  6  2  0  0  0  0
  5  7  1  0  0  0  0
  2  3  1  0  0  0  0
  2  4  1  0  0  0  0
  2  5  1  0  0  0  0
  1  2  1  0  0  0  0
 29 30  2  0  0  0  0
 29 31  1  0  0  0  0
 26 27  1  0  0  0  0
 26 28  1  0  0  0  0
 23 24  1  0  0  0  0
 23 25  1  0  0  0  0
 22 23  1  0  0  0  0
 22 26  1  0  0  0  0
 20 21  1  0  0  0  0
 20 22  2  0  0  0  0
 17 18  1  0  0  0  0
 17 19  1  0  0  0  0
 17 20  1  0  0  0  0
 14 15  1  0  0  0  0
 14 16  1  0  0  0  0
 14 17  1  0  0  0  0
 11 12  1  0  0  0  0
 11 13  1  0  0  0  0
 11 14  1  0  0  0  0
  9 10  1  0  0  0  0
  9 11  1  0  0  0  0
  9 29  1  0  0  0  0
  7  8  1  0  0  0  0
  7  9  1  0  0  0  0
 33 34  1  0  0  0  0
 33 35  1  0  0  0  0
 33 36  1  0  0  0  0
 31 32  1  0  0  0  0
 31 33  1  0  0  0  0
M  CHG  1  20   1
M  END
$$$$
default_name
  -OEChem-02102213163D

 36 35  0     1  0  0  0  0  0999 V2000
   -4.2256   -3.6731    1.8584 H   0  0  0  0  0  0  0  0  0  0  0  0
   -4.2396   -2.6781    1.4144 C   0  0  0  0  0  0  0  0  0  0  0  0
   -4.9506   -2.0521    1.9514 H   0  0  0  0  0  0  0  0  0  0  0  0
   -4.5266   -2.7521    0.3674 H   0  0  0  0  0  0  0  0  0  0  0  0
   -2.8576   -2.0761    1.5184 C   0  0  0  0  0  0  0  0  0  0  0  0
   -1.9456   -2.7051    2.0404 O   0  0  0  0  0  0  0  0  0  0  0  0
   -2.6926   -0.8481    1.0174 N   0  0  0  0  0  0  0  0  0  0  0  0
   -3.4926   -0.3971    0.5954 H   0  0  0  0  0  0  0  0  0  0  0  0
   -1.4216   -0.1071    1.0434 C   0  0  1  0  0  0  0  0  0  0  0  0
   -0.6709   -0.6930    0.5106 H   0  0  0  0  0  0  0  0  0  0  0  0
   -1.6221    1.2315    0.3051 C   0  0  0  0  0  0  0  0  0  0  0  0
   -2.1854    1.9059    0.9532 H   0  0  0  0  0  0  0  0  0  0  0  0
   -0.6462    1.6827    0.1128 H   0  0  0  0  0  0  0  0  0  0  0  0
   -2.3825    1.0900   -1.0215 C   0  0  0  0  0  0  0  0  0  0  0  0
   -3.4431    0.9291   -0.8235 H   0  0  0  0  0  0  0  0  0  0  0  0
   -2.2595    2.0019   -1.6068 H   0  0  0  0  0  0  0  0  0  0  0  0
   -1.8324   -0.1034   -1.8144 C   0  0  0  0  0  0  0  0  0  0  0  0
   -0.7649    0.0535   -1.9849 H   0  0  0  0  0  0  0  0  0  0  0  0
   -1.9647   -1.0084   -1.2168 H   0  0  0  0  0  0  0  0  0  0  0  0
   -2.5204   -0.2636   -3.1120 N   0  3  0  0  0  0  0  0  0  0  0  0
   -3.2756    0.3720   -3.3044 H   0  0  0  0  0  0  0  0  0  0  0  0
   -2.2371   -1.1609   -4.0412 C   0  0  0  0  0  0  0  0  0  0  0  0
   -1.2786   -2.0320   -3.8944 N   0  0  0  0  0  0  0  0  0  0  0  0
   -0.7379   -2.0183   -3.0476 H   0  0  0  0  0  0  0  0  0  0  0  0
   -1.0769   -2.7066   -4.6093 H   0  0  0  0  0  0  0  0  0  0  0  0
   -2.9209   -1.2016   -5.1494 N   0  0  0  0  0  0  0  0  0  0  0  0
   -3.6698   -0.5499   -5.3086 H   0  0  0  0  0  0  0  0  0  0  0  0
   -2.7027   -1.8840   -5.8518 H   0  0  0  0  0  0  0  0  0  0  0  0
   -0.9523    0.1012    2.4848 C   0  0  0  0  0  0  0  0  0  0  0  0
    0.2133   -0.1319    2.7814 O   0  0  0  0  0  0  0  0  0  0  0  0
   -1.8684    0.5006    3.3725 N   0  0  0  0  0  0  0  0  0  0  0  0
   -2.7946    0.7048    3.0343 H   0  0  0  0  0  0  0  0  0  0  0  0
   -1.5848    0.7472    4.7873 C   0  0  0  0  0  0  0  0  0  0  0  0
   -0.8819    1.5774    4.8838 H   0  0  0  0  0  0  0  0  0  0  0  0
   -2.5030    0.9948    5.3214 H   0  0  0  0  0  0  0  0  0  0  0  0
   -1.1344   -0.1399    5.2381 H   0  0  0  0  0  0  0  0  0  0  0  0
  5  6  2  0  0  0  0
  5  7  1  0  0  0  0
  2  3  1  0  0  0  0
  2  4  1  0  0  0  0
  2  5  1  0  0  0  0
  1  2  1  0  0  0  0
 29 30  2  0  0  0  0
 29 31  1  0  0  0  0
 26 27  1  0  0  0  0
 26 28  1  0  0  0  0
 23 24  1  0  0  0  0
 23 25  1  0  0  0  0
 22 23  1  0  0  0  0
 22 26  1  0  0  0  0
 20 21  1  0  0  0  0
 20 22  2  0  0  0  0
 17 18  1  0  0  0  0
 17 19  1  0  0  0  0
 17 20  1  0  0  0  0
 14 15  1  0  0  0  0
 14 16  1  0  0  0  0
 14 17  1  0  0  0  0
 11 12  1  0  0  0  0
 11 13  1  0  0  0  0
 11 14  1  0  0  0  0
  9 10  1  0  0  0  0
  9 11  1  0  0  0  0
  9 29  1  0  0  0  0
  7  8  1  0  0  0  0
  7  9  1  0  0  0  0
 33 34  1  0  0  0  0
 33 35  1  0  0  0  0
 33 36  1  0  0  0  0
 31 32  1  0  0  0  0
 31 33  1  0  0  0  0
M  CHG  1  20   1
M  END
$$$$
default_name
  -OEChem-02102213163D

 36 35  0     1  0  0  0  0  0999 V2000
   -4.2256   -3.6731    1.8584 H   0  0  0  0  0  0  0  0  0  0  0  0
   -4.2396   -2.6781    1.4144 C   0  0  0  0  0  0  0  0  0  0  0  0
   -4.9506   -2.0521    1.9514 H   0  0  0  0  0  0  0  0  0  0  0  0
   -4.5266   -2.7521    0.3674 H   0  0  0  0  0  0  0  0  0  0  0  0
   -2.8576   -2.0761    1.5184 C   0  0  0  0  0  0  0  0  0  0  0  0
   -1.9456   -2.7051    2.0404 O   0  0  0  0  0  0  0  0  0  0  0  0
   -2.6926   -0.8481    1.0174 N   0  0  0  0  0  0  0  0  0  0  0  0
   -3.4926   -0.3971    0.5954 H   0  0  0  0  0  0  0  0  0  0  0  0
   -1.4216   -0.1071    1.0434 C   0  0  1  0  0  0  0  0  0  0  0  0
   -0.6709   -0.6930    0.5106 H   0  0  0  0  0  0  0  0  0  0  0  0
   -1.6221    1.2315    0.3051 C   0  0  0  0  0  0  0  0  0  0  0  0
   -2.1854    1.9059    0.9532 H   0  0  0  0  0  0  0  0  0  0  0  0
   -0.6462    1.6827    0.1128 H   0  0  0  0  0  0  0  0  0  0  0  0
   -2.3825    1.0900   -1.0215 C   0  0  0  0  0  0  0  0  0  0  0  0
   -3.4539    1.1960   -0.8458 H   0  0  0  0  0  0  0  0  0  0  0  0
   -2.0519    1.8672   -1.7114 H   0  0  0  0  0  0  0  0  0  0  0  0
   -2.1079   -0.2890   -1.6367 C   0  0  0  0  0  0  0  0  0  0  0  0
   -1.0309   -0.3967   -1.7844 H   0  0  0  0  0  0  0  0  0  0  0  0
   -2.4461   -1.0559   -0.9358 H   0  0  0  0  0  0  0  0  0  0  0  0
   -2.8022   -0.4608   -2.9294 N   0  3  0  0  0  0  0  0  0  0  0  0
   -3.3931    0.2958   -3.2289 H   0  0  0  0  0  0  0  0  0  0  0  0
   -2.7197   -1.5124   -3.7272 C   0  0  0  0  0  0  0  0  0  0  0  0
   -1.9833   -2.5476   -3.4355 N   0  0  0  0  0  0  0  0  0  0  0  0
   -1.4613   -2.5436   -2.5770 H   0  0  0  0  0  0  0  0  0  0  0  0
   -1.9321   -3.3378   -4.0518 H   0  0  0  0  0  0  0  0  0  0  0  0
   -3.3848   -1.5449   -4.8470 N   0  0  0  0  0  0  0  0  0  0  0  0
   -3.9662   -0.7697   -5.1152 H   0  0  0  0  0  0  0  0  0  0  0  0
   -3.3193   -2.3445   -5.4493 H   0  0  0  0  0  0  0  0  0  0  0  0
   -0.9523    0.1012    2.4848 C   0  0  0  0  0  0  0  0  0  0  0  0
    0.2133   -0.1319    2.7814 O   0  0  0  0  0  0  0  0  0  0  0  0
   -1.8684    0.5006    3.3725 N   0  0  0  0  0  0  0  0  0  0  0  0
   -2.7946    0.7048    3.0343 H   0  0  0  0  0  0  0  0  0  0  0  0
   -1.5848    0.7472    4.7873 C   0  0  0  0  0  0  0  0  0  0  0  0
   -0.8819    1.5774    4.8838 H   0  0  0  0  0  0  0  0  0  0  0  0
   -2.5030    0.9948    5.3214 H   0  0  0  0  0  0  0  0  0  0  0  0
   -1.1344   -0.1399    5.2381 H   0  0  0  0  0  0  0  0  0  0  0  0
  5  6  2  0  0  0  0
  5  7  1  0  0  0  0
  2  3  1  0  0  0  0
  2  4  1  0  0  0  0
  2  5  1  0  0  0  0
  1  2  1  0  0  0  0
 29 30  2  0  0  0  0
 29 31  1  0  0  0  0
 26 27  1  0  0  0  0
 26 28  1  0  0  0  0
 23 24  1  0  0  0  0
 23 25  1  0  0  0  0
 22 23  1  0  0  0  0
 22 26  1  0  0  0  0
 20 21  1  0  0  0  0
 20 22  2  0  0  0  0
 17 18  1  0  0  0  0
 17 19  1  0  0  0  0
 17 20  1  0  0  0  0
 14 15  1  0  0  0  0
 14 16  1  0  0  0  0
 14 17  1  0  0  0  0
 11 12  1  0  0  0  0
 11 13  1  0  0  0  0
 11 14  1  0  0  0  0
  9 10  1  0  0  0  0
  9 11  1  0  0  0  0
  9 29  1  0  0  0  0
  7  8  1  0  0  0  0
  7  9  1  0  0  0  0
 33 34  1  0  0  0  0
 33 35  1  0  0  0  0
 33 36  1  0  0  0  0
 31 32  1  0  0  0  0
 31 33  1  0  0  0  0
M  CHG  1  20   1
M  END
$$$$
default_name
  -OEChem-02102213163D

 36 35  0     1  0  0  0  0  0999 V2000
   -4.2256   -3.6731    1.8584 H   0  0  0  0  0  0  0  0  0  0  0  0
   -4.2396   -2.6781    1.4144 C   0  0  0  0  0  0  0  0  0  0  0  0
   -4.9506   -2.0521    1.9514 H   0  0  0  0  0  0  0  0  0  0  0  0
   -4.5266   -2.7521    0.3674 H   0  0  0  0  0  0  0  0  0  0  0  0
   -2.8576   -2.0761    1.5184 C   0  0  0  0  0  0  0  0  0  0  0  0
   -1.9456   -2.7051    2.0404 O   0  0  0  0  0  0  0  0  0  0  0  0
   -2.6926   -0.8481    1.0174 N   0  0  0  0  0  0  0  0  0  0  0  0
   -3.4926   -0.3971    0.5954 H   0  0  0  0  0  0  0  0  0  0  0  0
   -1.4216   -0.1071    1.0434 C   0  0  1  0  0  0  0  0  0  0  0  0
   -0.6709   -0.6930    0.5106 H   0  0  0  0  0  0  0  0  0  0  0  0
   -1.6221    1.2315    0.3051 C   0  0  0  0  0  0  0  0  0  0  0  0
   -2.1854    1.9059    0.9532 H   0  0  0  0  0  0  0  0  0  0  0  0
   -0.6462    1.6827    0.1128 H   0  0  0  0  0  0  0  0  0  0  0  0
   -2.3825    1.0900   -1.0215 C   0  0  0  0  0  0  0  0  0  0  0  0
   -3.4041    1.4533   -0.9017 H   0  0  0  0  0  0  0  0  0  0  0  0
   -1.8791    1.6772   -1.7902 H   0  0  0  0  0  0  0  0  0  0  0  0
   -2.4198   -0.3839   -1.4478 C   0  0  0  0  0  0  0  0  0  0  0  0
   -1.3934   -0.7464   -1.5394 H   0  0  0  0  0  0  0  0  0  0  0  0
   -2.9284   -0.9580   -0.6698 H   0  0  0  0  0  0  0  0  0  0  0  0
   -3.1229   -0.5649   -2.7345 N   0  3  0  0  0  0  0  0  0  0  0  0
   -3.5255    0.2582   -3.1490 H   0  0  0  0  0  0  0  0  0  0  0  0
   -3.2719   -1.7036   -3.3903 C   0  0  0  0  0  0  0  0  0  0  0  0
   -2.7902   -2.8293   -2.9429 N   0  0  0  0  0  0  0  0  0  0  0  0
   -2.2887   -2.8289   -2.0724 H   0  0  0  0  0  0  0  0  0  0  0  0
   -2.9125   -3.6848   -3.4529 H   0  0  0  0  0  0  0  0  0  0  0  0
   -3.9168   -1.7339   -4.5219 N   0  0  0  0  0  0  0  0  0  0  0  0
   -4.3063   -0.8909   -4.9074 H   0  0  0  0  0  0  0  0  0  0  0  0
   -4.0275   -2.5999   -5.0162 H   0  0  0  0  0  0  0  0  0  0  0  0
   -0.9523    0.1012    2.4848 C   0  0  0  0  0  0  0  0  0  0  0  0
    0.2133   -0.1319    2.7814 O   0  0  0  0  0  0  0  0  0  0  0  0
   -1.8684    0.5006    3.3725 N   0  0  0  0  0  0  0  0  0  0  0  0
   -2.7946    0.7048    3.0343 H   0  0  0  0  0  0  0  0  0  0  0  0
   -1.5848    0.7472    4.7873 C   0  0  0  0  0  0  0  0  0  0  0  0
   -0.8819    1.5774    4.8838 H   0  0  0  0  0  0  0  0  0  0  0  0
   -2.5030    0.9948    5.3214 H   0  0  0  0  0  0  0  0  0  0  0  0
   -1.1344   -0.1399    5.2381 H   0  0  0  0  0  0  0  0  0  0  0  0
  5  6  2  0  0  0  0
  5  7  1  0  0  0  0
  2  3  1  0  0  0  0
  2  4  1  0  0  0  0
  2  5  1  0  0  0  0
  1  2  1  0  0  0  0
 29 30  2  0  0  0  0
 29 31  1  0  0  0  0
 26 27  1  0  0  0  0
 26 28  1  0  0  0  0
 23 24  1  0  0  0  0
 23 25  1  0  0  0  0
 22 23  1  0  0  0  0
 22 26  1  0  0  0  0
 20 21  1  0  0  0  0
 20 22  2  0  0  0  0
 17 18  1  0  0  0  0
 17 19  1  0  0  0  0
 17 20  1  0  0  0  0
 14 15  1  0  0  0  0
 14 16  1  0  0  0  0
 14 17  1  0  0  0  0
 11 12  1  0  0  0  0
 11 13  1  0  0  0  0
 11 14  1  0  0  0  0
  9 10  1  0  0  0  0
  9 11  1  0  0  0  0
  9 29  1  0  0  0  0
  7  8  1  0  0  0  0
  7  9  1  0  0  0  0
 33 34  1  0  0  0  0
 33 35  1  0  0  0  0
 33 36  1  0  0  0  0
 31 32  1  0  0  0  0
 31 33  1  0  0  0  0
M  CHG  1  20   1
M  END
$$$$
default_name
  -OEChem-02102213163D

 36 35  0     1  0  0  0  0  0999 V2000
   -4.2256   -3.6731    1.8584 H   0  0  0  0  0  0  0  0  0  0  0  0
   -4.2396   -2.6781    1.4144 C   0  0  0  0  0  0  0  0  0  0  0  0
   -4.9506   -2.0521    1.9514 H   0  0  0  0  0  0  0  0  0  0  0  0
   -4.5266   -2.7521    0.3674 H   0  0  0  0  0  0  0  0  0  0  0  0
   -2.8576   -2.0761    1.5184 C   0  0  0  0  0  0  0  0  0  0  0  0
   -1.9456   -2.7051    2.0404 O   0  0  0  0  0  0  0  0  0  0  0  0
   -2.6926   -0.8481    1.0174 N   0  0  0  0  0  0  0  0  0  0  0  0
   -3.4926   -0.3971    0.5954 H   0  0  0  0  0  0  0  0  0  0  0  0
   -1.4216   -0.1071    1.0434 C   0  0  1  0  0  0  0  0  0  0  0  0
   -0.6709   -0.6930    0.5106 H   0  0  0  0  0  0  0  0  0  0  0  0
   -1.6221    1.2315    0.3051 C   0  0  0  0  0  0  0  0  0  0  0  0
   -2.1854    1.9059    0.9532 H   0  0  0  0  0  0  0  0  0  0  0  0
   -0.6462    1.6827    0.1128 H   0  0  0  0  0  0  0  0  0  0  0  0
   -2.3825    1.0900   -1.0215 C   0  0  0  0  0  0  0  0  0  0  0  0
   -3.2971    1.6835   -0.9876 H   0  0  0  0  0  0  0  0  0  0  0  0
   -1.7527    1.4450   -1.8379 H   0  0  0  0  0  0  0  0  0  0  0  0
   -2.7467   -0.3816   -1.2607 C   0  0  0  0  0  0  0  0  0  0  0  0
   -1.8275   -0.9718   -1.2665 H   0  0  0  0  0  0  0  0  0  0  0  0
   -3.3788   -0.7215   -0.4369 H   0  0  0  0  0  0  0  0  0  0  0  0
   -3.4606   -0.5687   -2.5405 N   0  3  0  0  0  0  0  0  0  0  0  0
   -3.6637    0.2617   -3.0701 H   0  0  0  0  0  0  0  0  0  0  0  0
   -3.8561   -1.7218   -3.0535 C   0  0  0  0  0  0  0  0  0  0  0  0
   -3.6443   -2.8578   -2.4503 N   0  0  0  0  0  0  0  0  0  0  0  0
   -3.1637   -2.8549   -1.5680 H   0  0  0  0  0  0  0  0  0  0  0  0
   -3.9514   -3.7240   -2.8532 H   0  0  0  0  0  0  0  0  0  0  0  0
   -4.4807   -1.7559   -4.1963 N   0  0  0  0  0  0  0  0  0  0  0  0
   -4.6668   -0.9054   -4.6992 H   0  0  0  0  0  0  0  0  0  0  0  0
   -4.7790   -2.6328   -4.5819 H   0  0  0  0  0  0  0  0  0  0  0  0
   -0.9523    0.1012    2.4848 C   0  0  0  0  0  0  0  0  0  0  0  0
    0.2133   -0.1319    2.7814 O   0  0  0  0  0  0  0  0  0  0  0  0
   -1.8684    0.5006    3.3725 N   0  0  0  0  0  0  0  0  0  0  0  0
   -2.7946    0.7048    3.0343 H   0  0  0  0  0  0  0  0  0  0  0  0
   -1.5848    0.7472    4.7873 C   0  0  0  0  0  0  0  0  0  0  0  0
   -0.8819    1.5774    4.8838 H   0  0  0  0  0  0  0  0  0  0  0  0
   -2.5030    0.9948    5.3214 H   0  0  0  0  0  0  0  0  0  0  0  0
   -1.1344   -0.1399    5.2381 H   0  0  0  0  0  0  0  0  0  0  0  0
  5  6  2  0  0  0  0
  5  7  1  0  0  0  0
  2  3  1  0  0  0  0
  2  4  1  0  0  0  0
  2  5  1  0  0  0  0
  1  2  1  0  0  0  0
 29 30  2  0  0  0  0
 29 31  1  0  0  0  0
 26 27  1  0  0  0  0
 26 28  1  0  0  0  0
 23 24  1  0  0  0  0
 23 25  1  0  0  0  0
 22 23  1  0  0  0  0
 22 26  1  0  0  0  0
 20 21  1  0  0  0  0
 20 22  2  0  0  0  0
 17 18  1  0  0  0  0
 17 19  1  0  0  0  0
 17 20  1  0  0  0  0
 14 15  1  0  0  0  0
 14 16  1  0  0  0  0
 14 17  1  0  0  0  0
 11 12  1  0  0  0  0
 11 13  1  0  0  0  0
 11 14  1  0  0  0  0
  9 10  1  0  0  0  0
  9 11  1  0  0  0  0
  9 29  1  0  0  0  0
  7  8  1  0  0  0  0
  7  9  1  0  0  0  0
 33 34  1  0  0  0  0
 33 35  1  0  0  0  0
 33 36  1  0  0  0  0
 31 32  1  0  0  0  0
 31 33  1  0  0  0  0
M  CHG  1  20   1
M  END
$$$$
default_name
  -OEChem-02102213163D

 36 35  0     1  0  0  0  0  0999 V2000
   -4.2256   -3.6731    1.8584 H   0  0  0  0  0  0  0  0  0  0  0  0
   -4.2396   -2.6781    1.4144 C   0  0  0  0  0  0  0  0  0  0  0  0
   -4.9506   -2.0521    1.9514 H   0  0  0  0  0  0  0  0  0  0  0  0
   -4.5266   -2.7521    0.3674 H   0  0  0  0  0  0  0  0  0  0  0  0
   -2.8576   -2.0761    1.5184 C   0  0  0  0  0  0  0  0  0  0  0  0
   -1.9456   -2.7051    2.0404 O   0  0  0  0  0  0  0  0  0  0  0  0
   -2.6926   -0.8481    1.0174 N   0  0  0  0  0  0  0  0  0  0  0  0
   -3.4926   -0.3971    0.5954 H   0  0  0  0  0  0  0  0  0  0  0  0
   -1.4216   -0.1071    1.0434 C   0  0  1  0  0  0  0  0  0  0  0  0
   -0.6709   -0.6930    0.5106 H   0  0  0  0  0  0  0  0  0  0  0  0
   -1.6221    1.2315    0.3051 C   0  0  0  0  0  0  0  0  0  0  0  0
   -2.1854    1.9059    0.9532 H   0  0  0  0  0  0  0  0  0  0  0  0
   -0.6462    1.6827    0.1128 H   0  0  0  0  0  0  0  0  0  0  0  0
   -2.3825    1.0900   -1.0215 C   0  0  0  0  0  0  0  0  0  0  0  0
   -3.1403    1.8710   -1.0975 H   0  0  0  0  0  0  0  0  0  0  0  0
   -1.6814    1.1863   -1.8512 H   0  0  0  0  0  0  0  0  0  0  0  0
   -3.0665   -0.2823   -1.0880 C   0  0  0  0  0  0  0  0  0  0  0  0
   -2.3037   -1.0574   -0.9844 H   0  0  0  0  0  0  0  0  0  0  0  0
   -3.7664   -0.3626   -0.2530 H   0  0  0  0  0  0  0  0  0  0  0  0
   -3.7923   -0.4721   -2.3607 N   0  3  0  0  0  0  0  0  0  0  0  0
   -3.7982    0.3061   -2.9977 H   0  0  0  0  0  0  0  0  0  0  0  0
   -4.4324   -1.5655   -2.7398 C   0  0  0  0  0  0  0  0  0  0  0  0
   -4.4875   -2.6312   -1.9912 N   0  0  0  0  0  0  0  0  0  0  0  0
   -4.0268   -2.6196   -1.0985 H   0  0  0  0  0  0  0  0  0  0  0  0
   -4.9779   -3.4527   -2.2938 H   0  0  0  0  0  0  0  0  0  0  0  0
   -5.0381   -1.6093   -3.8924 N   0  0  0  0  0  0  0  0  0  0  0  0
   -5.0233   -0.8120   -4.5049 H   0  0  0  0  0  0  0  0  0  0  0  0
   -5.5225   -2.4408   -4.1762 H   0  0  0  0  0  0  0  0  0  0  0  0
   -0.9523    0.1012    2.4848 C   0  0  0  0  0  0  0  0  0  0  0  0
    0.2133   -0.1319    2.7814 O   0  0  0  0  0  0  0  0  0  0  0  0
   -1.8684    0.5006    3.3725 N   0  0  0  0  0  0  0  0  0  0  0  0
   -2.7946    0.7048    3.0343 H   0  0  0  0  0  0  0  0  0  0  0  0
   -1.5848    0.7472    4.7873 C   0  0  0  0  0  0  0  0  0  0  0  0
   -0.8819    1.5774    4.8838 H   0  0  0  0  0  0  0  0  0  0  0  0
   -2.5030    0.9948    5.3214 H   0  0  0  0  0  0  0  0  0  0  0  0
   -1.1344   -0.1399    5.2381 H   0  0  0  0  0  0  0  0  0  0  0  0
  5  6  2  0  0  0  0
  5  7  1  0  0  0  0
  2  3  1  0  0  0  0
  2  4  1  0  0  0  0
  2  5  1  0  0  0  0
  1  2  1  0  0  0  0
 29 30  2  0  0  0  0
 29 31  1  0  0  0  0
 26 27  1  0  0  0  0
 26 28  1  0  0  0  0
 23 24  1  0  0  0  0
 23 25  1  0  0  0  0
 22 23  1  0  0  0  0
 22 26  1  0  0  0  0
 20 21  1  0  0  0  0
 20 22  2  0  0  0  0
 17 18  1  0  0  0  0
 17 19  1  0  0  0  0
 17 20  1  0  0  0  0
 14 15  1  0  0  0  0
 14 16  1  0  0  0  0
 14 17  1  0  0  0  0
 11 12  1  0  0  0  0
 11 13  1  0  0  0  0
 11 14  1  0  0  0  0
  9 10  1  0  0  0  0
  9 11  1  0  0  0  0
  9 29  1  0  0  0  0
  7  8  1  0  0  0  0
  7  9  1  0  0  0  0
 33 34  1  0  0  0  0
 33 35  1  0  0  0  0
 33 36  1  0  0  0  0
 31 32  1  0  0  0  0
 31 33  1  0  0  0  0
M  CHG  1  20   1
M  END
$$$$
default_name
  -OEChem-02102213163D

 36 35  0     1  0  0  0  0  0999 V2000
   -4.2256   -3.6731    1.8584 H   0  0  0  0  0  0  0  0  0  0  0  0
   -4.2396   -2.6781    1.4144 C   0  0  0  0  0  0  0  0  0  0  0  0
   -4.9506   -2.0521    1.9514 H   0  0  0  0  0  0  0  0  0  0  0  0
   -4.5266   -2.7521    0.3674 H   0  0  0  0  0  0  0  0  0  0  0  0
   -2.8576   -2.0761    1.5184 C   0  0  0  0  0  0  0  0  0  0  0  0
   -1.9456   -2.7051    2.0404 O   0  0  0  0  0  0  0  0  0  0  0  0
   -2.6926   -0.8481    1.0174 N   0  0  0  0  0  0  0  0  0  0  0  0
   -3.4926   -0.3971    0.5954 H   0  0  0  0  0  0  0  0  0  0  0  0
   -1.4216   -0.1071    1.0434 C   0  0  1  0  0  0  0  0  0  0  0  0
   -0.6709   -0.6930    0.5106 H   0  0  0  0  0  0  0  0  0  0  0  0
   -1.6221    1.2315    0.3051 C   0  0  0  0  0  0  0  0  0  0  0  0
   -2.1854    1.9059    0.9532 H   0  0  0  0  0  0  0  0  0  0  0  0
   -0.6462    1.6827    0.1128 H   0  0  0  0  0  0  0  0  0  0  0  0
   -2.3825    1.0900   -1.0215 C   0  0  0  0  0  0  0  0  0  0  0  0
   -2.9443    2.0030   -1.2239 H   0  0  0  0  0  0  0  0  0  0  0  0
   -1.6701    0.9189   -1.8292 H   0  0  0  0  0  0  0  0  0  0  0  0
   -3.3572   -0.0927   -0.9415 C   0  0  0  0  0  0  0  0  0  0  0  0
   -2.7896   -0.9975   -0.7123 H   0  0  0  0  0  0  0  0  0  0  0  0
   -4.0650    0.0944   -0.1306 H   0  0  0  0  0  0  0  0  0  0  0  0
   -4.0953   -0.2815   -2.2074 N   0  3  0  0  0  0  0  0  0  0  0  0
   -3.9200    0.3883   -2.9367 H   0  0  0  0  0  0  0  0  0  0  0  0
   -4.9617   -1.2455   -2.4706 C   0  0  0  0  0  0  0  0  0  0  0  0
   -5.2622   -2.1650   -1.5969 N   0  0  0  0  0  0  0  0  0  0  0  0
   -4.8190   -2.1393   -0.6956 H   0  0  0  0  0  0  0  0  0  0  0  0
   -5.9222   -2.8894   -1.8126 H   0  0  0  0  0  0  0  0  0  0  0  0
   -5.5510   -1.3042   -3.6310 N   0  0  0  0  0  0  0  0  0  0  0  0
   -5.3513   -0.6173   -4.3376 H   0  0  0  0  0  0  0  0  0  0  0  0
   -6.2075   -2.0372   -3.8266 H   0  0  0  0  0  0  0  0  0  0  0  0
   -0.9523    0.1012    2.4848 C   0  0  0  0  0  0  0  0  0  0  0  0
    0.2133   -0.1319    2.7814 O   0  0  0  0  0  0  0  0  0  0  0  0
   -1.8684    0.5006    3.3725 N   0  0  0  0  0  0  0  0  0  0  0  0
   -2.7946    0.7048    3.0343 H   0  0  0  0  0  0  0  0  0  0  0  0
   -1.5848    0.7472    4.7873 C   0  0  0  0  0  0  0  0  0  0  0  0
   -0.8819    1.5774    4.8838 H   0  0  0  0  0  0  0  0  0  0  0  0
   -2.5030    0.9948    5.3214 H   0  0  0  0  0  0  0  0  0  0  0  0
   -1.1344   -0.1399    5.2381 H   0  0  0  0  0  0  0  0  0  0  0  0
  5  6  2  0  0  0  0
  5  7  1  0  0  0  0
  2  3  1  0  0  0  0
  2  4  1  0  0  0  0
  2  5  1  0  0  0  0
  1  2  1  0  0  0  0
 29 30  2  0  0  0  0
 29 31  1  0  0  0  0
 26 27  1  0  0  0  0
 26 28  1  0  0  0  0
 23 24  1  0  0  0  0
 23 25  1  0  0  0  0
 22 23  1  0  0  0  0
 22 26  1  0  0  0  0
 20 21  1  0  0  0  0
 20 22  2  0  0  0  0
 17 18  1  0  0  0  0
 17 19  1  0  0  0  0
 17 20  1  0  0  0  0
 14 15  1  0  0  0  0
 14 16  1  0  0  0  0
 14 17  1  0  0  0  0
 11 12  1  0  0  0  0
 11 13  1  0  0  0  0
 11 14  1  0  0  0  0
  9 10  1  0  0  0  0
  9 11  1  0  0  0  0
  9 29  1  0  0  0  0
  7  8  1  0  0  0  0
  7  9  1  0  0  0  0
 33 34  1  0  0  0  0
 33 35  1  0  0  0  0
 33 36  1  0  0  0  0
 31 32  1  0  0  0  0
 31 33  1  0  0  0  0
M  CHG  1  20   1
M  END
$$$$
default_name
  -OEChem-02102213163D

 36 35  0     1  0  0  0  0  0999 V2000
   -4.2256   -3.6731    1.8584 H   0  0  0  0  0  0  0  0  0  0  0  0
   -4.2396   -2.6781    1.4144 C   0  0  0  0  0  0  0  0  0  0  0  0
   -4.9506   -2.0521    1.9514 H   0  0  0  0  0  0  0  0  0  0  0  0
   -4.5266   -2.7521    0.3674 H   0  0  0  0  0  0  0  0  0  0  0  0
   -2.8576   -2.0761    1.5184 C   0  0  0  0  0  0  0  0  0  0  0  0
   -1.9456   -2.7051    2.0404 O   0  0  0  0  0  0  0  0  0  0  0  0
   -2.6926   -0.8481    1.0174 N   0  0  0  0  0  0  0  0  0  0  0  0
   -3.4926   -0.3971    0.5954 H   0  0  0  0  0  0  0  0  0  0  0  0
   -1.4216   -0.1071    1.0434 C   0  0  1  0  0  0  0  0  0  0  0  0
   -0.6709   -0.6930    0.5106 H   0  0  0  0  0  0  0  0  0  0  0  0
   -1.6221    1.2315    0.3051 C   0  0  0  0  0  0  0  0  0  0  0  0
   -2.1854    1.9059    0.9532 H   0  0  0  0  0  0  0  0  0  0  0  0
   -0.6462    1.6827    0.1128 H   0  0  0  0  0  0  0  0  0  0  0  0
   -2.3825    1.0900   -1.0215 C   0  0  0  0  0  0  0  0  0  0  0  0
   -2.7224    2.0704   -1.3583 H   0  0  0  0  0  0  0  0  0  0  0  0
   -1.7195    0.6608   -1.7734 H   0  0  0  0  0  0  0  0  0  0  0  0
   -3.5992    0.1742   -0.8313 C   0  0  0  0  0  0  0  0  0  0  0  0
   -3.2520   -0.7961   -0.4688 H   0  0  0  0  0  0  0  0  0  0  0  0
   -4.2542    0.6182   -0.0780 H   0  0  0  0  0  0  0  0  0  0  0  0
   -4.3491   -0.0101   -2.0908 N   0  3  0  0  0  0  0  0  0  0  0  0
   -4.0207    0.5028   -2.8912 H   0  0  0  0  0  0  0  0  0  0  0  0
   -5.4077   -0.7835   -2.2642 C   0  0  0  0  0  0  0  0  0  0  0  0
   -5.9157   -1.4909   -1.2942 N   0  0  0  0  0  0  0  0  0  0  0  0
   -5.4864   -1.4465   -0.3869 H   0  0  0  0  0  0  0  0  0  0  0  0
   -6.7198   -2.0725   -1.4426 H   0  0  0  0  0  0  0  0  0  0  0  0
   -5.9844   -0.8613   -3.4298 N   0  0  0  0  0  0  0  0  0  0  0  0
   -5.6286   -0.3344   -4.2088 H   0  0  0  0  0  0  0  0  0  0  0  0
   -6.7872   -1.4493   -3.5570 H   0  0  0  0  0  0  0  0  0  0  0  0
   -0.9523    0.1012    2.4848 C   0  0  0  0  0  0  0  0  0  0  0  0
    0.2133   -0.1319    2.7814 O   0  0  0  0  0  0  0  0  0  0  0  0
   -1.8684    0.5006    3.3725 N   0  0  0  0  0  0  0  0  0  0  0  0
   -2.7946    0.7048    3.0343 H   0  0  0  0  0  0  0  0  0  0  0  0
   -1.5848    0.7472    4.7873 C   0  0  0  0  0  0  0  0  0  0  0  0
   -0.8819    1.5774    4.8838 H   0  0  0  0  0  0  0  0  0  0  0  0
   -2.5030    0.9948    5.3214 H   0  0  0  0  0  0  0  0  0  0  0  0
   -1.1344   -0.1399    5.2381 H   0  0  0  0  0  0  0  0  0  0  0  0
  5  6  2  0  0  0  0
  5  7  1  0  0  0  0
  2  3  1  0  0  0  0
  2  4  1  0  0  0  0
  2  5  1  0  0  0  0
  1  2  1  0  0  0  0
 29 30  2  0  0  0  0
 29 31  1  0  0  0  0
 26 27  1  0  0  0  0
 26 28  1  0  0  0  0
 23 24  1  0  0  0  0
 23 25  1  0  0  0  0
 22 23  1  0  0  0  0
 22 26  1  0  0  0  0
 20 21  1  0  0  0  0
 20 22  2  0  0  0  0
 17 18  1  0  0  0  0
 17 19  1  0  0  0  0
 17 20  1  0  0  0  0
 14 15  1  0  0  0  0
 14 16  1  0  0  0  0
 14 17  1  0  0  0  0
 11 12  1  0  0  0  0
 11 13  1  0  0  0  0
 11 14  1  0  0  0  0
  9 10  1  0  0  0  0
  9 11  1  0  0  0  0
  9 29  1  0  0  0  0
  7  8  1  0  0  0  0
  7  9  1  0  0  0  0
 33 34  1  0  0  0  0
 33 35  1  0  0  0  0
 33 36  1  0  0  0  0
 31 32  1  0  0  0  0
 31 33  1  0  0  0  0
M  CHG  1  20   1
M  END
$$$$
default_name
  -OEChem-02102213163D

 36 35  0     1  0  0  0  0  0999 V2000
   -4.2256   -3.6731    1.8584 H   0  0  0  0  0  0  0  0  0  0  0  0
   -4.2396   -2.6781    1.4144 C   0  0  0  0  0  0  0  0  0  0  0  0
   -4.9506   -2.0521    1.9514 H   0  0  0  0  0  0  0  0  0  0  0  0
   -4.5266   -2.7521    0.3674 H   0  0  0  0  0  0  0  0  0  0  0  0
   -2.8576   -2.0761    1.5184 C   0  0  0  0  0  0  0  0  0  0  0  0
   -1.9456   -2.7051    2.0404 O   0  0  0  0  0  0  0  0  0  0  0  0
   -2.6926   -0.8481    1.0174 N   0  0  0  0  0  0  0  0  0  0  0  0
   -3.4926   -0.3971    0.5954 H   0  0  0  0  0  0  0  0  0  0  0  0
   -1.4216   -0.1071    1.0434 C   0  0  1  0  0  0  0  0  0  0  0  0
   -0.6709   -0.6930    0.5106 H   0  0  0  0  0  0  0  0  0  0  0  0
   -1.6221    1.2315    0.3051 C   0  0  0  0  0  0  0  0  0  0  0  0
   -2.1854    1.9059    0.9532 H   0  0  0  0  0  0  0  0  0  0  0  0
   -0.6462    1.6827    0.1128 H   0  0  0  0  0  0  0  0  0  0  0  0
   -2.3825    1.0900   -1.0215 C   0  0  0  0  0  0  0  0  0  0  0  0
   -2.4898    2.0687   -1.4914 H   0  0  0  0  0  0  0  0  0  0  0  0
   -1.8262    0.4297   -1.6875 H   0  0  0  0  0  0  0  0  0  0  0  0
   -3.7759    0.5002   -0.7648 C   0  0  0  0  0  0  0  0  0  0  0  0
   -3.6594   -0.4670   -0.2703 H   0  0  0  0  0  0  0  0  0  0  0  0
   -4.3210    1.1732   -0.0989 H   0  0  0  0  0  0  0  0  0  0  0  0
   -4.5363    0.3238   -2.0192 N   0  3  0  0  0  0  0  0  0  0  0  0
   -4.0935    0.6417   -2.8643 H   0  0  0  0  0  0  0  0  0  0  0  0
   -5.7403   -0.2111   -2.1346 C   0  0  0  0  0  0  0  0  0  0  0  0
   -6.4034   -0.6549   -1.1038 N   0  0  0  0  0  0  0  0  0  0  0  0
   -5.9836   -0.5886   -0.1934 H   0  0  0  0  0  0  0  0  0  0  0  0
   -7.3164   -1.0577   -1.2088 H   0  0  0  0  0  0  0  0  0  0  0  0
   -6.3088   -0.3107   -3.3026 N   0  0  0  0  0  0  0  0  0  0  0  0
   -5.8363    0.0174   -4.1273 H   0  0  0  0  0  0  0  0  0  0  0  0
   -7.2222   -0.7173   -3.3858 H   0  0  0  0  0  0  0  0  0  0  0  0
   -0.9523    0.1012    2.4848 C   0  0  0  0  0  0  0  0  0  0  0  0
    0.2133   -0.1319    2.7814 O   0  0  0  0  0  0  0  0  0  0  0  0
   -1.8684    0.5006    3.3725 N   0  0  0  0  0  0  0  0  0  0  0  0
   -2.7946    0.7048    3.0343 H   0  0  0  0  0  0  0  0  0  0  0  0
   -1.5848    0.7472    4.7873 C   0  0  0  0  0  0  0  0  0  0  0  0
   -0.8819    1.5774    4.8838 H   0  0  0  0  0  0  0  0  0  0  0  0
   -2.5030    0.9948    5.3214 H   0  0  0  0  0  0  0  0  0  0  0  0
   -1.1344   -0.1399    5.2381 H   0  0  0  0  0  0  0  0  0  0  0  0
  5  6  2  0  0  0  0
  5  7  1  0  0  0  0
  2  3  1  0  0  0  0
  2  4  1  0  0  0  0
  2  5  1  0  0  0  0
  1  2  1  0  0  0  0
 29 30  2  0  0  0  0
 29 31  1  0  0  0  0
 26 27  1  0  0  0  0
 26 28  1  0  0  0  0
 23 24  1  0  0  0  0
 23 25  1  0  0  0  0
 22 23  1  0  0  0  0
 22 26  1  0  0  0  0
 20 21  1  0  0  0  0
 20 22  2  0  0  0  0
 17 18  1  0  0  0  0
 17 19  1  0  0  0  0
 17 20  1  0  0  0  0
 14 15  1  0  0  0  0
 14 16  1  0  0  0  0
 14 17  1  0  0  0  0
 11 12  1  0  0  0  0
 11 13  1  0  0  0  0
 11 14  1  0  0  0  0
  9 10  1  0  0  0  0
  9 11  1  0  0  0  0
  9 29  1  0  0  0  0
  7  8  1  0  0  0  0
  7  9  1  0  0  0  0
 33 34  1  0  0  0  0
 33 35  1  0  0  0  0
 33 36  1  0  0  0  0
 31 32  1  0  0  0  0
 31 33  1  0  0  0  0
M  CHG  1  20   1
M  END
$$$$
default_name
  -OEChem-02102213163D

 36 35  0     1  0  0  0  0  0999 V2000
   -4.2256   -3.6731    1.8584 H   0  0  0  0  0  0  0  0  0  0  0  0
   -4.2396   -2.6781    1.4144 C   0  0  0  0  0  0  0  0  0  0  0  0
   -4.9506   -2.0521    1.9514 H   0  0  0  0  0  0  0  0  0  0  0  0
   -4.5266   -2.7521    0.3674 H   0  0  0  0  0  0  0  0  0  0  0  0
   -2.8576   -2.0761    1.5184 C   0  0  0  0  0  0  0  0  0  0  0  0
   -1.9456   -2.7051    2.0404 O   0  0  0  0  0  0  0  0  0  0  0  0
   -2.6926   -0.8481    1.0174 N   0  0  0  0  0  0  0  0  0  0  0  0
   -3.4926   -0.3971    0.5954 H   0  0  0  0  0  0  0  0  0  0  0  0
   -1.4216   -0.1071    1.0434 C   0  0  1  0  0  0  0  0  0  0  0  0
   -0.6709   -0.6930    0.5106 H   0  0  0  0  0  0  0  0  0  0  0  0
   -1.6221    1.2315    0.3051 C   0  0  0  0  0  0  0  0  0  0  0  0
   -2.1854    1.9059    0.9532 H   0  0  0  0  0  0  0  0  0  0  0  0
   -0.6462    1.6827    0.1128 H   0  0  0  0  0  0  0  0  0  0  0  0
   -2.3825    1.0900   -1.0215 C   0  0  0  0  0  0  0  0  0  0  0  0
   -2.2624    1.9980   -1.6142 H   0  0  0  0  0  0  0  0  0  0  0  0
   -1.9830    0.2413   -1.5776 H   0  0  0  0  0  0  0  0  0  0  0  0
   -3.8752    0.8631   -0.7465 C   0  0  0  0  0  0  0  0  0  0  0  0
   -3.9841   -0.0325   -0.1306 H   0  0  0  0  0  0  0  0  0  0  0  0
   -4.2610    1.7216   -0.1917 H   0  0  0  0  0  0  0  0  0  0  0  0
   -4.6442    0.6974   -1.9972 N   0  3  0  0  0  0  0  0  0  0  0  0
   -4.1334    0.7956   -2.8579 H   0  0  0  0  0  0  0  0  0  0  0  0
   -5.9365    0.4327   -2.0908 C   0  0  0  0  0  0  0  0  0  0  0  0
   -6.6921    0.2861   -1.0387 N   0  0  0  0  0  0  0  0  0  0  0  0
   -6.2766    0.3761   -0.1284 H   0  0  0  0  0  0  0  0  0  0  0  0
   -7.6713    0.0859   -1.1273 H   0  0  0  0  0  0  0  0  0  0  0  0
   -6.5020    0.3099   -3.2580 N   0  0  0  0  0  0  0  0  0  0  0  0
   -5.9602    0.4141   -4.0986 H   0  0  0  0  0  0  0  0  0  0  0  0
   -7.4827    0.1090   -3.3245 H   0  0  0  0  0  0  0  0  0  0  0  0
   -0.9523    0.1012    2.4848 C   0  0  0  0  0  0  0  0  0  0  0  0
    0.2133   -0.1319    2.7814 O   0  0  0  0  0  0  0  0  0  0  0  0
   -1.8684    0.5006    3.3725 N   0  0  0  0  0  0  0  0  0  0  0  0
   -2.7946    0.7048    3.0343 H   0  0  0  0  0  0  0  0  0  0  0  0
   -1.5848    0.7472    4.7873 C   0  0  0  0  0  0  0  0  0  0  0  0
   -0.8819    1.5774    4.8838 H   0  0  0  0  0  0  0  0  0  0  0  0
   -2.5030    0.9948    5.3214 H   0  0  0  0  0  0  0  0  0  0  0  0
   -1.1344   -0.1399    5.2381 H   0  0  0  0  0  0  0  0  0  0  0  0
  5  6  2  0  0  0  0
  5  7  1  0  0  0  0
  2  3  1  0  0  0  0
  2  4  1  0  0  0  0
  2  5  1  0  0  0  0
  1  2  1  0  0  0  0
 29 30  2  0  0  0  0
 29 31  1  0  0  0  0
 26 27  1  0  0  0  0
 26 28  1  0  0  0  0
 23 24  1  0  0  0  0
 23 25  1  0  0  0  0
 22 23  1  0  0  0  0
 22 26  1  0  0  0  0
 20 21  1  0  0  0  0
 20 22  2  0  0  0  0
 17 18  1  0  0  0  0
 17 19  1  0  0  0  0
 17 20  1  0  0  0  0
 14 15  1  0  0  0  0
 14 16  1  0  0  0  0
 14 17  1  0  0  0  0
 11 12  1  0  0  0  0
 11 13  1  0  0  0  0
 11 14  1  0  0  0  0
  9 10  1  0  0  0  0
  9 11  1  0  0  0  0
  9 29  1  0  0  0  0
  7  8  1  0  0  0  0
  7  9  1  0  0  0  0
 33 34  1  0  0  0  0
 33 35  1  0  0  0  0
 33 36  1  0  0  0  0
 31 32  1  0  0  0  0
 31 33  1  0  0  0  0
M  CHG  1  20   1
M  END
$$$$
default_name
  -OEChem-02102213163D

 36 35  0     1  0  0  0  0  0999 V2000
   -4.2256   -3.6731    1.8584 H   0  0  0  0  0  0  0  0  0  0  0  0
   -4.2396   -2.6781    1.4144 C   0  0  0  0  0  0  0  0  0  0  0  0
   -4.9506   -2.0521    1.9514 H   0  0  0  0  0  0  0  0  0  0  0  0
   -4.5266   -2.7521    0.3674 H   0  0  0  0  0  0  0  0  0  0  0  0
   -2.8576   -2.0761    1.5184 C   0  0  0  0  0  0  0  0  0  0  0  0
   -1.9456   -2.7051    2.0404 O   0  0  0  0  0  0  0  0  0  0  0  0
   -2.6926   -0.8481    1.0174 N   0  0  0  0  0  0  0  0  0  0  0  0
   -3.4926   -0.3971    0.5954 H   0  0  0  0  0  0  0  0  0  0  0  0
   -1.4216   -0.1071    1.0434 C   0  0  1  0  0  0  0  0  0  0  0  0
   -0.6709   -0.6930    0.5106 H   0  0  0  0  0  0  0  0  0  0  0  0
   -1.6221    1.2315    0.3051 C   0  0  0  0  0  0  0  0  0  0  0  0
   -2.1854    1.9059    0.9532 H   0  0  0  0  0  0  0  0  0  0  0  0
   -0.6462    1.6827    0.1128 H   0  0  0  0  0  0  0  0  0  0  0  0
   -2.3825    1.0900   -1.0215 C   0  0  0  0  0  0  0  0  0  0  0  0
   -2.0555    1.8631   -1.7184 H   0  0  0  0  0  0  0  0  0  0  0  0
   -2.1792    0.1085   -1.4509 H   0  0  0  0  0  0  0  0  0  0  0  0
   -3.8905    1.2382   -0.7778 C   0  0  0  0  0  0  0  0  0  0  0  0
   -4.2039    0.4776   -0.0590 H   0  0  0  0  0  0  0  0  0  0  0  0
   -4.0782    2.2260   -0.3503 H   0  0  0  0  0  0  0  0  0  0  0  0
   -4.6654    1.0852   -2.0264 N   0  3  0  0  0  0  0  0  0  0  0  0
   -4.1376    0.9540   -2.8723 H   0  0  0  0  0  0  0  0  0  0  0  0
   -5.9832    1.1042   -2.1356 C   0  0  0  0  0  0  0  0  0  0  0  0
   -6.7621    1.2680   -1.1032 N   0  0  0  0  0  0  0  0  0  0  0  0
   -6.3454    1.3818   -0.1961 H   0  0  0  0  0  0  0  0  0  0  0  0
   -7.7604    1.2803   -1.2036 H   0  0  0  0  0  0  0  0  0  0  0  0
   -6.5510    0.9582   -3.2991 N   0  0  0  0  0  0  0  0  0  0  0  0
   -5.9919    0.8287   -4.1246 H   0  0  0  0  0  0  0  0  0  0  0  0
   -7.5511    0.9732   -3.3775 H   0  0  0  0  0  0  0  0  0  0  0  0
   -0.9523    0.1012    2.4848 C   0  0  0  0  0  0  0  0  0  0  0  0
    0.2133   -0.1319    2.7814 O   0  0  0  0  0  0  0  0  0  0  0  0
   -1.8684    0.5006    3.3725 N   0  0  0  0  0  0  0  0  0  0  0  0
   -2.7946    0.7048    3.0343 H   0  0  0  0  0  0  0  0  0  0  0  0
   -1.5848    0.7472    4.7873 C   0  0  0  0  0  0  0  0  0  0  0  0
   -0.8819    1.5774    4.8838 H   0  0  0  0  0  0  0  0  0  0  0  0
   -2.5030    0.9948    5.3214 H   0  0  0  0  0  0  0  0  0  0  0  0
   -1.1344   -0.1399    5.2381 H   0  0  0  0  0  0  0  0  0  0  0  0
  5  6  2  0  0  0  0
  5  7  1  0  0  0  0
  2  3  1  0  0  0  0
  2  4  1  0  0  0  0
  2  5  1  0  0  0  0
  1  2  1  0  0  0  0
 29 30  2  0  0  0  0
 29 31  1  0  0  0  0
 26 27  1  0  0  0  0
 26 28  1  0  0  0  0
 23 24  1  0  0  0  0
 23 25  1  0  0  0  0
 22 23  1  0  0  0  0
 22 26  1  0  0  0  0
 20 21  1  0  0  0  0
 20 22  2  0  0  0  0
 17 18  1  0  0  0  0
 17 19  1  0  0  0  0
 17 20  1  0  0  0  0
 14 15  1  0  0  0  0
 14 16  1  0  0  0  0
 14 17  1  0  0  0  0
 11 12  1  0  0  0  0
 11 13  1  0  0  0  0
 11 14  1  0  0  0  0
  9 10  1  0  0  0  0
  9 11  1  0  0  0  0
  9 29  1  0  0  0  0
  7  8  1  0  0  0  0
  7  9  1  0  0  0  0
 33 34  1  0  0  0  0
 33 35  1  0  0  0  0
 33 36  1  0  0  0  0
 31 32  1  0  0  0  0
 31 33  1  0  0  0  0
M  CHG  1  20   1
M  END
$$$$
default_name
  -OEChem-02102213163D

 36 35  0     1  0  0  0  0  0999 V2000
   -4.2256   -3.6731    1.8584 H   0  0  0  0  0  0  0  0  0  0  0  0
   -4.2396   -2.6781    1.4144 C   0  0  0  0  0  0  0  0  0  0  0  0
   -4.9506   -2.0521    1.9514 H   0  0  0  0  0  0  0  0  0  0  0  0
   -4.5266   -2.7521    0.3674 H   0  0  0  0  0  0  0  0  0  0  0  0
   -2.8576   -2.0761    1.5184 C   0  0  0  0  0  0  0  0  0  0  0  0
   -1.9456   -2.7051    2.0404 O   0  0  0  0  0  0  0  0  0  0  0  0
   -2.6926   -0.8481    1.0174 N   0  0  0  0  0  0  0  0  0  0  0  0
   -3.4926   -0.3971    0.5954 H   0  0  0  0  0  0  0  0  0  0  0  0
   -1.4216   -0.1071    1.0434 C   0  0  1  0  0  0  0  0  0  0  0  0
   -0.6709   -0.6930    0.5106 H   0  0  0  0  0  0  0  0  0  0  0  0
   -1.6221    1.2315    0.3051 C   0  0  0  0  0  0  0  0  0  0  0  0
   -2.1854    1.9059    0.9532 H   0  0  0  0  0  0  0  0  0  0  0  0
   -0.6462    1.6827    0.1128 H   0  0  0  0  0  0  0  0  0  0  0  0
   -2.3825    1.0900   -1.0215 C   0  0  0  0  0  0  0  0  0  0  0  0
   -1.8834    1.6732   -1.7968 H   0  0  0  0  0  0  0  0  0  0  0  0
   -2.4015    0.0404   -1.3163 H   0  0  0  0  0  0  0  0  0  0  0  0
   -3.8206    1.5999   -0.8564 C   0  0  0  0  0  0  0  0  0  0  0  0
   -4.3038    1.0287   -0.0604 H   0  0  0  0  0  0  0  0  0  0  0  0
   -3.7850    2.6519   -0.5637 H   0  0  0  0  0  0  0  0  0  0  0  0
   -4.5984    1.4607   -2.1048 N   0  3  0  0  0  0  0  0  0  0  0  0
   -4.1060    1.1061   -2.9067 H   0  0  0  0  0  0  0  0  0  0  0  0
   -5.8771    1.7574   -2.2661 C   0  0  0  0  0  0  0  0  0  0  0  0
   -6.6086    2.2237   -1.2931 N   0  0  0  0  0  0  0  0  0  0  0  0
   -6.1855    2.3599   -0.3921 H   0  0  0  0  0  0  0  0  0  0  0  0
   -7.5775    2.4441   -1.4325 H   0  0  0  0  0  0  0  0  0  0  0  0
   -6.4524    1.5902   -3.4230 N   0  0  0  0  0  0  0  0  0  0  0  0
   -5.9291    1.2328   -4.2037 H   0  0  0  0  0  0  0  0  0  0  0  0
   -7.4227    1.8165   -3.5410 H   0  0  0  0  0  0  0  0  0  0  0  0
   -0.9523    0.1012    2.4848 C   0  0  0  0  0  0  0  0  0  0  0  0
    0.2133   -0.1319    2.7814 O   0  0  0  0  0  0  0  0  0  0  0  0
   -1.8684    0.5006    3.3725 N   0  0  0  0  0  0  0  0  0  0  0  0
   -2.7946    0.7048    3.0343 H   0  0  0  0  0  0  0  0  0  0  0  0
   -1.5848    0.7472    4.7873 C   0  0  0  0  0  0  0  0  0  0  0  0
   -0.8819    1.5774    4.8838 H   0  0  0  0  0  0  0  0  0  0  0  0
   -2.5030    0.9948    5.3214 H   0  0  0  0  0  0  0  0  0  0  0  0
   -1.1344   -0.1399    5.2381 H   0  0  0  0  0  0  0  0  0  0  0  0
  5  6  2  0  0  0  0
  5  7  1  0  0  0  0
  2  3  1  0  0  0  0
  2  4  1  0  0  0  0
  2  5  1  0  0  0  0
  1  2  1  0  0  0  0
 29 30  2  0  0  0  0
 29 31  1  0  0  0  0
 26 27  1  0  0  0  0
 26 28  1  0  0  0  0
 23 24  1  0  0  0  0
 23 25  1  0  0  0  0
 22 23  1  0  0  0  0
 22 26  1  0  0  0  0
 20 21  1  0  0  0  0
 20 22  2  0  0  0  0
 17 18  1  0  0  0  0
 17 19  1  0  0  0  0
 17 20  1  0  0  0  0
 14 15  1  0  0  0  0
 14 16  1  0  0  0  0
 14 17  1  0  0  0  0
 11 12  1  0  0  0  0
 11 13  1  0  0  0  0
 11 14  1  0  0  0  0
  9 10  1  0  0  0  0
  9 11  1  0  0  0  0
  9 29  1  0  0  0  0
  7  8  1  0  0  0  0
  7  9  1  0  0  0  0
 33 34  1  0  0  0  0
 33 35  1  0  0  0  0
 33 36  1  0  0  0  0
 31 32  1  0  0  0  0
 31 33  1  0  0  0  0
M  CHG  1  20   1
M  END
$$$$
default_name
  -OEChem-02102213163D

 36 35  0     1  0  0  0  0  0999 V2000
   -4.2256   -3.6731    1.8584 H   0  0  0  0  0  0  0  0  0  0  0  0
   -4.2396   -2.6781    1.4144 C   0  0  0  0  0  0  0  0  0  0  0  0
   -4.9506   -2.0521    1.9514 H   0  0  0  0  0  0  0  0  0  0  0  0
   -4.5266   -2.7521    0.3674 H   0  0  0  0  0  0  0  0  0  0  0  0
   -2.8576   -2.0761    1.5184 C   0  0  0  0  0  0  0  0  0  0  0  0
   -1.9456   -2.7051    2.0404 O   0  0  0  0  0  0  0  0  0  0  0  0
   -2.6926   -0.8481    1.0174 N   0  0  0  0  0  0  0  0  0  0  0  0
   -3.4926   -0.3971    0.5954 H   0  0  0  0  0  0  0  0  0  0  0  0
   -1.4216   -0.1071    1.0434 C   0  0  1  0  0  0  0  0  0  0  0  0
   -0.6709   -0.6930    0.5106 H   0  0  0  0  0  0  0  0  0  0  0  0
   -1.6221    1.2315    0.3051 C   0  0  0  0  0  0  0  0  0  0  0  0
   -2.1854    1.9059    0.9532 H   0  0  0  0  0  0  0  0  0  0  0  0
   -0.6462    1.6827    0.1128 H   0  0  0  0  0  0  0  0  0  0  0  0
   -2.3825    1.0900   -1.0215 C   0  0  0  0  0  0  0  0  0  0  0  0
   -1.7578    1.4412   -1.8441 H   0  0  0  0  0  0  0  0  0  0  0  0
   -2.6346    0.0415   -1.1828 H   0  0  0  0  0  0  0  0  0  0  0  0
   -3.6703    1.9236   -0.9771 C   0  0  0  0  0  0  0  0  0  0  0  0
   -4.2771    1.5832   -0.1349 H   0  0  0  0  0  0  0  0  0  0  0  0
   -3.4015    2.9705   -0.8175 H   0  0  0  0  0  0  0  0  0  0  0  0
   -4.4479    1.7985   -2.2270 N   0  3  0  0  0  0  0  0  0  0  0  0
   -4.0406    1.2415   -2.9586 H   0  0  0  0  0  0  0  0  0  0  0  0
   -5.6254    2.3479   -2.4733 C   0  0  0  0  0  0  0  0  0  0  0  0
   -6.2422    3.0882   -1.5953 N   0  0  0  0  0  0  0  0  0  0  0  0
   -5.8076    3.2438   -0.7029 H   0  0  0  0  0  0  0  0  0  0  0  0
   -7.1352    3.4981   -1.7984 H   0  0  0  0  0  0  0  0  0  0  0  0
   -6.2128    2.1627   -3.6213 N   0  0  0  0  0  0  0  0  0  0  0  0
   -5.7763    1.5991   -4.3303 H   0  0  0  0  0  0  0  0  0  0  0  0
   -7.1061    2.5813   -3.8040 H   0  0  0  0  0  0  0  0  0  0  0  0
   -0.9523    0.1012    2.4848 C   0  0  0  0  0  0  0  0  0  0  0  0
    0.2133   -0.1319    2.7814 O   0  0  0  0  0  0  0  0  0  0  0  0
   -1.8684    0.5006    3.3725 N   0  0  0  0  0  0  0  0  0  0  0  0
   -2.7946    0.7048    3.0343 H   0  0  0  0  0  0  0  0  0  0  0  0
   -1.5848    0.7472    4.7873 C   0  0  0  0  0  0  0  0  0  0  0  0
   -0.8819    1.5774    4.8838 H   0  0  0  0  0  0  0  0  0  0  0  0
   -2.5030    0.9948    5.3214 H   0  0  0  0  0  0  0  0  0  0  0  0
   -1.1344   -0.1399    5.2381 H   0  0  0  0  0  0  0  0  0  0  0  0
  5  6  2  0  0  0  0
  5  7  1  0  0  0  0
  2  3  1  0  0  0  0
  2  4  1  0  0  0  0
  2  5  1  0  0  0  0
  1  2  1  0  0  0  0
 29 30  2  0  0  0  0
 29 31  1  0  0  0  0
 26 27  1  0  0  0  0
 26 28  1  0  0  0  0
 23 24  1  0  0  0  0
 23 25  1  0  0  0  0
 22 23  1  0  0  0  0
 22 26  1  0  0  0  0
 20 21  1  0  0  0  0
 20 22  2  0  0  0  0
 17 18  1  0  0  0  0
 17 19  1  0  0  0  0
 17 20  1  0  0  0  0
 14 15  1  0  0  0  0
 14 16  1  0  0  0  0
 14 17  1  0  0  0  0
 11 12  1  0  0  0  0
 11 13  1  0  0  0  0
 11 14  1  0  0  0  0
  9 10  1  0  0  0  0
  9 11  1  0  0  0  0
  9 29  1  0  0  0  0
  7  8  1  0  0  0  0
  7  9  1  0  0  0  0
 33 34  1  0  0  0  0
 33 35  1  0  0  0  0
 33 36  1  0  0  0  0
 31 32  1  0  0  0  0
 31 33  1  0  0  0  0
M  CHG  1  20   1
M  END
$$$$
default_name
  -OEChem-02102213163D

 36 35  0     1  0  0  0  0  0999 V2000
   -4.2256   -3.6731    1.8584 H   0  0  0  0  0  0  0  0  0  0  0  0
   -4.2396   -2.6781    1.4144 C   0  0  0  0  0  0  0  0  0  0  0  0
   -4.9506   -2.0521    1.9514 H   0  0  0  0  0  0  0  0  0  0  0  0
   -4.5266   -2.7521    0.3674 H   0  0  0  0  0  0  0  0  0  0  0  0
   -2.8576   -2.0761    1.5184 C   0  0  0  0  0  0  0  0  0  0  0  0
   -1.9456   -2.7051    2.0404 O   0  0  0  0  0  0  0  0  0  0  0  0
   -2.6926   -0.8481    1.0174 N   0  0  0  0  0  0  0  0  0  0  0  0
   -3.4926   -0.3971    0.5954 H   0  0  0  0  0  0  0  0  0  0  0  0
   -1.4216   -0.1071    1.0434 C   0  0  1  0  0  0  0  0  0  0  0  0
   -0.6709   -0.6930    0.5106 H   0  0  0  0  0  0  0  0  0  0  0  0
   -1.6221    1.2315    0.3051 C   0  0  0  0  0  0  0  0  0  0  0  0
   -2.1854    1.9059    0.9532 H   0  0  0  0  0  0  0  0  0  0  0  0
   -0.6462    1.6827    0.1128 H   0  0  0  0  0  0  0  0  0  0  0  0
   -2.3825    1.0900   -1.0215 C   0  0  0  0  0  0  0  0  0  0  0  0
   -1.6872    1.1830   -1.8570 H   0  0  0  0  0  0  0  0  0  0  0  0
   -2.8627    0.1118   -1.0595 H   0  0  0  0  0  0  0  0  0  0  0  0
   -3.4499    2.1872   -1.1315 C   0  0  0  0  0  0  0  0  0  0  0  0
   -4.1256    2.1033   -0.2772 H   0  0  0  0  0  0  0  0  0  0  0  0
   -2.9538    3.1600   -1.0943 H   0  0  0  0  0  0  0  0  0  0  0  0
   -4.2241    2.0754   -2.3848 N   0  3  0  0  0  0  0  0  0  0  0  0
   -3.9459    1.3511   -3.0246 H   0  0  0  0  0  0  0  0  0  0  0  0
   -5.2454    2.8355   -2.7431 C   0  0  0  0  0  0  0  0  0  0  0  0
   -5.6877    3.8026   -1.9893 N   0  0  0  0  0  0  0  0  0  0  0  0
   -5.2375    3.9732   -1.1074 H   0  0  0  0  0  0  0  0  0  0  0  0
   -6.4636    4.3704   -2.2763 H   0  0  0  0  0  0  0  0  0  0  0  0
   -5.8487    2.6368   -3.8806 N   0  0  0  0  0  0  0  0  0  0  0  0
   -5.5437    1.9024   -4.4960 H   0  0  0  0  0  0  0  0  0  0  0  0
   -6.6231    3.2157   -4.1485 H   0  0  0  0  0  0  0  0  0  0  0  0
   -0.9523    0.1012    2.4848 C   0  0  0  0  0  0  0  0  0  0  0  0
    0.2133   -0.1319    2.7814 O   0  0  0  0  0  0  0  0  0  0  0  0
   -1.8684    0.5006    3.3725 N   0  0  0  0  0  0  0  0  0  0  0  0
   -2.7946    0.7048    3.0343 H   0  0  0  0  0  0  0  0  0  0  0  0
   -1.5848    0.7472    4.7873 C   0  0  0  0  0  0  0  0  0  0  0  0
   -0.8819    1.5774    4.8838 H   0  0  0  0  0  0  0  0  0  0  0  0
   -2.5030    0.9948    5.3214 H   0  0  0  0  0  0  0  0  0  0  0  0
   -1.1344   -0.1399    5.2381 H   0  0  0  0  0  0  0  0  0  0  0  0
  5  6  2  0  0  0  0
  5  7  1  0  0  0  0
  2  3  1  0  0  0  0
  2  4  1  0  0  0  0
  2  5  1  0  0  0  0
  1  2  1  0  0  0  0
 29 30  2  0  0  0  0
 29 31  1  0  0  0  0
 26 27  1  0  0  0  0
 26 28  1  0  0  0  0
 23 24  1  0  0  0  0
 23 25  1  0  0  0  0
 22 23  1  0  0  0  0
 22 26  1  0  0  0  0
 20 21  1  0  0  0  0
 20 22  2  0  0  0  0
 17 18  1  0  0  0  0
 17 19  1  0  0  0  0
 17 20  1  0  0  0  0
 14 15  1  0  0  0  0
 14 16  1  0  0  0  0
 14 17  1  0  0  0  0
 11 12  1  0  0  0  0
 11 13  1  0  0  0  0
 11 14  1  0  0  0  0
  9 10  1  0  0  0  0
  9 11  1  0  0  0  0
  9 29  1  0  0  0  0
  7  8  1  0  0  0  0
  7  9  1  0  0  0  0
 33 34  1  0  0  0  0
 33 35  1  0  0  0  0
 33 36  1  0  0  0  0
 31 32  1  0  0  0  0
 31 33  1  0  0  0  0
M  CHG  1  20   1
M  END
$$$$
default_name
  -OEChem-02102213163D

 36 35  0     1  0  0  0  0  0999 V2000
   -4.2256   -3.6731    1.8584 H   0  0  0  0  0  0  0  0  0  0  0  0
   -4.2396   -2.6781    1.4144 C   0  0  0  0  0  0  0  0  0  0  0  0
   -4.9506   -2.0521    1.9514 H   0  0  0  0  0  0  0  0  0  0  0  0
   -4.5266   -2.7521    0.3674 H   0  0  0  0  0  0  0  0  0  0  0  0
   -2.8576   -2.0761    1.5184 C   0  0  0  0  0  0  0  0  0  0  0  0
   -1.9456   -2.7051    2.0404 O   0  0  0  0  0  0  0  0  0  0  0  0
   -2.6926   -0.8481    1.0174 N   0  0  0  0  0  0  0  0  0  0  0  0
   -3.4926   -0.3971    0.5954 H   0  0  0  0  0  0  0  0  0  0  0  0
   -1.4216   -0.1071    1.0434 C   0  0  1  0  0  0  0  0  0  0  0  0
   -0.6709   -0.6930    0.5106 H   0  0  0  0  0  0  0  0  0  0  0  0
   -1.6221    1.2315    0.3051 C   0  0  0  0  0  0  0  0  0  0  0  0
   -2.1854    1.9059    0.9532 H   0  0  0  0  0  0  0  0  0  0  0  0
   -0.6462    1.6827    0.1128 H   0  0  0  0  0  0  0  0  0  0  0  0
   -2.3825    1.0900   -1.0215 C   0  0  0  0  0  0  0  0  0  0  0  0
   -1.6764    0.9161   -1.8347 H   0  0  0  0  0  0  0  0  0  0  0  0
   -3.0702    0.2465   -0.9549 H   0  0  0  0  0  0  0  0  0  0  0  0
   -3.1744    2.3728   -1.3092 C   0  0  0  0  0  0  0  0  0  0  0  0
   -3.8595    2.5535   -0.4777 H   0  0  0  0  0  0  0  0  0  0  0  0
   -2.4724    3.2074   -1.3753 H   0  0  0  0  0  0  0  0  0  0  0  0
   -3.9423    2.2726   -2.5674 N   0  3  0  0  0  0  0  0  0  0  0  0
   -3.8283    1.4273   -3.1001 H   0  0  0  0  0  0  0  0  0  0  0  0
   -4.7628    3.1869   -3.0572 C   0  0  0  0  0  0  0  0  0  0  0  0
   -4.9830    4.3182   -2.4482 N   0  0  0  0  0  0  0  0  0  0  0  0
   -4.5142    4.4985   -1.5781 H   0  0  0  0  0  0  0  0  0  0  0  0
   -5.6085    5.0016   -2.8338 H   0  0  0  0  0  0  0  0  0  0  0  0
   -5.3848    2.9800   -4.1830 N   0  0  0  0  0  0  0  0  0  0  0  0
   -5.2473    2.1222   -4.6893 H   0  0  0  0  0  0  0  0  0  0  0  0
   -6.0065    3.6762   -4.5510 H   0  0  0  0  0  0  0  0  0  0  0  0
   -0.9523    0.1012    2.4848 C   0  0  0  0  0  0  0  0  0  0  0  0
    0.2133   -0.1319    2.7814 O   0  0  0  0  0  0  0  0  0  0  0  0
   -1.8684    0.5006    3.3725 N   0  0  0  0  0  0  0  0  0  0  0  0
   -2.7946    0.7048    3.0343 H   0  0  0  0  0  0  0  0  0  0  0  0
   -1.5848    0.7472    4.7873 C   0  0  0  0  0  0  0  0  0  0  0  0
   -0.8819    1.5774    4.8838 H   0  0  0  0  0  0  0  0  0  0  0  0
   -2.5030    0.9948    5.3214 H   0  0  0  0  0  0  0  0  0  0  0  0
   -1.1344   -0.1399    5.2381 H   0  0  0  0  0  0  0  0  0  0  0  0
  5  6  2  0  0  0  0
  5  7  1  0  0  0  0
  2  3  1  0  0  0  0
  2  4  1  0  0  0  0
  2  5  1  0  0  0  0
  1  2  1  0  0  0  0
 29 30  2  0  0  0  0
 29 31  1  0  0  0  0
 26 27  1  0  0  0  0
 26 28  1  0  0  0  0
 23 24  1  0  0  0  0
 23 25  1  0  0  0  0
 22 23  1  0  0  0  0
 22 26  1  0  0  0  0
 20 21  1  0  0  0  0
 20 22  2  0  0  0  0
 17 18  1  0  0  0  0
 17 19  1  0  0  0  0
 17 20  1  0  0  0  0
 14 15  1  0  0  0  0
 14 16  1  0  0  0  0
 14 17  1  0  0  0  0
 11 12  1  0  0  0  0
 11 13  1  0  0  0  0
 11 14  1  0  0  0  0
  9 10  1  0  0  0  0
  9 11  1  0  0  0  0
  9 29  1  0  0  0  0
  7  8  1  0  0  0  0
  7  9  1  0  0  0  0
 33 34  1  0  0  0  0
 33 35  1  0  0  0  0
 33 36  1  0  0  0  0
 31 32  1  0  0  0  0
 31 33  1  0  0  0  0
M  CHG  1  20   1
M  END
$$$$
default_name
  -OEChem-02102213163D

 36 35  0     1  0  0  0  0  0999 V2000
   -4.2256   -3.6731    1.8584 H   0  0  0  0  0  0  0  0  0  0  0  0
   -4.2396   -2.6781    1.4144 C   0  0  0  0  0  0  0  0  0  0  0  0
   -4.9506   -2.0521    1.9514 H   0  0  0  0  0  0  0  0  0  0  0  0
   -4.5266   -2.7521    0.3674 H   0  0  0  0  0  0  0  0  0  0  0  0
   -2.8576   -2.0761    1.5184 C   0  0  0  0  0  0  0  0  0  0  0  0
   -1.9456   -2.7051    2.0404 O   0  0  0  0  0  0  0  0  0  0  0  0
   -2.6926   -0.8481    1.0174 N   0  0  0  0  0  0  0  0  0  0  0  0
   -3.4926   -0.3971    0.5954 H   0  0  0  0  0  0  0  0  0  0  0  0
   -1.4216   -0.1071    1.0434 C   0  0  1  0  0  0  0  0  0  0  0  0
   -0.6709   -0.6930    0.5106 H   0  0  0  0  0  0  0  0  0  0  0  0
   -1.6221    1.2315    0.3051 C   0  0  0  0  0  0  0  0  0  0  0  0
   -2.1854    1.9059    0.9532 H   0  0  0  0  0  0  0  0  0  0  0  0
   -0.6462    1.6827    0.1128 H   0  0  0  0  0  0  0  0  0  0  0  0
   -2.3825    1.0900   -1.0215 C   0  0  0  0  0  0  0  0  0  0  0  0
   -1.7262    0.6588   -1.7788 H   0  0  0  0  0  0  0  0  0  0  0  0
   -3.2431    0.4364   -0.8761 H   0  0  0  0  0  0  0  0  0  0  0  0
   -2.8626    2.4677   -1.4980 C   0  0  0  0  0  0  0  0  0  0  0  0
   -3.4971    2.9032   -0.7227 H   0  0  0  0  0  0  0  0  0  0  0  0
   -1.9901    3.1095   -1.6413 H   0  0  0  0  0  0  0  0  0  0  0  0
   -3.6216    2.3767   -2.7623 N   0  3  0  0  0  0  0  0  0  0  0  0
   -3.6960    1.4649   -3.1799 H   0  0  0  0  0  0  0  0  0  0  0  0
   -4.2106    3.3782   -3.3941 C   0  0  0  0  0  0  0  0  0  0  0  0
   -4.1760    4.5999   -2.9407 N   0  0  0  0  0  0  0  0  0  0  0  0
   -3.6868    4.7838   -2.0827 H   0  0  0  0  0  0  0  0  0  0  0  0
   -4.6280    5.3485   -3.4327 H   0  0  0  0  0  0  0  0  0  0  0  0
   -4.8528    3.1691   -4.5081 N   0  0  0  0  0  0  0  0  0  0  0  0
   -4.9073    2.2435   -4.8971 H   0  0  0  0  0  0  0  0  0  0  0  0
   -5.2983    3.9316   -4.9842 H   0  0  0  0  0  0  0  0  0  0  0  0
   -0.9523    0.1012    2.4848 C   0  0  0  0  0  0  0  0  0  0  0  0
    0.2133   -0.1319    2.7814 O   0  0  0  0  0  0  0  0  0  0  0  0
   -1.8684    0.5006    3.3725 N   0  0  0  0  0  0  0  0  0  0  0  0
   -2.7946    0.7048    3.0343 H   0  0  0  0  0  0  0  0  0  0  0  0
   -1.5848    0.7472    4.7873 C   0  0  0  0  0  0  0  0  0  0  0  0
   -0.8819    1.5774    4.8838 H   0  0  0  0  0  0  0  0  0  0  0  0
   -2.5030    0.9948    5.3214 H   0  0  0  0  0  0  0  0  0  0  0  0
   -1.1344   -0.1399    5.2381 H   0  0  0  0  0  0  0  0  0  0  0  0
  5  6  2  0  0  0  0
  5  7  1  0  0  0  0
  2  3  1  0  0  0  0
  2  4  1  0  0  0  0
  2  5  1  0  0  0  0
  1  2  1  0  0  0  0
 29 30  2  0  0  0  0
 29 31  1  0  0  0  0
 26 27  1  0  0  0  0
 26 28  1  0  0  0  0
 23 24  1  0  0  0  0
 23 25  1  0  0  0  0
 22 23  1  0  0  0  0
 22 26  1  0  0  0  0
 20 21  1  0  0  0  0
 20 22  2  0  0  0  0
 17 18  1  0  0  0  0
 17 19  1  0  0  0  0
 17 20  1  0  0  0  0
 14 15  1  0  0  0  0
 14 16  1  0  0  0  0
 14 17  1  0  0  0  0
 11 12  1  0  0  0  0
 11 13  1  0  0  0  0
 11 14  1  0  0  0  0
  9 10  1  0  0  0  0
  9 11  1  0  0  0  0
  9 29  1  0  0  0  0
  7  8  1  0  0  0  0
  7  9  1  0  0  0  0
 33 34  1  0  0  0  0
 33 35  1  0  0  0  0
 33 36  1  0  0  0  0
 31 32  1  0  0  0  0
 31 33  1  0  0  0  0
M  CHG  1  20   1
M  END
$$$$
default_name
  -OEChem-02102213163D

 36 35  0     1  0  0  0  0  0999 V2000
   -4.2256   -3.6731    1.8584 H   0  0  0  0  0  0  0  0  0  0  0  0
   -4.2396   -2.6781    1.4144 C   0  0  0  0  0  0  0  0  0  0  0  0
   -4.9506   -2.0521    1.9514 H   0  0  0  0  0  0  0  0  0  0  0  0
   -4.5266   -2.7521    0.3674 H   0  0  0  0  0  0  0  0  0  0  0  0
   -2.8576   -2.0761    1.5184 C   0  0  0  0  0  0  0  0  0  0  0  0
   -1.9456   -2.7051    2.0404 O   0  0  0  0  0  0  0  0  0  0  0  0
   -2.6926   -0.8481    1.0174 N   0  0  0  0  0  0  0  0  0  0  0  0
   -3.4926   -0.3971    0.5954 H   0  0  0  0  0  0  0  0  0  0  0  0
   -1.4216   -0.1071    1.0434 C   0  0  1  0  0  0  0  0  0  0  0  0
   -0.6709   -0.6930    0.5106 H   0  0  0  0  0  0  0  0  0  0  0  0
   -1.6221    1.2315    0.3051 C   0  0  0  0  0  0  0  0  0  0  0  0
   -1.9386    1.9848    1.0293 H   0  0  0  0  0  0  0  0  0  0  0  0
   -0.6683    1.5504   -0.1210 H   0  0  0  0  0  0  0  0  0  0  0  0
   -2.6749    1.1625   -0.8107 C   0  0  0  0  0  0  0  0  0  0  0  0
   -2.3757    0.4233   -1.5551 H   0  0  0  0  0  0  0  0  0  0  0  0
   -3.6357    0.8745   -0.3828 H   0  0  0  0  0  0  0  0  0  0  0  0
   -2.8083    2.5330   -1.4886 C   0  0  0  0  0  0  0  0  0  0  0  0
   -3.0819    3.2714   -0.7314 H   0  0  0  0  0  0  0  0  0  0  0  0
   -1.8398    2.8063   -1.9138 H   0  0  0  0  0  0  0  0  0  0  0  0
   -3.8300    2.5197   -2.5557 N   0  3  0  0  0  0  0  0  0  0  0  0
   -4.2737    1.6374   -2.7453 H   0  0  0  0  0  0  0  0  0  0  0  0
   -4.2148    3.5556   -3.2822 C   0  0  0  0  0  0  0  0  0  0  0  0
   -3.7050    4.7442   -3.1192 N   0  0  0  0  0  0  0  0  0  0  0  0
   -2.9982    4.8754   -2.4174 H   0  0  0  0  0  0  0  0  0  0  0  0
   -4.0080    5.5197   -3.6794 H   0  0  0  0  0  0  0  0  0  0  0  0
   -5.1299    3.4152   -4.1989 N   0  0  0  0  0  0  0  0  0  0  0  0
   -5.5528    2.5176   -4.3613 H   0  0  0  0  0  0  0  0  0  0  0  0
   -5.4189    4.2037   -4.7478 H   0  0  0  0  0  0  0  0  0  0  0  0
   -0.9523    0.1012    2.4848 C   0  0  0  0  0  0  0  0  0  0  0  0
    0.2133   -0.1319    2.7814 O   0  0  0  0  0  0  0  0  0  0  0  0
   -1.8684    0.5006    3.3725 N   0  0  0  0  0  0  0  0  0  0  0  0
   -2.7946    0.7048    3.0343 H   0  0  0  0  0  0  0  0  0  0  0  0
   -1.5848    0.7472    4.7873 C   0  0  0  0  0  0  0  0  0  0  0  0
   -0.8819    1.5774    4.8838 H   0  0  0  0  0  0  0  0  0  0  0  0
   -2.5030    0.9948    5.3214 H   0  0  0  0  0  0  0  0  0  0  0  0
   -1.1344   -0.1399    5.2381 H   0  0  0  0  0  0  0  0  0  0  0  0
  5  6  2  0  0  0  0
  5  7  1  0  0  0  0
  2  3  1  0  0  0  0
  2  4  1  0  0  0  0
  2  5  1  0  0  0  0
  1  2  1  0  0  0  0
 29 30  2  0  0  0  0
 29 31  1  0  0  0  0
 26 27  1  0  0  0  0
 26 28  1  0  0  0  0
 23 24  1  0  0  0  0
 23 25  1  0  0  0  0
 22 23  1  0  0  0  0
 22 26  1  0  0  0  0
 20 21  1  0  0  0  0
 20 22  2  0  0  0  0
 17 18  1  0  0  0  0
 17 19  1  0  0  0  0
 17 20  1  0  0  0  0
 14 15  1  0  0  0  0
 14 16  1  0  0  0  0
 14 17  1  0  0  0  0
 11 12  1  0  0  0  0
 11 13  1  0  0  0  0
 11 14  1  0  0  0  0
  9 10  1  0  0  0  0
  9 11  1  0  0  0  0
  9 29  1  0  0  0  0
  7  8  1  0  0  0  0
  7  9  1  0  0  0  0
 33 34  1  0  0  0  0
 33 35  1  0  0  0  0
 33 36  1  0  0  0  0
 31 32  1  0  0  0  0
 31 33  1  0  0  0  0
M  CHG  1  20   1
M  END
$$$$
default_name
  -OEChem-02102213163D

 36 35  0     1  0  0  0  0  0999 V2000
   -4.2256   -3.6731    1.8584 H   0  0  0  0  0  0  0  0  0  0  0  0
   -4.2396   -2.6781    1.4144 C   0  0  0  0  0  0  0  0  0  0  0  0
   -4.9506   -2.0521    1.9514 H   0  0  0  0  0  0  0  0  0  0  0  0
   -4.5266   -2.7521    0.3674 H   0  0  0  0  0  0  0  0  0  0  0  0
   -2.8576   -2.0761    1.5184 C   0  0  0  0  0  0  0  0  0  0  0  0
   -1.9456   -2.7051    2.0404 O   0  0  0  0  0  0  0  0  0  0  0  0
   -2.6926   -0.8481    1.0174 N   0  0  0  0  0  0  0  0  0  0  0  0
   -3.4926   -0.3971    0.5954 H   0  0  0  0  0  0  0  0  0  0  0  0
   -1.4216   -0.1071    1.0434 C   0  0  1  0  0  0  0  0  0  0  0  0
   -0.6709   -0.6930    0.5106 H   0  0  0  0  0  0  0  0  0  0  0  0
   -1.6221    1.2315    0.3051 C   0  0  0  0  0  0  0  0  0  0  0  0
   -1.9386    1.9848    1.0293 H   0  0  0  0  0  0  0  0  0  0  0  0
   -0.6683    1.5504   -0.1210 H   0  0  0  0  0  0  0  0  0  0  0  0
   -2.6749    1.1625   -0.8107 C   0  0  0  0  0  0  0  0  0  0  0  0
   -2.5249    0.2596   -1.4042 H   0  0  0  0  0  0  0  0  0  0  0  0
   -3.6705    1.1404   -0.3664 H   0  0  0  0  0  0  0  0  0  0  0  0
   -2.5504    2.3903   -1.7231 C   0  0  0  0  0  0  0  0  0  0  0  0
   -2.6753    3.2899   -1.1162 H   0  0  0  0  0  0  0  0  0  0  0  0
   -1.5499    2.3972   -2.1620 H   0  0  0  0  0  0  0  0  0  0  0  0
   -3.5619    2.3780   -2.8000 N   0  3  0  0  0  0  0  0  0  0  0  0
   -4.1654    1.5748   -2.8436 H   0  0  0  0  0  0  0  0  0  0  0  0
   -3.7477    3.3209   -3.7085 C   0  0  0  0  0  0  0  0  0  0  0  0
   -3.0215    4.4029   -3.7431 N   0  0  0  0  0  0  0  0  0  0  0  0
   -2.2988    4.5227   -3.0555 H   0  0  0  0  0  0  0  0  0  0  0  0
   -3.1753    5.1086   -4.4397 H   0  0  0  0  0  0  0  0  0  0  0  0
   -4.6777    3.1927   -4.6118 N   0  0  0  0  0  0  0  0  0  0  0  0
   -5.2636    2.3757   -4.6254 H   0  0  0  0  0  0  0  0  0  0  0  0
   -4.8154    3.9105   -5.2992 H   0  0  0  0  0  0  0  0  0  0  0  0
   -0.9523    0.1012    2.4848 C   0  0  0  0  0  0  0  0  0  0  0  0
    0.2133   -0.1319    2.7814 O   0  0  0  0  0  0  0  0  0  0  0  0
   -1.8684    0.5006    3.3725 N   0  0  0  0  0  0  0  0  0  0  0  0
   -2.7946    0.7048    3.0343 H   0  0  0  0  0  0  0  0  0  0  0  0
   -1.5848    0.7472    4.7873 C   0  0  0  0  0  0  0  0  0  0  0  0
   -0.8819    1.5774    4.8838 H   0  0  0  0  0  0  0  0  0  0  0  0
   -2.5030    0.9948    5.3214 H   0  0  0  0  0  0  0  0  0  0  0  0
   -1.1344   -0.1399    5.2381 H   0  0  0  0  0  0  0  0  0  0  0  0
  5  6  2  0  0  0  0
  5  7  1  0  0  0  0
  2  3  1  0  0  0  0
  2  4  1  0  0  0  0
  2  5  1  0  0  0  0
  1  2  1  0  0  0  0
 29 30  2  0  0  0  0
 29 31  1  0  0  0  0
 26 27  1  0  0  0  0
 26 28  1  0  0  0  0
 23 24  1  0  0  0  0
 23 25  1  0  0  0  0
 22 23  1  0  0  0  0
 22 26  1  0  0  0  0
 20 21  1  0  0  0  0
 20 22  2  0  0  0  0
 17 18  1  0  0  0  0
 17 19  1  0  0  0  0
 17 20  1  0  0  0  0
 14 15  1  0  0  0  0
 14 16  1  0  0  0  0
 14 17  1  0  0  0  0
 11 12  1  0  0  0  0
 11 13  1  0  0  0  0
 11 14  1  0  0  0  0
  9 10  1  0  0  0  0
  9 11  1  0  0  0  0
  9 29  1  0  0  0  0
  7  8  1  0  0  0  0
  7  9  1  0  0  0  0
 33 34  1  0  0  0  0
 33 35  1  0  0  0  0
 33 36  1  0  0  0  0
 31 32  1  0  0  0  0
 31 33  1  0  0  0  0
M  CHG  1  20   1
M  END
$$$$
default_name
  -OEChem-02102213163D

 36 35  0     1  0  0  0  0  0999 V2000
   -4.2256   -3.6731    1.8584 H   0  0  0  0  0  0  0  0  0  0  0  0
   -4.2396   -2.6781    1.4144 C   0  0  0  0  0  0  0  0  0  0  0  0
   -4.9506   -2.0521    1.9514 H   0  0  0  0  0  0  0  0  0  0  0  0
   -4.5266   -2.7521    0.3674 H   0  0  0  0  0  0  0  0  0  0  0  0
   -2.8576   -2.0761    1.5184 C   0  0  0  0  0  0  0  0  0  0  0  0
   -1.9456   -2.7051    2.0404 O   0  0  0  0  0  0  0  0  0  0  0  0
   -2.6926   -0.8481    1.0174 N   0  0  0  0  0  0  0  0  0  0  0  0
   -3.4926   -0.3971    0.5954 H   0  0  0  0  0  0  0  0  0  0  0  0
   -1.4216   -0.1071    1.0434 C   0  0  1  0  0  0  0  0  0  0  0  0
   -0.6709   -0.6930    0.5106 H   0  0  0  0  0  0  0  0  0  0  0  0
   -1.6221    1.2315    0.3051 C   0  0  0  0  0  0  0  0  0  0  0  0
   -1.9386    1.9848    1.0293 H   0  0  0  0  0  0  0  0  0  0  0  0
   -0.6683    1.5504   -0.1210 H   0  0  0  0  0  0  0  0  0  0  0  0
   -2.6749    1.1625   -0.8107 C   0  0  0  0  0  0  0  0  0  0  0  0
   -2.7015    0.1563   -1.2311 H   0  0  0  0  0  0  0  0  0  0  0  0
   -3.6543    1.4067   -0.3981 H   0  0  0  0  0  0  0  0  0  0  0  0
   -2.3254    2.1623   -1.9214 C   0  0  0  0  0  0  0  0  0  0  0  0
   -2.2747    3.1631   -1.4864 H   0  0  0  0  0  0  0  0  0  0  0  0
   -1.3440    1.9036   -2.3258 H   0  0  0  0  0  0  0  0  0  0  0  0
   -3.3266    2.1473   -3.0077 N   0  3  0  0  0  0  0  0  0  0  0  0
   -4.0714    1.4765   -2.9262 H   0  0  0  0  0  0  0  0  0  0  0  0
   -3.3357    2.9307   -4.0732 C   0  0  0  0  0  0  0  0  0  0  0  0
   -2.4181    3.8339   -4.2773 N   0  0  0  0  0  0  0  0  0  0  0  0
   -1.6822    3.9373   -3.6011 H   0  0  0  0  0  0  0  0  0  0  0  0
   -2.4395    4.4200   -5.0914 H   0  0  0  0  0  0  0  0  0  0  0  0
   -4.2780    2.8195   -4.9659 N   0  0  0  0  0  0  0  0  0  0  0  0
   -5.0078    2.1374   -4.8520 H   0  0  0  0  0  0  0  0  0  0  0  0
   -4.2811    3.4158   -5.7727 H   0  0  0  0  0  0  0  0  0  0  0  0
   -0.9523    0.1012    2.4848 C   0  0  0  0  0  0  0  0  0  0  0  0
    0.2133   -0.1319    2.7814 O   0  0  0  0  0  0  0  0  0  0  0  0
   -1.8684    0.5006    3.3725 N   0  0  0  0  0  0  0  0  0  0  0  0
   -2.7946    0.7048    3.0343 H   0  0  0  0  0  0  0  0  0  0  0  0
   -1.5848    0.7472    4.7873 C   0  0  0  0  0  0  0  0  0  0  0  0
   -0.8819    1.5774    4.8838 H   0  0  0  0  0  0  0  0  0  0  0  0
   -2.5030    0.9948    5.3214 H   0  0  0  0  0  0  0  0  0  0  0  0
   -1.1344   -0.1399    5.2381 H   0  0  0  0  0  0  0  0  0  0  0  0
  5  6  2  0  0  0  0
  5  7  1  0  0  0  0
  2  3  1  0  0  0  0
  2  4  1  0  0  0  0
  2  5  1  0  0  0  0
  1  2  1  0  0  0  0
 29 30  2  0  0  0  0
 29 31  1  0  0  0  0
 26 27  1  0  0  0  0
 26 28  1  0  0  0  0
 23 24  1  0  0  0  0
 23 25  1  0  0  0  0
 22 23  1  0  0  0  0
 22 26  1  0  0  0  0
 20 21  1  0  0  0  0
 20 22  2  0  0  0  0
 17 18  1  0  0  0  0
 17 19  1  0  0  0  0
 17 20  1  0  0  0  0
 14 15  1  0  0  0  0
 14 16  1  0  0  0  0
 14 17  1  0  0  0  0
 11 12  1  0  0  0  0
 11 13  1  0  0  0  0
 11 14  1  0  0  0  0
  9 10  1  0  0  0  0
  9 11  1  0  0  0  0
  9 29  1  0  0  0  0
  7  8  1  0  0  0  0
  7  9  1  0  0  0  0
 33 34  1  0  0  0  0
 33 35  1  0  0  0  0
 33 36  1  0  0  0  0
 31 32  1  0  0  0  0
 31 33  1  0  0  0  0
M  CHG  1  20   1
M  END
$$$$
default_name
  -OEChem-02102213163D

 36 35  0     1  0  0  0  0  0999 V2000
   -4.2256   -3.6731    1.8584 H   0  0  0  0  0  0  0  0  0  0  0  0
   -4.2396   -2.6781    1.4144 C   0  0  0  0  0  0  0  0  0  0  0  0
   -4.9506   -2.0521    1.9514 H   0  0  0  0  0  0  0  0  0  0  0  0
   -4.5266   -2.7521    0.3674 H   0  0  0  0  0  0  0  0  0  0  0  0
   -2.8576   -2.0761    1.5184 C   0  0  0  0  0  0  0  0  0  0  0  0
   -1.9456   -2.7051    2.0404 O   0  0  0  0  0  0  0  0  0  0  0  0
   -2.6926   -0.8481    1.0174 N   0  0  0  0  0  0  0  0  0  0  0  0
   -3.4926   -0.3971    0.5954 H   0  0  0  0  0  0  0  0  0  0  0  0
   -1.4216   -0.1071    1.0434 C   0  0  1  0  0  0  0  0  0  0  0  0
   -0.6709   -0.6930    0.5106 H   0  0  0  0  0  0  0  0  0  0  0  0
   -1.6221    1.2315    0.3051 C   0  0  0  0  0  0  0  0  0  0  0  0
   -1.9386    1.9848    1.0293 H   0  0  0  0  0  0  0  0  0  0  0  0
   -0.6683    1.5504   -0.1210 H   0  0  0  0  0  0  0  0  0  0  0  0
   -2.6749    1.1625   -0.8107 C   0  0  0  0  0  0  0  0  0  0  0  0
   -2.8936    0.1204   -1.0477 H   0  0  0  0  0  0  0  0  0  0  0  0
   -3.5883    1.6552   -0.4758 H   0  0  0  0  0  0  0  0  0  0  0  0
   -2.1486    1.8646   -2.0698 C   0  0  0  0  0  0  0  0  0  0  0  0
   -1.9072    2.8996   -1.8168 H   0  0  0  0  0  0  0  0  0  0  0  0
   -1.2360    1.3589   -2.3941 H   0  0  0  0  0  0  0  0  0  0  0  0
   -3.1404    1.8434   -3.1646 N   0  3  0  0  0  0  0  0  0  0  0  0
   -3.9982    1.3492   -2.9875 H   0  0  0  0  0  0  0  0  0  0  0  0
   -3.0068    2.4116   -4.3514 C   0  0  0  0  0  0  0  0  0  0  0  0
   -1.9362    3.0760   -4.6852 N   0  0  0  0  0  0  0  0  0  0  0  0
   -1.1904    3.1590   -4.0172 H   0  0  0  0  0  0  0  0  0  0  0  0
   -1.8507    3.5008   -5.5902 H   0  0  0  0  0  0  0  0  0  0  0  0
   -3.9579    2.3210   -5.2371 N   0  0  0  0  0  0  0  0  0  0  0  0
   -4.8030    1.8189   -5.0256 H   0  0  0  0  0  0  0  0  0  0  0  0
   -3.8525    2.7536   -6.1362 H   0  0  0  0  0  0  0  0  0  0  0  0
   -0.9523    0.1012    2.4848 C   0  0  0  0  0  0  0  0  0  0  0  0
    0.2133   -0.1319    2.7814 O   0  0  0  0  0  0  0  0  0  0  0  0
   -1.8684    0.5006    3.3725 N   0  0  0  0  0  0  0  0  0  0  0  0
   -2.7946    0.7048    3.0343 H   0  0  0  0  0  0  0  0  0  0  0  0
   -1.5848    0.7472    4.7873 C   0  0  0  0  0  0  0  0  0  0  0  0
   -0.8819    1.5774    4.8838 H   0  0  0  0  0  0  0  0  0  0  0  0
   -2.5030    0.9948    5.3214 H   0  0  0  0  0  0  0  0  0  0  0  0
   -1.1344   -0.1399    5.2381 H   0  0  0  0  0  0  0  0  0  0  0  0
  5  6  2  0  0  0  0
  5  7  1  0  0  0  0
  2  3  1  0  0  0  0
  2  4  1  0  0  0  0
  2  5  1  0  0  0  0
  1  2  1  0  0  0  0
 29 30  2  0  0  0  0
 29 31  1  0  0  0  0
 26 27  1  0  0  0  0
 26 28  1  0  0  0  0
 23 24  1  0  0  0  0
 23 25  1  0  0  0  0
 22 23  1  0  0  0  0
 22 26  1  0  0  0  0
 20 21  1  0  0  0  0
 20 22  2  0  0  0  0
 17 18  1  0  0  0  0
 17 19  1  0  0  0  0
 17 20  1  0  0  0  0
 14 15  1  0  0  0  0
 14 16  1  0  0  0  0
 14 17  1  0  0  0  0
 11 12  1  0  0  0  0
 11 13  1  0  0  0  0
 11 14  1  0  0  0  0
  9 10  1  0  0  0  0
  9 11  1  0  0  0  0
  9 29  1  0  0  0  0
  7  8  1  0  0  0  0
  7  9  1  0  0  0  0
 33 34  1  0  0  0  0
 33 35  1  0  0  0  0
 33 36  1  0  0  0  0
 31 32  1  0  0  0  0
 31 33  1  0  0  0  0
M  CHG  1  20   1
M  END
$$$$
default_name
  -OEChem-02102213163D

 36 35  0     1  0  0  0  0  0999 V2000
   -4.2256   -3.6731    1.8584 H   0  0  0  0  0  0  0  0  0  0  0  0
   -4.2396   -2.6781    1.4144 C   0  0  0  0  0  0  0  0  0  0  0  0
   -4.9506   -2.0521    1.9514 H   0  0  0  0  0  0  0  0  0  0  0  0
   -4.5266   -2.7521    0.3674 H   0  0  0  0  0  0  0  0  0  0  0  0
   -2.8576   -2.0761    1.5184 C   0  0  0  0  0  0  0  0  0  0  0  0
   -1.9456   -2.7051    2.0404 O   0  0  0  0  0  0  0  0  0  0  0  0
   -2.6926   -0.8481    1.0174 N   0  0  0  0  0  0  0  0  0  0  0  0
   -3.4926   -0.3971    0.5954 H   0  0  0  0  0  0  0  0  0  0  0  0
   -1.4216   -0.1071    1.0434 C   0  0  1  0  0  0  0  0  0  0  0  0
   -0.6709   -0.6930    0.5106 H   0  0  0  0  0  0  0  0  0  0  0  0
   -1.6221    1.2315    0.3051 C   0  0  0  0  0  0  0  0  0  0  0  0
   -1.9386    1.9848    1.0293 H   0  0  0  0  0  0  0  0  0  0  0  0
   -0.6683    1.5504   -0.1210 H   0  0  0  0  0  0  0  0  0  0  0  0
   -2.6749    1.1625   -0.8107 C   0  0  0  0  0  0  0  0  0  0  0  0
   -3.0880    0.1544   -0.8664 H   0  0  0  0  0  0  0  0  0  0  0  0
   -3.4768    1.8690   -0.5941 H   0  0  0  0  0  0  0  0  0  0  0  0
   -2.0320    1.5175   -2.1583 C   0  0  0  0  0  0  0  0  0  0  0  0
   -1.5980    2.5173   -2.0850 H   0  0  0  0  0  0  0  0  0  0  0  0
   -1.2333    0.8004   -2.3621 H   0  0  0  0  0  0  0  0  0  0  0  0
   -3.0158    1.4870   -3.2601 N   0  3  0  0  0  0  0  0  0  0  0  0
   -3.9506    1.2016   -3.0233 H   0  0  0  0  0  0  0  0  0  0  0  0
   -2.7836    1.7990   -4.5241 C   0  0  0  0  0  0  0  0  0  0  0  0
   -1.6084    2.1810   -4.9392 N   0  0  0  0  0  0  0  0  0  0  0  0
   -0.8568    2.2410   -4.2752 H   0  0  0  0  0  0  0  0  0  0  0  0
   -1.4490    2.4138   -5.9021 H   0  0  0  0  0  0  0  0  0  0  0  0
   -3.7394    1.7312   -5.4069 N   0  0  0  0  0  0  0  0  0  0  0  0
   -4.6630    1.4419   -5.1344 H   0  0  0  0  0  0  0  0  0  0  0  0
   -3.5589    1.9688   -6.3647 H   0  0  0  0  0  0  0  0  0  0  0  0
   -0.9523    0.1012    2.4848 C   0  0  0  0  0  0  0  0  0  0  0  0
    0.2133   -0.1319    2.7814 O   0  0  0  0  0  0  0  0  0  0  0  0
   -1.8684    0.5006    3.3725 N   0  0  0  0  0  0  0  0  0  0  0  0
   -2.7946    0.7048    3.0343 H   0  0  0  0  0  0  0  0  0  0  0  0
   -1.5848    0.7472    4.7873 C   0  0  0  0  0  0  0  0  0  0  0  0
   -0.8819    1.5774    4.8838 H   0  0  0  0  0  0  0  0  0  0  0  0
   -2.5030    0.9948    5.3214 H   0  0  0  0  0  0  0  0  0  0  0  0
   -1.1344   -0.1399    5.2381 H   0  0  0  0  0  0  0  0  0  0  0  0
  5  6  2  0  0  0  0
  5  7  1  0  0  0  0
  2  3  1  0  0  0  0
  2  4  1  0  0  0  0
  2  5  1  0  0  0  0
  1  2  1  0  0  0  0
 29 30  2  0  0  0  0
 29 31  1  0  0  0  0
 26 27  1  0  0  0  0
 26 28  1  0  0  0  0
 23 24  1  0  0  0  0
 23 25  1  0  0  0  0
 22 23  1  0  0  0  0
 22 26  1  0  0  0  0
 20 21  1  0  0  0  0
 20 22  2  0  0  0  0
 17 18  1  0  0  0  0
 17 19  1  0  0  0  0
 17 20  1  0  0  0  0
 14 15  1  0  0  0  0
 14 16  1  0  0  0  0
 14 17  1  0  0  0  0
 11 12  1  0  0  0  0
 11 13  1  0  0  0  0
 11 14  1  0  0  0  0
  9 10  1  0  0  0  0
  9 11  1  0  0  0  0
  9 29  1  0  0  0  0
  7  8  1  0  0  0  0
  7  9  1  0  0  0  0
 33 34  1  0  0  0  0
 33 35  1  0  0  0  0
 33 36  1  0  0  0  0
 31 32  1  0  0  0  0
 31 33  1  0  0  0  0
M  CHG  1  20   1
M  END
$$$$
default_name
  -OEChem-02102213163D

 36 35  0     1  0  0  0  0  0999 V2000
   -4.2256   -3.6731    1.8584 H   0  0  0  0  0  0  0  0  0  0  0  0
   -4.2396   -2.6781    1.4144 C   0  0  0  0  0  0  0  0  0  0  0  0
   -4.9506   -2.0521    1.9514 H   0  0  0  0  0  0  0  0  0  0  0  0
   -4.5266   -2.7521    0.3674 H   0  0  0  0  0  0  0  0  0  0  0  0
   -2.8576   -2.0761    1.5184 C   0  0  0  0  0  0  0  0  0  0  0  0
   -1.9456   -2.7051    2.0404 O   0  0  0  0  0  0  0  0  0  0  0  0
   -2.6926   -0.8481    1.0174 N   0  0  0  0  0  0  0  0  0  0  0  0
   -3.4926   -0.3971    0.5954 H   0  0  0  0  0  0  0  0  0  0  0  0
   -1.4216   -0.1071    1.0434 C   0  0  1  0  0  0  0  0  0  0  0  0
   -0.6709   -0.6930    0.5106 H   0  0  0  0  0  0  0  0  0  0  0  0
   -1.6221    1.2315    0.3051 C   0  0  0  0  0  0  0  0  0  0  0  0
   -1.9386    1.9848    1.0293 H   0  0  0  0  0  0  0  0  0  0  0  0
   -0.6683    1.5504   -0.1210 H   0  0  0  0  0  0  0  0  0  0  0  0
   -2.6749    1.1625   -0.8107 C   0  0  0  0  0  0  0  0  0  0  0  0
   -3.2715    0.2560   -0.6995 H   0  0  0  0  0  0  0  0  0  0  0  0
   -3.3276    2.0336   -0.7451 H   0  0  0  0  0  0  0  0  0  0  0  0
   -1.9837    1.1446   -2.1809 C   0  0  0  0  0  0  0  0  0  0  0  0
   -1.3680    2.0423   -2.2726 H   0  0  0  0  0  0  0  0  0  0  0  0
   -1.3361    0.2661   -2.2321 H   0  0  0  0  0  0  0  0  0  0  0  0
   -2.9614    1.1024   -3.2877 N   0  3  0  0  0  0  0  0  0  0  0  0
   -3.9320    1.0438   -3.0310 H   0  0  0  0  0  0  0  0  0  0  0  0
   -2.6811    1.1346   -4.5797 C   0  0  0  0  0  0  0  0  0  0  0  0
   -1.4572    1.2097   -5.0219 N   0  0  0  0  0  0  0  0  0  0  0  0
   -0.7042    1.2457   -4.3576 H   0  0  0  0  0  0  0  0  0  0  0  0
   -1.2617    1.2328   -6.0058 H   0  0  0  0  0  0  0  0  0  0  0  0
   -3.6372    1.0902   -5.4636 N   0  0  0  0  0  0  0  0  0  0  0  0
   -4.5974    1.0322   -5.1710 H   0  0  0  0  0  0  0  0  0  0  0  0
   -3.4202    1.1150   -6.4428 H   0  0  0  0  0  0  0  0  0  0  0  0
   -0.9523    0.1012    2.4848 C   0  0  0  0  0  0  0  0  0  0  0  0
    0.2133   -0.1319    2.7814 O   0  0  0  0  0  0  0  0  0  0  0  0
   -1.8684    0.5006    3.3725 N   0  0  0  0  0  0  0  0  0  0  0  0
   -2.7946    0.7048    3.0343 H   0  0  0  0  0  0  0  0  0  0  0  0
   -1.5848    0.7472    4.7873 C   0  0  0  0  0  0  0  0  0  0  0  0
   -0.8819    1.5774    4.8838 H   0  0  0  0  0  0  0  0  0  0  0  0
   -2.5030    0.9948    5.3214 H   0  0  0  0  0  0  0  0  0  0  0  0
   -1.1344   -0.1399    5.2381 H   0  0  0  0  0  0  0  0  0  0  0  0
  5  6  2  0  0  0  0
  5  7  1  0  0  0  0
  2  3  1  0  0  0  0
  2  4  1  0  0  0  0
  2  5  1  0  0  0  0
  1  2  1  0  0  0  0
 29 30  2  0  0  0  0
 29 31  1  0  0  0  0
 26 27  1  0  0  0  0
 26 28  1  0  0  0  0
 23 24  1  0  0  0  0
 23 25  1  0  0  0  0
 22 23  1  0  0  0  0
 22 26  1  0  0  0  0
 20 21  1  0  0  0  0
 20 22  2  0  0  0  0
 17 18  1  0  0  0  0
 17 19  1  0  0  0  0
 17 20  1  0  0  0  0
 14 15  1  0  0  0  0
 14 16  1  0  0  0  0
 14 17  1  0  0  0  0
 11 12  1  0  0  0  0
 11 13  1  0  0  0  0
 11 14  1  0  0  0  0
  9 10  1  0  0  0  0
  9 11  1  0  0  0  0
  9 29  1  0  0  0  0
  7  8  1  0  0  0  0
  7  9  1  0  0  0  0
 33 34  1  0  0  0  0
 33 35  1  0  0  0  0
 33 36  1  0  0  0  0
 31 32  1  0  0  0  0
 31 33  1  0  0  0  0
M  CHG  1  20   1
M  END
$$$$
default_name
  -OEChem-02102213163D

 36 35  0     1  0  0  0  0  0999 V2000
   -4.2256   -3.6731    1.8584 H   0  0  0  0  0  0  0  0  0  0  0  0
   -4.2396   -2.6781    1.4144 C   0  0  0  0  0  0  0  0  0  0  0  0
   -4.9506   -2.0521    1.9514 H   0  0  0  0  0  0  0  0  0  0  0  0
   -4.5266   -2.7521    0.3674 H   0  0  0  0  0  0  0  0  0  0  0  0
   -2.8576   -2.0761    1.5184 C   0  0  0  0  0  0  0  0  0  0  0  0
   -1.9456   -2.7051    2.0404 O   0  0  0  0  0  0  0  0  0  0  0  0
   -2.6926   -0.8481    1.0174 N   0  0  0  0  0  0  0  0  0  0  0  0
   -3.4926   -0.3971    0.5954 H   0  0  0  0  0  0  0  0  0  0  0  0
   -1.4216   -0.1071    1.0434 C   0  0  1  0  0  0  0  0  0  0  0  0
   -0.6709   -0.6930    0.5106 H   0  0  0  0  0  0  0  0  0  0  0  0
   -1.6221    1.2315    0.3051 C   0  0  0  0  0  0  0  0  0  0  0  0
   -1.9386    1.9848    1.0293 H   0  0  0  0  0  0  0  0  0  0  0  0
   -0.6683    1.5504   -0.1210 H   0  0  0  0  0  0  0  0  0  0  0  0
   -2.6749    1.1625   -0.8107 C   0  0  0  0  0  0  0  0  0  0  0  0
   -3.4315    0.4182   -0.5585 H   0  0  0  0  0  0  0  0  0  0  0  0
   -3.1507    2.1378   -0.9185 H   0  0  0  0  0  0  0  0  0  0  0  0
   -2.0069    0.7713   -2.1359 C   0  0  0  0  0  0  0  0  0  0  0  0
   -1.2331    1.5069   -2.3668 H   0  0  0  0  0  0  0  0  0  0  0  0
   -1.5374   -0.2075   -2.0129 H   0  0  0  0  0  0  0  0  0  0  0  0
   -2.9809    0.7157   -3.2454 N   0  3  0  0  0  0  0  0  0  0  0  0
   -3.9437    0.8865   -3.0103 H   0  0  0  0  0  0  0  0  0  0  0  0
   -2.7065    0.4637   -4.5144 C   0  0  0  0  0  0  0  0  0  0  0  0
   -1.4928    0.2285   -4.9276 N   0  0  0  0  0  0  0  0  0  0  0  0
   -0.7431    0.2410   -4.2589 H   0  0  0  0  0  0  0  0  0  0  0  0
   -1.3018    0.0385   -5.8942 H   0  0  0  0  0  0  0  0  0  0  0  0
   -3.6584    0.4418   -5.4036 N   0  0  0  0  0  0  0  0  0  0  0  0
   -4.6107    0.6176   -5.1328 H   0  0  0  0  0  0  0  0  0  0  0  0
   -3.4459    0.2503   -6.3652 H   0  0  0  0  0  0  0  0  0  0  0  0
   -0.9523    0.1012    2.4848 C   0  0  0  0  0  0  0  0  0  0  0  0
    0.2133   -0.1319    2.7814 O   0  0  0  0  0  0  0  0  0  0  0  0
   -1.8684    0.5006    3.3725 N   0  0  0  0  0  0  0  0  0  0  0  0
   -2.7946    0.7048    3.0343 H   0  0  0  0  0  0  0  0  0  0  0  0
   -1.5848    0.7472    4.7873 C   0  0  0  0  0  0  0  0  0  0  0  0
   -0.8819    1.5774    4.8838 H   0  0  0  0  0  0  0  0  0  0  0  0
   -2.5030    0.9948    5.3214 H   0  0  0  0  0  0  0  0  0  0  0  0
   -1.1344   -0.1399    5.2381 H   0  0  0  0  0  0  0  0  0  0  0  0
  5  6  2  0  0  0  0
  5  7  1  0  0  0  0
  2  3  1  0  0  0  0
  2  4  1  0  0  0  0
  2  5  1  0  0  0  0
  1  2  1  0  0  0  0
 29 30  2  0  0  0  0
 29 31  1  0  0  0  0
 26 27  1  0  0  0  0
 26 28  1  0  0  0  0
 23 24  1  0  0  0  0
 23 25  1  0  0  0  0
 22 23  1  0  0  0  0
 22 26  1  0  0  0  0
 20 21  1  0  0  0  0
 20 22  2  0  0  0  0
 17 18  1  0  0  0  0
 17 19  1  0  0  0  0
 17 20  1  0  0  0  0
 14 15  1  0  0  0  0
 14 16  1  0  0  0  0
 14 17  1  0  0  0  0
 11 12  1  0  0  0  0
 11 13  1  0  0  0  0
 11 14  1  0  0  0  0
  9 10  1  0  0  0  0
  9 11  1  0  0  0  0
  9 29  1  0  0  0  0
  7  8  1  0  0  0  0
  7  9  1  0  0  0  0
 33 34  1  0  0  0  0
 33 35  1  0  0  0  0
 33 36  1  0  0  0  0
 31 32  1  0  0  0  0
 31 33  1  0  0  0  0
M  CHG  1  20   1
M  END
$$$$
default_name
  -OEChem-02102213163D

 36 35  0     1  0  0  0  0  0999 V2000
   -4.2256   -3.6731    1.8584 H   0  0  0  0  0  0  0  0  0  0  0  0
   -4.2396   -2.6781    1.4144 C   0  0  0  0  0  0  0  0  0  0  0  0
   -4.9506   -2.0521    1.9514 H   0  0  0  0  0  0  0  0  0  0  0  0
   -4.5266   -2.7521    0.3674 H   0  0  0  0  0  0  0  0  0  0  0  0
   -2.8576   -2.0761    1.5184 C   0  0  0  0  0  0  0  0  0  0  0  0
   -1.9456   -2.7051    2.0404 O   0  0  0  0  0  0  0  0  0  0  0  0
   -2.6926   -0.8481    1.0174 N   0  0  0  0  0  0  0  0  0  0  0  0
   -3.4926   -0.3971    0.5954 H   0  0  0  0  0  0  0  0  0  0  0  0
   -1.4216   -0.1071    1.0434 C   0  0  1  0  0  0  0  0  0  0  0  0
   -0.6709   -0.6930    0.5106 H   0  0  0  0  0  0  0  0  0  0  0  0
   -1.6221    1.2315    0.3051 C   0  0  0  0  0  0  0  0  0  0  0  0
   -1.9386    1.9848    1.0293 H   0  0  0  0  0  0  0  0  0  0  0  0
   -0.6683    1.5504   -0.1210 H   0  0  0  0  0  0  0  0  0  0  0  0
   -2.6749    1.1625   -0.8107 C   0  0  0  0  0  0  0  0  0  0  0  0
   -3.5573    0.6301   -0.4529 H   0  0  0  0  0  0  0  0  0  0  0  0
   -2.9583    2.1743   -1.1023 H   0  0  0  0  0  0  0  0  0  0  0  0
   -2.1001    0.4230   -2.0265 C   0  0  0  0  0  0  0  0  0  0  0  0
   -1.2023    0.9477   -2.3613 H   0  0  0  0  0  0  0  0  0  0  0  0
   -1.8235   -0.5883   -1.7194 H   0  0  0  0  0  0  0  0  0  0  0  0
   -3.0729    0.3534   -3.1362 N   0  3  0  0  0  0  0  0  0  0  0  0
   -3.9847    0.7404   -2.9626 H   0  0  0  0  0  0  0  0  0  0  0  0
   -2.8579   -0.1679   -4.3325 C   0  0  0  0  0  0  0  0  0  0  0  0
   -1.7128   -0.6960   -4.6629 N   0  0  0  0  0  0  0  0  0  0  0  0
   -0.9707   -0.7046   -3.9857 H   0  0  0  0  0  0  0  0  0  0  0  0
   -1.5663   -1.0877   -5.5750 H   0  0  0  0  0  0  0  0  0  0  0  0
   -3.8015   -0.1699   -5.2307 N   0  0  0  0  0  0  0  0  0  0  0  0
   -4.7019    0.2263   -5.0226 H   0  0  0  0  0  0  0  0  0  0  0  0
   -3.6342   -0.5663   -6.1370 H   0  0  0  0  0  0  0  0  0  0  0  0
   -0.9523    0.1012    2.4848 C   0  0  0  0  0  0  0  0  0  0  0  0
    0.2133   -0.1319    2.7814 O   0  0  0  0  0  0  0  0  0  0  0  0
   -1.8684    0.5006    3.3725 N   0  0  0  0  0  0  0  0  0  0  0  0
   -2.7946    0.7048    3.0343 H   0  0  0  0  0  0  0  0  0  0  0  0
   -1.5848    0.7472    4.7873 C   0  0  0  0  0  0  0  0  0  0  0  0
   -0.8819    1.5774    4.8838 H   0  0  0  0  0  0  0  0  0  0  0  0
   -2.5030    0.9948    5.3214 H   0  0  0  0  0  0  0  0  0  0  0  0
   -1.1344   -0.1399    5.2381 H   0  0  0  0  0  0  0  0  0  0  0  0
  5  6  2  0  0  0  0
  5  7  1  0  0  0  0
  2  3  1  0  0  0  0
  2  4  1  0  0  0  0
  2  5  1  0  0  0  0
  1  2  1  0  0  0  0
 29 30  2  0  0  0  0
 29 31  1  0  0  0  0
 26 27  1  0  0  0  0
 26 28  1  0  0  0  0
 23 24  1  0  0  0  0
 23 25  1  0  0  0  0
 22 23  1  0  0  0  0
 22 26  1  0  0  0  0
 20 21  1  0  0  0  0
 20 22  2  0  0  0  0
 17 18  1  0  0  0  0
 17 19  1  0  0  0  0
 17 20  1  0  0  0  0
 14 15  1  0  0  0  0
 14 16  1  0  0  0  0
 14 17  1  0  0  0  0
 11 12  1  0  0  0  0
 11 13  1  0  0  0  0
 11 14  1  0  0  0  0
  9 10  1  0  0  0  0
  9 11  1  0  0  0  0
  9 29  1  0  0  0  0
  7  8  1  0  0  0  0
  7  9  1  0  0  0  0
 33 34  1  0  0  0  0
 33 35  1  0  0  0  0
 33 36  1  0  0  0  0
 31 32  1  0  0  0  0
 31 33  1  0  0  0  0
M  CHG  1  20   1
M  END
$$$$
default_name
  -OEChem-02102213163D

 36 35  0     1  0  0  0  0  0999 V2000
   -4.2256   -3.6731    1.8584 H   0  0  0  0  0  0  0  0  0  0  0  0
   -4.2396   -2.6781    1.4144 C   0  0  0  0  0  0  0  0  0  0  0  0
   -4.9506   -2.0521    1.9514 H   0  0  0  0  0  0  0  0  0  0  0  0
   -4.5266   -2.7521    0.3674 H   0  0  0  0  0  0  0  0  0  0  0  0
   -2.8576   -2.0761    1.5184 C   0  0  0  0  0  0  0  0  0  0  0  0
   -1.9456   -2.7051    2.0404 O   0  0  0  0  0  0  0  0  0  0  0  0
   -2.6926   -0.8481    1.0174 N   0  0  0  0  0  0  0  0  0  0  0  0
   -3.4926   -0.3971    0.5954 H   0  0  0  0  0  0  0  0  0  0  0  0
   -1.4216   -0.1071    1.0434 C   0  0  1  0  0  0  0  0  0  0  0  0
   -0.6709   -0.6930    0.5106 H   0  0  0  0  0  0  0  0  0  0  0  0
   -1.6221    1.2315    0.3051 C   0  0  0  0  0  0  0  0  0  0  0  0
   -1.9386    1.9848    1.0293 H   0  0  0  0  0  0  0  0  0  0  0  0
   -0.6683    1.5504   -0.1210 H   0  0  0  0  0  0  0  0  0  0  0  0
   -2.6749    1.1625   -0.8107 C   0  0  0  0  0  0  0  0  0  0  0  0
   -3.6401    0.8770   -0.3900 H   0  0  0  0  0  0  0  0  0  0  0  0
   -2.7634    2.1409   -1.2841 H   0  0  0  0  0  0  0  0  0  0  0  0
   -2.2568    0.1236   -1.8601 C   0  0  0  0  0  0  0  0  0  0  0  0
   -1.2778    0.4028   -2.2564 H   0  0  0  0  0  0  0  0  0  0  0  0
   -2.1748   -0.8503   -1.3717 H   0  0  0  0  0  0  0  0  0  0  0  0
   -3.2312    0.0401   -2.9675 N   0  3  0  0  0  0  0  0  0  0  0  0
   -4.0524    0.6154   -2.8910 H   0  0  0  0  0  0  0  0  0  0  0  0
   -3.1250   -0.7173   -4.0464 C   0  0  0  0  0  0  0  0  0  0  0  0
   -2.1022   -1.5005   -4.2457 N   0  0  0  0  0  0  0  0  0  0  0  0
   -1.3715   -1.5268   -3.5566 H   0  0  0  0  0  0  0  0  0  0  0  0
   -2.0374   -2.0692   -5.0699 H   0  0  0  0  0  0  0  0  0  0  0  0
   -4.0568   -0.7031   -4.9569 N   0  0  0  0  0  0  0  0  0  0  0  0
   -4.8649   -0.1148   -4.8477 H   0  0  0  0  0  0  0  0  0  0  0  0
   -3.9723   -1.2792   -5.7739 H   0  0  0  0  0  0  0  0  0  0  0  0
   -0.9523    0.1012    2.4848 C   0  0  0  0  0  0  0  0  0  0  0  0
    0.2133   -0.1319    2.7814 O   0  0  0  0  0  0  0  0  0  0  0  0
   -1.8684    0.5006    3.3725 N   0  0  0  0  0  0  0  0  0  0  0  0
   -2.7946    0.7048    3.0343 H   0  0  0  0  0  0  0  0  0  0  0  0
   -1.5848    0.7472    4.7873 C   0  0  0  0  0  0  0  0  0  0  0  0
   -0.8819    1.5774    4.8838 H   0  0  0  0  0  0  0  0  0  0  0  0
   -2.5030    0.9948    5.3214 H   0  0  0  0  0  0  0  0  0  0  0  0
   -1.1344   -0.1399    5.2381 H   0  0  0  0  0  0  0  0  0  0  0  0
  5  6  2  0  0  0  0
  5  7  1  0  0  0  0
  2  3  1  0  0  0  0
  2  4  1  0  0  0  0
  2  5  1  0  0  0  0
  1  2  1  0  0  0  0
 29 30  2  0  0  0  0
 29 31  1  0  0  0  0
 26 27  1  0  0  0  0
 26 28  1  0  0  0  0
 23 24  1  0  0  0  0
 23 25  1  0  0  0  0
 22 23  1  0  0  0  0
 22 26  1  0  0  0  0
 20 21  1  0  0  0  0
 20 22  2  0  0  0  0
 17 18  1  0  0  0  0
 17 19  1  0  0  0  0
 17 20  1  0  0  0  0
 14 15  1  0  0  0  0
 14 16  1  0  0  0  0
 14 17  1  0  0  0  0
 11 12  1  0  0  0  0
 11 13  1  0  0  0  0
 11 14  1  0  0  0  0
  9 10  1  0  0  0  0
  9 11  1  0  0  0  0
  9 29  1  0  0  0  0
  7  8  1  0  0  0  0
  7  9  1  0  0  0  0
 33 34  1  0  0  0  0
 33 35  1  0  0  0  0
 33 36  1  0  0  0  0
 31 32  1  0  0  0  0
 31 33  1  0  0  0  0
M  CHG  1  20   1
M  END
$$$$
default_name
  -OEChem-02102213163D

 36 35  0     1  0  0  0  0  0999 V2000
   -4.2256   -3.6731    1.8584 H   0  0  0  0  0  0  0  0  0  0  0  0
   -4.2396   -2.6781    1.4144 C   0  0  0  0  0  0  0  0  0  0  0  0
   -4.9506   -2.0521    1.9514 H   0  0  0  0  0  0  0  0  0  0  0  0
   -4.5266   -2.7521    0.3674 H   0  0  0  0  0  0  0  0  0  0  0  0
   -2.8576   -2.0761    1.5184 C   0  0  0  0  0  0  0  0  0  0  0  0
   -1.9456   -2.7051    2.0404 O   0  0  0  0  0  0  0  0  0  0  0  0
   -2.6926   -0.8481    1.0174 N   0  0  0  0  0  0  0  0  0  0  0  0
   -3.4926   -0.3971    0.5954 H   0  0  0  0  0  0  0  0  0  0  0  0
   -1.4216   -0.1071    1.0434 C   0  0  1  0  0  0  0  0  0  0  0  0
   -0.6709   -0.6930    0.5106 H   0  0  0  0  0  0  0  0  0  0  0  0
   -1.6221    1.2315    0.3051 C   0  0  0  0  0  0  0  0  0  0  0  0
   -1.9386    1.9848    1.0293 H   0  0  0  0  0  0  0  0  0  0  0  0
   -0.6683    1.5504   -0.1210 H   0  0  0  0  0  0  0  0  0  0  0  0
   -2.6749    1.1625   -0.8107 C   0  0  0  0  0  0  0  0  0  0  0  0
   -3.6744    1.1424   -0.3741 H   0  0  0  0  0  0  0  0  0  0  0  0
   -2.5793    2.0396   -1.4516 H   0  0  0  0  0  0  0  0  0  0  0  0
   -2.4665   -0.1066   -1.6480 C   0  0  0  0  0  0  0  0  0  0  0  0
   -1.4545   -0.0908   -2.0592 H   0  0  0  0  0  0  0  0  0  0  0  0
   -2.5675   -0.9755   -0.9934 H   0  0  0  0  0  0  0  0  0  0  0  0
   -3.4449   -0.2028   -2.7508 N   0  3  0  0  0  0  0  0  0  0  0  0
   -4.1422    0.5202   -2.8004 H   0  0  0  0  0  0  0  0  0  0  0  0
   -3.4897   -1.1470   -3.6758 C   0  0  0  0  0  0  0  0  0  0  0  0
   -2.6346   -2.1304   -3.7045 N   0  0  0  0  0  0  0  0  0  0  0  0
   -1.9183   -2.1694   -3.0010 H   0  0  0  0  0  0  0  0  0  0  0  0
   -2.6828   -2.8391   -4.4132 H   0  0  0  0  0  0  0  0  0  0  0  0
   -4.4069   -1.1216   -4.6007 N   0  0  0  0  0  0  0  0  0  0  0  0
   -5.0885   -0.3827   -4.6201 H   0  0  0  0  0  0  0  0  0  0  0  0
   -4.4372   -1.8398   -5.3006 H   0  0  0  0  0  0  0  0  0  0  0  0
   -0.9523    0.1012    2.4848 C   0  0  0  0  0  0  0  0  0  0  0  0
    0.2133   -0.1319    2.7814 O   0  0  0  0  0  0  0  0  0  0  0  0
   -1.8684    0.5006    3.3725 N   0  0  0  0  0  0  0  0  0  0  0  0
   -2.7946    0.7048    3.0343 H   0  0  0  0  0  0  0  0  0  0  0  0
   -1.5848    0.7472    4.7873 C   0  0  0  0  0  0  0  0  0  0  0  0
   -0.8819    1.5774    4.8838 H   0  0  0  0  0  0  0  0  0  0  0  0
   -2.5030    0.9948    5.3214 H   0  0  0  0  0  0  0  0  0  0  0  0
   -1.1344   -0.1399    5.2381 H   0  0  0  0  0  0  0  0  0  0  0  0
  5  6  2  0  0  0  0
  5  7  1  0  0  0  0
  2  3  1  0  0  0  0
  2  4  1  0  0  0  0
  2  5  1  0  0  0  0
  1  2  1  0  0  0  0
 29 30  2  0  0  0  0
 29 31  1  0  0  0  0
 26 27  1  0  0  0  0
 26 28  1  0  0  0  0
 23 24  1  0  0  0  0
 23 25  1  0  0  0  0
 22 23  1  0  0  0  0
 22 26  1  0  0  0  0
 20 21  1  0  0  0  0
 20 22  2  0  0  0  0
 17 18  1  0  0  0  0
 17 19  1  0  0  0  0
 17 20  1  0  0  0  0
 14 15  1  0  0  0  0
 14 16  1  0  0  0  0
 14 17  1  0  0  0  0
 11 12  1  0  0  0  0
 11 13  1  0  0  0  0
 11 14  1  0  0  0  0
  9 10  1  0  0  0  0
  9 11  1  0  0  0  0
  9 29  1  0  0  0  0
  7  8  1  0  0  0  0
  7  9  1  0  0  0  0
 33 34  1  0  0  0  0
 33 35  1  0  0  0  0
 33 36  1  0  0  0  0
 31 32  1  0  0  0  0
 31 33  1  0  0  0  0
M  CHG  1  20   1
M  END
$$$$
default_name
  -OEChem-02102213163D

 36 35  0     1  0  0  0  0  0999 V2000
   -4.2256   -3.6731    1.8584 H   0  0  0  0  0  0  0  0  0  0  0  0
   -4.2396   -2.6781    1.4144 C   0  0  0  0  0  0  0  0  0  0  0  0
   -4.9506   -2.0521    1.9514 H   0  0  0  0  0  0  0  0  0  0  0  0
   -4.5266   -2.7521    0.3674 H   0  0  0  0  0  0  0  0  0  0  0  0
   -2.8576   -2.0761    1.5184 C   0  0  0  0  0  0  0  0  0  0  0  0
   -1.9456   -2.7051    2.0404 O   0  0  0  0  0  0  0  0  0  0  0  0
   -2.6926   -0.8481    1.0174 N   0  0  0  0  0  0  0  0  0  0  0  0
   -3.4926   -0.3971    0.5954 H   0  0  0  0  0  0  0  0  0  0  0  0
   -1.4216   -0.1071    1.0434 C   0  0  1  0  0  0  0  0  0  0  0  0
   -0.6709   -0.6930    0.5106 H   0  0  0  0  0  0  0  0  0  0  0  0
   -1.6221    1.2315    0.3051 C   0  0  0  0  0  0  0  0  0  0  0  0
   -1.9386    1.9848    1.0293 H   0  0  0  0  0  0  0  0  0  0  0  0
   -0.6683    1.5504   -0.1210 H   0  0  0  0  0  0  0  0  0  0  0  0
   -2.6749    1.1625   -0.8107 C   0  0  0  0  0  0  0  0  0  0  0  0
   -3.6578    1.4079   -0.4061 H   0  0  0  0  0  0  0  0  0  0  0  0
   -2.4186    1.8775   -1.5932 H   0  0  0  0  0  0  0  0  0  0  0  0
   -2.7147   -0.2520   -1.4048 C   0  0  0  0  0  0  0  0  0  0  0  0
   -1.7202   -0.4993   -1.7832 H   0  0  0  0  0  0  0  0  0  0  0  0
   -2.9747   -0.9555   -0.6104 H   0  0  0  0  0  0  0  0  0  0  0  0
   -3.6996   -0.3588   -2.5008 N   0  3  0  0  0  0  0  0  0  0  0  0
   -4.2478    0.4611   -2.6971 H   0  0  0  0  0  0  0  0  0  0  0  0
   -3.9271   -1.4277   -3.2458 C   0  0  0  0  0  0  0  0  0  0  0  0
   -3.2735   -2.5427   -3.0761 N   0  0  0  0  0  0  0  0  0  0  0  0
   -2.5738   -2.5886   -2.3566 H   0  0  0  0  0  0  0  0  0  0  0  0
   -3.4587   -3.3448   -3.6499 H   0  0  0  0  0  0  0  0  0  0  0  0
   -4.8278   -1.3967   -4.1865 N   0  0  0  0  0  0  0  0  0  0  0  0
   -5.3575   -0.5590   -4.3554 H   0  0  0  0  0  0  0  0  0  0  0  0
   -4.9972   -2.2098   -4.7494 H   0  0  0  0  0  0  0  0  0  0  0  0
   -0.9523    0.1012    2.4848 C   0  0  0  0  0  0  0  0  0  0  0  0
    0.2133   -0.1319    2.7814 O   0  0  0  0  0  0  0  0  0  0  0  0
   -1.8684    0.5006    3.3725 N   0  0  0  0  0  0  0  0  0  0  0  0
   -2.7946    0.7048    3.0343 H   0  0  0  0  0  0  0  0  0  0  0  0
   -1.5848    0.7472    4.7873 C   0  0  0  0  0  0  0  0  0  0  0  0
   -0.8819    1.5774    4.8838 H   0  0  0  0  0  0  0  0  0  0  0  0
   -2.5030    0.9948    5.3214 H   0  0  0  0  0  0  0  0  0  0  0  0
   -1.1344   -0.1399    5.2381 H   0  0  0  0  0  0  0  0  0  0  0  0
  5  6  2  0  0  0  0
  5  7  1  0  0  0  0
  2  3  1  0  0  0  0
  2  4  1  0  0  0  0
  2  5  1  0  0  0  0
  1  2  1  0  0  0  0
 29 30  2  0  0  0  0
 29 31  1  0  0  0  0
 26 27  1  0  0  0  0
 26 28  1  0  0  0  0
 23 24  1  0  0  0  0
 23 25  1  0  0  0  0
 22 23  1  0  0  0  0
 22 26  1  0  0  0  0
 20 21  1  0  0  0  0
 20 22  2  0  0  0  0
 17 18  1  0  0  0  0
 17 19  1  0  0  0  0
 17 20  1  0  0  0  0
 14 15  1  0  0  0  0
 14 16  1  0  0  0  0
 14 17  1  0  0  0  0
 11 12  1  0  0  0  0
 11 13  1  0  0  0  0
 11 14  1  0  0  0  0
  9 10  1  0  0  0  0
  9 11  1  0  0  0  0
  9 29  1  0  0  0  0
  7  8  1  0  0  0  0
  7  9  1  0  0  0  0
 33 34  1  0  0  0  0
 33 35  1  0  0  0  0
 33 36  1  0  0  0  0
 31 32  1  0  0  0  0
 31 33  1  0  0  0  0
M  CHG  1  20   1
M  END
$$$$
default_name
  -OEChem-02102213163D

 36 35  0     1  0  0  0  0  0999 V2000
   -4.2256   -3.6731    1.8584 H   0  0  0  0  0  0  0  0  0  0  0  0
   -4.2396   -2.6781    1.4144 C   0  0  0  0  0  0  0  0  0  0  0  0
   -4.9506   -2.0521    1.9514 H   0  0  0  0  0  0  0  0  0  0  0  0
   -4.5266   -2.7521    0.3674 H   0  0  0  0  0  0  0  0  0  0  0  0
   -2.8576   -2.0761    1.5184 C   0  0  0  0  0  0  0  0  0  0  0  0
   -1.9456   -2.7051    2.0404 O   0  0  0  0  0  0  0  0  0  0  0  0
   -2.6926   -0.8481    1.0174 N   0  0  0  0  0  0  0  0  0  0  0  0
   -3.4926   -0.3971    0.5954 H   0  0  0  0  0  0  0  0  0  0  0  0
   -1.4216   -0.1071    1.0434 C   0  0  1  0  0  0  0  0  0  0  0  0
   -0.6709   -0.6930    0.5106 H   0  0  0  0  0  0  0  0  0  0  0  0
   -1.6221    1.2315    0.3051 C   0  0  0  0  0  0  0  0  0  0  0  0
   -1.9386    1.9848    1.0293 H   0  0  0  0  0  0  0  0  0  0  0  0
   -0.6683    1.5504   -0.1210 H   0  0  0  0  0  0  0  0  0  0  0  0
   -2.6749    1.1625   -0.8107 C   0  0  0  0  0  0  0  0  0  0  0  0
   -3.5915    1.6556   -0.4840 H   0  0  0  0  0  0  0  0  0  0  0  0
   -2.2922    1.6655   -1.6993 H   0  0  0  0  0  0  0  0  0  0  0  0
   -2.9847   -0.3025   -1.1470 C   0  0  0  0  0  0  0  0  0  0  0  0
   -2.0569   -0.7950   -1.4472 H   0  0  0  0  0  0  0  0  0  0  0  0
   -3.3688   -0.7917   -0.2487 H   0  0  0  0  0  0  0  0  0  0  0  0
   -3.9779   -0.4173   -2.2347 N   0  3  0  0  0  0  0  0  0  0  0  0
   -4.3621    0.4423   -2.5880 H   0  0  0  0  0  0  0  0  0  0  0  0
   -4.4073   -1.5402   -2.7856 C   0  0  0  0  0  0  0  0  0  0  0  0
   -3.9755   -2.7093   -2.4034 N   0  0  0  0  0  0  0  0  0  0  0  0
   -3.2933   -2.7560   -1.6673 H   0  0  0  0  0  0  0  0  0  0  0  0
   -4.3121   -3.5519   -2.8319 H   0  0  0  0  0  0  0  0  0  0  0  0
   -5.2910   -1.5099   -3.7425 N   0  0  0  0  0  0  0  0  0  0  0  0
   -5.6536   -0.6317   -4.0715 H   0  0  0  0  0  0  0  0  0  0  0  0
   -5.6140   -2.3641   -4.1578 H   0  0  0  0  0  0  0  0  0  0  0  0
   -0.9523    0.1012    2.4848 C   0  0  0  0  0  0  0  0  0  0  0  0
    0.2133   -0.1319    2.7814 O   0  0  0  0  0  0  0  0  0  0  0  0
   -1.8684    0.5006    3.3725 N   0  0  0  0  0  0  0  0  0  0  0  0
   -2.7946    0.7048    3.0343 H   0  0  0  0  0  0  0  0  0  0  0  0
   -1.5848    0.7472    4.7873 C   0  0  0  0  0  0  0  0  0  0  0  0
   -0.8819    1.5774    4.8838 H   0  0  0  0  0  0  0  0  0  0  0  0
   -2.5030    0.9948    5.3214 H   0  0  0  0  0  0  0  0  0  0  0  0
   -1.1344   -0.1399    5.2381 H   0  0  0  0  0  0  0  0  0  0  0  0
  5  6  2  0  0  0  0
  5  7  1  0  0  0  0
  2  3  1  0  0  0  0
  2  4  1  0  0  0  0
  2  5  1  0  0  0  0
  1  2  1  0  0  0  0
 29 30  2  0  0  0  0
 29 31  1  0  0  0  0
 26 27  1  0  0  0  0
 26 28  1  0  0  0  0
 23 24  1  0  0  0  0
 23 25  1  0  0  0  0
 22 23  1  0  0  0  0
 22 26  1  0  0  0  0
 20 21  1  0  0  0  0
 20 22  2  0  0  0  0
 17 18  1  0  0  0  0
 17 19  1  0  0  0  0
 17 20  1  0  0  0  0
 14 15  1  0  0  0  0
 14 16  1  0  0  0  0
 14 17  1  0  0  0  0
 11 12  1  0  0  0  0
 11 13  1  0  0  0  0
 11 14  1  0  0  0  0
  9 10  1  0  0  0  0
  9 11  1  0  0  0  0
  9 29  1  0  0  0  0
  7  8  1  0  0  0  0
  7  9  1  0  0  0  0
 33 34  1  0  0  0  0
 33 35  1  0  0  0  0
 33 36  1  0  0  0  0
 31 32  1  0  0  0  0
 31 33  1  0  0  0  0
M  CHG  1  20   1
M  END
$$$$
default_name
  -OEChem-02102213163D

 36 35  0     1  0  0  0  0  0999 V2000
   -4.2256   -3.6731    1.8584 H   0  0  0  0  0  0  0  0  0  0  0  0
   -4.2396   -2.6781    1.4144 C   0  0  0  0  0  0  0  0  0  0  0  0
   -4.9506   -2.0521    1.9514 H   0  0  0  0  0  0  0  0  0  0  0  0
   -4.5266   -2.7521    0.3674 H   0  0  0  0  0  0  0  0  0  0  0  0
   -2.8576   -2.0761    1.5184 C   0  0  0  0  0  0  0  0  0  0  0  0
   -1.9456   -2.7051    2.0404 O   0  0  0  0  0  0  0  0  0  0  0  0
   -2.6926   -0.8481    1.0174 N   0  0  0  0  0  0  0  0  0  0  0  0
   -3.4926   -0.3971    0.5954 H   0  0  0  0  0  0  0  0  0  0  0  0
   -1.4216   -0.1071    1.0434 C   0  0  1  0  0  0  0  0  0  0  0  0
   -0.6709   -0.6930    0.5106 H   0  0  0  0  0  0  0  0  0  0  0  0
   -1.6221    1.2315    0.3051 C   0  0  0  0  0  0  0  0  0  0  0  0
   -1.9386    1.9848    1.0293 H   0  0  0  0  0  0  0  0  0  0  0  0
   -0.6683    1.5504   -0.1210 H   0  0  0  0  0  0  0  0  0  0  0  0
   -2.6749    1.1625   -0.8107 C   0  0  0  0  0  0  0  0  0  0  0  0
   -3.4800    1.8686   -0.6024 H   0  0  0  0  0  0  0  0  0  0  0  0
   -2.2088    1.4181   -1.7628 H   0  0  0  0  0  0  0  0  0  0  0  0
   -3.2579   -0.2548   -0.8921 C   0  0  0  0  0  0  0  0  0  0  0  0
   -2.4417   -0.9577   -1.0741 H   0  0  0  0  0  0  0  0  0  0  0  0
   -3.7228   -0.4951    0.0670 H   0  0  0  0  0  0  0  0  0  0  0  0
   -4.2607   -0.3742   -1.9705 N   0  3  0  0  0  0  0  0  0  0  0  0
   -4.4774    0.4649   -2.4807 H   0  0  0  0  0  0  0  0  0  0  0  0
   -4.8977   -1.4770   -2.3268 C   0  0  0  0  0  0  0  0  0  0  0  0
   -4.6927   -2.6188   -1.7323 N   0  0  0  0  0  0  0  0  0  0  0  0
   -4.0277   -2.6601   -0.9803 H   0  0  0  0  0  0  0  0  0  0  0  0
   -5.1849   -3.4463   -2.0148 H   0  0  0  0  0  0  0  0  0  0  0  0
   -5.7648   -1.4533   -3.2989 N   0  0  0  0  0  0  0  0  0  0  0  0
   -5.9566   -0.5959   -3.7879 H   0  0  0  0  0  0  0  0  0  0  0  0
   -6.2458   -2.2922   -3.5661 H   0  0  0  0  0  0  0  0  0  0  0  0
   -0.9523    0.1012    2.4848 C   0  0  0  0  0  0  0  0  0  0  0  0
    0.2133   -0.1319    2.7814 O   0  0  0  0  0  0  0  0  0  0  0  0
   -1.8684    0.5006    3.3725 N   0  0  0  0  0  0  0  0  0  0  0  0
   -2.7946    0.7048    3.0343 H   0  0  0  0  0  0  0  0  0  0  0  0
   -1.5848    0.7472    4.7873 C   0  0  0  0  0  0  0  0  0  0  0  0
   -0.8819    1.5774    4.8838 H   0  0  0  0  0  0  0  0  0  0  0  0
   -2.5030    0.9948    5.3214 H   0  0  0  0  0  0  0  0  0  0  0  0
   -1.1344   -0.1399    5.2381 H   0  0  0  0  0  0  0  0  0  0  0  0
  5  6  2  0  0  0  0
  5  7  1  0  0  0  0
  2  3  1  0  0  0  0
  2  4  1  0  0  0  0
  2  5  1  0  0  0  0
  1  2  1  0  0  0  0
 29 30  2  0  0  0  0
 29 31  1  0  0  0  0
 26 27  1  0  0  0  0
 26 28  1  0  0  0  0
 23 24  1  0  0  0  0
 23 25  1  0  0  0  0
 22 23  1  0  0  0  0
 22 26  1  0  0  0  0
 20 21  1  0  0  0  0
 20 22  2  0  0  0  0
 17 18  1  0  0  0  0
 17 19  1  0  0  0  0
 17 20  1  0  0  0  0
 14 15  1  0  0  0  0
 14 16  1  0  0  0  0
 14 17  1  0  0  0  0
 11 12  1  0  0  0  0
 11 13  1  0  0  0  0
 11 14  1  0  0  0  0
  9 10  1  0  0  0  0
  9 11  1  0  0  0  0
  9 29  1  0  0  0  0
  7  8  1  0  0  0  0
  7  9  1  0  0  0  0
 33 34  1  0  0  0  0
 33 35  1  0  0  0  0
 33 36  1  0  0  0  0
 31 32  1  0  0  0  0
 31 33  1  0  0  0  0
M  CHG  1  20   1
M  END
$$$$
default_name
  -OEChem-02102213163D

 36 35  0     1  0  0  0  0  0999 V2000
   -4.2256   -3.6731    1.8584 H   0  0  0  0  0  0  0  0  0  0  0  0
   -4.2396   -2.6781    1.4144 C   0  0  0  0  0  0  0  0  0  0  0  0
   -4.9506   -2.0521    1.9514 H   0  0  0  0  0  0  0  0  0  0  0  0
   -4.5266   -2.7521    0.3674 H   0  0  0  0  0  0  0  0  0  0  0  0
   -2.8576   -2.0761    1.5184 C   0  0  0  0  0  0  0  0  0  0  0  0
   -1.9456   -2.7051    2.0404 O   0  0  0  0  0  0  0  0  0  0  0  0
   -2.6926   -0.8481    1.0174 N   0  0  0  0  0  0  0  0  0  0  0  0
   -3.4926   -0.3971    0.5954 H   0  0  0  0  0  0  0  0  0  0  0  0
   -1.4216   -0.1071    1.0434 C   0  0  1  0  0  0  0  0  0  0  0  0
   -0.6709   -0.6930    0.5106 H   0  0  0  0  0  0  0  0  0  0  0  0
   -1.6221    1.2315    0.3051 C   0  0  0  0  0  0  0  0  0  0  0  0
   -1.9386    1.9848    1.0293 H   0  0  0  0  0  0  0  0  0  0  0  0
   -0.6683    1.5504   -0.1210 H   0  0  0  0  0  0  0  0  0  0  0  0
   -2.6749    1.1625   -0.8107 C   0  0  0  0  0  0  0  0  0  0  0  0
   -3.3308    2.0323   -0.7533 H   0  0  0  0  0  0  0  0  0  0  0  0
   -2.1740    1.1523   -1.7792 H   0  0  0  0  0  0  0  0  0  0  0  0
   -3.5159   -0.1121   -0.6575 C   0  0  0  0  0  0  0  0  0  0  0  0
   -2.8483   -0.9762   -0.6894 H   0  0  0  0  0  0  0  0  0  0  0  0
   -4.0126   -0.0861    0.3152 H   0  0  0  0  0  0  0  0  0  0  0  0
   -4.5289   -0.2324   -1.7262 N   0  3  0  0  0  0  0  0  0  0  0  0
   -4.5857    0.5275   -2.3824 H   0  0  0  0  0  0  0  0  0  0  0  0
   -5.3649   -1.2423   -1.9006 C   0  0  0  0  0  0  0  0  0  0  0  0
   -5.3763   -2.2774   -1.1084 N   0  0  0  0  0  0  0  0  0  0  0  0
   -4.7271   -2.3074   -0.3422 H   0  0  0  0  0  0  0  0  0  0  0  0
   -6.0175   -3.0352   -1.2546 H   0  0  0  0  0  0  0  0  0  0  0  0
   -6.2170   -1.2308   -2.8860 N   0  0  0  0  0  0  0  0  0  0  0  0
   -6.2458   -0.4540   -3.5238 H   0  0  0  0  0  0  0  0  0  0  0  0
   -6.8494   -1.9990   -3.0147 H   0  0  0  0  0  0  0  0  0  0  0  0
   -0.9523    0.1012    2.4848 C   0  0  0  0  0  0  0  0  0  0  0  0
    0.2133   -0.1319    2.7814 O   0  0  0  0  0  0  0  0  0  0  0  0
   -1.8684    0.5006    3.3725 N   0  0  0  0  0  0  0  0  0  0  0  0
   -2.7946    0.7048    3.0343 H   0  0  0  0  0  0  0  0  0  0  0  0
   -1.5848    0.7472    4.7873 C   0  0  0  0  0  0  0  0  0  0  0  0
   -0.8819    1.5774    4.8838 H   0  0  0  0  0  0  0  0  0  0  0  0
   -2.5030    0.9948    5.3214 H   0  0  0  0  0  0  0  0  0  0  0  0
   -1.1344   -0.1399    5.2381 H   0  0  0  0  0  0  0  0  0  0  0  0
  5  6  2  0  0  0  0
  5  7  1  0  0  0  0
  2  3  1  0  0  0  0
  2  4  1  0  0  0  0
  2  5  1  0  0  0  0
  1  2  1  0  0  0  0
 29 30  2  0  0  0  0
 29 31  1  0  0  0  0
 26 27  1  0  0  0  0
 26 28  1  0  0  0  0
 23 24  1  0  0  0  0
 23 25  1  0  0  0  0
 22 23  1  0  0  0  0
 22 26  1  0  0  0  0
 20 21  1  0  0  0  0
 20 22  2  0  0  0  0
 17 18  1  0  0  0  0
 17 19  1  0  0  0  0
 17 20  1  0  0  0  0
 14 15  1  0  0  0  0
 14 16  1  0  0  0  0
 14 17  1  0  0  0  0
 11 12  1  0  0  0  0
 11 13  1  0  0  0  0
 11 14  1  0  0  0  0
  9 10  1  0  0  0  0
  9 11  1  0  0  0  0
  9 29  1  0  0  0  0
  7  8  1  0  0  0  0
  7  9  1  0  0  0  0
 33 34  1  0  0  0  0
 33 35  1  0  0  0  0
 33 36  1  0  0  0  0
 31 32  1  0  0  0  0
 31 33  1  0  0  0  0
M  CHG  1  20   1
M  END
$$$$
default_name
  -OEChem-02102213163D

 36 35  0     1  0  0  0  0  0999 V2000
   -4.2256   -3.6731    1.8584 H   0  0  0  0  0  0  0  0  0  0  0  0
   -4.2396   -2.6781    1.4144 C   0  0  0  0  0  0  0  0  0  0  0  0
   -4.9506   -2.0521    1.9514 H   0  0  0  0  0  0  0  0  0  0  0  0
   -4.5266   -2.7521    0.3674 H   0  0  0  0  0  0  0  0  0  0  0  0
   -2.8576   -2.0761    1.5184 C   0  0  0  0  0  0  0  0  0  0  0  0
   -1.9456   -2.7051    2.0404 O   0  0  0  0  0  0  0  0  0  0  0  0
   -2.6926   -0.8481    1.0174 N   0  0  0  0  0  0  0  0  0  0  0  0
   -3.4926   -0.3971    0.5954 H   0  0  0  0  0  0  0  0  0  0  0  0
   -1.4216   -0.1071    1.0434 C   0  0  1  0  0  0  0  0  0  0  0  0
   -0.6709   -0.6930    0.5106 H   0  0  0  0  0  0  0  0  0  0  0  0
   -1.6221    1.2315    0.3051 C   0  0  0  0  0  0  0  0  0  0  0  0
   -1.9386    1.9848    1.0293 H   0  0  0  0  0  0  0  0  0  0  0  0
   -0.6683    1.5504   -0.1210 H   0  0  0  0  0  0  0  0  0  0  0  0
   -2.6749    1.1625   -0.8107 C   0  0  0  0  0  0  0  0  0  0  0  0
   -3.1542    2.1357   -0.9263 H   0  0  0  0  0  0  0  0  0  0  0  0
   -2.1901    0.8860   -1.7475 H   0  0  0  0  0  0  0  0  0  0  0  0
   -3.7409    0.1158   -0.4592 C   0  0  0  0  0  0  0  0  0  0  0  0
   -3.2489   -0.8494   -0.3191 H   0  0  0  0  0  0  0  0  0  0  0  0
   -4.2186    0.4076    0.4790 H   0  0  0  0  0  0  0  0  0  0  0  0
   -4.7641   -0.0018   -1.5185 N   0  3  0  0  0  0  0  0  0  0  0  0
   -4.6797    0.6258   -2.2997 H   0  0  0  0  0  0  0  0  0  0  0  0
   -5.7769   -0.8521   -1.5359 C   0  0  0  0  0  0  0  0  0  0  0  0
   -5.9796   -1.7084   -0.5742 N   0  0  0  0  0  0  0  0  0  0  0  0
   -5.3437   -1.7220    0.2035 H   0  0  0  0  0  0  0  0  0  0  0  0
   -6.7534   -2.3466   -0.6028 H   0  0  0  0  0  0  0  0  0  0  0  0
   -6.6167   -0.8576   -2.5319 N   0  0  0  0  0  0  0  0  0  0  0  0
   -6.5015   -0.2157   -3.2972 H   0  0  0  0  0  0  0  0  0  0  0  0
   -7.3837   -1.5043   -2.5411 H   0  0  0  0  0  0  0  0  0  0  0  0
   -0.9523    0.1012    2.4848 C   0  0  0  0  0  0  0  0  0  0  0  0
    0.2133   -0.1319    2.7814 O   0  0  0  0  0  0  0  0  0  0  0  0
   -1.8684    0.5006    3.3725 N   0  0  0  0  0  0  0  0  0  0  0  0
   -2.7946    0.7048    3.0343 H   0  0  0  0  0  0  0  0  0  0  0  0
   -1.5848    0.7472    4.7873 C   0  0  0  0  0  0  0  0  0  0  0  0
   -0.8819    1.5774    4.8838 H   0  0  0  0  0  0  0  0  0  0  0  0
   -2.5030    0.9948    5.3214 H   0  0  0  0  0  0  0  0  0  0  0  0
   -1.1344   -0.1399    5.2381 H   0  0  0  0  0  0  0  0  0  0  0  0
  5  6  2  0  0  0  0
  5  7  1  0  0  0  0
  2  3  1  0  0  0  0
  2  4  1  0  0  0  0
  2  5  1  0  0  0  0
  1  2  1  0  0  0  0
 29 30  2  0  0  0  0
 29 31  1  0  0  0  0
 26 27  1  0  0  0  0
 26 28  1  0  0  0  0
 23 24  1  0  0  0  0
 23 25  1  0  0  0  0
 22 23  1  0  0  0  0
 22 26  1  0  0  0  0
 20 21  1  0  0  0  0
 20 22  2  0  0  0  0
 17 18  1  0  0  0  0
 17 19  1  0  0  0  0
 17 20  1  0  0  0  0
 14 15  1  0  0  0  0
 14 16  1  0  0  0  0
 14 17  1  0  0  0  0
 11 12  1  0  0  0  0
 11 13  1  0  0  0  0
 11 14  1  0  0  0  0
  9 10  1  0  0  0  0
  9 11  1  0  0  0  0
  9 29  1  0  0  0  0
  7  8  1  0  0  0  0
  7  9  1  0  0  0  0
 33 34  1  0  0  0  0
 33 35  1  0  0  0  0
 33 36  1  0  0  0  0
 31 32  1  0  0  0  0
 31 33  1  0  0  0  0
M  CHG  1  20   1
M  END
$$$$
default_name
  -OEChem-02102213163D

 36 35  0     1  0  0  0  0  0999 V2000
   -4.2256   -3.6731    1.8584 H   0  0  0  0  0  0  0  0  0  0  0  0
   -4.2396   -2.6781    1.4144 C   0  0  0  0  0  0  0  0  0  0  0  0
   -4.9506   -2.0521    1.9514 H   0  0  0  0  0  0  0  0  0  0  0  0
   -4.5266   -2.7521    0.3674 H   0  0  0  0  0  0  0  0  0  0  0  0
   -2.8576   -2.0761    1.5184 C   0  0  0  0  0  0  0  0  0  0  0  0
   -1.9456   -2.7051    2.0404 O   0  0  0  0  0  0  0  0  0  0  0  0
   -2.6926   -0.8481    1.0174 N   0  0  0  0  0  0  0  0  0  0  0  0
   -3.4926   -0.3971    0.5954 H   0  0  0  0  0  0  0  0  0  0  0  0
   -1.4216   -0.1071    1.0434 C   0  0  1  0  0  0  0  0  0  0  0  0
   -0.6709   -0.6930    0.5106 H   0  0  0  0  0  0  0  0  0  0  0  0
   -1.6221    1.2315    0.3051 C   0  0  0  0  0  0  0  0  0  0  0  0
   -1.9386    1.9848    1.0293 H   0  0  0  0  0  0  0  0  0  0  0  0
   -0.6683    1.5504   -0.1210 H   0  0  0  0  0  0  0  0  0  0  0  0
   -2.6749    1.1625   -0.8107 C   0  0  0  0  0  0  0  0  0  0  0  0
   -2.9621    2.1715   -1.1098 H   0  0  0  0  0  0  0  0  0  0  0  0
   -2.2562    0.6375   -1.6698 H   0  0  0  0  0  0  0  0  0  0  0  0
   -3.9177    0.4135   -0.3108 C   0  0  0  0  0  0  0  0  0  0  0  0
   -3.6164   -0.5859    0.0113 H   0  0  0  0  0  0  0  0  0  0  0  0
   -4.3266    0.9522    0.5473 H   0  0  0  0  0  0  0  0  0  0  0  0
   -4.9503    0.3021   -1.3615 N   0  3  0  0  0  0  0  0  0  0  0  0
   -4.7529    0.7531   -2.2385 H   0  0  0  0  0  0  0  0  0  0  0  0
   -6.1057   -0.3329   -1.2577 C   0  0  0  0  0  0  0  0  0  0  0  0
   -6.4616   -0.9506   -0.1663 N   0  0  0  0  0  0  0  0  0  0  0  0
   -5.8356   -0.9437    0.6195 H   0  0  0  0  0  0  0  0  0  0  0  0
   -7.3422   -1.4275   -0.1040 H   0  0  0  0  0  0  0  0  0  0  0  0
   -6.9368   -0.3591   -2.2607 N   0  0  0  0  0  0  0  0  0  0  0  0
   -6.7064    0.1028   -3.1236 H   0  0  0  0  0  0  0  0  0  0  0  0
   -7.8122   -0.8421   -2.1777 H   0  0  0  0  0  0  0  0  0  0  0  0
   -0.9523    0.1012    2.4848 C   0  0  0  0  0  0  0  0  0  0  0  0
    0.2133   -0.1319    2.7814 O   0  0  0  0  0  0  0  0  0  0  0  0
   -1.8684    0.5006    3.3725 N   0  0  0  0  0  0  0  0  0  0  0  0
   -2.7946    0.7048    3.0343 H   0  0  0  0  0  0  0  0  0  0  0  0
   -1.5848    0.7472    4.7873 C   0  0  0  0  0  0  0  0  0  0  0  0
   -0.8819    1.5774    4.8838 H   0  0  0  0  0  0  0  0  0  0  0  0
   -2.5030    0.9948    5.3214 H   0  0  0  0  0  0  0  0  0  0  0  0
   -1.1344   -0.1399    5.2381 H   0  0  0  0  0  0  0  0  0  0  0  0
  5  6  2  0  0  0  0
  5  7  1  0  0  0  0
  2  3  1  0  0  0  0
  2  4  1  0  0  0  0
  2  5  1  0  0  0  0
  1  2  1  0  0  0  0
 29 30  2  0  0  0  0
 29 31  1  0  0  0  0
 26 27  1  0  0  0  0
 26 28  1  0  0  0  0
 23 24  1  0  0  0  0
 23 25  1  0  0  0  0
 22 23  1  0  0  0  0
 22 26  1  0  0  0  0
 20 21  1  0  0  0  0
 20 22  2  0  0  0  0
 17 18  1  0  0  0  0
 17 19  1  0  0  0  0
 17 20  1  0  0  0  0
 14 15  1  0  0  0  0
 14 16  1  0  0  0  0
 14 17  1  0  0  0  0
 11 12  1  0  0  0  0
 11 13  1  0  0  0  0
 11 14  1  0  0  0  0
  9 10  1  0  0  0  0
  9 11  1  0  0  0  0
  9 29  1  0  0  0  0
  7  8  1  0  0  0  0
  7  9  1  0  0  0  0
 33 34  1  0  0  0  0
 33 35  1  0  0  0  0
 33 36  1  0  0  0  0
 31 32  1  0  0  0  0
 31 33  1  0  0  0  0
M  CHG  1  20   1
M  END
$$$$
default_name
  -OEChem-02102213163D

 36 35  0     1  0  0  0  0  0999 V2000
   -4.2256   -3.6731    1.8584 H   0  0  0  0  0  0  0  0  0  0  0  0
   -4.2396   -2.6781    1.4144 C   0  0  0  0  0  0  0  0  0  0  0  0
   -4.9506   -2.0521    1.9514 H   0  0  0  0  0  0  0  0  0  0  0  0
   -4.5266   -2.7521    0.3674 H   0  0  0  0  0  0  0  0  0  0  0  0
   -2.8576   -2.0761    1.5184 C   0  0  0  0  0  0  0  0  0  0  0  0
   -1.9456   -2.7051    2.0404 O   0  0  0  0  0  0  0  0  0  0  0  0
   -2.6926   -0.8481    1.0174 N   0  0  0  0  0  0  0  0  0  0  0  0
   -3.4926   -0.3971    0.5954 H   0  0  0  0  0  0  0  0  0  0  0  0
   -1.4216   -0.1071    1.0434 C   0  0  1  0  0  0  0  0  0  0  0  0
   -0.6709   -0.6930    0.5106 H   0  0  0  0  0  0  0  0  0  0  0  0
   -1.6221    1.2315    0.3051 C   0  0  0  0  0  0  0  0  0  0  0  0
   -1.9386    1.9848    1.0293 H   0  0  0  0  0  0  0  0  0  0  0  0
   -0.6683    1.5504   -0.1210 H   0  0  0  0  0  0  0  0  0  0  0  0
   -2.6749    1.1625   -0.8107 C   0  0  0  0  0  0  0  0  0  0  0  0
   -2.7677    2.1375   -1.2911 H   0  0  0  0  0  0  0  0  0  0  0  0
   -2.3676    0.4236   -1.5514 H   0  0  0  0  0  0  0  0  0  0  0  0
   -4.0342    0.7607   -0.2223 C   0  0  0  0  0  0  0  0  0  0  0  0
   -3.9256   -0.2036    0.2795 H   0  0  0  0  0  0  0  0  0  0  0  0
   -4.3293    1.5107    0.5153 H   0  0  0  0  0  0  0  0  0  0  0  0
   -5.0749    0.6585   -1.2660 N   0  3  0  0  0  0  0  0  0  0  0  0
   -4.8005    0.9007   -2.2027 H   0  0  0  0  0  0  0  0  0  0  0  0
   -6.3290    0.2797   -1.0849 C   0  0  0  0  0  0  0  0  0  0  0  0
   -6.7893   -0.0555    0.0877 N   0  0  0  0  0  0  0  0  0  0  0  0
   -6.1691   -0.0257    0.8775 H   0  0  0  0  0  0  0  0  0  0  0  0
   -7.7439   -0.3404    0.2079 H   0  0  0  0  0  0  0  0  0  0  0  0
   -7.1553    0.2308   -2.0909 N   0  0  0  0  0  0  0  0  0  0  0  0
   -6.8464    0.4797   -3.0148 H   0  0  0  0  0  0  0  0  0  0  0  0
   -8.1058   -0.0573   -1.9491 H   0  0  0  0  0  0  0  0  0  0  0  0
   -0.9523    0.1012    2.4848 C   0  0  0  0  0  0  0  0  0  0  0  0
    0.2133   -0.1319    2.7814 O   0  0  0  0  0  0  0  0  0  0  0  0
   -1.8684    0.5006    3.3725 N   0  0  0  0  0  0  0  0  0  0  0  0
   -2.7946    0.7048    3.0343 H   0  0  0  0  0  0  0  0  0  0  0  0
   -1.5848    0.7472    4.7873 C   0  0  0  0  0  0  0  0  0  0  0  0
   -0.8819    1.5774    4.8838 H   0  0  0  0  0  0  0  0  0  0  0  0
   -2.5030    0.9948    5.3214 H   0  0  0  0  0  0  0  0  0  0  0  0
   -1.1344   -0.1399    5.2381 H   0  0  0  0  0  0  0  0  0  0  0  0
  5  6  2  0  0  0  0
  5  7  1  0  0  0  0
  2  3  1  0  0  0  0
  2  4  1  0  0  0  0
  2  5  1  0  0  0  0
  1  2  1  0  0  0  0
 29 30  2  0  0  0  0
 29 31  1  0  0  0  0
 26 27  1  0  0  0  0
 26 28  1  0  0  0  0
 23 24  1  0  0  0  0
 23 25  1  0  0  0  0
 22 23  1  0  0  0  0
 22 26  1  0  0  0  0
 20 21  1  0  0  0  0
 20 22  2  0  0  0  0
 17 18  1  0  0  0  0
 17 19  1  0  0  0  0
 17 20  1  0  0  0  0
 14 15  1  0  0  0  0
 14 16  1  0  0  0  0
 14 17  1  0  0  0  0
 11 12  1  0  0  0  0
 11 13  1  0  0  0  0
 11 14  1  0  0  0  0
  9 10  1  0  0  0  0
  9 11  1  0  0  0  0
  9 29  1  0  0  0  0
  7  8  1  0  0  0  0
  7  9  1  0  0  0  0
 33 34  1  0  0  0  0
 33 35  1  0  0  0  0
 33 36  1  0  0  0  0
 31 32  1  0  0  0  0
 31 33  1  0  0  0  0
M  CHG  1  20   1
M  END
$$$$
default_name
  -OEChem-02102213163D

 36 35  0     1  0  0  0  0  0999 V2000
   -4.2256   -3.6731    1.8584 H   0  0  0  0  0  0  0  0  0  0  0  0
   -4.2396   -2.6781    1.4144 C   0  0  0  0  0  0  0  0  0  0  0  0
   -4.9506   -2.0521    1.9514 H   0  0  0  0  0  0  0  0  0  0  0  0
   -4.5266   -2.7521    0.3674 H   0  0  0  0  0  0  0  0  0  0  0  0
   -2.8576   -2.0761    1.5184 C   0  0  0  0  0  0  0  0  0  0  0  0
   -1.9456   -2.7051    2.0404 O   0  0  0  0  0  0  0  0  0  0  0  0
   -2.6926   -0.8481    1.0174 N   0  0  0  0  0  0  0  0  0  0  0  0
   -3.4926   -0.3971    0.5954 H   0  0  0  0  0  0  0  0  0  0  0  0
   -1.4216   -0.1071    1.0434 C   0  0  1  0  0  0  0  0  0  0  0  0
   -0.6709   -0.6930    0.5106 H   0  0  0  0  0  0  0  0  0  0  0  0
   -1.6221    1.2315    0.3051 C   0  0  0  0  0  0  0  0  0  0  0  0
   -1.9386    1.9848    1.0293 H   0  0  0  0  0  0  0  0  0  0  0  0
   -0.6683    1.5504   -0.1210 H   0  0  0  0  0  0  0  0  0  0  0  0
   -2.6749    1.1625   -0.8107 C   0  0  0  0  0  0  0  0  0  0  0  0
   -2.5842    2.0360   -1.4580 H   0  0  0  0  0  0  0  0  0  0  0  0
   -2.5169    0.2590   -1.4004 H   0  0  0  0  0  0  0  0  0  0  0  0
   -4.0825    1.1336   -0.1998 C   0  0  0  0  0  0  0  0  0  0  0  0
   -4.1556    0.2714    0.4671 H   0  0  0  0  0  0  0  0  0  0  0  0
   -4.2264    2.0450    0.3853 H   0  0  0  0  0  0  0  0  0  0  0  0
   -5.1293    1.0432   -1.2385 N   0  3  0  0  0  0  0  0  0  0  0  0
   -4.8191    1.0585   -2.1950 H   0  0  0  0  0  0  0  0  0  0  0  0
   -6.4314    0.9441   -1.0293 C   0  0  0  0  0  0  0  0  0  0  0  0
   -6.9406    0.9157    0.1704 N   0  0  0  0  0  0  0  0  0  0  0  0
   -6.3217    0.9696    0.9600 H   0  0  0  0  0  0  0  0  0  0  0  0
   -7.9312    0.8405    0.3116 H   0  0  0  0  0  0  0  0  0  0  0  0
   -7.2575    0.8717   -2.0341 N   0  0  0  0  0  0  0  0  0  0  0  0
   -6.9119    0.8895   -2.9782 H   0  0  0  0  0  0  0  0  0  0  0  0
   -8.2445    0.7965   -1.8710 H   0  0  0  0  0  0  0  0  0  0  0  0
   -0.9523    0.1012    2.4848 C   0  0  0  0  0  0  0  0  0  0  0  0
    0.2133   -0.1319    2.7814 O   0  0  0  0  0  0  0  0  0  0  0  0
   -1.8684    0.5006    3.3725 N   0  0  0  0  0  0  0  0  0  0  0  0
   -2.7946    0.7048    3.0343 H   0  0  0  0  0  0  0  0  0  0  0  0
   -1.5848    0.7472    4.7873 C   0  0  0  0  0  0  0  0  0  0  0  0
   -0.8819    1.5774    4.8838 H   0  0  0  0  0  0  0  0  0  0  0  0
   -2.5030    0.9948    5.3214 H   0  0  0  0  0  0  0  0  0  0  0  0
   -1.1344   -0.1399    5.2381 H   0  0  0  0  0  0  0  0  0  0  0  0
  5  6  2  0  0  0  0
  5  7  1  0  0  0  0
  2  3  1  0  0  0  0
  2  4  1  0  0  0  0
  2  5  1  0  0  0  0
  1  2  1  0  0  0  0
 29 30  2  0  0  0  0
 29 31  1  0  0  0  0
 26 27  1  0  0  0  0
 26 28  1  0  0  0  0
 23 24  1  0  0  0  0
 23 25  1  0  0  0  0
 22 23  1  0  0  0  0
 22 26  1  0  0  0  0
 20 21  1  0  0  0  0
 20 22  2  0  0  0  0
 17 18  1  0  0  0  0
 17 19  1  0  0  0  0
 17 20  1  0  0  0  0
 14 15  1  0  0  0  0
 14 16  1  0  0  0  0
 14 17  1  0  0  0  0
 11 12  1  0  0  0  0
 11 13  1  0  0  0  0
 11 14  1  0  0  0  0
  9 10  1  0  0  0  0
  9 11  1  0  0  0  0
  9 29  1  0  0  0  0
  7  8  1  0  0  0  0
  7  9  1  0  0  0  0
 33 34  1  0  0  0  0
 33 35  1  0  0  0  0
 33 36  1  0  0  0  0
 31 32  1  0  0  0  0
 31 33  1  0  0  0  0
M  CHG  1  20   1
M  END
$$$$
default_name
  -OEChem-02102213163D

 36 35  0     1  0  0  0  0  0999 V2000
   -4.2256   -3.6731    1.8584 H   0  0  0  0  0  0  0  0  0  0  0  0
   -4.2396   -2.6781    1.4144 C   0  0  0  0  0  0  0  0  0  0  0  0
   -4.9506   -2.0521    1.9514 H   0  0  0  0  0  0  0  0  0  0  0  0
   -4.5266   -2.7521    0.3674 H   0  0  0  0  0  0  0  0  0  0  0  0
   -2.8576   -2.0761    1.5184 C   0  0  0  0  0  0  0  0  0  0  0  0
   -1.9456   -2.7051    2.0404 O   0  0  0  0  0  0  0  0  0  0  0  0
   -2.6926   -0.8481    1.0174 N   0  0  0  0  0  0  0  0  0  0  0  0
   -3.4926   -0.3971    0.5954 H   0  0  0  0  0  0  0  0  0  0  0  0
   -1.4216   -0.1071    1.0434 C   0  0  1  0  0  0  0  0  0  0  0  0
   -0.6709   -0.6930    0.5106 H   0  0  0  0  0  0  0  0  0  0  0  0
   -1.6221    1.2315    0.3051 C   0  0  0  0  0  0  0  0  0  0  0  0
   -1.9386    1.9848    1.0293 H   0  0  0  0  0  0  0  0  0  0  0  0
   -0.6683    1.5504   -0.1210 H   0  0  0  0  0  0  0  0  0  0  0  0
   -2.6749    1.1625   -0.8107 C   0  0  0  0  0  0  0  0  0  0  0  0
   -2.4242    1.8737   -1.5990 H   0  0  0  0  0  0  0  0  0  0  0  0
   -2.6938    0.1549   -1.2271 H   0  0  0  0  0  0  0  0  0  0  0  0
   -4.0593    1.5069   -0.2448 C   0  0  0  0  0  0  0  0  0  0  0  0
   -4.2905    0.8068    0.5613 H   0  0  0  0  0  0  0  0  0  0  0  0
   -4.0251    2.5187    0.1661 H   0  0  0  0  0  0  0  0  0  0  0  0
   -5.1098    1.4299   -1.2807 N   0  3  0  0  0  0  0  0  0  0  0  0
   -4.8074    1.2158   -2.2157 H   0  0  0  0  0  0  0  0  0  0  0  0
   -6.4060    1.6149   -1.0947 C   0  0  0  0  0  0  0  0  0  0  0  0
   -6.9050    1.8970    0.0761 N   0  0  0  0  0  0  0  0  0  0  0  0
   -6.2828    1.9743    0.8612 H   0  0  0  0  0  0  0  0  0  0  0  0
   -7.8911    2.0348    0.2000 H   0  0  0  0  0  0  0  0  0  0  0  0
   -7.2363    1.5201   -2.0942 N   0  0  0  0  0  0  0  0  0  0  0  0
   -6.8987    1.3041   -3.0164 H   0  0  0  0  0  0  0  0  0  0  0  0
   -8.2189    1.6612   -1.9487 H   0  0  0  0  0  0  0  0  0  0  0  0
   -0.9523    0.1012    2.4848 C   0  0  0  0  0  0  0  0  0  0  0  0
    0.2133   -0.1319    2.7814 O   0  0  0  0  0  0  0  0  0  0  0  0
   -1.8684    0.5006    3.3725 N   0  0  0  0  0  0  0  0  0  0  0  0
   -2.7946    0.7048    3.0343 H   0  0  0  0  0  0  0  0  0  0  0  0
   -1.5848    0.7472    4.7873 C   0  0  0  0  0  0  0  0  0  0  0  0
   -0.8819    1.5774    4.8838 H   0  0  0  0  0  0  0  0  0  0  0  0
   -2.5030    0.9948    5.3214 H   0  0  0  0  0  0  0  0  0  0  0  0
   -1.1344   -0.1399    5.2381 H   0  0  0  0  0  0  0  0  0  0  0  0
  5  6  2  0  0  0  0
  5  7  1  0  0  0  0
  2  3  1  0  0  0  0
  2  4  1  0  0  0  0
  2  5  1  0  0  0  0
  1  2  1  0  0  0  0
 29 30  2  0  0  0  0
 29 31  1  0  0  0  0
 26 27  1  0  0  0  0
 26 28  1  0  0  0  0
 23 24  1  0  0  0  0
 23 25  1  0  0  0  0
 22 23  1  0  0  0  0
 22 26  1  0  0  0  0
 20 21  1  0  0  0  0
 20 22  2  0  0  0  0
 17 18  1  0  0  0  0
 17 19  1  0  0  0  0
 17 20  1  0  0  0  0
 14 15  1  0  0  0  0
 14 16  1  0  0  0  0
 14 17  1  0  0  0  0
 11 12  1  0  0  0  0
 11 13  1  0  0  0  0
 11 14  1  0  0  0  0
  9 10  1  0  0  0  0
  9 11  1  0  0  0  0
  9 29  1  0  0  0  0
  7  8  1  0  0  0  0
  7  9  1  0  0  0  0
 33 34  1  0  0  0  0
 33 35  1  0  0  0  0
 33 36  1  0  0  0  0
 31 32  1  0  0  0  0
 31 33  1  0  0  0  0
M  CHG  1  20   1
M  END
$$$$
default_name
  -OEChem-02102213163D

 36 35  0     1  0  0  0  0  0999 V2000
   -4.2256   -3.6731    1.8584 H   0  0  0  0  0  0  0  0  0  0  0  0
   -4.2396   -2.6781    1.4144 C   0  0  0  0  0  0  0  0  0  0  0  0
   -4.9506   -2.0521    1.9514 H   0  0  0  0  0  0  0  0  0  0  0  0
   -4.5266   -2.7521    0.3674 H   0  0  0  0  0  0  0  0  0  0  0  0
   -2.8576   -2.0761    1.5184 C   0  0  0  0  0  0  0  0  0  0  0  0
   -1.9456   -2.7051    2.0404 O   0  0  0  0  0  0  0  0  0  0  0  0
   -2.6926   -0.8481    1.0174 N   0  0  0  0  0  0  0  0  0  0  0  0
   -3.4926   -0.3971    0.5954 H   0  0  0  0  0  0  0  0  0  0  0  0
   -1.4216   -0.1071    1.0434 C   0  0  1  0  0  0  0  0  0  0  0  0
   -0.6709   -0.6930    0.5106 H   0  0  0  0  0  0  0  0  0  0  0  0
   -1.6221    1.2315    0.3051 C   0  0  0  0  0  0  0  0  0  0  0  0
   -1.9386    1.9848    1.0293 H   0  0  0  0  0  0  0  0  0  0  0  0
   -0.6683    1.5504   -0.1210 H   0  0  0  0  0  0  0  0  0  0  0  0
   -2.6749    1.1625   -0.8107 C   0  0  0  0  0  0  0  0  0  0  0  0
   -2.2984    1.6619   -1.7045 H   0  0  0  0  0  0  0  0  0  0  0  0
   -2.8862    0.1183   -1.0433 H   0  0  0  0  0  0  0  0  0  0  0  0
   -3.9662    1.8551   -0.3542 C   0  0  0  0  0  0  0  0  0  0  0  0
   -4.3213    1.3660    0.5558 H   0  0  0  0  0  0  0  0  0  0  0  0
   -3.7391    2.8995   -0.1274 H   0  0  0  0  0  0  0  0  0  0  0  0
   -5.0178    1.7922   -1.3899 N   0  3  0  0  0  0  0  0  0  0  0  0
   -4.7664    1.3620   -2.2634 H   0  0  0  0  0  0  0  0  0  0  0  0
   -6.2546    2.2466   -1.2766 C   0  0  0  0  0  0  0  0  0  0  0  0
   -6.6849    2.8214   -0.1886 N   0  0  0  0  0  0  0  0  0  0  0  0
   -6.0552    2.9200    0.5880 H   0  0  0  0  0  0  0  0  0  0  0  0
   -7.6266    3.1611   -0.1192 H   0  0  0  0  0  0  0  0  0  0  0  0
   -7.0931    2.1318   -2.2671 N   0  0  0  0  0  0  0  0  0  0  0  0
   -6.8074    1.6953   -3.1266 H   0  0  0  0  0  0  0  0  0  0  0  0
   -8.0305    2.4778   -2.1768 H   0  0  0  0  0  0  0  0  0  0  0  0
   -0.9523    0.1012    2.4848 C   0  0  0  0  0  0  0  0  0  0  0  0
    0.2133   -0.1319    2.7814 O   0  0  0  0  0  0  0  0  0  0  0  0
   -1.8684    0.5006    3.3725 N   0  0  0  0  0  0  0  0  0  0  0  0
   -2.7946    0.7048    3.0343 H   0  0  0  0  0  0  0  0  0  0  0  0
   -1.5848    0.7472    4.7873 C   0  0  0  0  0  0  0  0  0  0  0  0
   -0.8819    1.5774    4.8838 H   0  0  0  0  0  0  0  0  0  0  0  0
   -2.5030    0.9948    5.3214 H   0  0  0  0  0  0  0  0  0  0  0  0
   -1.1344   -0.1399    5.2381 H   0  0  0  0  0  0  0  0  0  0  0  0
  5  6  2  0  0  0  0
  5  7  1  0  0  0  0
  2  3  1  0  0  0  0
  2  4  1  0  0  0  0
  2  5  1  0  0  0  0
  1  2  1  0  0  0  0
 29 30  2  0  0  0  0
 29 31  1  0  0  0  0
 26 27  1  0  0  0  0
 26 28  1  0  0  0  0
 23 24  1  0  0  0  0
 23 25  1  0  0  0  0
 22 23  1  0  0  0  0
 22 26  1  0  0  0  0
 20 21  1  0  0  0  0
 20 22  2  0  0  0  0
 17 18  1  0  0  0  0
 17 19  1  0  0  0  0
 17 20  1  0  0  0  0
 14 15  1  0  0  0  0
 14 16  1  0  0  0  0
 14 17  1  0  0  0  0
 11 12  1  0  0  0  0
 11 13  1  0  0  0  0
 11 14  1  0  0  0  0
  9 10  1  0  0  0  0
  9 11  1  0  0  0  0
  9 29  1  0  0  0  0
  7  8  1  0  0  0  0
  7  9  1  0  0  0  0
 33 34  1  0  0  0  0
 33 35  1  0  0  0  0
 33 36  1  0  0  0  0
 31 32  1  0  0  0  0
 31 33  1  0  0  0  0
M  CHG  1  20   1
M  END
$$$$
default_name
  -OEChem-02102213163D

 36 35  0     1  0  0  0  0  0999 V2000
   -4.2256   -3.6731    1.8584 H   0  0  0  0  0  0  0  0  0  0  0  0
   -4.2396   -2.6781    1.4144 C   0  0  0  0  0  0  0  0  0  0  0  0
   -4.9506   -2.0521    1.9514 H   0  0  0  0  0  0  0  0  0  0  0  0
   -4.5266   -2.7521    0.3674 H   0  0  0  0  0  0  0  0  0  0  0  0
   -2.8576   -2.0761    1.5184 C   0  0  0  0  0  0  0  0  0  0  0  0
   -1.9456   -2.7051    2.0404 O   0  0  0  0  0  0  0  0  0  0  0  0
   -2.6926   -0.8481    1.0174 N   0  0  0  0  0  0  0  0  0  0  0  0
   -3.4926   -0.3971    0.5954 H   0  0  0  0  0  0  0  0  0  0  0  0
   -1.4216   -0.1071    1.0434 C   0  0  1  0  0  0  0  0  0  0  0  0
   -0.6709   -0.6930    0.5106 H   0  0  0  0  0  0  0  0  0  0  0  0
   -1.6221    1.2315    0.3051 C   0  0  0  0  0  0  0  0  0  0  0  0
   -1.9386    1.9848    1.0293 H   0  0  0  0  0  0  0  0  0  0  0  0
   -0.6683    1.5504   -0.1210 H   0  0  0  0  0  0  0  0  0  0  0  0
   -2.6749    1.1625   -0.8107 C   0  0  0  0  0  0  0  0  0  0  0  0
   -2.2156    1.4149   -1.7674 H   0  0  0  0  0  0  0  0  0  0  0  0
   -3.0811    0.1518   -0.8614 H   0  0  0  0  0  0  0  0  0  0  0  0
   -3.8094    2.1546   -0.5206 C   0  0  0  0  0  0  0  0  0  0  0  0
   -4.2458    1.9109    0.4509 H   0  0  0  0  0  0  0  0  0  0  0  0
   -3.3877    3.1614   -0.4751 H   0  0  0  0  0  0  0  0  0  0  0  0
   -4.8596    2.1055   -1.5586 N   0  3  0  0  0  0  0  0  0  0  0  0
   -4.6987    1.4869   -2.3350 H   0  0  0  0  0  0  0  0  0  0  0  0
   -5.9875    2.7960   -1.5626 C   0  0  0  0  0  0  0  0  0  0  0  0
   -6.2955    3.6260   -0.6058 N   0  0  0  0  0  0  0  0  0  0  0  0
   -5.6544    3.7421    0.1590 H   0  0  0  0  0  0  0  0  0  0  0  0
   -7.1555    4.1426   -0.6244 H   0  0  0  0  0  0  0  0  0  0  0  0
   -6.8379    2.6650   -2.5409 N   0  0  0  0  0  0  0  0  0  0  0  0
   -6.6445    2.0365   -3.3015 H   0  0  0  0  0  0  0  0  0  0  0  0
   -7.6924    3.1907   -2.5399 H   0  0  0  0  0  0  0  0  0  0  0  0
   -0.9523    0.1012    2.4848 C   0  0  0  0  0  0  0  0  0  0  0  0
    0.2133   -0.1319    2.7814 O   0  0  0  0  0  0  0  0  0  0  0  0
   -1.8684    0.5006    3.3725 N   0  0  0  0  0  0  0  0  0  0  0  0
   -2.7946    0.7048    3.0343 H   0  0  0  0  0  0  0  0  0  0  0  0
   -1.5848    0.7472    4.7873 C   0  0  0  0  0  0  0  0  0  0  0  0
   -0.8819    1.5774    4.8838 H   0  0  0  0  0  0  0  0  0  0  0  0
   -2.5030    0.9948    5.3214 H   0  0  0  0  0  0  0  0  0  0  0  0
   -1.1344   -0.1399    5.2381 H   0  0  0  0  0  0  0  0  0  0  0  0
  5  6  2  0  0  0  0
  5  7  1  0  0  0  0
  2  3  1  0  0  0  0
  2  4  1  0  0  0  0
  2  5  1  0  0  0  0
  1  2  1  0  0  0  0
 29 30  2  0  0  0  0
 29 31  1  0  0  0  0
 26 27  1  0  0  0  0
 26 28  1  0  0  0  0
 23 24  1  0  0  0  0
 23 25  1  0  0  0  0
 22 23  1  0  0  0  0
 22 26  1  0  0  0  0
 20 21  1  0  0  0  0
 20 22  2  0  0  0  0
 17 18  1  0  0  0  0
 17 19  1  0  0  0  0
 17 20  1  0  0  0  0
 14 15  1  0  0  0  0
 14 16  1  0  0  0  0
 14 17  1  0  0  0  0
 11 12  1  0  0  0  0
 11 13  1  0  0  0  0
 11 14  1  0  0  0  0
  9 10  1  0  0  0  0
  9 11  1  0  0  0  0
  9 29  1  0  0  0  0
  7  8  1  0  0  0  0
  7  9  1  0  0  0  0
 33 34  1  0  0  0  0
 33 35  1  0  0  0  0
 33 36  1  0  0  0  0
 31 32  1  0  0  0  0
 31 33  1  0  0  0  0
M  CHG  1  20   1
M  END
$$$$
default_name
  -OEChem-02102213163D

 36 35  0     1  0  0  0  0  0999 V2000
   -4.2256   -3.6731    1.8584 H   0  0  0  0  0  0  0  0  0  0  0  0
   -4.2396   -2.6781    1.4144 C   0  0  0  0  0  0  0  0  0  0  0  0
   -4.9506   -2.0521    1.9514 H   0  0  0  0  0  0  0  0  0  0  0  0
   -4.5266   -2.7521    0.3674 H   0  0  0  0  0  0  0  0  0  0  0  0
   -2.8576   -2.0761    1.5184 C   0  0  0  0  0  0  0  0  0  0  0  0
   -1.9456   -2.7051    2.0404 O   0  0  0  0  0  0  0  0  0  0  0  0
   -2.6926   -0.8481    1.0174 N   0  0  0  0  0  0  0  0  0  0  0  0
   -3.4926   -0.3971    0.5954 H   0  0  0  0  0  0  0  0  0  0  0  0
   -1.4216   -0.1071    1.0434 C   0  0  1  0  0  0  0  0  0  0  0  0
   -0.6709   -0.6930    0.5106 H   0  0  0  0  0  0  0  0  0  0  0  0
   -1.6221    1.2315    0.3051 C   0  0  0  0  0  0  0  0  0  0  0  0
   -1.9386    1.9848    1.0293 H   0  0  0  0  0  0  0  0  0  0  0  0
   -0.6683    1.5504   -0.1210 H   0  0  0  0  0  0  0  0  0  0  0  0
   -2.6749    1.1625   -0.8107 C   0  0  0  0  0  0  0  0  0  0  0  0
   -2.1813    1.1496   -1.7834 H   0  0  0  0  0  0  0  0  0  0  0  0
   -3.2652    0.2531   -0.6940 H   0  0  0  0  0  0  0  0  0  0  0  0
   -3.5998    2.3848   -0.7326 C   0  0  0  0  0  0  0  0  0  0  0  0
   -4.0691    2.4045    0.2537 H   0  0  0  0  0  0  0  0  0  0  0  0
   -2.9951    3.2867   -0.8534 H   0  0  0  0  0  0  0  0  0  0  0  0
   -4.6458    2.3484   -1.7754 N   0  3  0  0  0  0  0  0  0  0  0  0
   -4.6089    1.5821   -2.4256 H   0  0  0  0  0  0  0  0  0  0  0  0
   -5.6228    3.2256   -1.9333 C   0  0  0  0  0  0  0  0  0  0  0  0
   -5.7632    4.2559   -1.1470 N   0  0  0  0  0  0  0  0  0  0  0  0
   -5.1076    4.3847   -0.3967 H   0  0  0  0  0  0  0  0  0  0  0  0
   -6.5101    4.9124   -1.2810 H   0  0  0  0  0  0  0  0  0  0  0  0
   -6.4878    3.0835   -2.8970 N   0  0  0  0  0  0  0  0  0  0  0  0
   -6.4208    2.3044   -3.5290 H   0  0  0  0  0  0  0  0  0  0  0  0
   -7.2275    3.7513   -3.0132 H   0  0  0  0  0  0  0  0  0  0  0  0
   -0.9523    0.1012    2.4848 C   0  0  0  0  0  0  0  0  0  0  0  0
    0.2133   -0.1319    2.7814 O   0  0  0  0  0  0  0  0  0  0  0  0
   -1.8684    0.5006    3.3725 N   0  0  0  0  0  0  0  0  0  0  0  0
   -2.7946    0.7048    3.0343 H   0  0  0  0  0  0  0  0  0  0  0  0
   -1.5848    0.7472    4.7873 C   0  0  0  0  0  0  0  0  0  0  0  0
   -0.8819    1.5774    4.8838 H   0  0  0  0  0  0  0  0  0  0  0  0
   -2.5030    0.9948    5.3214 H   0  0  0  0  0  0  0  0  0  0  0  0
   -1.1344   -0.1399    5.2381 H   0  0  0  0  0  0  0  0  0  0  0  0
  5  6  2  0  0  0  0
  5  7  1  0  0  0  0
  2  3  1  0  0  0  0
  2  4  1  0  0  0  0
  2  5  1  0  0  0  0
  1  2  1  0  0  0  0
 29 30  2  0  0  0  0
 29 31  1  0  0  0  0
 26 27  1  0  0  0  0
 26 28  1  0  0  0  0
 23 24  1  0  0  0  0
 23 25  1  0  0  0  0
 22 23  1  0  0  0  0
 22 26  1  0  0  0  0
 20 21  1  0  0  0  0
 20 22  2  0  0  0  0
 17 18  1  0  0  0  0
 17 19  1  0  0  0  0
 17 20  1  0  0  0  0
 14 15  1  0  0  0  0
 14 16  1  0  0  0  0
 14 17  1  0  0  0  0
 11 12  1  0  0  0  0
 11 13  1  0  0  0  0
 11 14  1  0  0  0  0
  9 10  1  0  0  0  0
  9 11  1  0  0  0  0
  9 29  1  0  0  0  0
  7  8  1  0  0  0  0
  7  9  1  0  0  0  0
 33 34  1  0  0  0  0
 33 35  1  0  0  0  0
 33 36  1  0  0  0  0
 31 32  1  0  0  0  0
 31 33  1  0  0  0  0
M  CHG  1  20   1
M  END
$$$$
default_name
  -OEChem-02102213163D

 36 35  0     1  0  0  0  0  0999 V2000
   -4.2256   -3.6731    1.8584 H   0  0  0  0  0  0  0  0  0  0  0  0
   -4.2396   -2.6781    1.4144 C   0  0  0  0  0  0  0  0  0  0  0  0
   -4.9506   -2.0521    1.9514 H   0  0  0  0  0  0  0  0  0  0  0  0
   -4.5266   -2.7521    0.3674 H   0  0  0  0  0  0  0  0  0  0  0  0
   -2.8576   -2.0761    1.5184 C   0  0  0  0  0  0  0  0  0  0  0  0
   -1.9456   -2.7051    2.0404 O   0  0  0  0  0  0  0  0  0  0  0  0
   -2.6926   -0.8481    1.0174 N   0  0  0  0  0  0  0  0  0  0  0  0
   -3.4926   -0.3971    0.5954 H   0  0  0  0  0  0  0  0  0  0  0  0
   -1.4216   -0.1071    1.0434 C   0  0  1  0  0  0  0  0  0  0  0  0
   -0.6709   -0.6930    0.5106 H   0  0  0  0  0  0  0  0  0  0  0  0
   -1.6221    1.2315    0.3051 C   0  0  0  0  0  0  0  0  0  0  0  0
   -1.9386    1.9848    1.0293 H   0  0  0  0  0  0  0  0  0  0  0  0
   -0.6683    1.5504   -0.1210 H   0  0  0  0  0  0  0  0  0  0  0  0
   -2.6749    1.1625   -0.8107 C   0  0  0  0  0  0  0  0  0  0  0  0
   -2.1978    0.8840   -1.7514 H   0  0  0  0  0  0  0  0  0  0  0  0
   -3.4259    0.4152   -0.5524 H   0  0  0  0  0  0  0  0  0  0  0  0
   -3.3516    2.5301   -0.9758 C   0  0  0  0  0  0  0  0  0  0  0  0
   -3.8034    2.8130   -0.0223 H   0  0  0  0  0  0  0  0  0  0  0  0
   -2.5878    3.2667   -1.2364 H   0  0  0  0  0  0  0  0  0  0  0  0
   -4.3911    2.5044   -2.0253 N   0  3  0  0  0  0  0  0  0  0  0  0
   -4.5033    1.6412   -2.5289 H   0  0  0  0  0  0  0  0  0  0  0  0
   -5.1854    3.5063   -2.3633 C   0  0  0  0  0  0  0  0  0  0  0  0
   -5.1242    4.6682   -1.7754 N   0  0  0  0  0  0  0  0  0  0  0  0
   -4.4521    4.8040   -1.0411 H   0  0  0  0  0  0  0  0  0  0  0  0
   -5.7342    5.4181   -2.0443 H   0  0  0  0  0  0  0  0  0  0  0  0
   -6.0669    3.3587   -3.3112 N   0  0  0  0  0  0  0  0  0  0  0  0
   -6.1518    2.4807   -3.7938 H   0  0  0  0  0  0  0  0  0  0  0  0
   -6.6676    4.1213   -3.5645 H   0  0  0  0  0  0  0  0  0  0  0  0
   -0.9523    0.1012    2.4848 C   0  0  0  0  0  0  0  0  0  0  0  0
    0.2133   -0.1319    2.7814 O   0  0  0  0  0  0  0  0  0  0  0  0
   -1.8684    0.5006    3.3725 N   0  0  0  0  0  0  0  0  0  0  0  0
   -2.7946    0.7048    3.0343 H   0  0  0  0  0  0  0  0  0  0  0  0
   -1.5848    0.7472    4.7873 C   0  0  0  0  0  0  0  0  0  0  0  0
   -0.8819    1.5774    4.8838 H   0  0  0  0  0  0  0  0  0  0  0  0
   -2.5030    0.9948    5.3214 H   0  0  0  0  0  0  0  0  0  0  0  0
   -1.1344   -0.1399    5.2381 H   0  0  0  0  0  0  0  0  0  0  0  0
  5  6  2  0  0  0  0
  5  7  1  0  0  0  0
  2  3  1  0  0  0  0
  2  4  1  0  0  0  0
  2  5  1  0  0  0  0
  1  2  1  0  0  0  0
 29 30  2  0  0  0  0
 29 31  1  0  0  0  0
 26 27  1  0  0  0  0
 26 28  1  0  0  0  0
 23 24  1  0  0  0  0
 23 25  1  0  0  0  0
 22 23  1  0  0  0  0
 22 26  1  0  0  0  0
 20 21  1  0  0  0  0
 20 22  2  0  0  0  0
 17 18  1  0  0  0  0
 17 19  1  0  0  0  0
 17 20  1  0  0  0  0
 14 15  1  0  0  0  0
 14 16  1  0  0  0  0
 14 17  1  0  0  0  0
 11 12  1  0  0  0  0
 11 13  1  0  0  0  0
 11 14  1  0  0  0  0
  9 10  1  0  0  0  0
  9 11  1  0  0  0  0
  9 29  1  0  0  0  0
  7  8  1  0  0  0  0
  7  9  1  0  0  0  0
 33 34  1  0  0  0  0
 33 35  1  0  0  0  0
 33 36  1  0  0  0  0
 31 32  1  0  0  0  0
 31 33  1  0  0  0  0
M  CHG  1  20   1
M  END
$$$$
default_name
  -OEChem-02102213163D

 36 35  0     1  0  0  0  0  0999 V2000
   -4.2256   -3.6731    1.8584 H   0  0  0  0  0  0  0  0  0  0  0  0
   -4.2396   -2.6781    1.4144 C   0  0  0  0  0  0  0  0  0  0  0  0
   -4.9506   -2.0521    1.9514 H   0  0  0  0  0  0  0  0  0  0  0  0
   -4.5266   -2.7521    0.3674 H   0  0  0  0  0  0  0  0  0  0  0  0
   -2.8576   -2.0761    1.5184 C   0  0  0  0  0  0  0  0  0  0  0  0
   -1.9456   -2.7051    2.0404 O   0  0  0  0  0  0  0  0  0  0  0  0
   -2.6926   -0.8481    1.0174 N   0  0  0  0  0  0  0  0  0  0  0  0
   -3.4926   -0.3971    0.5954 H   0  0  0  0  0  0  0  0  0  0  0  0
   -1.4216   -0.1071    1.0434 C   0  0  1  0  0  0  0  0  0  0  0  0
   -0.6709   -0.6930    0.5106 H   0  0  0  0  0  0  0  0  0  0  0  0
   -1.6221    1.2315    0.3051 C   0  0  0  0  0  0  0  0  0  0  0  0
   -1.9386    1.9848    1.0293 H   0  0  0  0  0  0  0  0  0  0  0  0
   -0.6683    1.5504   -0.1210 H   0  0  0  0  0  0  0  0  0  0  0  0
   -2.6749    1.1625   -0.8107 C   0  0  0  0  0  0  0  0  0  0  0  0
   -2.2642    0.6363   -1.6735 H   0  0  0  0  0  0  0  0  0  0  0  0
   -3.5522    0.6272   -0.4462 H   0  0  0  0  0  0  0  0  0  0  0  0
   -3.0816    2.5807   -1.2337 C   0  0  0  0  0  0  0  0  0  0  0  0
   -3.4667    3.1087   -0.3583 H   0  0  0  0  0  0  0  0  0  0  0  0
   -2.1938    3.1028   -1.5981 H   0  0  0  0  0  0  0  0  0  0  0  0
   -4.1129    2.5628   -2.2915 N   0  3  0  0  0  0  0  0  0  0  0  0
   -4.3890    1.6600   -2.6380 H   0  0  0  0  0  0  0  0  0  0  0  0
   -4.7052    3.6189   -2.8234 C   0  0  0  0  0  0  0  0  0  0  0  0
   -4.4222    4.8347   -2.4481 N   0  0  0  0  0  0  0  0  0  0  0  0
   -3.7326    4.9713   -1.7303 H   0  0  0  0  0  0  0  0  0  0  0  0
   -4.8808    5.6253   -2.8624 H   0  0  0  0  0  0  0  0  0  0  0  0
   -5.6037    3.4718   -3.7553 N   0  0  0  0  0  0  0  0  0  0  0  0
   -5.8557    2.5534   -4.0776 H   0  0  0  0  0  0  0  0  0  0  0  0
   -6.0507    4.2756   -4.1561 H   0  0  0  0  0  0  0  0  0  0  0  0
   -0.9523    0.1012    2.4848 C   0  0  0  0  0  0  0  0  0  0  0  0
    0.2133   -0.1319    2.7814 O   0  0  0  0  0  0  0  0  0  0  0  0
   -1.8684    0.5006    3.3725 N   0  0  0  0  0  0  0  0  0  0  0  0
   -2.7946    0.7048    3.0343 H   0  0  0  0  0  0  0  0  0  0  0  0
   -1.5848    0.7472    4.7873 C   0  0  0  0  0  0  0  0  0  0  0  0
   -0.8819    1.5774    4.8838 H   0  0  0  0  0  0  0  0  0  0  0  0
   -2.5030    0.9948    5.3214 H   0  0  0  0  0  0  0  0  0  0  0  0
   -1.1344   -0.1399    5.2381 H   0  0  0  0  0  0  0  0  0  0  0  0
  5  6  2  0  0  0  0
  5  7  1  0  0  0  0
  2  3  1  0  0  0  0
  2  4  1  0  0  0  0
  2  5  1  0  0  0  0
  1  2  1  0  0  0  0
 29 30  2  0  0  0  0
 29 31  1  0  0  0  0
 26 27  1  0  0  0  0
 26 28  1  0  0  0  0
 23 24  1  0  0  0  0
 23 25  1  0  0  0  0
 22 23  1  0  0  0  0
 22 26  1  0  0  0  0
 20 21  1  0  0  0  0
 20 22  2  0  0  0  0
 17 18  1  0  0  0  0
 17 19  1  0  0  0  0
 17 20  1  0  0  0  0
 14 15  1  0  0  0  0
 14 16  1  0  0  0  0
 14 17  1  0  0  0  0
 11 12  1  0  0  0  0
 11 13  1  0  0  0  0
 11 14  1  0  0  0  0
  9 10  1  0  0  0  0
  9 11  1  0  0  0  0
  9 29  1  0  0  0  0
  7  8  1  0  0  0  0
  7  9  1  0  0  0  0
 33 34  1  0  0  0  0
 33 35  1  0  0  0  0
 33 36  1  0  0  0  0
 31 32  1  0  0  0  0
 31 33  1  0  0  0  0
M  CHG  1  20   1
M  END
$$$$
default_name
  -OEChem-02102213163D

 36 35  0     1  0  0  0  0  0999 V2000
   -4.2256   -3.6731    1.8584 H   0  0  0  0  0  0  0  0  0  0  0  0
   -4.2396   -2.6781    1.4144 C   0  0  0  0  0  0  0  0  0  0  0  0
   -4.9506   -2.0521    1.9514 H   0  0  0  0  0  0  0  0  0  0  0  0
   -4.5266   -2.7521    0.3674 H   0  0  0  0  0  0  0  0  0  0  0  0
   -2.8576   -2.0761    1.5184 C   0  0  0  0  0  0  0  0  0  0  0  0
   -1.9456   -2.7051    2.0404 O   0  0  0  0  0  0  0  0  0  0  0  0
   -2.6926   -0.8481    1.0174 N   0  0  0  0  0  0  0  0  0  0  0  0
   -3.4926   -0.3971    0.5954 H   0  0  0  0  0  0  0  0  0  0  0  0
   -1.4216   -0.1071    1.0434 C   0  0  1  0  0  0  0  0  0  0  0  0
   -0.6709   -0.6930    0.5106 H   0  0  0  0  0  0  0  0  0  0  0  0
   -1.6221    1.2315    0.3051 C   0  0  0  0  0  0  0  0  0  0  0  0
   -1.6732    2.0331    1.0448 H   0  0  0  0  0  0  0  0  0  0  0  0
   -0.7586    1.4176   -0.3373 H   0  0  0  0  0  0  0  0  0  0  0  0
   -2.9010    1.2759   -0.5437 C   0  0  0  0  0  0  0  0  0  0  0  0
   -2.8695    0.4902   -1.2998 H   0  0  0  0  0  0  0  0  0  0  0  0
   -3.7671    1.1214    0.1005 H   0  0  0  0  0  0  0  0  0  0  0  0
   -3.0192    2.6387   -1.2397 C   0  0  0  0  0  0  0  0  0  0  0  0
   -3.0232    3.4206   -0.4768 H   0  0  0  0  0  0  0  0  0  0  0  0
   -2.1467    2.7777   -1.8824 H   0  0  0  0  0  0  0  0  0  0  0  0
   -4.2503    2.7353   -2.0507 N   0  3  0  0  0  0  0  0  0  0  0  0
   -4.8281    1.9134   -2.0944 H   0  0  0  0  0  0  0  0  0  0  0  0
   -4.6626    3.7975   -2.7221 C   0  0  0  0  0  0  0  0  0  0  0  0
   -3.9902    4.9142   -2.7337 N   0  0  0  0  0  0  0  0  0  0  0  0
   -3.1321    4.9676   -2.2138 H   0  0  0  0  0  0  0  0  0  0  0  0
   -4.3169    5.7109   -3.2487 H   0  0  0  0  0  0  0  0  0  0  0  0
   -5.7718    3.7574   -3.4042 N   0  0  0  0  0  0  0  0  0  0  0  0
   -6.3252    2.9181   -3.4253 H   0  0  0  0  0  0  0  0  0  0  0  0
   -6.0810    4.5655   -3.9121 H   0  0  0  0  0  0  0  0  0  0  0  0
   -0.9523    0.1012    2.4848 C   0  0  0  0  0  0  0  0  0  0  0  0
    0.2133   -0.1319    2.7814 O   0  0  0  0  0  0  0  0  0  0  0  0
   -1.8684    0.5006    3.3725 N   0  0  0  0  0  0  0  0  0  0  0  0
   -2.7946    0.7048    3.0343 H   0  0  0  0  0  0  0  0  0  0  0  0
   -1.5848    0.7472    4.7873 C   0  0  0  0  0  0  0  0  0  0  0  0
   -0.8819    1.5774    4.8838 H   0  0  0  0  0  0  0  0  0  0  0  0
   -2.5030    0.9948    5.3214 H   0  0  0  0  0  0  0  0  0  0  0  0
   -1.1344   -0.1399    5.2381 H   0  0  0  0  0  0  0  0  0  0  0  0
  5  6  2  0  0  0  0
  5  7  1  0  0  0  0
  2  3  1  0  0  0  0
  2  4  1  0  0  0  0
  2  5  1  0  0  0  0
  1  2  1  0  0  0  0
 29 30  2  0  0  0  0
 29 31  1  0  0  0  0
 26 27  1  0  0  0  0
 26 28  1  0  0  0  0
 23 24  1  0  0  0  0
 23 25  1  0  0  0  0
 22 23  1  0  0  0  0
 22 26  1  0  0  0  0
 20 21  1  0  0  0  0
 20 22  2  0  0  0  0
 17 18  1  0  0  0  0
 17 19  1  0  0  0  0
 17 20  1  0  0  0  0
 14 15  1  0  0  0  0
 14 16  1  0  0  0  0
 14 17  1  0  0  0  0
 11 12  1  0  0  0  0
 11 13  1  0  0  0  0
 11 14  1  0  0  0  0
  9 10  1  0  0  0  0
  9 11  1  0  0  0  0
  9 29  1  0  0  0  0
  7  8  1  0  0  0  0
  7  9  1  0  0  0  0
 33 34  1  0  0  0  0
 33 35  1  0  0  0  0
 33 36  1  0  0  0  0
 31 32  1  0  0  0  0
 31 33  1  0  0  0  0
M  CHG  1  20   1
M  END
$$$$
default_name
  -OEChem-02102213163D

 36 35  0     1  0  0  0  0  0999 V2000
   -4.2256   -3.6731    1.8584 H   0  0  0  0  0  0  0  0  0  0  0  0
   -4.2396   -2.6781    1.4144 C   0  0  0  0  0  0  0  0  0  0  0  0
   -4.9506   -2.0521    1.9514 H   0  0  0  0  0  0  0  0  0  0  0  0
   -4.5266   -2.7521    0.3674 H   0  0  0  0  0  0  0  0  0  0  0  0
   -2.8576   -2.0761    1.5184 C   0  0  0  0  0  0  0  0  0  0  0  0
   -1.9456   -2.7051    2.0404 O   0  0  0  0  0  0  0  0  0  0  0  0
   -2.6926   -0.8481    1.0174 N   0  0  0  0  0  0  0  0  0  0  0  0
   -3.4926   -0.3971    0.5954 H   0  0  0  0  0  0  0  0  0  0  0  0
   -1.4216   -0.1071    1.0434 C   0  0  1  0  0  0  0  0  0  0  0  0
   -0.6709   -0.6930    0.5106 H   0  0  0  0  0  0  0  0  0  0  0  0
   -1.6221    1.2315    0.3051 C   0  0  0  0  0  0  0  0  0  0  0  0
   -1.6732    2.0331    1.0448 H   0  0  0  0  0  0  0  0  0  0  0  0
   -0.7586    1.4176   -0.3373 H   0  0  0  0  0  0  0  0  0  0  0  0
   -2.9010    1.2759   -0.5437 C   0  0  0  0  0  0  0  0  0  0  0  0
   -2.9991    0.3498   -1.1119 H   0  0  0  0  0  0  0  0  0  0  0  0
   -3.7651    1.3898    0.1116 H   0  0  0  0  0  0  0  0  0  0  0  0
   -2.8402    2.4597   -1.5187 C   0  0  0  0  0  0  0  0  0  0  0  0
   -2.7153    3.3796   -0.9428 H   0  0  0  0  0  0  0  0  0  0  0  0
   -1.9720    2.3302   -2.1690 H   0  0  0  0  0  0  0  0  0  0  0  0
   -4.0635    2.5557   -2.3415 N   0  3  0  0  0  0  0  0  0  0  0  0
   -4.7532    1.8355   -2.2112 H   0  0  0  0  0  0  0  0  0  0  0  0
   -4.3360    3.4968   -3.2299 C   0  0  0  0  0  0  0  0  0  0  0  0
   -3.5120    4.4762   -3.4770 N   0  0  0  0  0  0  0  0  0  0  0  0
   -2.6432    4.5161   -2.9740 H   0  0  0  0  0  0  0  0  0  0  0  0
   -3.7340    5.1821   -4.1547 H   0  0  0  0  0  0  0  0  0  0  0  0
   -5.4551    3.4709   -3.8963 N   0  0  0  0  0  0  0  0  0  0  0  0
   -6.1226    2.7353   -3.7401 H   0  0  0  0  0  0  0  0  0  0  0  0
   -5.6579    4.1868   -4.5693 H   0  0  0  0  0  0  0  0  0  0  0  0
   -0.9523    0.1012    2.4848 C   0  0  0  0  0  0  0  0  0  0  0  0
    0.2133   -0.1319    2.7814 O   0  0  0  0  0  0  0  0  0  0  0  0
   -1.8684    0.5006    3.3725 N   0  0  0  0  0  0  0  0  0  0  0  0
   -2.7946    0.7048    3.0343 H   0  0  0  0  0  0  0  0  0  0  0  0
   -1.5848    0.7472    4.7873 C   0  0  0  0  0  0  0  0  0  0  0  0
   -0.8819    1.5774    4.8838 H   0  0  0  0  0  0  0  0  0  0  0  0
   -2.5030    0.9948    5.3214 H   0  0  0  0  0  0  0  0  0  0  0  0
   -1.1344   -0.1399    5.2381 H   0  0  0  0  0  0  0  0  0  0  0  0
  5  6  2  0  0  0  0
  5  7  1  0  0  0  0
  2  3  1  0  0  0  0
  2  4  1  0  0  0  0
  2  5  1  0  0  0  0
  1  2  1  0  0  0  0
 29 30  2  0  0  0  0
 29 31  1  0  0  0  0
 26 27  1  0  0  0  0
 26 28  1  0  0  0  0
 23 24  1  0  0  0  0
 23 25  1  0  0  0  0
 22 23  1  0  0  0  0
 22 26  1  0  0  0  0
 20 21  1  0  0  0  0
 20 22  2  0  0  0  0
 17 18  1  0  0  0  0
 17 19  1  0  0  0  0
 17 20  1  0  0  0  0
 14 15  1  0  0  0  0
 14 16  1  0  0  0  0
 14 17  1  0  0  0  0
 11 12  1  0  0  0  0
 11 13  1  0  0  0  0
 11 14  1  0  0  0  0
  9 10  1  0  0  0  0
  9 11  1  0  0  0  0
  9 29  1  0  0  0  0
  7  8  1  0  0  0  0
  7  9  1  0  0  0  0
 33 34  1  0  0  0  0
 33 35  1  0  0  0  0
 33 36  1  0  0  0  0
 31 32  1  0  0  0  0
 31 33  1  0  0  0  0
M  CHG  1  20   1
M  END
$$$$
default_name
  -OEChem-02102213163D

 36 35  0     1  0  0  0  0  0999 V2000
   -4.2256   -3.6731    1.8584 H   0  0  0  0  0  0  0  0  0  0  0  0
   -4.2396   -2.6781    1.4144 C   0  0  0  0  0  0  0  0  0  0  0  0
   -4.9506   -2.0521    1.9514 H   0  0  0  0  0  0  0  0  0  0  0  0
   -4.5266   -2.7521    0.3674 H   0  0  0  0  0  0  0  0  0  0  0  0
   -2.8576   -2.0761    1.5184 C   0  0  0  0  0  0  0  0  0  0  0  0
   -1.9456   -2.7051    2.0404 O   0  0  0  0  0  0  0  0  0  0  0  0
   -2.6926   -0.8481    1.0174 N   0  0  0  0  0  0  0  0  0  0  0  0
   -3.4926   -0.3971    0.5954 H   0  0  0  0  0  0  0  0  0  0  0  0
   -1.4216   -0.1071    1.0434 C   0  0  1  0  0  0  0  0  0  0  0  0
   -0.6709   -0.6930    0.5106 H   0  0  0  0  0  0  0  0  0  0  0  0
   -1.6221    1.2315    0.3051 C   0  0  0  0  0  0  0  0  0  0  0  0
   -1.6732    2.0331    1.0448 H   0  0  0  0  0  0  0  0  0  0  0  0
   -0.7586    1.4176   -0.3373 H   0  0  0  0  0  0  0  0  0  0  0  0
   -2.9010    1.2759   -0.5437 C   0  0  0  0  0  0  0  0  0  0  0  0
   -3.1430    0.2733   -0.8991 H   0  0  0  0  0  0  0  0  0  0  0  0
   -3.7247    1.6512    0.0644 H   0  0  0  0  0  0  0  0  0  0  0  0
   -2.6951    2.2010   -1.7509 C   0  0  0  0  0  0  0  0  0  0  0  0
   -2.4272    3.1954   -1.3865 H   0  0  0  0  0  0  0  0  0  0  0  0
   -1.8694    1.8111   -2.3508 H   0  0  0  0  0  0  0  0  0  0  0  0
   -3.9110    2.2929   -2.5850 N   0  3  0  0  0  0  0  0  0  0  0  0
   -4.6929    1.7245   -2.3079 H   0  0  0  0  0  0  0  0  0  0  0  0
   -4.0673    3.0501   -3.6580 C   0  0  0  0  0  0  0  0  0  0  0  0
   -3.1184    3.8245   -4.1042 N   0  0  0  0  0  0  0  0  0  0  0  0
   -2.2413    3.8461   -3.6146 H   0  0  0  0  0  0  0  0  0  0  0  0
   -3.2533    4.3925   -4.9202 H   0  0  0  0  0  0  0  0  0  0  0  0
   -5.1939    3.0428   -4.3123 N   0  0  0  0  0  0  0  0  0  0  0  0
   -5.9554    2.4619   -4.0063 H   0  0  0  0  0  0  0  0  0  0  0  0
   -5.3083    3.6188   -5.1257 H   0  0  0  0  0  0  0  0  0  0  0  0
   -0.9523    0.1012    2.4848 C   0  0  0  0  0  0  0  0  0  0  0  0
    0.2133   -0.1319    2.7814 O   0  0  0  0  0  0  0  0  0  0  0  0
   -1.8684    0.5006    3.3725 N   0  0  0  0  0  0  0  0  0  0  0  0
   -2.7946    0.7048    3.0343 H   0  0  0  0  0  0  0  0  0  0  0  0
   -1.5848    0.7472    4.7873 C   0  0  0  0  0  0  0  0  0  0  0  0
   -0.8819    1.5774    4.8838 H   0  0  0  0  0  0  0  0  0  0  0  0
   -2.5030    0.9948    5.3214 H   0  0  0  0  0  0  0  0  0  0  0  0
   -1.1344   -0.1399    5.2381 H   0  0  0  0  0  0  0  0  0  0  0  0
  5  6  2  0  0  0  0
  5  7  1  0  0  0  0
  2  3  1  0  0  0  0
  2  4  1  0  0  0  0
  2  5  1  0  0  0  0
  1  2  1  0  0  0  0
 29 30  2  0  0  0  0
 29 31  1  0  0  0  0
 26 27  1  0  0  0  0
 26 28  1  0  0  0  0
 23 24  1  0  0  0  0
 23 25  1  0  0  0  0
 22 23  1  0  0  0  0
 22 26  1  0  0  0  0
 20 21  1  0  0  0  0
 20 22  2  0  0  0  0
 17 18  1  0  0  0  0
 17 19  1  0  0  0  0
 17 20  1  0  0  0  0
 14 15  1  0  0  0  0
 14 16  1  0  0  0  0
 14 17  1  0  0  0  0
 11 12  1  0  0  0  0
 11 13  1  0  0  0  0
 11 14  1  0  0  0  0
  9 10  1  0  0  0  0
  9 11  1  0  0  0  0
  9 29  1  0  0  0  0
  7  8  1  0  0  0  0
  7  9  1  0  0  0  0
 33 34  1  0  0  0  0
 33 35  1  0  0  0  0
 33 36  1  0  0  0  0
 31 32  1  0  0  0  0
 31 33  1  0  0  0  0
M  CHG  1  20   1
M  END
$$$$
default_name
  -OEChem-02102213163D

 36 35  0     1  0  0  0  0  0999 V2000
   -4.2256   -3.6731    1.8584 H   0  0  0  0  0  0  0  0  0  0  0  0
   -4.2396   -2.6781    1.4144 C   0  0  0  0  0  0  0  0  0  0  0  0
   -4.9506   -2.0521    1.9514 H   0  0  0  0  0  0  0  0  0  0  0  0
   -4.5266   -2.7521    0.3674 H   0  0  0  0  0  0  0  0  0  0  0  0
   -2.8576   -2.0761    1.5184 C   0  0  0  0  0  0  0  0  0  0  0  0
   -1.9456   -2.7051    2.0404 O   0  0  0  0  0  0  0  0  0  0  0  0
   -2.6926   -0.8481    1.0174 N   0  0  0  0  0  0  0  0  0  0  0  0
   -3.4926   -0.3971    0.5954 H   0  0  0  0  0  0  0  0  0  0  0  0
   -1.4216   -0.1071    1.0434 C   0  0  1  0  0  0  0  0  0  0  0  0
   -0.6709   -0.6930    0.5106 H   0  0  0  0  0  0  0  0  0  0  0  0
   -1.6221    1.2315    0.3051 C   0  0  0  0  0  0  0  0  0  0  0  0
   -1.6732    2.0331    1.0448 H   0  0  0  0  0  0  0  0  0  0  0  0
   -0.7586    1.4176   -0.3373 H   0  0  0  0  0  0  0  0  0  0  0  0
   -2.9010    1.2759   -0.5437 C   0  0  0  0  0  0  0  0  0  0  0  0
   -3.2913    0.2658   -0.6760 H   0  0  0  0  0  0  0  0  0  0  0  0
   -3.6487    1.8877   -0.0379 H   0  0  0  0  0  0  0  0  0  0  0  0
   -2.5936    1.8803   -1.9206 C   0  0  0  0  0  0  0  0  0  0  0  0
   -2.1786    2.8807   -1.7774 H   0  0  0  0  0  0  0  0  0  0  0  0
   -1.8459    1.2559   -2.4152 H   0  0  0  0  0  0  0  0  0  0  0  0
   -3.8031    1.9647   -2.7648 N   0  3  0  0  0  0  0  0  0  0  0  0
   -4.6513    1.5877   -2.3778 H   0  0  0  0  0  0  0  0  0  0  0  0
   -3.8750    2.4879   -3.9773 C   0  0  0  0  0  0  0  0  0  0  0  0
   -2.8361    3.0034   -4.5725 N   0  0  0  0  0  0  0  0  0  0  0  0
   -1.9538    3.0035   -4.0919 H   0  0  0  0  0  0  0  0  0  0  0  0
   -2.9077    3.3961   -5.4931 H   0  0  0  0  0  0  0  0  0  0  0  0
   -5.0060    2.5023   -4.6237 N   0  0  0  0  0  0  0  0  0  0  0  0
   -5.8351    2.1165   -4.2057 H   0  0  0  0  0  0  0  0  0  0  0  0
   -5.0561    2.9003   -5.5433 H   0  0  0  0  0  0  0  0  0  0  0  0
   -0.9523    0.1012    2.4848 C   0  0  0  0  0  0  0  0  0  0  0  0
    0.2133   -0.1319    2.7814 O   0  0  0  0  0  0  0  0  0  0  0  0
   -1.8684    0.5006    3.3725 N   0  0  0  0  0  0  0  0  0  0  0  0
   -2.7946    0.7048    3.0343 H   0  0  0  0  0  0  0  0  0  0  0  0
   -1.5848    0.7472    4.7873 C   0  0  0  0  0  0  0  0  0  0  0  0
   -0.8819    1.5774    4.8838 H   0  0  0  0  0  0  0  0  0  0  0  0
   -2.5030    0.9948    5.3214 H   0  0  0  0  0  0  0  0  0  0  0  0
   -1.1344   -0.1399    5.2381 H   0  0  0  0  0  0  0  0  0  0  0  0
  5  6  2  0  0  0  0
  5  7  1  0  0  0  0
  2  3  1  0  0  0  0
  2  4  1  0  0  0  0
  2  5  1  0  0  0  0
  1  2  1  0  0  0  0
 29 30  2  0  0  0  0
 29 31  1  0  0  0  0
 26 27  1  0  0  0  0
 26 28  1  0  0  0  0
 23 24  1  0  0  0  0
 23 25  1  0  0  0  0
 22 23  1  0  0  0  0
 22 26  1  0  0  0  0
 20 21  1  0  0  0  0
 20 22  2  0  0  0  0
 17 18  1  0  0  0  0
 17 19  1  0  0  0  0
 17 20  1  0  0  0  0
 14 15  1  0  0  0  0
 14 16  1  0  0  0  0
 14 17  1  0  0  0  0
 11 12  1  0  0  0  0
 11 13  1  0  0  0  0
 11 14  1  0  0  0  0
  9 10  1  0  0  0  0
  9 11  1  0  0  0  0
  9 29  1  0  0  0  0
  7  8  1  0  0  0  0
  7  9  1  0  0  0  0
 33 34  1  0  0  0  0
 33 35  1  0  0  0  0
 33 36  1  0  0  0  0
 31 32  1  0  0  0  0
 31 33  1  0  0  0  0
M  CHG  1  20   1
M  END
$$$$
default_name
  -OEChem-02102213163D

 36 35  0     1  0  0  0  0  0999 V2000
   -4.2256   -3.6731    1.8584 H   0  0  0  0  0  0  0  0  0  0  0  0
   -4.2396   -2.6781    1.4144 C   0  0  0  0  0  0  0  0  0  0  0  0
   -4.9506   -2.0521    1.9514 H   0  0  0  0  0  0  0  0  0  0  0  0
   -4.5266   -2.7521    0.3674 H   0  0  0  0  0  0  0  0  0  0  0  0
   -2.8576   -2.0761    1.5184 C   0  0  0  0  0  0  0  0  0  0  0  0
   -1.9456   -2.7051    2.0404 O   0  0  0  0  0  0  0  0  0  0  0  0
   -2.6926   -0.8481    1.0174 N   0  0  0  0  0  0  0  0  0  0  0  0
   -3.4926   -0.3971    0.5954 H   0  0  0  0  0  0  0  0  0  0  0  0
   -1.4216   -0.1071    1.0434 C   0  0  1  0  0  0  0  0  0  0  0  0
   -0.6709   -0.6930    0.5106 H   0  0  0  0  0  0  0  0  0  0  0  0
   -1.6221    1.2315    0.3051 C   0  0  0  0  0  0  0  0  0  0  0  0
   -1.6732    2.0331    1.0448 H   0  0  0  0  0  0  0  0  0  0  0  0
   -0.7586    1.4176   -0.3373 H   0  0  0  0  0  0  0  0  0  0  0  0
   -2.9010    1.2759   -0.5437 C   0  0  0  0  0  0  0  0  0  0  0  0
   -3.4339    0.3279   -0.4578 H   0  0  0  0  0  0  0  0  0  0  0  0
   -3.5421    2.0832   -0.1882 H   0  0  0  0  0  0  0  0  0  0  0  0
   -2.5427    1.5195   -2.0161 C   0  0  0  0  0  0  0  0  0  0  0  0
   -1.9865    2.4568   -2.0891 H   0  0  0  0  0  0  0  0  0  0  0  0
   -1.9031    0.7024   -2.3580 H   0  0  0  0  0  0  0  0  0  0  0  0
   -3.7472    1.5935   -2.8685 N   0  3  0  0  0  0  0  0  0  0  0  0
   -4.6312    1.4346   -2.4161 H   0  0  0  0  0  0  0  0  0  0  0  0
   -3.7720    1.8485   -4.1659 C   0  0  0  0  0  0  0  0  0  0  0  0
   -2.6844    2.0691   -4.8499 N   0  0  0  0  0  0  0  0  0  0  0  0
   -1.8001    2.0454   -4.3735 H   0  0  0  0  0  0  0  0  0  0  0  0
   -2.7208    2.2607   -5.8342 H   0  0  0  0  0  0  0  0  0  0  0  0
   -4.9041    1.8862   -4.8095 N   0  0  0  0  0  0  0  0  0  0  0  0
   -5.7697    1.7227   -4.3248 H   0  0  0  0  0  0  0  0  0  0  0  0
   -4.9184    2.0801   -5.7937 H   0  0  0  0  0  0  0  0  0  0  0  0
   -0.9523    0.1012    2.4848 C   0  0  0  0  0  0  0  0  0  0  0  0
    0.2133   -0.1319    2.7814 O   0  0  0  0  0  0  0  0  0  0  0  0
   -1.8684    0.5006    3.3725 N   0  0  0  0  0  0  0  0  0  0  0  0
   -2.7946    0.7048    3.0343 H   0  0  0  0  0  0  0  0  0  0  0  0
   -1.5848    0.7472    4.7873 C   0  0  0  0  0  0  0  0  0  0  0  0
   -0.8819    1.5774    4.8838 H   0  0  0  0  0  0  0  0  0  0  0  0
   -2.5030    0.9948    5.3214 H   0  0  0  0  0  0  0  0  0  0  0  0
   -1.1344   -0.1399    5.2381 H   0  0  0  0  0  0  0  0  0  0  0  0
  5  6  2  0  0  0  0
  5  7  1  0  0  0  0
  2  3  1  0  0  0  0
  2  4  1  0  0  0  0
  2  5  1  0  0  0  0
  1  2  1  0  0  0  0
 29 30  2  0  0  0  0
 29 31  1  0  0  0  0
 26 27  1  0  0  0  0
 26 28  1  0  0  0  0
 23 24  1  0  0  0  0
 23 25  1  0  0  0  0
 22 23  1  0  0  0  0
 22 26  1  0  0  0  0
 20 21  1  0  0  0  0
 20 22  2  0  0  0  0
 17 18  1  0  0  0  0
 17 19  1  0  0  0  0
 17 20  1  0  0  0  0
 14 15  1  0  0  0  0
 14 16  1  0  0  0  0
 14 17  1  0  0  0  0
 11 12  1  0  0  0  0
 11 13  1  0  0  0  0
 11 14  1  0  0  0  0
  9 10  1  0  0  0  0
  9 11  1  0  0  0  0
  9 29  1  0  0  0  0
  7  8  1  0  0  0  0
  7  9  1  0  0  0  0
 33 34  1  0  0  0  0
 33 35  1  0  0  0  0
 33 36  1  0  0  0  0
 31 32  1  0  0  0  0
 31 33  1  0  0  0  0
M  CHG  1  20   1
M  END
$$$$
default_name
  -OEChem-02102213163D

 36 35  0     1  0  0  0  0  0999 V2000
   -4.2256   -3.6731    1.8584 H   0  0  0  0  0  0  0  0  0  0  0  0
   -4.2396   -2.6781    1.4144 C   0  0  0  0  0  0  0  0  0  0  0  0
   -4.9506   -2.0521    1.9514 H   0  0  0  0  0  0  0  0  0  0  0  0
   -4.5266   -2.7521    0.3674 H   0  0  0  0  0  0  0  0  0  0  0  0
   -2.8576   -2.0761    1.5184 C   0  0  0  0  0  0  0  0  0  0  0  0
   -1.9456   -2.7051    2.0404 O   0  0  0  0  0  0  0  0  0  0  0  0
   -2.6926   -0.8481    1.0174 N   0  0  0  0  0  0  0  0  0  0  0  0
   -3.4926   -0.3971    0.5954 H   0  0  0  0  0  0  0  0  0  0  0  0
   -1.4216   -0.1071    1.0434 C   0  0  1  0  0  0  0  0  0  0  0  0
   -0.6709   -0.6930    0.5106 H   0  0  0  0  0  0  0  0  0  0  0  0
   -1.6221    1.2315    0.3051 C   0  0  0  0  0  0  0  0  0  0  0  0
   -1.6732    2.0331    1.0448 H   0  0  0  0  0  0  0  0  0  0  0  0
   -0.7586    1.4176   -0.3373 H   0  0  0  0  0  0  0  0  0  0  0  0
   -2.9010    1.2759   -0.5437 C   0  0  0  0  0  0  0  0  0  0  0  0
   -3.5612    0.4554   -0.2593 H   0  0  0  0  0  0  0  0  0  0  0  0
   -3.4123    2.2244   -0.3763 H   0  0  0  0  0  0  0  0  0  0  0  0
   -2.5460    1.1431   -2.0309 C   0  0  0  0  0  0  0  0  0  0  0  0
   -1.8639    1.9528   -2.3002 H   0  0  0  0  0  0  0  0  0  0  0  0
   -2.0371    0.1882   -2.1829 H   0  0  0  0  0  0  0  0  0  0  0  0
   -3.7470    1.2046   -2.8890 N   0  3  0  0  0  0  0  0  0  0  0  0
   -4.6339    1.2755   -2.4203 H   0  0  0  0  0  0  0  0  0  0  0  0
   -3.7653    1.1755   -4.2111 C   0  0  0  0  0  0  0  0  0  0  0  0
   -2.6736    1.0850   -4.9176 N   0  0  0  0  0  0  0  0  0  0  0  0
   -1.7909    1.0374   -4.4402 H   0  0  0  0  0  0  0  0  0  0  0  0
   -2.7052    1.0638   -5.9203 H   0  0  0  0  0  0  0  0  0  0  0  0
   -4.8952    1.2365   -4.8568 N   0  0  0  0  0  0  0  0  0  0  0  0
   -5.7638    1.3073   -4.3554 H   0  0  0  0  0  0  0  0  0  0  0  0
   -4.9046    1.2142   -5.8598 H   0  0  0  0  0  0  0  0  0  0  0  0
   -0.9523    0.1012    2.4848 C   0  0  0  0  0  0  0  0  0  0  0  0
    0.2133   -0.1319    2.7814 O   0  0  0  0  0  0  0  0  0  0  0  0
   -1.8684    0.5006    3.3725 N   0  0  0  0  0  0  0  0  0  0  0  0
   -2.7946    0.7048    3.0343 H   0  0  0  0  0  0  0  0  0  0  0  0
   -1.5848    0.7472    4.7873 C   0  0  0  0  0  0  0  0  0  0  0  0
   -0.8819    1.5774    4.8838 H   0  0  0  0  0  0  0  0  0  0  0  0
   -2.5030    0.9948    5.3214 H   0  0  0  0  0  0  0  0  0  0  0  0
   -1.1344   -0.1399    5.2381 H   0  0  0  0  0  0  0  0  0  0  0  0
  5  6  2  0  0  0  0
  5  7  1  0  0  0  0
  2  3  1  0  0  0  0
  2  4  1  0  0  0  0
  2  5  1  0  0  0  0
  1  2  1  0  0  0  0
 29 30  2  0  0  0  0
 29 31  1  0  0  0  0
 26 27  1  0  0  0  0
 26 28  1  0  0  0  0
 23 24  1  0  0  0  0
 23 25  1  0  0  0  0
 22 23  1  0  0  0  0
 22 26  1  0  0  0  0
 20 21  1  0  0  0  0
 20 22  2  0  0  0  0
 17 18  1  0  0  0  0
 17 19  1  0  0  0  0
 17 20  1  0  0  0  0
 14 15  1  0  0  0  0
 14 16  1  0  0  0  0
 14 17  1  0  0  0  0
 11 12  1  0  0  0  0
 11 13  1  0  0  0  0
 11 14  1  0  0  0  0
  9 10  1  0  0  0  0
  9 11  1  0  0  0  0
  9 29  1  0  0  0  0
  7  8  1  0  0  0  0
  7  9  1  0  0  0  0
 33 34  1  0  0  0  0
 33 35  1  0  0  0  0
 33 36  1  0  0  0  0
 31 32  1  0  0  0  0
 31 33  1  0  0  0  0
M  CHG  1  20   1
M  END
$$$$
default_name
  -OEChem-02102213163D

 36 35  0     1  0  0  0  0  0999 V2000
   -4.2256   -3.6731    1.8584 H   0  0  0  0  0  0  0  0  0  0  0  0
   -4.2396   -2.6781    1.4144 C   0  0  0  0  0  0  0  0  0  0  0  0
   -4.9506   -2.0521    1.9514 H   0  0  0  0  0  0  0  0  0  0  0  0
   -4.5266   -2.7521    0.3674 H   0  0  0  0  0  0  0  0  0  0  0  0
   -2.8576   -2.0761    1.5184 C   0  0  0  0  0  0  0  0  0  0  0  0
   -1.9456   -2.7051    2.0404 O   0  0  0  0  0  0  0  0  0  0  0  0
   -2.6926   -0.8481    1.0174 N   0  0  0  0  0  0  0  0  0  0  0  0
   -3.4926   -0.3971    0.5954 H   0  0  0  0  0  0  0  0  0  0  0  0
   -1.4216   -0.1071    1.0434 C   0  0  1  0  0  0  0  0  0  0  0  0
   -0.6709   -0.6930    0.5106 H   0  0  0  0  0  0  0  0  0  0  0  0
   -1.6221    1.2315    0.3051 C   0  0  0  0  0  0  0  0  0  0  0  0
   -1.6732    2.0331    1.0448 H   0  0  0  0  0  0  0  0  0  0  0  0
   -0.7586    1.4176   -0.3373 H   0  0  0  0  0  0  0  0  0  0  0  0
   -2.9010    1.2759   -0.5437 C   0  0  0  0  0  0  0  0  0  0  0  0
   -3.6645    0.6394   -0.0942 H   0  0  0  0  0  0  0  0  0  0  0  0
   -3.2682    2.3017   -0.5894 H   0  0  0  0  0  0  0  0  0  0  0  0
   -2.6030    0.7767   -1.9641 C   0  0  0  0  0  0  0  0  0  0  0  0
   -1.8191    1.4028   -2.3964 H   0  0  0  0  0  0  0  0  0  0  0  0
   -2.2388   -0.2515   -1.9020 H   0  0  0  0  0  0  0  0  0  0  0  0
   -3.8027    0.8245   -2.8251 N   0  3  0  0  0  0  0  0  0  0  0  0
   -4.6594    1.1214   -2.3900 H   0  0  0  0  0  0  0  0  0  0  0  0
   -3.8556    0.5148   -4.1097 C   0  0  0  0  0  0  0  0  0  0  0  0
   -2.8045    0.1184   -4.7710 N   0  0  0  0  0  0  0  0  0  0  0  0
   -1.9267    0.0480   -4.2873 H   0  0  0  0  0  0  0  0  0  0  0  0
   -2.8620   -0.1132   -5.7457 H   0  0  0  0  0  0  0  0  0  0  0  0
   -4.9800    0.5974   -4.7626 N   0  0  0  0  0  0  0  0  0  0  0  0
   -5.8178    0.8986   -4.2954 H   0  0  0  0  0  0  0  0  0  0  0  0
   -5.0157    0.3616   -5.7371 H   0  0  0  0  0  0  0  0  0  0  0  0
   -0.9523    0.1012    2.4848 C   0  0  0  0  0  0  0  0  0  0  0  0
    0.2133   -0.1319    2.7814 O   0  0  0  0  0  0  0  0  0  0  0  0
   -1.8684    0.5006    3.3725 N   0  0  0  0  0  0  0  0  0  0  0  0
   -2.7946    0.7048    3.0343 H   0  0  0  0  0  0  0  0  0  0  0  0
   -1.5848    0.7472    4.7873 C   0  0  0  0  0  0  0  0  0  0  0  0
   -0.8819    1.5774    4.8838 H   0  0  0  0  0  0  0  0  0  0  0  0
   -2.5030    0.9948    5.3214 H   0  0  0  0  0  0  0  0  0  0  0  0
   -1.1344   -0.1399    5.2381 H   0  0  0  0  0  0  0  0  0  0  0  0
  5  6  2  0  0  0  0
  5  7  1  0  0  0  0
  2  3  1  0  0  0  0
  2  4  1  0  0  0  0
  2  5  1  0  0  0  0
  1  2  1  0  0  0  0
 29 30  2  0  0  0  0
 29 31  1  0  0  0  0
 26 27  1  0  0  0  0
 26 28  1  0  0  0  0
 23 24  1  0  0  0  0
 23 25  1  0  0  0  0
 22 23  1  0  0  0  0
 22 26  1  0  0  0  0
 20 21  1  0  0  0  0
 20 22  2  0  0  0  0
 17 18  1  0  0  0  0
 17 19  1  0  0  0  0
 17 20  1  0  0  0  0
 14 15  1  0  0  0  0
 14 16  1  0  0  0  0
 14 17  1  0  0  0  0
 11 12  1  0  0  0  0
 11 13  1  0  0  0  0
 11 14  1  0  0  0  0
  9 10  1  0  0  0  0
  9 11  1  0  0  0  0
  9 29  1  0  0  0  0
  7  8  1  0  0  0  0
  7  9  1  0  0  0  0
 33 34  1  0  0  0  0
 33 35  1  0  0  0  0
 33 36  1  0  0  0  0
 31 32  1  0  0  0  0
 31 33  1  0  0  0  0
M  CHG  1  20   1
M  END
$$$$
default_name
  -OEChem-02102213163D

 36 35  0     1  0  0  0  0  0999 V2000
   -4.2256   -3.6731    1.8584 H   0  0  0  0  0  0  0  0  0  0  0  0
   -4.2396   -2.6781    1.4144 C   0  0  0  0  0  0  0  0  0  0  0  0
   -4.9506   -2.0521    1.9514 H   0  0  0  0  0  0  0  0  0  0  0  0
   -4.5266   -2.7521    0.3674 H   0  0  0  0  0  0  0  0  0  0  0  0
   -2.8576   -2.0761    1.5184 C   0  0  0  0  0  0  0  0  0  0  0  0
   -1.9456   -2.7051    2.0404 O   0  0  0  0  0  0  0  0  0  0  0  0
   -2.6926   -0.8481    1.0174 N   0  0  0  0  0  0  0  0  0  0  0  0
   -3.4926   -0.3971    0.5954 H   0  0  0  0  0  0  0  0  0  0  0  0
   -1.4216   -0.1071    1.0434 C   0  0  1  0  0  0  0  0  0  0  0  0
   -0.6709   -0.6930    0.5106 H   0  0  0  0  0  0  0  0  0  0  0  0
   -1.6221    1.2315    0.3051 C   0  0  0  0  0  0  0  0  0  0  0  0
   -1.6732    2.0331    1.0448 H   0  0  0  0  0  0  0  0  0  0  0  0
   -0.7586    1.4176   -0.3373 H   0  0  0  0  0  0  0  0  0  0  0  0
   -2.9010    1.2759   -0.5437 C   0  0  0  0  0  0  0  0  0  0  0  0
   -3.7366    0.8676    0.0265 H   0  0  0  0  0  0  0  0  0  0  0  0
   -3.1195    2.3098   -0.8130 H   0  0  0  0  0  0  0  0  0  0  0  0
   -2.7100    0.4455   -1.8202 C   0  0  0  0  0  0  0  0  0  0  0  0
   -1.8553    0.8445   -2.3711 H   0  0  0  0  0  0  0  0  0  0  0  0
   -2.4945   -0.5868   -1.5344 H   0  0  0  0  0  0  0  0  0  0  0  0
   -3.9104    0.4791   -2.6809 N   0  3  0  0  0  0  0  0  0  0  0  0
   -4.7058    0.9827   -2.3274 H   0  0  0  0  0  0  0  0  0  0  0  0
   -4.0365   -0.0887   -3.8687 C   0  0  0  0  0  0  0  0  0  0  0  0
   -3.0681   -0.7650   -4.4200 N   0  0  0  0  0  0  0  0  0  0  0  0
   -2.1983   -0.8553   -3.9254 H   0  0  0  0  0  0  0  0  0  0  0  0
   -3.1805   -1.1900   -5.3221 H   0  0  0  0  0  0  0  0  0  0  0  0
   -5.1525    0.0125   -4.5332 N   0  0  0  0  0  0  0  0  0  0  0  0
   -5.9279    0.5245   -4.1490 H   0  0  0  0  0  0  0  0  0  0  0  0
   -5.2440   -0.4197   -5.4340 H   0  0  0  0  0  0  0  0  0  0  0  0
   -0.9523    0.1012    2.4848 C   0  0  0  0  0  0  0  0  0  0  0  0
    0.2133   -0.1319    2.7814 O   0  0  0  0  0  0  0  0  0  0  0  0
   -1.8684    0.5006    3.3725 N   0  0  0  0  0  0  0  0  0  0  0  0
   -2.7946    0.7048    3.0343 H   0  0  0  0  0  0  0  0  0  0  0  0
   -1.5848    0.7472    4.7873 C   0  0  0  0  0  0  0  0  0  0  0  0
   -0.8819    1.5774    4.8838 H   0  0  0  0  0  0  0  0  0  0  0  0
   -2.5030    0.9948    5.3214 H   0  0  0  0  0  0  0  0  0  0  0  0
   -1.1344   -0.1399    5.2381 H   0  0  0  0  0  0  0  0  0  0  0  0
  5  6  2  0  0  0  0
  5  7  1  0  0  0  0
  2  3  1  0  0  0  0
  2  4  1  0  0  0  0
  2  5  1  0  0  0  0
  1  2  1  0  0  0  0
 29 30  2  0  0  0  0
 29 31  1  0  0  0  0
 26 27  1  0  0  0  0
 26 28  1  0  0  0  0
 23 24  1  0  0  0  0
 23 25  1  0  0  0  0
 22 23  1  0  0  0  0
 22 26  1  0  0  0  0
 20 21  1  0  0  0  0
 20 22  2  0  0  0  0
 17 18  1  0  0  0  0
 17 19  1  0  0  0  0
 17 20  1  0  0  0  0
 14 15  1  0  0  0  0
 14 16  1  0  0  0  0
 14 17  1  0  0  0  0
 11 12  1  0  0  0  0
 11 13  1  0  0  0  0
 11 14  1  0  0  0  0
  9 10  1  0  0  0  0
  9 11  1  0  0  0  0
  9 29  1  0  0  0  0
  7  8  1  0  0  0  0
  7  9  1  0  0  0  0
 33 34  1  0  0  0  0
 33 35  1  0  0  0  0
 33 36  1  0  0  0  0
 31 32  1  0  0  0  0
 31 33  1  0  0  0  0
M  CHG  1  20   1
M  END
$$$$
default_name
  -OEChem-02102213163D

 36 35  0     1  0  0  0  0  0999 V2000
   -4.2256   -3.6731    1.8584 H   0  0  0  0  0  0  0  0  0  0  0  0
   -4.2396   -2.6781    1.4144 C   0  0  0  0  0  0  0  0  0  0  0  0
   -4.9506   -2.0521    1.9514 H   0  0  0  0  0  0  0  0  0  0  0  0
   -4.5266   -2.7521    0.3674 H   0  0  0  0  0  0  0  0  0  0  0  0
   -2.8576   -2.0761    1.5184 C   0  0  0  0  0  0  0  0  0  0  0  0
   -1.9456   -2.7051    2.0404 O   0  0  0  0  0  0  0  0  0  0  0  0
   -2.6926   -0.8481    1.0174 N   0  0  0  0  0  0  0  0  0  0  0  0
   -3.4926   -0.3971    0.5954 H   0  0  0  0  0  0  0  0  0  0  0  0
   -1.4216   -0.1071    1.0434 C   0  0  1  0  0  0  0  0  0  0  0  0
   -0.6709   -0.6930    0.5106 H   0  0  0  0  0  0  0  0  0  0  0  0
   -1.6221    1.2315    0.3051 C   0  0  0  0  0  0  0  0  0  0  0  0
   -1.6732    2.0331    1.0448 H   0  0  0  0  0  0  0  0  0  0  0  0
   -0.7586    1.4176   -0.3373 H   0  0  0  0  0  0  0  0  0  0  0  0
   -2.9010    1.2759   -0.5437 C   0  0  0  0  0  0  0  0  0  0  0  0
   -3.7728    1.1243    0.0944 H   0  0  0  0  0  0  0  0  0  0  0  0
   -2.9764    2.2481   -1.0318 H   0  0  0  0  0  0  0  0  0  0  0  0
   -2.8597    0.1718   -1.6089 C   0  0  0  0  0  0  0  0  0  0  0  0
   -1.9699    0.3158   -2.2261 H   0  0  0  0  0  0  0  0  0  0  0  0
   -2.7866   -0.7949   -1.1051 H   0  0  0  0  0  0  0  0  0  0  0  0
   -4.0627    0.1919   -2.4664 N   0  3  0  0  0  0  0  0  0  0  0  0
   -4.7700    0.8689   -2.2366 H   0  0  0  0  0  0  0  0  0  0  0  0
   -4.2958   -0.5937   -3.5044 C   0  0  0  0  0  0  0  0  0  0  0  0
   -3.4465   -1.5049   -3.8886 N   0  0  0  0  0  0  0  0  0  0  0  0
   -2.5871   -1.6109   -3.3791 H   0  0  0  0  0  0  0  0  0  0  0  0
   -3.6391   -2.0932   -4.6784 H   0  0  0  0  0  0  0  0  0  0  0  0
   -5.4012   -0.4783   -4.1842 N   0  0  0  0  0  0  0  0  0  0  0  0
   -6.0868    0.2104   -3.9262 H   0  0  0  0  0  0  0  0  0  0  0  0
   -5.5740   -1.0763   -4.9711 H   0  0  0  0  0  0  0  0  0  0  0  0
   -0.9523    0.1012    2.4848 C   0  0  0  0  0  0  0  0  0  0  0  0
    0.2133   -0.1319    2.7814 O   0  0  0  0  0  0  0  0  0  0  0  0
   -1.8684    0.5006    3.3725 N   0  0  0  0  0  0  0  0  0  0  0  0
   -2.7946    0.7048    3.0343 H   0  0  0  0  0  0  0  0  0  0  0  0
   -1.5848    0.7472    4.7873 C   0  0  0  0  0  0  0  0  0  0  0  0
   -0.8819    1.5774    4.8838 H   0  0  0  0  0  0  0  0  0  0  0  0
   -2.5030    0.9948    5.3214 H   0  0  0  0  0  0  0  0  0  0  0  0
   -1.1344   -0.1399    5.2381 H   0  0  0  0  0  0  0  0  0  0  0  0
  5  6  2  0  0  0  0
  5  7  1  0  0  0  0
  2  3  1  0  0  0  0
  2  4  1  0  0  0  0
  2  5  1  0  0  0  0
  1  2  1  0  0  0  0
 29 30  2  0  0  0  0
 29 31  1  0  0  0  0
 26 27  1  0  0  0  0
 26 28  1  0  0  0  0
 23 24  1  0  0  0  0
 23 25  1  0  0  0  0
 22 23  1  0  0  0  0
 22 26  1  0  0  0  0
 20 21  1  0  0  0  0
 20 22  2  0  0  0  0
 17 18  1  0  0  0  0
 17 19  1  0  0  0  0
 17 20  1  0  0  0  0
 14 15  1  0  0  0  0
 14 16  1  0  0  0  0
 14 17  1  0  0  0  0
 11 12  1  0  0  0  0
 11 13  1  0  0  0  0
 11 14  1  0  0  0  0
  9 10  1  0  0  0  0
  9 11  1  0  0  0  0
  9 29  1  0  0  0  0
  7  8  1  0  0  0  0
  7  9  1  0  0  0  0
 33 34  1  0  0  0  0
 33 35  1  0  0  0  0
 33 36  1  0  0  0  0
 31 32  1  0  0  0  0
 31 33  1  0  0  0  0
M  CHG  1  20   1
M  END
$$$$
default_name
  -OEChem-02102213163D

 36 35  0     1  0  0  0  0  0999 V2000
   -4.2256   -3.6731    1.8584 H   0  0  0  0  0  0  0  0  0  0  0  0
   -4.2396   -2.6781    1.4144 C   0  0  0  0  0  0  0  0  0  0  0  0
   -4.9506   -2.0521    1.9514 H   0  0  0  0  0  0  0  0  0  0  0  0
   -4.5266   -2.7521    0.3674 H   0  0  0  0  0  0  0  0  0  0  0  0
   -2.8576   -2.0761    1.5184 C   0  0  0  0  0  0  0  0  0  0  0  0
   -1.9456   -2.7051    2.0404 O   0  0  0  0  0  0  0  0  0  0  0  0
   -2.6926   -0.8481    1.0174 N   0  0  0  0  0  0  0  0  0  0  0  0
   -3.4926   -0.3971    0.5954 H   0  0  0  0  0  0  0  0  0  0  0  0
   -1.4216   -0.1071    1.0434 C   0  0  1  0  0  0  0  0  0  0  0  0
   -0.6709   -0.6930    0.5106 H   0  0  0  0  0  0  0  0  0  0  0  0
   -1.6221    1.2315    0.3051 C   0  0  0  0  0  0  0  0  0  0  0  0
   -1.6732    2.0331    1.0448 H   0  0  0  0  0  0  0  0  0  0  0  0
   -0.7586    1.4176   -0.3373 H   0  0  0  0  0  0  0  0  0  0  0  0
   -2.9010    1.2759   -0.5437 C   0  0  0  0  0  0  0  0  0  0  0  0
   -3.7704    1.3921    0.1049 H   0  0  0  0  0  0  0  0  0  0  0  0
   -2.8487    2.1209   -1.2310 H   0  0  0  0  0  0  0  0  0  0  0  0
   -3.0419   -0.0256   -1.3448 C   0  0  0  0  0  0  0  0  0  0  0  0
   -2.1552   -0.1472   -1.9712 H   0  0  0  0  0  0  0  0  0  0  0  0
   -3.0954   -0.8615   -0.6433 H   0  0  0  0  0  0  0  0  0  0  0  0
   -4.2493   -0.0174   -2.1962 N   0  3  0  0  0  0  0  0  0  0  0  0
   -4.8476    0.7876   -2.1239 H   0  0  0  0  0  0  0  0  0  0  0  0
   -4.6158   -0.9660   -3.0418 C   0  0  0  0  0  0  0  0  0  0  0  0
   -3.9139   -2.0510   -3.2130 N   0  0  0  0  0  0  0  0  0  0  0  0
   -3.0667   -2.1674   -2.6856 H   0  0  0  0  0  0  0  0  0  0  0  0
   -4.2064   -2.7613   -3.8586 H   0  0  0  0  0  0  0  0  0  0  0  0
   -5.7090   -0.8416   -3.7395 N   0  0  0  0  0  0  0  0  0  0  0  0
   -6.2834   -0.0222   -3.6420 H   0  0  0  0  0  0  0  0  0  0  0  0
   -5.9833   -1.5635   -4.3799 H   0  0  0  0  0  0  0  0  0  0  0  0
   -0.9523    0.1012    2.4848 C   0  0  0  0  0  0  0  0  0  0  0  0
    0.2133   -0.1319    2.7814 O   0  0  0  0  0  0  0  0  0  0  0  0
   -1.8684    0.5006    3.3725 N   0  0  0  0  0  0  0  0  0  0  0  0
   -2.7946    0.7048    3.0343 H   0  0  0  0  0  0  0  0  0  0  0  0
   -1.5848    0.7472    4.7873 C   0  0  0  0  0  0  0  0  0  0  0  0
   -0.8819    1.5774    4.8838 H   0  0  0  0  0  0  0  0  0  0  0  0
   -2.5030    0.9948    5.3214 H   0  0  0  0  0  0  0  0  0  0  0  0
   -1.1344   -0.1399    5.2381 H   0  0  0  0  0  0  0  0  0  0  0  0
  5  6  2  0  0  0  0
  5  7  1  0  0  0  0
  2  3  1  0  0  0  0
  2  4  1  0  0  0  0
  2  5  1  0  0  0  0
  1  2  1  0  0  0  0
 29 30  2  0  0  0  0
 29 31  1  0  0  0  0
 26 27  1  0  0  0  0
 26 28  1  0  0  0  0
 23 24  1  0  0  0  0
 23 25  1  0  0  0  0
 22 23  1  0  0  0  0
 22 26  1  0  0  0  0
 20 21  1  0  0  0  0
 20 22  2  0  0  0  0
 17 18  1  0  0  0  0
 17 19  1  0  0  0  0
 17 20  1  0  0  0  0
 14 15  1  0  0  0  0
 14 16  1  0  0  0  0
 14 17  1  0  0  0  0
 11 12  1  0  0  0  0
 11 13  1  0  0  0  0
 11 14  1  0  0  0  0
  9 10  1  0  0  0  0
  9 11  1  0  0  0  0
  9 29  1  0  0  0  0
  7  8  1  0  0  0  0
  7  9  1  0  0  0  0
 33 34  1  0  0  0  0
 33 35  1  0  0  0  0
 33 36  1  0  0  0  0
 31 32  1  0  0  0  0
 31 33  1  0  0  0  0
M  CHG  1  20   1
M  END
$$$$
default_name
  -OEChem-02102213163D

 36 35  0     1  0  0  0  0  0999 V2000
   -4.2256   -3.6731    1.8584 H   0  0  0  0  0  0  0  0  0  0  0  0
   -4.2396   -2.6781    1.4144 C   0  0  0  0  0  0  0  0  0  0  0  0
   -4.9506   -2.0521    1.9514 H   0  0  0  0  0  0  0  0  0  0  0  0
   -4.5266   -2.7521    0.3674 H   0  0  0  0  0  0  0  0  0  0  0  0
   -2.8576   -2.0761    1.5184 C   0  0  0  0  0  0  0  0  0  0  0  0
   -1.9456   -2.7051    2.0404 O   0  0  0  0  0  0  0  0  0  0  0  0
   -2.6926   -0.8481    1.0174 N   0  0  0  0  0  0  0  0  0  0  0  0
   -3.4926   -0.3971    0.5954 H   0  0  0  0  0  0  0  0  0  0  0  0
   -1.4216   -0.1071    1.0434 C   0  0  1  0  0  0  0  0  0  0  0  0
   -0.6709   -0.6930    0.5106 H   0  0  0  0  0  0  0  0  0  0  0  0
   -1.6221    1.2315    0.3051 C   0  0  0  0  0  0  0  0  0  0  0  0
   -1.6732    2.0331    1.0448 H   0  0  0  0  0  0  0  0  0  0  0  0
   -0.7586    1.4176   -0.3373 H   0  0  0  0  0  0  0  0  0  0  0  0
   -2.9010    1.2759   -0.5437 C   0  0  0  0  0  0  0  0  0  0  0  0
   -3.7298    1.6527    0.0573 H   0  0  0  0  0  0  0  0  0  0  0  0
   -2.7449    1.9368   -1.3969 H   0  0  0  0  0  0  0  0  0  0  0  0
   -3.2441   -0.1332   -1.0457 C   0  0  0  0  0  0  0  0  0  0  0  0
   -2.3985   -0.5130   -1.6238 H   0  0  0  0  0  0  0  0  0  0  0  0
   -3.3997   -0.7822   -0.1807 H   0  0  0  0  0  0  0  0  0  0  0  0
   -4.4575   -0.1347   -1.8887 N   0  3  0  0  0  0  0  0  0  0  0  0
   -4.9333    0.7446   -1.9970 H   0  0  0  0  0  0  0  0  0  0  0  0
   -4.9747   -1.1800   -2.5123 C   0  0  0  0  0  0  0  0  0  0  0  0
   -4.4384   -2.3659   -2.4392 N   0  0  0  0  0  0  0  0  0  0  0  0
   -3.6044   -2.4869   -1.8921 H   0  0  0  0  0  0  0  0  0  0  0  0
   -4.8439   -3.1488   -2.9184 H   0  0  0  0  0  0  0  0  0  0  0  0
   -6.0549   -1.0526   -3.2293 N   0  0  0  0  0  0  0  0  0  0  0  0
   -6.5046   -0.1575   -3.3159 H   0  0  0  0  0  0  0  0  0  0  0  0
   -6.4439   -1.8482   -3.7008 H   0  0  0  0  0  0  0  0  0  0  0  0
   -0.9523    0.1012    2.4848 C   0  0  0  0  0  0  0  0  0  0  0  0
    0.2133   -0.1319    2.7814 O   0  0  0  0  0  0  0  0  0  0  0  0
   -1.8684    0.5006    3.3725 N   0  0  0  0  0  0  0  0  0  0  0  0
   -2.7946    0.7048    3.0343 H   0  0  0  0  0  0  0  0  0  0  0  0
   -1.5848    0.7472    4.7873 C   0  0  0  0  0  0  0  0  0  0  0  0
   -0.8819    1.5774    4.8838 H   0  0  0  0  0  0  0  0  0  0  0  0
   -2.5030    0.9948    5.3214 H   0  0  0  0  0  0  0  0  0  0  0  0
   -1.1344   -0.1399    5.2381 H   0  0  0  0  0  0  0  0  0  0  0  0
  5  6  2  0  0  0  0
  5  7  1  0  0  0  0
  2  3  1  0  0  0  0
  2  4  1  0  0  0  0
  2  5  1  0  0  0  0
  1  2  1  0  0  0  0
 29 30  2  0  0  0  0
 29 31  1  0  0  0  0
 26 27  1  0  0  0  0
 26 28  1  0  0  0  0
 23 24  1  0  0  0  0
 23 25  1  0  0  0  0
 22 23  1  0  0  0  0
 22 26  1  0  0  0  0
 20 21  1  0  0  0  0
 20 22  2  0  0  0  0
 17 18  1  0  0  0  0
 17 19  1  0  0  0  0
 17 20  1  0  0  0  0
 14 15  1  0  0  0  0
 14 16  1  0  0  0  0
 14 17  1  0  0  0  0
 11 12  1  0  0  0  0
 11 13  1  0  0  0  0
 11 14  1  0  0  0  0
  9 10  1  0  0  0  0
  9 11  1  0  0  0  0
  9 29  1  0  0  0  0
  7  8  1  0  0  0  0
  7  9  1  0  0  0  0
 33 34  1  0  0  0  0
 33 35  1  0  0  0  0
 33 36  1  0  0  0  0
 31 32  1  0  0  0  0
 31 33  1  0  0  0  0
M  CHG  1  20   1
M  END
$$$$
default_name
  -OEChem-02102213163D

 36 35  0     1  0  0  0  0  0999 V2000
   -4.2256   -3.6731    1.8584 H   0  0  0  0  0  0  0  0  0  0  0  0
   -4.2396   -2.6781    1.4144 C   0  0  0  0  0  0  0  0  0  0  0  0
   -4.9506   -2.0521    1.9514 H   0  0  0  0  0  0  0  0  0  0  0  0
   -4.5266   -2.7521    0.3674 H   0  0  0  0  0  0  0  0  0  0  0  0
   -2.8576   -2.0761    1.5184 C   0  0  0  0  0  0  0  0  0  0  0  0
   -1.9456   -2.7051    2.0404 O   0  0  0  0  0  0  0  0  0  0  0  0
   -2.6926   -0.8481    1.0174 N   0  0  0  0  0  0  0  0  0  0  0  0
   -3.4926   -0.3971    0.5954 H   0  0  0  0  0  0  0  0  0  0  0  0
   -1.4216   -0.1071    1.0434 C   0  0  1  0  0  0  0  0  0  0  0  0
   -0.6709   -0.6930    0.5106 H   0  0  0  0  0  0  0  0  0  0  0  0
   -1.6221    1.2315    0.3051 C   0  0  0  0  0  0  0  0  0  0  0  0
   -1.6732    2.0331    1.0448 H   0  0  0  0  0  0  0  0  0  0  0  0
   -0.7586    1.4176   -0.3373 H   0  0  0  0  0  0  0  0  0  0  0  0
   -2.9010    1.2759   -0.5437 C   0  0  0  0  0  0  0  0  0  0  0  0
   -3.6536    1.8884   -0.0452 H   0  0  0  0  0  0  0  0  0  0  0  0
   -2.6723    1.7084   -1.5183 H   0  0  0  0  0  0  0  0  0  0  0  0
   -3.4526   -0.1438   -0.7322 C   0  0  0  0  0  0  0  0  0  0  0  0
   -2.6832   -0.7566   -1.2075 H   0  0  0  0  0  0  0  0  0  0  0  0
   -3.6788   -0.5623    0.2514 H   0  0  0  0  0  0  0  0  0  0  0  0
   -4.6731   -0.1519   -1.5648 N   0  3  0  0  0  0  0  0  0  0  0  0
   -5.0214    0.7427   -1.8644 H   0  0  0  0  0  0  0  0  0  0  0  0
   -5.3480   -1.2213   -1.9520 C   0  0  0  0  0  0  0  0  0  0  0  0
   -4.9843   -2.4283   -1.6200 N   0  0  0  0  0  0  0  0  0  0  0  0
   -4.1636   -2.5475   -1.0529 H   0  0  0  0  0  0  0  0  0  0  0  0
   -5.5080   -3.2292   -1.9219 H   0  0  0  0  0  0  0  0  0  0  0  0
   -6.4154   -1.0970   -2.6885 N   0  0  0  0  0  0  0  0  0  0  0  0
   -6.7351   -0.1862   -2.9701 H   0  0  0  0  0  0  0  0  0  0  0  0
   -6.9244   -1.9109   -2.9801 H   0  0  0  0  0  0  0  0  0  0  0  0
   -0.9523    0.1012    2.4848 C   0  0  0  0  0  0  0  0  0  0  0  0
    0.2133   -0.1319    2.7814 O   0  0  0  0  0  0  0  0  0  0  0  0
   -1.8684    0.5006    3.3725 N   0  0  0  0  0  0  0  0  0  0  0  0
   -2.7946    0.7048    3.0343 H   0  0  0  0  0  0  0  0  0  0  0  0
   -1.5848    0.7472    4.7873 C   0  0  0  0  0  0  0  0  0  0  0  0
   -0.8819    1.5774    4.8838 H   0  0  0  0  0  0  0  0  0  0  0  0
   -2.5030    0.9948    5.3214 H   0  0  0  0  0  0  0  0  0  0  0  0
   -1.1344   -0.1399    5.2381 H   0  0  0  0  0  0  0  0  0  0  0  0
  5  6  2  0  0  0  0
  5  7  1  0  0  0  0
  2  3  1  0  0  0  0
  2  4  1  0  0  0  0
  2  5  1  0  0  0  0
  1  2  1  0  0  0  0
 29 30  2  0  0  0  0
 29 31  1  0  0  0  0
 26 27  1  0  0  0  0
 26 28  1  0  0  0  0
 23 24  1  0  0  0  0
 23 25  1  0  0  0  0
 22 23  1  0  0  0  0
 22 26  1  0  0  0  0
 20 21  1  0  0  0  0
 20 22  2  0  0  0  0
 17 18  1  0  0  0  0
 17 19  1  0  0  0  0
 17 20  1  0  0  0  0
 14 15  1  0  0  0  0
 14 16  1  0  0  0  0
 14 17  1  0  0  0  0
 11 12  1  0  0  0  0
 11 13  1  0  0  0  0
 11 14  1  0  0  0  0
  9 10  1  0  0  0  0
  9 11  1  0  0  0  0
  9 29  1  0  0  0  0
  7  8  1  0  0  0  0
  7  9  1  0  0  0  0
 33 34  1  0  0  0  0
 33 35  1  0  0  0  0
 33 36  1  0  0  0  0
 31 32  1  0  0  0  0
 31 33  1  0  0  0  0
M  CHG  1  20   1
M  END
$$$$
default_name
  -OEChem-02102213163D

 36 35  0     1  0  0  0  0  0999 V2000
   -4.2256   -3.6731    1.8584 H   0  0  0  0  0  0  0  0  0  0  0  0
   -4.2396   -2.6781    1.4144 C   0  0  0  0  0  0  0  0  0  0  0  0
   -4.9506   -2.0521    1.9514 H   0  0  0  0  0  0  0  0  0  0  0  0
   -4.5266   -2.7521    0.3674 H   0  0  0  0  0  0  0  0  0  0  0  0
   -2.8576   -2.0761    1.5184 C   0  0  0  0  0  0  0  0  0  0  0  0
   -1.9456   -2.7051    2.0404 O   0  0  0  0  0  0  0  0  0  0  0  0
   -2.6926   -0.8481    1.0174 N   0  0  0  0  0  0  0  0  0  0  0  0
   -3.4926   -0.3971    0.5954 H   0  0  0  0  0  0  0  0  0  0  0  0
   -1.4216   -0.1071    1.0434 C   0  0  1  0  0  0  0  0  0  0  0  0
   -0.6709   -0.6930    0.5106 H   0  0  0  0  0  0  0  0  0  0  0  0
   -1.6221    1.2315    0.3051 C   0  0  0  0  0  0  0  0  0  0  0  0
   -1.6732    2.0331    1.0448 H   0  0  0  0  0  0  0  0  0  0  0  0
   -0.7586    1.4176   -0.3373 H   0  0  0  0  0  0  0  0  0  0  0  0
   -2.9010    1.2759   -0.5437 C   0  0  0  0  0  0  0  0  0  0  0  0
   -3.5471    2.0830   -0.1955 H   0  0  0  0  0  0  0  0  0  0  0  0
   -2.6358    1.4513   -1.5868 H   0  0  0  0  0  0  0  0  0  0  0  0
   -3.6532   -0.0567   -0.4254 C   0  0  0  0  0  0  0  0  0  0  0  0
   -2.9900   -0.8615   -0.7508 H   0  0  0  0  0  0  0  0  0  0  0  0
   -3.9138   -0.2169    0.6234 H   0  0  0  0  0  0  0  0  0  0  0  0
   -4.8813   -0.0679   -1.2466 N   0  3  0  0  0  0  0  0  0  0  0  0
   -5.1057    0.7819   -1.7353 H   0  0  0  0  0  0  0  0  0  0  0  0
   -5.7103   -1.0870   -1.3991 C   0  0  0  0  0  0  0  0  0  0  0  0
   -5.5144   -2.2338   -0.8111 N   0  0  0  0  0  0  0  0  0  0  0  0
   -4.7060   -2.3451   -0.2249 H   0  0  0  0  0  0  0  0  0  0  0  0
   -6.1535   -2.9970   -0.9372 H   0  0  0  0  0  0  0  0  0  0  0  0
   -6.7659   -0.9716   -2.1537 N   0  0  0  0  0  0  0  0  0  0  0  0
   -6.9593   -0.1065   -2.6282 H   0  0  0  0  0  0  0  0  0  0  0  0
   -7.3922   -1.7473   -2.2667 H   0  0  0  0  0  0  0  0  0  0  0  0
   -0.9523    0.1012    2.4848 C   0  0  0  0  0  0  0  0  0  0  0  0
    0.2133   -0.1319    2.7814 O   0  0  0  0  0  0  0  0  0  0  0  0
   -1.8684    0.5006    3.3725 N   0  0  0  0  0  0  0  0  0  0  0  0
   -2.7946    0.7048    3.0343 H   0  0  0  0  0  0  0  0  0  0  0  0
   -1.5848    0.7472    4.7873 C   0  0  0  0  0  0  0  0  0  0  0  0
   -0.8819    1.5774    4.8838 H   0  0  0  0  0  0  0  0  0  0  0  0
   -2.5030    0.9948    5.3214 H   0  0  0  0  0  0  0  0  0  0  0  0
   -1.1344   -0.1399    5.2381 H   0  0  0  0  0  0  0  0  0  0  0  0
  5  6  2  0  0  0  0
  5  7  1  0  0  0  0
  2  3  1  0  0  0  0
  2  4  1  0  0  0  0
  2  5  1  0  0  0  0
  1  2  1  0  0  0  0
 29 30  2  0  0  0  0
 29 31  1  0  0  0  0
 26 27  1  0  0  0  0
 26 28  1  0  0  0  0
 23 24  1  0  0  0  0
 23 25  1  0  0  0  0
 22 23  1  0  0  0  0
 22 26  1  0  0  0  0
 20 21  1  0  0  0  0
 20 22  2  0  0  0  0
 17 18  1  0  0  0  0
 17 19  1  0  0  0  0
 17 20  1  0  0  0  0
 14 15  1  0  0  0  0
 14 16  1  0  0  0  0
 14 17  1  0  0  0  0
 11 12  1  0  0  0  0
 11 13  1  0  0  0  0
 11 14  1  0  0  0  0
  9 10  1  0  0  0  0
  9 11  1  0  0  0  0
  9 29  1  0  0  0  0
  7  8  1  0  0  0  0
  7  9  1  0  0  0  0
 33 34  1  0  0  0  0
 33 35  1  0  0  0  0
 33 36  1  0  0  0  0
 31 32  1  0  0  0  0
 31 33  1  0  0  0  0
M  CHG  1  20   1
M  END
$$$$
default_name
  -OEChem-02102213163D

 36 35  0     1  0  0  0  0  0999 V2000
   -4.2256   -3.6731    1.8584 H   0  0  0  0  0  0  0  0  0  0  0  0
   -4.2396   -2.6781    1.4144 C   0  0  0  0  0  0  0  0  0  0  0  0
   -4.9506   -2.0521    1.9514 H   0  0  0  0  0  0  0  0  0  0  0  0
   -4.5266   -2.7521    0.3674 H   0  0  0  0  0  0  0  0  0  0  0  0
   -2.8576   -2.0761    1.5184 C   0  0  0  0  0  0  0  0  0  0  0  0
   -1.9456   -2.7051    2.0404 O   0  0  0  0  0  0  0  0  0  0  0  0
   -2.6926   -0.8481    1.0174 N   0  0  0  0  0  0  0  0  0  0  0  0
   -3.4926   -0.3971    0.5954 H   0  0  0  0  0  0  0  0  0  0  0  0
   -1.4216   -0.1071    1.0434 C   0  0  1  0  0  0  0  0  0  0  0  0
   -0.6709   -0.6930    0.5106 H   0  0  0  0  0  0  0  0  0  0  0  0
   -1.6221    1.2315    0.3051 C   0  0  0  0  0  0  0  0  0  0  0  0
   -1.6732    2.0331    1.0448 H   0  0  0  0  0  0  0  0  0  0  0  0
   -0.7586    1.4176   -0.3373 H   0  0  0  0  0  0  0  0  0  0  0  0
   -2.9010    1.2759   -0.5437 C   0  0  0  0  0  0  0  0  0  0  0  0
   -3.4175    2.2233   -0.3834 H   0  0  0  0  0  0  0  0  0  0  0  0
   -2.6378    1.1828   -1.5978 H   0  0  0  0  0  0  0  0  0  0  0  0
   -3.8321    0.1224   -0.1464 C   0  0  0  0  0  0  0  0  0  0  0  0
   -3.2979   -0.8204   -0.2847 H   0  0  0  0  0  0  0  0  0  0  0  0
   -4.0885    0.2306    0.9101 H   0  0  0  0  0  0  0  0  0  0  0  0
   -5.0681    0.1117   -0.9558 N   0  3  0  0  0  0  0  0  0  0  0  0
   -5.1805    0.8598   -1.6185 H   0  0  0  0  0  0  0  0  0  0  0  0
   -6.0369   -0.7862   -0.8912 C   0  0  0  0  0  0  0  0  0  0  0  0
   -5.9925   -1.7958   -0.0678 N   0  0  0  0  0  0  0  0  0  0  0  0
   -5.1949   -1.8936    0.5352 H   0  0  0  0  0  0  0  0  0  0  0  0
   -6.7365   -2.4681   -0.0312 H   0  0  0  0  0  0  0  0  0  0  0  0
   -7.0826   -0.6852   -1.6617 N   0  0  0  0  0  0  0  0  0  0  0  0
   -7.1618    0.0763   -2.3134 H   0  0  0  0  0  0  0  0  0  0  0  0
   -7.8153   -1.3686   -1.6095 H   0  0  0  0  0  0  0  0  0  0  0  0
   -0.9523    0.1012    2.4848 C   0  0  0  0  0  0  0  0  0  0  0  0
    0.2133   -0.1319    2.7814 O   0  0  0  0  0  0  0  0  0  0  0  0
   -1.8684    0.5006    3.3725 N   0  0  0  0  0  0  0  0  0  0  0  0
   -2.7946    0.7048    3.0343 H   0  0  0  0  0  0  0  0  0  0  0  0
   -1.5848    0.7472    4.7873 C   0  0  0  0  0  0  0  0  0  0  0  0
   -0.8819    1.5774    4.8838 H   0  0  0  0  0  0  0  0  0  0  0  0
   -2.5030    0.9948    5.3214 H   0  0  0  0  0  0  0  0  0  0  0  0
   -1.1344   -0.1399    5.2381 H   0  0  0  0  0  0  0  0  0  0  0  0
  5  6  2  0  0  0  0
  5  7  1  0  0  0  0
  2  3  1  0  0  0  0
  2  4  1  0  0  0  0
  2  5  1  0  0  0  0
  1  2  1  0  0  0  0
 29 30  2  0  0  0  0
 29 31  1  0  0  0  0
 26 27  1  0  0  0  0
 26 28  1  0  0  0  0
 23 24  1  0  0  0  0
 23 25  1  0  0  0  0
 22 23  1  0  0  0  0
 22 26  1  0  0  0  0
 20 21  1  0  0  0  0
 20 22  2  0  0  0  0
 17 18  1  0  0  0  0
 17 19  1  0  0  0  0
 17 20  1  0  0  0  0
 14 15  1  0  0  0  0
 14 16  1  0  0  0  0
 14 17  1  0  0  0  0
 11 12  1  0  0  0  0
 11 13  1  0  0  0  0
 11 14  1  0  0  0  0
  9 10  1  0  0  0  0
  9 11  1  0  0  0  0
  9 29  1  0  0  0  0
  7  8  1  0  0  0  0
  7  9  1  0  0  0  0
 33 34  1  0  0  0  0
 33 35  1  0  0  0  0
 33 36  1  0  0  0  0
 31 32  1  0  0  0  0
 31 33  1  0  0  0  0
M  CHG  1  20   1
M  END
$$$$
default_name
  -OEChem-02102213163D

 36 35  0     1  0  0  0  0  0999 V2000
   -4.2256   -3.6731    1.8584 H   0  0  0  0  0  0  0  0  0  0  0  0
   -4.2396   -2.6781    1.4144 C   0  0  0  0  0  0  0  0  0  0  0  0
   -4.9506   -2.0521    1.9514 H   0  0  0  0  0  0  0  0  0  0  0  0
   -4.5266   -2.7521    0.3674 H   0  0  0  0  0  0  0  0  0  0  0  0
   -2.8576   -2.0761    1.5184 C   0  0  0  0  0  0  0  0  0  0  0  0
   -1.9456   -2.7051    2.0404 O   0  0  0  0  0  0  0  0  0  0  0  0
   -2.6926   -0.8481    1.0174 N   0  0  0  0  0  0  0  0  0  0  0  0
   -3.4926   -0.3971    0.5954 H   0  0  0  0  0  0  0  0  0  0  0  0
   -1.4216   -0.1071    1.0434 C   0  0  1  0  0  0  0  0  0  0  0  0
   -0.6709   -0.6930    0.5106 H   0  0  0  0  0  0  0  0  0  0  0  0
   -1.6221    1.2315    0.3051 C   0  0  0  0  0  0  0  0  0  0  0  0
   -1.6732    2.0331    1.0448 H   0  0  0  0  0  0  0  0  0  0  0  0
   -0.7586    1.4176   -0.3373 H   0  0  0  0  0  0  0  0  0  0  0  0
   -2.9010    1.2759   -0.5437 C   0  0  0  0  0  0  0  0  0  0  0  0
   -3.2736    2.2999   -0.5962 H   0  0  0  0  0  0  0  0  0  0  0  0
   -2.6782    0.9215   -1.5506 H   0  0  0  0  0  0  0  0  0  0  0  0
   -3.9773    0.3810    0.0858 C   0  0  0  0  0  0  0  0  0  0  0  0
   -3.5859   -0.6362    0.1589 H   0  0  0  0  0  0  0  0  0  0  0  0
   -4.1911    0.7497    1.0918 H   0  0  0  0  0  0  0  0  0  0  0  0
   -5.2206    0.3745   -0.7123 N   0  3  0  0  0  0  0  0  0  0  0  0
   -5.2408    0.9708   -1.5218 H   0  0  0  0  0  0  0  0  0  0  0  0
   -6.3055   -0.3395   -0.4631 C   0  0  0  0  0  0  0  0  0  0  0  0
   -6.3861   -1.1441    0.5594 N   0  0  0  0  0  0  0  0  0  0  0  0
   -5.5968   -1.2236    1.1758 H   0  0  0  0  0  0  0  0  0  0  0  0
   -7.2171   -1.6786    0.7343 H   0  0  0  0  0  0  0  0  0  0  0  0
   -7.3438   -0.2571   -1.2457 N   0  0  0  0  0  0  0  0  0  0  0  0
   -7.3290    0.3497   -2.0473 H   0  0  0  0  0  0  0  0  0  0  0  0
   -8.1648   -0.8006   -1.0531 H   0  0  0  0  0  0  0  0  0  0  0  0
   -0.9523    0.1012    2.4848 C   0  0  0  0  0  0  0  0  0  0  0  0
    0.2133   -0.1319    2.7814 O   0  0  0  0  0  0  0  0  0  0  0  0
   -1.8684    0.5006    3.3725 N   0  0  0  0  0  0  0  0  0  0  0  0
   -2.7946    0.7048    3.0343 H   0  0  0  0  0  0  0  0  0  0  0  0
   -1.5848    0.7472    4.7873 C   0  0  0  0  0  0  0  0  0  0  0  0
   -0.8819    1.5774    4.8838 H   0  0  0  0  0  0  0  0  0  0  0  0
   -2.5030    0.9948    5.3214 H   0  0  0  0  0  0  0  0  0  0  0  0
   -1.1344   -0.1399    5.2381 H   0  0  0  0  0  0  0  0  0  0  0  0
  5  6  2  0  0  0  0
  5  7  1  0  0  0  0
  2  3  1  0  0  0  0
  2  4  1  0  0  0  0
  2  5  1  0  0  0  0
  1  2  1  0  0  0  0
 29 30  2  0  0  0  0
 29 31  1  0  0  0  0
 26 27  1  0  0  0  0
 26 28  1  0  0  0  0
 23 24  1  0  0  0  0
 23 25  1  0  0  0  0
 22 23  1  0  0  0  0
 22 26  1  0  0  0  0
 20 21  1  0  0  0  0
 20 22  2  0  0  0  0
 17 18  1  0  0  0  0
 17 19  1  0  0  0  0
 17 20  1  0  0  0  0
 14 15  1  0  0  0  0
 14 16  1  0  0  0  0
 14 17  1  0  0  0  0
 11 12  1  0  0  0  0
 11 13  1  0  0  0  0
 11 14  1  0  0  0  0
  9 10  1  0  0  0  0
  9 11  1  0  0  0  0
  9 29  1  0  0  0  0
  7  8  1  0  0  0  0
  7  9  1  0  0  0  0
 33 34  1  0  0  0  0
 33 35  1  0  0  0  0
 33 36  1  0  0  0  0
 31 32  1  0  0  0  0
 31 33  1  0  0  0  0
M  CHG  1  20   1
M  END
$$$$
default_name
  -OEChem-02102213163D

 36 35  0     1  0  0  0  0  0999 V2000
   -4.2256   -3.6731    1.8584 H   0  0  0  0  0  0  0  0  0  0  0  0
   -4.2396   -2.6781    1.4144 C   0  0  0  0  0  0  0  0  0  0  0  0
   -4.9506   -2.0521    1.9514 H   0  0  0  0  0  0  0  0  0  0  0  0
   -4.5266   -2.7521    0.3674 H   0  0  0  0  0  0  0  0  0  0  0  0
   -2.8576   -2.0761    1.5184 C   0  0  0  0  0  0  0  0  0  0  0  0
   -1.9456   -2.7051    2.0404 O   0  0  0  0  0  0  0  0  0  0  0  0
   -2.6926   -0.8481    1.0174 N   0  0  0  0  0  0  0  0  0  0  0  0
   -3.4926   -0.3971    0.5954 H   0  0  0  0  0  0  0  0  0  0  0  0
   -1.4216   -0.1071    1.0434 C   0  0  1  0  0  0  0  0  0  0  0  0
   -0.6709   -0.6930    0.5106 H   0  0  0  0  0  0  0  0  0  0  0  0
   -1.6221    1.2315    0.3051 C   0  0  0  0  0  0  0  0  0  0  0  0
   -1.6732    2.0331    1.0448 H   0  0  0  0  0  0  0  0  0  0  0  0
   -0.7586    1.4176   -0.3373 H   0  0  0  0  0  0  0  0  0  0  0  0
   -2.9010    1.2759   -0.5437 C   0  0  0  0  0  0  0  0  0  0  0  0
   -3.1253    2.3073   -0.8193 H   0  0  0  0  0  0  0  0  0  0  0  0
   -2.7543    0.6850   -1.4484 H   0  0  0  0  0  0  0  0  0  0  0  0
   -4.0788    0.7017    0.2555 C   0  0  0  0  0  0  0  0  0  0  0  0
   -3.8345   -0.3215    0.5499 H   0  0  0  0  0  0  0  0  0  0  0  0
   -4.2146    1.3049    1.1563 H   0  0  0  0  0  0  0  0  0  0  0  0
   -5.3285    0.7027   -0.5325 N   0  3  0  0  0  0  0  0  0  0  0  0
   -5.2825    1.1076   -1.4519 H   0  0  0  0  0  0  0  0  0  0  0  0
   -6.4979    0.2227   -0.1438 C   0  0  0  0  0  0  0  0  0  0  0  0
   -6.6684   -0.3230    1.0277 N   0  0  0  0  0  0  0  0  0  0  0  0
   -5.8843   -0.3809    1.6531 H   0  0  0  0  0  0  0  0  0  0  0  0
   -7.5627   -0.6822    1.3072 H   0  0  0  0  0  0  0  0  0  0  0  0
   -7.5318    0.2834   -0.9342 N   0  0  0  0  0  0  0  0  0  0  0  0
   -7.4493    0.6951   -1.8478 H   0  0  0  0  0  0  0  0  0  0  0  0
   -8.4170   -0.0821   -0.6355 H   0  0  0  0  0  0  0  0  0  0  0  0
   -0.9523    0.1012    2.4848 C   0  0  0  0  0  0  0  0  0  0  0  0
    0.2133   -0.1319    2.7814 O   0  0  0  0  0  0  0  0  0  0  0  0
   -1.8684    0.5006    3.3725 N   0  0  0  0  0  0  0  0  0  0  0  0
   -2.7946    0.7048    3.0343 H   0  0  0  0  0  0  0  0  0  0  0  0
   -1.5848    0.7472    4.7873 C   0  0  0  0  0  0  0  0  0  0  0  0
   -0.8819    1.5774    4.8838 H   0  0  0  0  0  0  0  0  0  0  0  0
   -2.5030    0.9948    5.3214 H   0  0  0  0  0  0  0  0  0  0  0  0
   -1.1344   -0.1399    5.2381 H   0  0  0  0  0  0  0  0  0  0  0  0
  5  6  2  0  0  0  0
  5  7  1  0  0  0  0
  2  3  1  0  0  0  0
  2  4  1  0  0  0  0
  2  5  1  0  0  0  0
  1  2  1  0  0  0  0
 29 30  2  0  0  0  0
 29 31  1  0  0  0  0
 26 27  1  0  0  0  0
 26 28  1  0  0  0  0
 23 24  1  0  0  0  0
 23 25  1  0  0  0  0
 22 23  1  0  0  0  0
 22 26  1  0  0  0  0
 20 21  1  0  0  0  0
 20 22  2  0  0  0  0
 17 18  1  0  0  0  0
 17 19  1  0  0  0  0
 17 20  1  0  0  0  0
 14 15  1  0  0  0  0
 14 16  1  0  0  0  0
 14 17  1  0  0  0  0
 11 12  1  0  0  0  0
 11 13  1  0  0  0  0
 11 14  1  0  0  0  0
  9 10  1  0  0  0  0
  9 11  1  0  0  0  0
  9 29  1  0  0  0  0
  7  8  1  0  0  0  0
  7  9  1  0  0  0  0
 33 34  1  0  0  0  0
 33 35  1  0  0  0  0
 33 36  1  0  0  0  0
 31 32  1  0  0  0  0
 31 33  1  0  0  0  0
M  CHG  1  20   1
M  END
$$$$
default_name
  -OEChem-02102213163D

 36 35  0     1  0  0  0  0  0999 V2000
   -4.2256   -3.6731    1.8584 H   0  0  0  0  0  0  0  0  0  0  0  0
   -4.2396   -2.6781    1.4144 C   0  0  0  0  0  0  0  0  0  0  0  0
   -4.9506   -2.0521    1.9514 H   0  0  0  0  0  0  0  0  0  0  0  0
   -4.5266   -2.7521    0.3674 H   0  0  0  0  0  0  0  0  0  0  0  0
   -2.8576   -2.0761    1.5184 C   0  0  0  0  0  0  0  0  0  0  0  0
   -1.9456   -2.7051    2.0404 O   0  0  0  0  0  0  0  0  0  0  0  0
   -2.6926   -0.8481    1.0174 N   0  0  0  0  0  0  0  0  0  0  0  0
   -3.4926   -0.3971    0.5954 H   0  0  0  0  0  0  0  0  0  0  0  0
   -1.4216   -0.1071    1.0434 C   0  0  1  0  0  0  0  0  0  0  0  0
   -0.6709   -0.6930    0.5106 H   0  0  0  0  0  0  0  0  0  0  0  0
   -1.6221    1.2315    0.3051 C   0  0  0  0  0  0  0  0  0  0  0  0
   -1.6732    2.0331    1.0448 H   0  0  0  0  0  0  0  0  0  0  0  0
   -0.7586    1.4176   -0.3373 H   0  0  0  0  0  0  0  0  0  0  0  0
   -2.9010    1.2759   -0.5437 C   0  0  0  0  0  0  0  0  0  0  0  0
   -2.9826    2.2452   -1.0375 H   0  0  0  0  0  0  0  0  0  0  0  0
   -2.8608    0.4895   -1.2981 H   0  0  0  0  0  0  0  0  0  0  0  0
   -4.1296    1.0626    0.3510 C   0  0  0  0  0  0  0  0  0  0  0  0
   -4.0266    0.1023    0.8615 H   0  0  0  0  0  0  0  0  0  0  0  0
   -4.1574    1.8584    1.0990 H   0  0  0  0  0  0  0  0  0  0  0  0
   -5.3844    1.0739   -0.4288 N   0  3  0  0  0  0  0  0  0  0  0  0
   -5.3026    1.2607   -1.4136 H   0  0  0  0  0  0  0  0  0  0  0  0
   -6.6009    0.8620    0.0448 C   0  0  0  0  0  0  0  0  0  0  0  0
   -6.8201    0.6113    1.3051 N   0  0  0  0  0  0  0  0  0  0  0  0
   -6.0379    0.5771    1.9347 H   0  0  0  0  0  0  0  0  0  0  0  0
   -7.7497    0.4532    1.6483 H   0  0  0  0  0  0  0  0  0  0  0  0
   -7.6336    0.8995   -0.7485 N   0  0  0  0  0  0  0  0  0  0  0  0
   -7.5147    1.0889   -1.7288 H   0  0  0  0  0  0  0  0  0  0  0  0
   -8.5548    0.7381   -0.3851 H   0  0  0  0  0  0  0  0  0  0  0  0
   -0.9523    0.1012    2.4848 C   0  0  0  0  0  0  0  0  0  0  0  0
    0.2133   -0.1319    2.7814 O   0  0  0  0  0  0  0  0  0  0  0  0
   -1.8684    0.5006    3.3725 N   0  0  0  0  0  0  0  0  0  0  0  0
   -2.7946    0.7048    3.0343 H   0  0  0  0  0  0  0  0  0  0  0  0
   -1.5848    0.7472    4.7873 C   0  0  0  0  0  0  0  0  0  0  0  0
   -0.8819    1.5774    4.8838 H   0  0  0  0  0  0  0  0  0  0  0  0
   -2.5030    0.9948    5.3214 H   0  0  0  0  0  0  0  0  0  0  0  0
   -1.1344   -0.1399    5.2381 H   0  0  0  0  0  0  0  0  0  0  0  0
  5  6  2  0  0  0  0
  5  7  1  0  0  0  0
  2  3  1  0  0  0  0
  2  4  1  0  0  0  0
  2  5  1  0  0  0  0
  1  2  1  0  0  0  0
 29 30  2  0  0  0  0
 29 31  1  0  0  0  0
 26 27  1  0  0  0  0
 26 28  1  0  0  0  0
 23 24  1  0  0  0  0
 23 25  1  0  0  0  0
 22 23  1  0  0  0  0
 22 26  1  0  0  0  0
 20 21  1  0  0  0  0
 20 22  2  0  0  0  0
 17 18  1  0  0  0  0
 17 19  1  0  0  0  0
 17 20  1  0  0  0  0
 14 15  1  0  0  0  0
 14 16  1  0  0  0  0
 14 17  1  0  0  0  0
 11 12  1  0  0  0  0
 11 13  1  0  0  0  0
 11 14  1  0  0  0  0
  9 10  1  0  0  0  0
  9 11  1  0  0  0  0
  9 29  1  0  0  0  0
  7  8  1  0  0  0  0
  7  9  1  0  0  0  0
 33 34  1  0  0  0  0
 33 35  1  0  0  0  0
 33 36  1  0  0  0  0
 31 32  1  0  0  0  0
 31 33  1  0  0  0  0
M  CHG  1  20   1
M  END
$$$$
default_name
  -OEChem-02102213163D

 36 35  0     1  0  0  0  0  0999 V2000
   -4.2256   -3.6731    1.8584 H   0  0  0  0  0  0  0  0  0  0  0  0
   -4.2396   -2.6781    1.4144 C   0  0  0  0  0  0  0  0  0  0  0  0
   -4.9506   -2.0521    1.9514 H   0  0  0  0  0  0  0  0  0  0  0  0
   -4.5266   -2.7521    0.3674 H   0  0  0  0  0  0  0  0  0  0  0  0
   -2.8576   -2.0761    1.5184 C   0  0  0  0  0  0  0  0  0  0  0  0
   -1.9456   -2.7051    2.0404 O   0  0  0  0  0  0  0  0  0  0  0  0
   -2.6926   -0.8481    1.0174 N   0  0  0  0  0  0  0  0  0  0  0  0
   -3.4926   -0.3971    0.5954 H   0  0  0  0  0  0  0  0  0  0  0  0
   -1.4216   -0.1071    1.0434 C   0  0  1  0  0  0  0  0  0  0  0  0
   -0.6709   -0.6930    0.5106 H   0  0  0  0  0  0  0  0  0  0  0  0
   -1.6221    1.2315    0.3051 C   0  0  0  0  0  0  0  0  0  0  0  0
   -1.6732    2.0331    1.0448 H   0  0  0  0  0  0  0  0  0  0  0  0
   -0.7586    1.4176   -0.3373 H   0  0  0  0  0  0  0  0  0  0  0  0
   -2.9010    1.2759   -0.5437 C   0  0  0  0  0  0  0  0  0  0  0  0
   -2.8553    2.1178   -1.2360 H   0  0  0  0  0  0  0  0  0  0  0  0
   -2.9906    0.3483   -1.1099 H   0  0  0  0  0  0  0  0  0  0  0  0
   -4.1264    1.4390    0.3658 C   0  0  0  0  0  0  0  0  0  0  0  0
   -4.1493    0.6064    1.0727 H   0  0  0  0  0  0  0  0  0  0  0  0
   -4.0233    2.3725    0.9240 H   0  0  0  0  0  0  0  0  0  0  0  0
   -5.3846    1.4629   -0.4083 N   0  3  0  0  0  0  0  0  0  0  0  0
   -5.2998    1.4198   -1.4094 H   0  0  0  0  0  0  0  0  0  0  0  0
   -6.6075    1.5350    0.0900 C   0  0  0  0  0  0  0  0  0  0  0  0
   -6.8309    1.5954    1.3728 N   0  0  0  0  0  0  0  0  0  0  0  0
   -6.0472    1.5851    2.0014 H   0  0  0  0  0  0  0  0  0  0  0  0
   -7.7653    1.6501    1.7344 H   0  0  0  0  0  0  0  0  0  0  0  0
   -7.6425    1.5493   -0.7011 N   0  0  0  0  0  0  0  0  0  0  0  0
   -7.5206    1.5043   -1.6982 H   0  0  0  0  0  0  0  0  0  0  0  0
   -8.5686    1.6040   -0.3190 H   0  0  0  0  0  0  0  0  0  0  0  0
   -0.9523    0.1012    2.4848 C   0  0  0  0  0  0  0  0  0  0  0  0
    0.2133   -0.1319    2.7814 O   0  0  0  0  0  0  0  0  0  0  0  0
   -1.8684    0.5006    3.3725 N   0  0  0  0  0  0  0  0  0  0  0  0
   -2.7946    0.7048    3.0343 H   0  0  0  0  0  0  0  0  0  0  0  0
   -1.5848    0.7472    4.7873 C   0  0  0  0  0  0  0  0  0  0  0  0
   -0.8819    1.5774    4.8838 H   0  0  0  0  0  0  0  0  0  0  0  0
   -2.5030    0.9948    5.3214 H   0  0  0  0  0  0  0  0  0  0  0  0
   -1.1344   -0.1399    5.2381 H   0  0  0  0  0  0  0  0  0  0  0  0
  5  6  2  0  0  0  0
  5  7  1  0  0  0  0
  2  3  1  0  0  0  0
  2  4  1  0  0  0  0
  2  5  1  0  0  0  0
  1  2  1  0  0  0  0
 29 30  2  0  0  0  0
 29 31  1  0  0  0  0
 26 27  1  0  0  0  0
 26 28  1  0  0  0  0
 23 24  1  0  0  0  0
 23 25  1  0  0  0  0
 22 23  1  0  0  0  0
 22 26  1  0  0  0  0
 20 21  1  0  0  0  0
 20 22  2  0  0  0  0
 17 18  1  0  0  0  0
 17 19  1  0  0  0  0
 17 20  1  0  0  0  0
 14 15  1  0  0  0  0
 14 16  1  0  0  0  0
 14 17  1  0  0  0  0
 11 12  1  0  0  0  0
 11 13  1  0  0  0  0
 11 14  1  0  0  0  0
  9 10  1  0  0  0  0
  9 11  1  0  0  0  0
  9 29  1  0  0  0  0
  7  8  1  0  0  0  0
  7  9  1  0  0  0  0
 33 34  1  0  0  0  0
 33 35  1  0  0  0  0
 33 36  1  0  0  0  0
 31 32  1  0  0  0  0
 31 33  1  0  0  0  0
M  CHG  1  20   1
M  END
$$$$
default_name
  -OEChem-02102213163D

 36 35  0     1  0  0  0  0  0999 V2000
   -4.2256   -3.6731    1.8584 H   0  0  0  0  0  0  0  0  0  0  0  0
   -4.2396   -2.6781    1.4144 C   0  0  0  0  0  0  0  0  0  0  0  0
   -4.9506   -2.0521    1.9514 H   0  0  0  0  0  0  0  0  0  0  0  0
   -4.5266   -2.7521    0.3674 H   0  0  0  0  0  0  0  0  0  0  0  0
   -2.8576   -2.0761    1.5184 C   0  0  0  0  0  0  0  0  0  0  0  0
   -1.9456   -2.7051    2.0404 O   0  0  0  0  0  0  0  0  0  0  0  0
   -2.6926   -0.8481    1.0174 N   0  0  0  0  0  0  0  0  0  0  0  0
   -3.4926   -0.3971    0.5954 H   0  0  0  0  0  0  0  0  0  0  0  0
   -1.4216   -0.1071    1.0434 C   0  0  1  0  0  0  0  0  0  0  0  0
   -0.6709   -0.6930    0.5106 H   0  0  0  0  0  0  0  0  0  0  0  0
   -1.6221    1.2315    0.3051 C   0  0  0  0  0  0  0  0  0  0  0  0
   -1.6732    2.0331    1.0448 H   0  0  0  0  0  0  0  0  0  0  0  0
   -0.7586    1.4176   -0.3373 H   0  0  0  0  0  0  0  0  0  0  0  0
   -2.9010    1.2759   -0.5437 C   0  0  0  0  0  0  0  0  0  0  0  0
   -2.7521    1.9337   -1.4011 H   0  0  0  0  0  0  0  0  0  0  0  0
   -3.1347    0.2710   -0.8968 H   0  0  0  0  0  0  0  0  0  0  0  0
   -4.0693    1.8053    0.2990 C   0  0  0  0  0  0  0  0  0  0  0  0
   -4.1940    1.1563    1.1689 H   0  0  0  0  0  0  0  0  0  0  0  0
   -3.8216    2.8123    0.6430 H   0  0  0  0  0  0  0  0  0  0  0  0
   -5.3289    1.8430   -0.4722 N   0  3  0  0  0  0  0  0  0  0  0  0
   -5.2744    1.5739   -1.4397 H   0  0  0  0  0  0  0  0  0  0  0  0
   -6.5173    2.1958   -0.0114 C   0  0  0  0  0  0  0  0  0  0  0  0
   -6.7000    2.5620    1.2262 N   0  0  0  0  0  0  0  0  0  0  0  0
   -5.9114    2.5745    1.8485 H   0  0  0  0  0  0  0  0  0  0  0  0
   -7.6085    2.8271    1.5598 H   0  0  0  0  0  0  0  0  0  0  0  0
   -7.5578    2.1883   -0.7954 N   0  0  0  0  0  0  0  0  0  0  0  0
   -7.4666    1.9130   -1.7581 H   0  0  0  0  0  0  0  0  0  0  0  0
   -8.4575    2.4566   -0.4417 H   0  0  0  0  0  0  0  0  0  0  0  0
   -0.9523    0.1012    2.4848 C   0  0  0  0  0  0  0  0  0  0  0  0
    0.2133   -0.1319    2.7814 O   0  0  0  0  0  0  0  0  0  0  0  0
   -1.8684    0.5006    3.3725 N   0  0  0  0  0  0  0  0  0  0  0  0
   -2.7946    0.7048    3.0343 H   0  0  0  0  0  0  0  0  0  0  0  0
   -1.5848    0.7472    4.7873 C   0  0  0  0  0  0  0  0  0  0  0  0
   -0.8819    1.5774    4.8838 H   0  0  0  0  0  0  0  0  0  0  0  0
   -2.5030    0.9948    5.3214 H   0  0  0  0  0  0  0  0  0  0  0  0
   -1.1344   -0.1399    5.2381 H   0  0  0  0  0  0  0  0  0  0  0  0
  5  6  2  0  0  0  0
  5  7  1  0  0  0  0
  2  3  1  0  0  0  0
  2  4  1  0  0  0  0
  2  5  1  0  0  0  0
  1  2  1  0  0  0  0
 29 30  2  0  0  0  0
 29 31  1  0  0  0  0
 26 27  1  0  0  0  0
 26 28  1  0  0  0  0
 23 24  1  0  0  0  0
 23 25  1  0  0  0  0
 22 23  1  0  0  0  0
 22 26  1  0  0  0  0
 20 21  1  0  0  0  0
 20 22  2  0  0  0  0
 17 18  1  0  0  0  0
 17 19  1  0  0  0  0
 17 20  1  0  0  0  0
 14 15  1  0  0  0  0
 14 16  1  0  0  0  0
 14 17  1  0  0  0  0
 11 12  1  0  0  0  0
 11 13  1  0  0  0  0
 11 14  1  0  0  0  0
  9 10  1  0  0  0  0
  9 11  1  0  0  0  0
  9 29  1  0  0  0  0
  7  8  1  0  0  0  0
  7  9  1  0  0  0  0
 33 34  1  0  0  0  0
 33 35  1  0  0  0  0
 33 36  1  0  0  0  0
 31 32  1  0  0  0  0
 31 33  1  0  0  0  0
M  CHG  1  20   1
M  END
$$$$
default_name
  -OEChem-02102213163D

 36 35  0     1  0  0  0  0  0999 V2000
   -4.2256   -3.6731    1.8584 H   0  0  0  0  0  0  0  0  0  0  0  0
   -4.2396   -2.6781    1.4144 C   0  0  0  0  0  0  0  0  0  0  0  0
   -4.9506   -2.0521    1.9514 H   0  0  0  0  0  0  0  0  0  0  0  0
   -4.5266   -2.7521    0.3674 H   0  0  0  0  0  0  0  0  0  0  0  0
   -2.8576   -2.0761    1.5184 C   0  0  0  0  0  0  0  0  0  0  0  0
   -1.9456   -2.7051    2.0404 O   0  0  0  0  0  0  0  0  0  0  0  0
   -2.6926   -0.8481    1.0174 N   0  0  0  0  0  0  0  0  0  0  0  0
   -3.4926   -0.3971    0.5954 H   0  0  0  0  0  0  0  0  0  0  0  0
   -1.4216   -0.1071    1.0434 C   0  0  1  0  0  0  0  0  0  0  0  0
   -0.6709   -0.6930    0.5106 H   0  0  0  0  0  0  0  0  0  0  0  0
   -1.6221    1.2315    0.3051 C   0  0  0  0  0  0  0  0  0  0  0  0
   -1.6732    2.0331    1.0448 H   0  0  0  0  0  0  0  0  0  0  0  0
   -0.7586    1.4176   -0.3373 H   0  0  0  0  0  0  0  0  0  0  0  0
   -2.9010    1.2759   -0.5437 C   0  0  0  0  0  0  0  0  0  0  0  0
   -2.6799    1.7055   -1.5218 H   0  0  0  0  0  0  0  0  0  0  0  0
   -3.2834    0.2629   -0.6732 H   0  0  0  0  0  0  0  0  0  0  0  0
   -3.9623    2.1366    0.1551 C   0  0  0  0  0  0  0  0  0  0  0  0
   -4.1578    1.7146    1.1436 H   0  0  0  0  0  0  0  0  0  0  0  0
   -3.5660    3.1476    0.2754 H   0  0  0  0  0  0  0  0  0  0  0  0
   -5.2212    2.1884   -0.6164 N   0  3  0  0  0  0  0  0  0  0  0  0
   -5.2280    1.7126   -1.5023 H   0  0  0  0  0  0  0  0  0  0  0  0
   -6.3363    2.7992   -0.2524 C   0  0  0  0  0  0  0  0  0  0  0  0
   -6.4364    3.4454    0.8752 N   0  0  0  0  0  0  0  0  0  0  0  0
   -5.6398    3.4778    1.4866 H   0  0  0  0  0  0  0  0  0  0  0  0
   -7.2900    3.9039    1.1362 H   0  0  0  0  0  0  0  0  0  0  0  0
   -7.3852    2.7732   -1.0248 N   0  0  0  0  0  0  0  0  0  0  0  0
   -7.3565    2.2872   -1.9045 H   0  0  0  0  0  0  0  0  0  0  0  0
   -8.2292    3.2379   -0.7448 H   0  0  0  0  0  0  0  0  0  0  0  0
   -0.9523    0.1012    2.4848 C   0  0  0  0  0  0  0  0  0  0  0  0
    0.2133   -0.1319    2.7814 O   0  0  0  0  0  0  0  0  0  0  0  0
   -1.8684    0.5006    3.3725 N   0  0  0  0  0  0  0  0  0  0  0  0
   -2.7946    0.7048    3.0343 H   0  0  0  0  0  0  0  0  0  0  0  0
   -1.5848    0.7472    4.7873 C   0  0  0  0  0  0  0  0  0  0  0  0
   -0.8819    1.5774    4.8838 H   0  0  0  0  0  0  0  0  0  0  0  0
   -2.5030    0.9948    5.3214 H   0  0  0  0  0  0  0  0  0  0  0  0
   -1.1344   -0.1399    5.2381 H   0  0  0  0  0  0  0  0  0  0  0  0
  5  6  2  0  0  0  0
  5  7  1  0  0  0  0
  2  3  1  0  0  0  0
  2  4  1  0  0  0  0
  2  5  1  0  0  0  0
  1  2  1  0  0  0  0
 29 30  2  0  0  0  0
 29 31  1  0  0  0  0
 26 27  1  0  0  0  0
 26 28  1  0  0  0  0
 23 24  1  0  0  0  0
 23 25  1  0  0  0  0
 22 23  1  0  0  0  0
 22 26  1  0  0  0  0
 20 21  1  0  0  0  0
 20 22  2  0  0  0  0
 17 18  1  0  0  0  0
 17 19  1  0  0  0  0
 17 20  1  0  0  0  0
 14 15  1  0  0  0  0
 14 16  1  0  0  0  0
 14 17  1  0  0  0  0
 11 12  1  0  0  0  0
 11 13  1  0  0  0  0
 11 14  1  0  0  0  0
  9 10  1  0  0  0  0
  9 11  1  0  0  0  0
  9 29  1  0  0  0  0
  7  8  1  0  0  0  0
  7  9  1  0  0  0  0
 33 34  1  0  0  0  0
 33 35  1  0  0  0  0
 33 36  1  0  0  0  0
 31 32  1  0  0  0  0
 31 33  1  0  0  0  0
M  CHG  1  20   1
M  END
$$$$
default_name
  -OEChem-02102213163D

 36 35  0     1  0  0  0  0  0999 V2000
   -4.2256   -3.6731    1.8584 H   0  0  0  0  0  0  0  0  0  0  0  0
   -4.2396   -2.6781    1.4144 C   0  0  0  0  0  0  0  0  0  0  0  0
   -4.9506   -2.0521    1.9514 H   0  0  0  0  0  0  0  0  0  0  0  0
   -4.5266   -2.7521    0.3674 H   0  0  0  0  0  0  0  0  0  0  0  0
   -2.8576   -2.0761    1.5184 C   0  0  0  0  0  0  0  0  0  0  0  0
   -1.9456   -2.7051    2.0404 O   0  0  0  0  0  0  0  0  0  0  0  0
   -2.6926   -0.8481    1.0174 N   0  0  0  0  0  0  0  0  0  0  0  0
   -3.4926   -0.3971    0.5954 H   0  0  0  0  0  0  0  0  0  0  0  0
   -1.4216   -0.1071    1.0434 C   0  0  1  0  0  0  0  0  0  0  0  0
   -0.6709   -0.6930    0.5106 H   0  0  0  0  0  0  0  0  0  0  0  0
   -1.6221    1.2315    0.3051 C   0  0  0  0  0  0  0  0  0  0  0  0
   -1.6732    2.0331    1.0448 H   0  0  0  0  0  0  0  0  0  0  0  0
   -0.7586    1.4176   -0.3373 H   0  0  0  0  0  0  0  0  0  0  0  0
   -2.9010    1.2759   -0.5437 C   0  0  0  0  0  0  0  0  0  0  0  0
   -2.6438    1.4488   -1.5897 H   0  0  0  0  0  0  0  0  0  0  0  0
   -3.4265    0.3246   -0.4544 H   0  0  0  0  0  0  0  0  0  0  0  0
   -3.8126    2.4102   -0.0561 C   0  0  0  0  0  0  0  0  0  0  0  0
   -4.0432    2.2433    0.9985 H   0  0  0  0  0  0  0  0  0  0  0  0
   -3.2738    3.3557   -0.1539 H   0  0  0  0  0  0  0  0  0  0  0  0
   -5.0689    2.4755   -0.8309 N   0  3  0  0  0  0  0  0  0  0  0  0
   -5.1638    1.8264   -1.5931 H   0  0  0  0  0  0  0  0  0  0  0  0
   -6.0770    3.3043   -0.6167 C   0  0  0  0  0  0  0  0  0  0  0  0
   -6.0580    4.1853    0.3438 N   0  0  0  0  0  0  0  0  0  0  0  0
   -5.2510    4.2334    0.9403 H   0  0  0  0  0  0  0  0  0  0  0  0
   -6.8314    4.8072    0.4925 H   0  0  0  0  0  0  0  0  0  0  0  0
   -7.1366    3.2640   -1.3737 N   0  0  0  0  0  0  0  0  0  0  0  0
   -7.1976    2.6012   -2.1273 H   0  0  0  0  0  0  0  0  0  0  0  0
   -7.8991    3.8945   -1.2077 H   0  0  0  0  0  0  0  0  0  0  0  0
   -0.9523    0.1012    2.4848 C   0  0  0  0  0  0  0  0  0  0  0  0
    0.2133   -0.1319    2.7814 O   0  0  0  0  0  0  0  0  0  0  0  0
   -1.8684    0.5006    3.3725 N   0  0  0  0  0  0  0  0  0  0  0  0
   -2.7946    0.7048    3.0343 H   0  0  0  0  0  0  0  0  0  0  0  0
   -1.5848    0.7472    4.7873 C   0  0  0  0  0  0  0  0  0  0  0  0
   -0.8819    1.5774    4.8838 H   0  0  0  0  0  0  0  0  0  0  0  0
   -2.5030    0.9948    5.3214 H   0  0  0  0  0  0  0  0  0  0  0  0
   -1.1344   -0.1399    5.2381 H   0  0  0  0  0  0  0  0  0  0  0  0
  5  6  2  0  0  0  0
  5  7  1  0  0  0  0
  2  3  1  0  0  0  0
  2  4  1  0  0  0  0
  2  5  1  0  0  0  0
  1  2  1  0  0  0  0
 29 30  2  0  0  0  0
 29 31  1  0  0  0  0
 26 27  1  0  0  0  0
 26 28  1  0  0  0  0
 23 24  1  0  0  0  0
 23 25  1  0  0  0  0
 22 23  1  0  0  0  0
 22 26  1  0  0  0  0
 20 21  1  0  0  0  0
 20 22  2  0  0  0  0
 17 18  1  0  0  0  0
 17 19  1  0  0  0  0
 17 20  1  0  0  0  0
 14 15  1  0  0  0  0
 14 16  1  0  0  0  0
 14 17  1  0  0  0  0
 11 12  1  0  0  0  0
 11 13  1  0  0  0  0
 11 14  1  0  0  0  0
  9 10  1  0  0  0  0
  9 11  1  0  0  0  0
  9 29  1  0  0  0  0
  7  8  1  0  0  0  0
  7  9  1  0  0  0  0
 33 34  1  0  0  0  0
 33 35  1  0  0  0  0
 33 36  1  0  0  0  0
 31 32  1  0  0  0  0
 31 33  1  0  0  0  0
M  CHG  1  20   1
M  END
$$$$
default_name
  -OEChem-02102213163D

 36 35  0     1  0  0  0  0  0999 V2000
   -4.2256   -3.6731    1.8584 H   0  0  0  0  0  0  0  0  0  0  0  0
   -4.2396   -2.6781    1.4144 C   0  0  0  0  0  0  0  0  0  0  0  0
   -4.9506   -2.0521    1.9514 H   0  0  0  0  0  0  0  0  0  0  0  0
   -4.5266   -2.7521    0.3674 H   0  0  0  0  0  0  0  0  0  0  0  0
   -2.8576   -2.0761    1.5184 C   0  0  0  0  0  0  0  0  0  0  0  0
   -1.9456   -2.7051    2.0404 O   0  0  0  0  0  0  0  0  0  0  0  0
   -2.6926   -0.8481    1.0174 N   0  0  0  0  0  0  0  0  0  0  0  0
   -3.4926   -0.3971    0.5954 H   0  0  0  0  0  0  0  0  0  0  0  0
   -1.4216   -0.1071    1.0434 C   0  0  1  0  0  0  0  0  0  0  0  0
   -0.6709   -0.6930    0.5106 H   0  0  0  0  0  0  0  0  0  0  0  0
   -1.6221    1.2315    0.3051 C   0  0  0  0  0  0  0  0  0  0  0  0
   -1.6732    2.0331    1.0448 H   0  0  0  0  0  0  0  0  0  0  0  0
   -0.7586    1.4176   -0.3373 H   0  0  0  0  0  0  0  0  0  0  0  0
   -2.9010    1.2759   -0.5437 C   0  0  0  0  0  0  0  0  0  0  0  0
   -2.6461    1.1810   -1.6002 H   0  0  0  0  0  0  0  0  0  0  0  0
   -3.5542    0.4518   -0.2552 H   0  0  0  0  0  0  0  0  0  0  0  0
   -3.6305    2.6076   -0.3203 C   0  0  0  0  0  0  0  0  0  0  0  0
   -3.8579    2.7064    0.7436 H   0  0  0  0  0  0  0  0  0  0  0  0
   -2.9651    3.4223   -0.6156 H   0  0  0  0  0  0  0  0  0  0  0  0
   -4.8823    2.6849   -1.1011 N   0  3  0  0  0  0  0  0  0  0  0  0
   -5.0862    1.9076   -1.7058 H   0  0  0  0  0  0  0  0  0  0  0  0
   -5.7571    3.6765   -1.0793 C   0  0  0  0  0  0  0  0  0  0  0  0
   -5.5907    4.7314   -0.3318 N   0  0  0  0  0  0  0  0  0  0  0  0
   -4.7713    4.7899    0.2468 H   0  0  0  0  0  0  0  0  0  0  0  0
   -6.2641    5.4753   -0.3273 H   0  0  0  0  0  0  0  0  0  0  0  0
   -6.8288    3.6273   -1.8185 N   0  0  0  0  0  0  0  0  0  0  0  0
   -7.0010    2.8338   -2.4115 H   0  0  0  0  0  0  0  0  0  0  0  0
   -7.4899    4.3817   -1.7989 H   0  0  0  0  0  0  0  0  0  0  0  0
   -0.9523    0.1012    2.4848 C   0  0  0  0  0  0  0  0  0  0  0  0
    0.2133   -0.1319    2.7814 O   0  0  0  0  0  0  0  0  0  0  0  0
   -1.8684    0.5006    3.3725 N   0  0  0  0  0  0  0  0  0  0  0  0
   -2.7946    0.7048    3.0343 H   0  0  0  0  0  0  0  0  0  0  0  0
   -1.5848    0.7472    4.7873 C   0  0  0  0  0  0  0  0  0  0  0  0
   -0.8819    1.5774    4.8838 H   0  0  0  0  0  0  0  0  0  0  0  0
   -2.5030    0.9948    5.3214 H   0  0  0  0  0  0  0  0  0  0  0  0
   -1.1344   -0.1399    5.2381 H   0  0  0  0  0  0  0  0  0  0  0  0
  5  6  2  0  0  0  0
  5  7  1  0  0  0  0
  2  3  1  0  0  0  0
  2  4  1  0  0  0  0
  2  5  1  0  0  0  0
  1  2  1  0  0  0  0
 29 30  2  0  0  0  0
 29 31  1  0  0  0  0
 26 27  1  0  0  0  0
 26 28  1  0  0  0  0
 23 24  1  0  0  0  0
 23 25  1  0  0  0  0
 22 23  1  0  0  0  0
 22 26  1  0  0  0  0
 20 21  1  0  0  0  0
 20 22  2  0  0  0  0
 17 18  1  0  0  0  0
 17 19  1  0  0  0  0
 17 20  1  0  0  0  0
 14 15  1  0  0  0  0
 14 16  1  0  0  0  0
 14 17  1  0  0  0  0
 11 12  1  0  0  0  0
 11 13  1  0  0  0  0
 11 14  1  0  0  0  0
  9 10  1  0  0  0  0
  9 11  1  0  0  0  0
  9 29  1  0  0  0  0
  7  8  1  0  0  0  0
  7  9  1  0  0  0  0
 33 34  1  0  0  0  0
 33 35  1  0  0  0  0
 33 36  1  0  0  0  0
 31 32  1  0  0  0  0
 31 33  1  0  0  0  0
M  CHG  1  20   1
M  END
$$$$
default_name
  -OEChem-02102213163D

 36 35  0     1  0  0  0  0  0999 V2000
   -4.2256   -3.6731    1.8584 H   0  0  0  0  0  0  0  0  0  0  0  0
   -4.2396   -2.6781    1.4144 C   0  0  0  0  0  0  0  0  0  0  0  0
   -4.9506   -2.0521    1.9514 H   0  0  0  0  0  0  0  0  0  0  0  0
   -4.5266   -2.7521    0.3674 H   0  0  0  0  0  0  0  0  0  0  0  0
   -2.8576   -2.0761    1.5184 C   0  0  0  0  0  0  0  0  0  0  0  0
   -1.9456   -2.7051    2.0404 O   0  0  0  0  0  0  0  0  0  0  0  0
   -2.6926   -0.8481    1.0174 N   0  0  0  0  0  0  0  0  0  0  0  0
   -3.4926   -0.3971    0.5954 H   0  0  0  0  0  0  0  0  0  0  0  0
   -1.4216   -0.1071    1.0434 C   0  0  1  0  0  0  0  0  0  0  0  0
   -0.6709   -0.6930    0.5106 H   0  0  0  0  0  0  0  0  0  0  0  0
   -1.6221    1.2315    0.3051 C   0  0  0  0  0  0  0  0  0  0  0  0
   -1.6732    2.0331    1.0448 H   0  0  0  0  0  0  0  0  0  0  0  0
   -0.7586    1.4176   -0.3373 H   0  0  0  0  0  0  0  0  0  0  0  0
   -2.9010    1.2759   -0.5437 C   0  0  0  0  0  0  0  0  0  0  0  0
   -2.6868    0.9204   -1.5526 H   0  0  0  0  0  0  0  0  0  0  0  0
   -3.6580    0.6359   -0.0893 H   0  0  0  0  0  0  0  0  0  0  0  0
   -3.4282    2.7153   -0.6193 C   0  0  0  0  0  0  0  0  0  0  0  0
   -3.6146    3.0721    0.3962 H   0  0  0  0  0  0  0  0  0  0  0  0
   -2.6607    3.3430   -1.0783 H   0  0  0  0  0  0  0  0  0  0  0  0
   -4.6741    2.8021   -1.4086 N   0  3  0  0  0  0  0  0  0  0  0  0
   -5.0004    1.9507   -1.8327 H   0  0  0  0  0  0  0  0  0  0  0  0
   -5.3982    3.8906   -1.6089 C   0  0  0  0  0  0  0  0  0  0  0  0
   -5.0661    5.0463   -1.1056 N   0  0  0  0  0  0  0  0  0  0  0  0
   -4.2337    5.1094   -0.5466 H   0  0  0  0  0  0  0  0  0  0  0  0
   -5.6266    5.8627   -1.2675 H   0  0  0  0  0  0  0  0  0  0  0  0
   -6.4828    3.8383   -2.3286 N   0  0  0  0  0  0  0  0  0  0  0  0
   -6.7798    2.9691   -2.7376 H   0  0  0  0  0  0  0  0  0  0  0  0
   -7.0293    4.6664   -2.4780 H   0  0  0  0  0  0  0  0  0  0  0  0
   -0.9523    0.1012    2.4848 C   0  0  0  0  0  0  0  0  0  0  0  0
    0.2133   -0.1319    2.7814 O   0  0  0  0  0  0  0  0  0  0  0  0
   -1.8684    0.5006    3.3725 N   0  0  0  0  0  0  0  0  0  0  0  0
   -2.7946    0.7048    3.0343 H   0  0  0  0  0  0  0  0  0  0  0  0
   -1.5848    0.7472    4.7873 C   0  0  0  0  0  0  0  0  0  0  0  0
   -0.8819    1.5774    4.8838 H   0  0  0  0  0  0  0  0  0  0  0  0
   -2.5030    0.9948    5.3214 H   0  0  0  0  0  0  0  0  0  0  0  0
   -1.1344   -0.1399    5.2381 H   0  0  0  0  0  0  0  0  0  0  0  0
  5  6  2  0  0  0  0
  5  7  1  0  0  0  0
  2  3  1  0  0  0  0
  2  4  1  0  0  0  0
  2  5  1  0  0  0  0
  1  2  1  0  0  0  0
 29 30  2  0  0  0  0
 29 31  1  0  0  0  0
 26 27  1  0  0  0  0
 26 28  1  0  0  0  0
 23 24  1  0  0  0  0
 23 25  1  0  0  0  0
 22 23  1  0  0  0  0
 22 26  1  0  0  0  0
 20 21  1  0  0  0  0
 20 22  2  0  0  0  0
 17 18  1  0  0  0  0
 17 19  1  0  0  0  0
 17 20  1  0  0  0  0
 14 15  1  0  0  0  0
 14 16  1  0  0  0  0
 14 17  1  0  0  0  0
 11 12  1  0  0  0  0
 11 13  1  0  0  0  0
 11 14  1  0  0  0  0
  9 10  1  0  0  0  0
  9 11  1  0  0  0  0
  9 29  1  0  0  0  0
  7  8  1  0  0  0  0
  7  9  1  0  0  0  0
 33 34  1  0  0  0  0
 33 35  1  0  0  0  0
 33 36  1  0  0  0  0
 31 32  1  0  0  0  0
 31 33  1  0  0  0  0
M  CHG  1  20   1
M  END
$$$$
default_name
  -OEChem-02102213163D

 36 35  0     1  0  0  0  0  0999 V2000
   -4.2256   -3.6731    1.8584 H   0  0  0  0  0  0  0  0  0  0  0  0
   -4.2396   -2.6781    1.4144 C   0  0  0  0  0  0  0  0  0  0  0  0
   -4.9506   -2.0521    1.9514 H   0  0  0  0  0  0  0  0  0  0  0  0
   -4.5266   -2.7521    0.3674 H   0  0  0  0  0  0  0  0  0  0  0  0
   -2.8576   -2.0761    1.5184 C   0  0  0  0  0  0  0  0  0  0  0  0
   -1.9456   -2.7051    2.0404 O   0  0  0  0  0  0  0  0  0  0  0  0
   -2.6926   -0.8481    1.0174 N   0  0  0  0  0  0  0  0  0  0  0  0
   -3.4926   -0.3971    0.5954 H   0  0  0  0  0  0  0  0  0  0  0  0
   -1.4216   -0.1071    1.0434 C   0  0  1  0  0  0  0  0  0  0  0  0
   -0.6709   -0.6930    0.5106 H   0  0  0  0  0  0  0  0  0  0  0  0
   -1.6221    1.2315    0.3051 C   0  0  0  0  0  0  0  0  0  0  0  0
   -1.6732    2.0331    1.0448 H   0  0  0  0  0  0  0  0  0  0  0  0
   -0.7586    1.4176   -0.3373 H   0  0  0  0  0  0  0  0  0  0  0  0
   -2.9010    1.2759   -0.5437 C   0  0  0  0  0  0  0  0  0  0  0  0
   -2.7629    0.6848   -1.4501 H   0  0  0  0  0  0  0  0  0  0  0  0
   -3.7306    0.8643    0.0320 H   0  0  0  0  0  0  0  0  0  0  0  0
   -3.2197    2.7259   -0.9329 C   0  0  0  0  0  0  0  0  0  0  0  0
   -3.3299    3.3157   -0.0201 H   0  0  0  0  0  0  0  0  0  0  0  0
   -2.3816    3.1231   -1.5103 H   0  0  0  0  0  0  0  0  0  0  0  0
   -4.4585    2.8193   -1.7325 N   0  3  0  0  0  0  0  0  0  0  0  0
   -4.9124    1.9526   -1.9653 H   0  0  0  0  0  0  0  0  0  0  0  0
   -5.0249    3.9318   -2.1692 C   0  0  0  0  0  0  0  0  0  0  0  0
   -4.5202    5.1087   -1.9248 N   0  0  0  0  0  0  0  0  0  0  0  0
   -3.6745    5.1700   -1.3859 H   0  0  0  0  0  0  0  0  0  0  0  0
   -4.9625    5.9431   -2.2640 H   0  0  0  0  0  0  0  0  0  0  0  0
   -6.1223    3.8827   -2.8695 N   0  0  0  0  0  0  0  0  0  0  0  0
   -6.5493    2.9979   -3.0834 H   0  0  0  0  0  0  0  0  0  0  0  0
   -6.5487    4.7291   -3.1988 H   0  0  0  0  0  0  0  0  0  0  0  0
   -0.9523    0.1012    2.4848 C   0  0  0  0  0  0  0  0  0  0  0  0
    0.2133   -0.1319    2.7814 O   0  0  0  0  0  0  0  0  0  0  0  0
   -1.8684    0.5006    3.3725 N   0  0  0  0  0  0  0  0  0  0  0  0
   -2.7946    0.7048    3.0343 H   0  0  0  0  0  0  0  0  0  0  0  0
   -1.5848    0.7472    4.7873 C   0  0  0  0  0  0  0  0  0  0  0  0
   -0.8819    1.5774    4.8838 H   0  0  0  0  0  0  0  0  0  0  0  0
   -2.5030    0.9948    5.3214 H   0  0  0  0  0  0  0  0  0  0  0  0
   -1.1344   -0.1399    5.2381 H   0  0  0  0  0  0  0  0  0  0  0  0
  5  6  2  0  0  0  0
  5  7  1  0  0  0  0
  2  3  1  0  0  0  0
  2  4  1  0  0  0  0
  2  5  1  0  0  0  0
  1  2  1  0  0  0  0
 29 30  2  0  0  0  0
 29 31  1  0  0  0  0
 26 27  1  0  0  0  0
 26 28  1  0  0  0  0
 23 24  1  0  0  0  0
 23 25  1  0  0  0  0
 22 23  1  0  0  0  0
 22 26  1  0  0  0  0
 20 21  1  0  0  0  0
 20 22  2  0  0  0  0
 17 18  1  0  0  0  0
 17 19  1  0  0  0  0
 17 20  1  0  0  0  0
 14 15  1  0  0  0  0
 14 16  1  0  0  0  0
 14 17  1  0  0  0  0
 11 12  1  0  0  0  0
 11 13  1  0  0  0  0
 11 14  1  0  0  0  0
  9 10  1  0  0  0  0
  9 11  1  0  0  0  0
  9 29  1  0  0  0  0
  7  8  1  0  0  0  0
  7  9  1  0  0  0  0
 33 34  1  0  0  0  0
 33 35  1  0  0  0  0
 33 36  1  0  0  0  0
 31 32  1  0  0  0  0
 31 33  1  0  0  0  0
M  CHG  1  20   1
M  END
$$$$
default_name
  -OEChem-02102213163D

 36 35  0     1  0  0  0  0  0999 V2000
   -4.2256   -3.6731    1.8584 H   0  0  0  0  0  0  0  0  0  0  0  0
   -4.2396   -2.6781    1.4144 C   0  0  0  0  0  0  0  0  0  0  0  0
   -4.9506   -2.0521    1.9514 H   0  0  0  0  0  0  0  0  0  0  0  0
   -4.5266   -2.7521    0.3674 H   0  0  0  0  0  0  0  0  0  0  0  0
   -2.8576   -2.0761    1.5184 C   0  0  0  0  0  0  0  0  0  0  0  0
   -1.9456   -2.7051    2.0404 O   0  0  0  0  0  0  0  0  0  0  0  0
   -2.6926   -0.8481    1.0174 N   0  0  0  0  0  0  0  0  0  0  0  0
   -3.4926   -0.3971    0.5954 H   0  0  0  0  0  0  0  0  0  0  0  0
   -1.4216   -0.1071    1.0434 C   0  0  1  0  0  0  0  0  0  0  0  0
   -0.6709   -0.6930    0.5106 H   0  0  0  0  0  0  0  0  0  0  0  0
   -1.6221    1.2315    0.3051 C   0  0  0  0  0  0  0  0  0  0  0  0
   -1.4075    2.0473    0.9984 H   0  0  0  0  0  0  0  0  0  0  0  0
   -0.9109    1.2932   -0.5215 H   0  0  0  0  0  0  0  0  0  0  0  0
   -3.0454    1.4224   -0.2389 C   0  0  0  0  0  0  0  0  0  0  0  0
   -3.2808    0.6245   -0.9445 H   0  0  0  0  0  0  0  0  0  0  0  0
   -3.7549    1.3925    0.5887 H   0  0  0  0  0  0  0  0  0  0  0  0
   -3.1538    2.7753   -0.9554 C   0  0  0  0  0  0  0  0  0  0  0  0
   -2.8907    3.5660   -0.2491 H   0  0  0  0  0  0  0  0  0  0  0  0
   -2.4396    2.7891   -1.7821 H   0  0  0  0  0  0  0  0  0  0  0  0
   -4.5160    3.0126   -1.4757 N   0  3  0  0  0  0  0  0  0  0  0  0
   -5.1831    2.2706   -1.3503 H   0  0  0  0  0  0  0  0  0  0  0  0
   -4.9392    4.1055   -2.0885 C   0  0  0  0  0  0  0  0  0  0  0  0
   -4.1579    5.1267   -2.3029 N   0  0  0  0  0  0  0  0  0  0  0  0
   -3.2042    5.0801   -1.9903 H   0  0  0  0  0  0  0  0  0  0  0  0
   -4.4949    5.9485   -2.7698 H   0  0  0  0  0  0  0  0  0  0  0  0
   -6.1708    4.1941   -2.5039 N   0  0  0  0  0  0  0  0  0  0  0  0
   -6.8112    3.4322   -2.3612 H   0  0  0  0  0  0  0  0  0  0  0  0
   -6.4878    5.0251   -2.9683 H   0  0  0  0  0  0  0  0  0  0  0  0
   -0.9523    0.1012    2.4848 C   0  0  0  0  0  0  0  0  0  0  0  0
    0.2133   -0.1319    2.7814 O   0  0  0  0  0  0  0  0  0  0  0  0
   -1.8684    0.5006    3.3725 N   0  0  0  0  0  0  0  0  0  0  0  0
   -2.7946    0.7048    3.0343 H   0  0  0  0  0  0  0  0  0  0  0  0
   -1.5848    0.7472    4.7873 C   0  0  0  0  0  0  0  0  0  0  0  0
   -0.8819    1.5774    4.8838 H   0  0  0  0  0  0  0  0  0  0  0  0
   -2.5030    0.9948    5.3214 H   0  0  0  0  0  0  0  0  0  0  0  0
   -1.1344   -0.1399    5.2381 H   0  0  0  0  0  0  0  0  0  0  0  0
  5  6  2  0  0  0  0
  5  7  1  0  0  0  0
  2  3  1  0  0  0  0
  2  4  1  0  0  0  0
  2  5  1  0  0  0  0
  1  2  1  0  0  0  0
 29 30  2  0  0  0  0
 29 31  1  0  0  0  0
 26 27  1  0  0  0  0
 26 28  1  0  0  0  0
 23 24  1  0  0  0  0
 23 25  1  0  0  0  0
 22 23  1  0  0  0  0
 22 26  1  0  0  0  0
 20 21  1  0  0  0  0
 20 22  2  0  0  0  0
 17 18  1  0  0  0  0
 17 19  1  0  0  0  0
 17 20  1  0  0  0  0
 14 15  1  0  0  0  0
 14 16  1  0  0  0  0
 14 17  1  0  0  0  0
 11 12  1  0  0  0  0
 11 13  1  0  0  0  0
 11 14  1  0  0  0  0
  9 10  1  0  0  0  0
  9 11  1  0  0  0  0
  9 29  1  0  0  0  0
  7  8  1  0  0  0  0
  7  9  1  0  0  0  0
 33 34  1  0  0  0  0
 33 35  1  0  0  0  0
 33 36  1  0  0  0  0
 31 32  1  0  0  0  0
 31 33  1  0  0  0  0
M  CHG  1  20   1
M  END
$$$$
default_name
  -OEChem-02102213163D

 36 35  0     1  0  0  0  0  0999 V2000
   -4.2256   -3.6731    1.8584 H   0  0  0  0  0  0  0  0  0  0  0  0
   -4.2396   -2.6781    1.4144 C   0  0  0  0  0  0  0  0  0  0  0  0
   -4.9506   -2.0521    1.9514 H   0  0  0  0  0  0  0  0  0  0  0  0
   -4.5266   -2.7521    0.3674 H   0  0  0  0  0  0  0  0  0  0  0  0
   -2.8576   -2.0761    1.5184 C   0  0  0  0  0  0  0  0  0  0  0  0
   -1.9456   -2.7051    2.0404 O   0  0  0  0  0  0  0  0  0  0  0  0
   -2.6926   -0.8481    1.0174 N   0  0  0  0  0  0  0  0  0  0  0  0
   -3.4926   -0.3971    0.5954 H   0  0  0  0  0  0  0  0  0  0  0  0
   -1.4216   -0.1071    1.0434 C   0  0  1  0  0  0  0  0  0  0  0  0
   -0.6709   -0.6930    0.5106 H   0  0  0  0  0  0  0  0  0  0  0  0
   -1.6221    1.2315    0.3051 C   0  0  0  0  0  0  0  0  0  0  0  0
   -1.4075    2.0473    0.9984 H   0  0  0  0  0  0  0  0  0  0  0  0
   -0.9109    1.2932   -0.5215 H   0  0  0  0  0  0  0  0  0  0  0  0
   -3.0454    1.4224   -0.2389 C   0  0  0  0  0  0  0  0  0  0  0  0
   -3.3803    0.5056   -0.7260 H   0  0  0  0  0  0  0  0  0  0  0  0
   -3.7182    1.6586    0.5861 H   0  0  0  0  0  0  0  0  0  0  0  0
   -3.0656    2.5695   -1.2583 C   0  0  0  0  0  0  0  0  0  0  0  0
   -2.7038    3.4769   -0.7694 H   0  0  0  0  0  0  0  0  0  0  0  0
   -2.3895    2.3174   -2.0787 H   0  0  0  0  0  0  0  0  0  0  0  0
   -4.4231    2.8050   -1.7919 N   0  3  0  0  0  0  0  0  0  0  0  0
   -5.1466    2.1815   -1.4771 H   0  0  0  0  0  0  0  0  0  0  0  0
   -4.7749    3.7557   -2.6413 C   0  0  0  0  0  0  0  0  0  0  0  0
   -3.9170    4.6168   -3.1122 N   0  0  0  0  0  0  0  0  0  0  0  0
   -2.9584    4.5551   -2.8177 H   0  0  0  0  0  0  0  0  0  0  0  0
   -4.2005    5.3319   -3.7565 H   0  0  0  0  0  0  0  0  0  0  0  0
   -6.0108    3.8600   -3.0399 N   0  0  0  0  0  0  0  0  0  0  0  0
   -6.7088    3.2190   -2.7040 H   0  0  0  0  0  0  0  0  0  0  0  0
   -6.2735    4.5827   -3.6843 H   0  0  0  0  0  0  0  0  0  0  0  0
   -0.9523    0.1012    2.4848 C   0  0  0  0  0  0  0  0  0  0  0  0
    0.2133   -0.1319    2.7814 O   0  0  0  0  0  0  0  0  0  0  0  0
   -1.8684    0.5006    3.3725 N   0  0  0  0  0  0  0  0  0  0  0  0
   -2.7946    0.7048    3.0343 H   0  0  0  0  0  0  0  0  0  0  0  0
   -1.5848    0.7472    4.7873 C   0  0  0  0  0  0  0  0  0  0  0  0
   -0.8819    1.5774    4.8838 H   0  0  0  0  0  0  0  0  0  0  0  0
   -2.5030    0.9948    5.3214 H   0  0  0  0  0  0  0  0  0  0  0  0
   -1.1344   -0.1399    5.2381 H   0  0  0  0  0  0  0  0  0  0  0  0
  5  6  2  0  0  0  0
  5  7  1  0  0  0  0
  2  3  1  0  0  0  0
  2  4  1  0  0  0  0
  2  5  1  0  0  0  0
  1  2  1  0  0  0  0
 29 30  2  0  0  0  0
 29 31  1  0  0  0  0
 26 27  1  0  0  0  0
 26 28  1  0  0  0  0
 23 24  1  0  0  0  0
 23 25  1  0  0  0  0
 22 23  1  0  0  0  0
 22 26  1  0  0  0  0
 20 21  1  0  0  0  0
 20 22  2  0  0  0  0
 17 18  1  0  0  0  0
 17 19  1  0  0  0  0
 17 20  1  0  0  0  0
 14 15  1  0  0  0  0
 14 16  1  0  0  0  0
 14 17  1  0  0  0  0
 11 12  1  0  0  0  0
 11 13  1  0  0  0  0
 11 14  1  0  0  0  0
  9 10  1  0  0  0  0
  9 11  1  0  0  0  0
  9 29  1  0  0  0  0
  7  8  1  0  0  0  0
  7  9  1  0  0  0  0
 33 34  1  0  0  0  0
 33 35  1  0  0  0  0
 33 36  1  0  0  0  0
 31 32  1  0  0  0  0
 31 33  1  0  0  0  0
M  CHG  1  20   1
M  END
$$$$
default_name
  -OEChem-02102213163D

 36 35  0     1  0  0  0  0  0999 V2000
   -4.2256   -3.6731    1.8584 H   0  0  0  0  0  0  0  0  0  0  0  0
   -4.2396   -2.6781    1.4144 C   0  0  0  0  0  0  0  0  0  0  0  0
   -4.9506   -2.0521    1.9514 H   0  0  0  0  0  0  0  0  0  0  0  0
   -4.5266   -2.7521    0.3674 H   0  0  0  0  0  0  0  0  0  0  0  0
   -2.8576   -2.0761    1.5184 C   0  0  0  0  0  0  0  0  0  0  0  0
   -1.9456   -2.7051    2.0404 O   0  0  0  0  0  0  0  0  0  0  0  0
   -2.6926   -0.8481    1.0174 N   0  0  0  0  0  0  0  0  0  0  0  0
   -3.4926   -0.3971    0.5954 H   0  0  0  0  0  0  0  0  0  0  0  0
   -1.4216   -0.1071    1.0434 C   0  0  1  0  0  0  0  0  0  0  0  0
   -0.6709   -0.6930    0.5106 H   0  0  0  0  0  0  0  0  0  0  0  0
   -1.6221    1.2315    0.3051 C   0  0  0  0  0  0  0  0  0  0  0  0
   -1.4075    2.0473    0.9984 H   0  0  0  0  0  0  0  0  0  0  0  0
   -0.9109    1.2932   -0.5215 H   0  0  0  0  0  0  0  0  0  0  0  0
   -3.0454    1.4224   -0.2389 C   0  0  0  0  0  0  0  0  0  0  0  0
   -3.4802    0.4522   -0.4831 H   0  0  0  0  0  0  0  0  0  0  0  0
   -3.6585    1.9117    0.5186 H   0  0  0  0  0  0  0  0  0  0  0  0
   -3.0091    2.2899   -1.5044 C   0  0  0  0  0  0  0  0  0  0  0  0
   -2.5481    3.2488   -1.2567 H   0  0  0  0  0  0  0  0  0  0  0  0
   -2.3939    1.7861   -2.2537 H   0  0  0  0  0  0  0  0  0  0  0  0
   -4.3624    2.5202   -2.0504 N   0  3  0  0  0  0  0  0  0  0  0  0
   -5.1236    2.0618   -1.5793 H   0  0  0  0  0  0  0  0  0  0  0  0
   -4.6660    3.2700   -3.0966 C   0  0  0  0  0  0  0  0  0  0  0  0
   -3.7570    3.9080   -3.7793 N   0  0  0  0  0  0  0  0  0  0  0  0
   -2.7957    3.8269   -3.4988 H   0  0  0  0  0  0  0  0  0  0  0  0
   -4.0044    4.4726   -4.5711 H   0  0  0  0  0  0  0  0  0  0  0  0
   -5.9041    3.3941   -3.4826 N   0  0  0  0  0  0  0  0  0  0  0  0
   -6.6405    2.9213   -2.9873 H   0  0  0  0  0  0  0  0  0  0  0  0
   -6.1300    3.9640   -4.2767 H   0  0  0  0  0  0  0  0  0  0  0  0
   -0.9523    0.1012    2.4848 C   0  0  0  0  0  0  0  0  0  0  0  0
    0.2133   -0.1319    2.7814 O   0  0  0  0  0  0  0  0  0  0  0  0
   -1.8684    0.5006    3.3725 N   0  0  0  0  0  0  0  0  0  0  0  0
   -2.7946    0.7048    3.0343 H   0  0  0  0  0  0  0  0  0  0  0  0
   -1.5848    0.7472    4.7873 C   0  0  0  0  0  0  0  0  0  0  0  0
   -0.8819    1.5774    4.8838 H   0  0  0  0  0  0  0  0  0  0  0  0
   -2.5030    0.9948    5.3214 H   0  0  0  0  0  0  0  0  0  0  0  0
   -1.1344   -0.1399    5.2381 H   0  0  0  0  0  0  0  0  0  0  0  0
  5  6  2  0  0  0  0
  5  7  1  0  0  0  0
  2  3  1  0  0  0  0
  2  4  1  0  0  0  0
  2  5  1  0  0  0  0
  1  2  1  0  0  0  0
 29 30  2  0  0  0  0
 29 31  1  0  0  0  0
 26 27  1  0  0  0  0
 26 28  1  0  0  0  0
 23 24  1  0  0  0  0
 23 25  1  0  0  0  0
 22 23  1  0  0  0  0
 22 26  1  0  0  0  0
 20 21  1  0  0  0  0
 20 22  2  0  0  0  0
 17 18  1  0  0  0  0
 17 19  1  0  0  0  0
 17 20  1  0  0  0  0
 14 15  1  0  0  0  0
 14 16  1  0  0  0  0
 14 17  1  0  0  0  0
 11 12  1  0  0  0  0
 11 13  1  0  0  0  0
 11 14  1  0  0  0  0
  9 10  1  0  0  0  0
  9 11  1  0  0  0  0
  9 29  1  0  0  0  0
  7  8  1  0  0  0  0
  7  9  1  0  0  0  0
 33 34  1  0  0  0  0
 33 35  1  0  0  0  0
 33 36  1  0  0  0  0
 31 32  1  0  0  0  0
 31 33  1  0  0  0  0
M  CHG  1  20   1
M  END
$$$$
default_name
  -OEChem-02102213163D

 36 35  0     1  0  0  0  0  0999 V2000
   -4.2256   -3.6731    1.8584 H   0  0  0  0  0  0  0  0  0  0  0  0
   -4.2396   -2.6781    1.4144 C   0  0  0  0  0  0  0  0  0  0  0  0
   -4.9506   -2.0521    1.9514 H   0  0  0  0  0  0  0  0  0  0  0  0
   -4.5266   -2.7521    0.3674 H   0  0  0  0  0  0  0  0  0  0  0  0
   -2.8576   -2.0761    1.5184 C   0  0  0  0  0  0  0  0  0  0  0  0
   -1.9456   -2.7051    2.0404 O   0  0  0  0  0  0  0  0  0  0  0  0
   -2.6926   -0.8481    1.0174 N   0  0  0  0  0  0  0  0  0  0  0  0
   -3.4926   -0.3971    0.5954 H   0  0  0  0  0  0  0  0  0  0  0  0
   -1.4216   -0.1071    1.0434 C   0  0  1  0  0  0  0  0  0  0  0  0
   -0.6709   -0.6930    0.5106 H   0  0  0  0  0  0  0  0  0  0  0  0
   -1.6221    1.2315    0.3051 C   0  0  0  0  0  0  0  0  0  0  0  0
   -1.4075    2.0473    0.9984 H   0  0  0  0  0  0  0  0  0  0  0  0
   -0.9109    1.2932   -0.5215 H   0  0  0  0  0  0  0  0  0  0  0  0
   -3.0454    1.4224   -0.2389 C   0  0  0  0  0  0  0  0  0  0  0  0
   -3.5739    0.4681   -0.2325 H   0  0  0  0  0  0  0  0  0  0  0  0
   -3.5798    2.1344    0.3909 H   0  0  0  0  0  0  0  0  0  0  0  0
   -2.9880    1.9556   -1.6769 C   0  0  0  0  0  0  0  0  0  0  0  0
   -2.4343    2.8974   -1.6777 H   0  0  0  0  0  0  0  0  0  0  0  0
   -2.4525    1.2313   -2.2951 H   0  0  0  0  0  0  0  0  0  0  0  0
   -4.3383    2.1774   -2.2338 N   0  3  0  0  0  0  0  0  0  0  0  0
   -5.1156    1.9195   -1.6501 H   0  0  0  0  0  0  0  0  0  0  0  0
   -4.6200    2.6818   -3.4234 C   0  0  0  0  0  0  0  0  0  0  0  0
   -3.6890    3.0486   -4.2589 N   0  0  0  0  0  0  0  0  0  0  0  0
   -2.7273    2.9453   -3.9874 H   0  0  0  0  0  0  0  0  0  0  0  0
   -3.9199    3.4292   -5.1581 H   0  0  0  0  0  0  0  0  0  0  0  0
   -5.8580    2.8280   -3.8018 N   0  0  0  0  0  0  0  0  0  0  0  0
   -6.6108    2.5596   -3.1918 H   0  0  0  0  0  0  0  0  0  0  0  0
   -6.0673    3.2111   -4.7052 H   0  0  0  0  0  0  0  0  0  0  0  0
   -0.9523    0.1012    2.4848 C   0  0  0  0  0  0  0  0  0  0  0  0
    0.2133   -0.1319    2.7814 O   0  0  0  0  0  0  0  0  0  0  0  0
   -1.8684    0.5006    3.3725 N   0  0  0  0  0  0  0  0  0  0  0  0
   -2.7946    0.7048    3.0343 H   0  0  0  0  0  0  0  0  0  0  0  0
   -1.5848    0.7472    4.7873 C   0  0  0  0  0  0  0  0  0  0  0  0
   -0.8819    1.5774    4.8838 H   0  0  0  0  0  0  0  0  0  0  0  0
   -2.5030    0.9948    5.3214 H   0  0  0  0  0  0  0  0  0  0  0  0
   -1.1344   -0.1399    5.2381 H   0  0  0  0  0  0  0  0  0  0  0  0
  5  6  2  0  0  0  0
  5  7  1  0  0  0  0
  2  3  1  0  0  0  0
  2  4  1  0  0  0  0
  2  5  1  0  0  0  0
  1  2  1  0  0  0  0
 29 30  2  0  0  0  0
 29 31  1  0  0  0  0
 26 27  1  0  0  0  0
 26 28  1  0  0  0  0
 23 24  1  0  0  0  0
 23 25  1  0  0  0  0
 22 23  1  0  0  0  0
 22 26  1  0  0  0  0
 20 21  1  0  0  0  0
 20 22  2  0  0  0  0
 17 18  1  0  0  0  0
 17 19  1  0  0  0  0
 17 20  1  0  0  0  0
 14 15  1  0  0  0  0
 14 16  1  0  0  0  0
 14 17  1  0  0  0  0
 11 12  1  0  0  0  0
 11 13  1  0  0  0  0
 11 14  1  0  0  0  0
  9 10  1  0  0  0  0
  9 11  1  0  0  0  0
  9 29  1  0  0  0  0
  7  8  1  0  0  0  0
  7  9  1  0  0  0  0
 33 34  1  0  0  0  0
 33 35  1  0  0  0  0
 33 36  1  0  0  0  0
 31 32  1  0  0  0  0
 31 33  1  0  0  0  0
M  CHG  1  20   1
M  END
$$$$
default_name
  -OEChem-02102213163D

 36 35  0     1  0  0  0  0  0999 V2000
   -4.2256   -3.6731    1.8584 H   0  0  0  0  0  0  0  0  0  0  0  0
   -4.2396   -2.6781    1.4144 C   0  0  0  0  0  0  0  0  0  0  0  0
   -4.9506   -2.0521    1.9514 H   0  0  0  0  0  0  0  0  0  0  0  0
   -4.5266   -2.7521    0.3674 H   0  0  0  0  0  0  0  0  0  0  0  0
   -2.8576   -2.0761    1.5184 C   0  0  0  0  0  0  0  0  0  0  0  0
   -1.9456   -2.7051    2.0404 O   0  0  0  0  0  0  0  0  0  0  0  0
   -2.6926   -0.8481    1.0174 N   0  0  0  0  0  0  0  0  0  0  0  0
   -3.4926   -0.3971    0.5954 H   0  0  0  0  0  0  0  0  0  0  0  0
   -1.4216   -0.1071    1.0434 C   0  0  1  0  0  0  0  0  0  0  0  0
   -0.6709   -0.6930    0.5106 H   0  0  0  0  0  0  0  0  0  0  0  0
   -1.6221    1.2315    0.3051 C   0  0  0  0  0  0  0  0  0  0  0  0
   -1.4075    2.0473    0.9984 H   0  0  0  0  0  0  0  0  0  0  0  0
   -0.9109    1.2932   -0.5215 H   0  0  0  0  0  0  0  0  0  0  0  0
   -3.0454    1.4224   -0.2389 C   0  0  0  0  0  0  0  0  0  0  0  0
   -3.6548    0.5522    0.0088 H   0  0  0  0  0  0  0  0  0  0  0  0
   -3.4874    2.3118    0.2114 H   0  0  0  0  0  0  0  0  0  0  0  0
   -3.0038    1.5895   -1.7639 C   0  0  0  0  0  0  0  0  0  0  0  0
   -2.3702    2.4465   -2.0037 H   0  0  0  0  0  0  0  0  0  0  0  0
   -2.5613    0.6908   -2.2002 H   0  0  0  0  0  0  0  0  0  0  0  0
   -4.3524    1.8002   -2.3294 N   0  3  0  0  0  0  0  0  0  0  0  0
   -5.1233    1.7643   -1.6846 H   0  0  0  0  0  0  0  0  0  0  0  0
   -4.6400    2.0309   -3.5995 C   0  0  0  0  0  0  0  0  0  0  0  0
   -3.7176    2.0973   -4.5181 N   0  0  0  0  0  0  0  0  0  0  0  0
   -2.7577    1.9702   -4.2499 H   0  0  0  0  0  0  0  0  0  0  0  0
   -3.9530    2.2729   -5.4776 H   0  0  0  0  0  0  0  0  0  0  0  0
   -5.8757    2.2004   -3.9759 N   0  0  0  0  0  0  0  0  0  0  0  0
   -6.6220    2.1584   -3.3034 H   0  0  0  0  0  0  0  0  0  0  0  0
   -6.0895    2.3753   -4.9404 H   0  0  0  0  0  0  0  0  0  0  0  0
   -0.9523    0.1012    2.4848 C   0  0  0  0  0  0  0  0  0  0  0  0
    0.2133   -0.1319    2.7814 O   0  0  0  0  0  0  0  0  0  0  0  0
   -1.8684    0.5006    3.3725 N   0  0  0  0  0  0  0  0  0  0  0  0
   -2.7946    0.7048    3.0343 H   0  0  0  0  0  0  0  0  0  0  0  0
   -1.5848    0.7472    4.7873 C   0  0  0  0  0  0  0  0  0  0  0  0
   -0.8819    1.5774    4.8838 H   0  0  0  0  0  0  0  0  0  0  0  0
   -2.5030    0.9948    5.3214 H   0  0  0  0  0  0  0  0  0  0  0  0
   -1.1344   -0.1399    5.2381 H   0  0  0  0  0  0  0  0  0  0  0  0
  5  6  2  0  0  0  0
  5  7  1  0  0  0  0
  2  3  1  0  0  0  0
  2  4  1  0  0  0  0
  2  5  1  0  0  0  0
  1  2  1  0  0  0  0
 29 30  2  0  0  0  0
 29 31  1  0  0  0  0
 26 27  1  0  0  0  0
 26 28  1  0  0  0  0
 23 24  1  0  0  0  0
 23 25  1  0  0  0  0
 22 23  1  0  0  0  0
 22 26  1  0  0  0  0
 20 21  1  0  0  0  0
 20 22  2  0  0  0  0
 17 18  1  0  0  0  0
 17 19  1  0  0  0  0
 17 20  1  0  0  0  0
 14 15  1  0  0  0  0
 14 16  1  0  0  0  0
 14 17  1  0  0  0  0
 11 12  1  0  0  0  0
 11 13  1  0  0  0  0
 11 14  1  0  0  0  0
  9 10  1  0  0  0  0
  9 11  1  0  0  0  0
  9 29  1  0  0  0  0
  7  8  1  0  0  0  0
  7  9  1  0  0  0  0
 33 34  1  0  0  0  0
 33 35  1  0  0  0  0
 33 36  1  0  0  0  0
 31 32  1  0  0  0  0
 31 33  1  0  0  0  0
M  CHG  1  20   1
M  END
$$$$
default_name
  -OEChem-02102213163D

 36 35  0     1  0  0  0  0  0999 V2000
   -4.2256   -3.6731    1.8584 H   0  0  0  0  0  0  0  0  0  0  0  0
   -4.2396   -2.6781    1.4144 C   0  0  0  0  0  0  0  0  0  0  0  0
   -4.9506   -2.0521    1.9514 H   0  0  0  0  0  0  0  0  0  0  0  0
   -4.5266   -2.7521    0.3674 H   0  0  0  0  0  0  0  0  0  0  0  0
   -2.8576   -2.0761    1.5184 C   0  0  0  0  0  0  0  0  0  0  0  0
   -1.9456   -2.7051    2.0404 O   0  0  0  0  0  0  0  0  0  0  0  0
   -2.6926   -0.8481    1.0174 N   0  0  0  0  0  0  0  0  0  0  0  0
   -3.4926   -0.3971    0.5954 H   0  0  0  0  0  0  0  0  0  0  0  0
   -1.4216   -0.1071    1.0434 C   0  0  1  0  0  0  0  0  0  0  0  0
   -0.6709   -0.6930    0.5106 H   0  0  0  0  0  0  0  0  0  0  0  0
   -1.6221    1.2315    0.3051 C   0  0  0  0  0  0  0  0  0  0  0  0
   -1.4075    2.0473    0.9984 H   0  0  0  0  0  0  0  0  0  0  0  0
   -0.9109    1.2932   -0.5215 H   0  0  0  0  0  0  0  0  0  0  0  0
   -3.0454    1.4224   -0.2389 C   0  0  0  0  0  0  0  0  0  0  0  0
   -3.7175    0.6987    0.2242 H   0  0  0  0  0  0  0  0  0  0  0  0
   -3.3877    2.4315   -0.0074 H   0  0  0  0  0  0  0  0  0  0  0  0
   -3.0555    1.2163   -1.7597 C   0  0  0  0  0  0  0  0  0  0  0  0
   -2.3601    1.9268   -2.2125 H   0  0  0  0  0  0  0  0  0  0  0  0
   -2.7129    0.2015   -1.9753 H   0  0  0  0  0  0  0  0  0  0  0  0
   -4.4036    1.4141   -2.3309 N   0  3  0  0  0  0  0  0  0  0  0  0
   -5.1460    1.6069   -1.6804 H   0  0  0  0  0  0  0  0  0  0  0  0
   -4.7247    1.3619   -3.6127 C   0  0  0  0  0  0  0  0  0  0  0  0
   -3.8407    1.1188   -4.5394 N   0  0  0  0  0  0  0  0  0  0  0  0
   -2.8849    0.9681   -4.2687 H   0  0  0  0  0  0  0  0  0  0  0  0
   -4.1011    1.0823   -5.5077 H   0  0  0  0  0  0  0  0  0  0  0  0
   -5.9559    1.5541   -3.9929 N   0  0  0  0  0  0  0  0  0  0  0  0
   -6.6731    1.7451   -3.3147 H   0  0  0  0  0  0  0  0  0  0  0  0
   -6.1951    1.5136   -4.9664 H   0  0  0  0  0  0  0  0  0  0  0  0
   -0.9523    0.1012    2.4848 C   0  0  0  0  0  0  0  0  0  0  0  0
    0.2133   -0.1319    2.7814 O   0  0  0  0  0  0  0  0  0  0  0  0
   -1.8684    0.5006    3.3725 N   0  0  0  0  0  0  0  0  0  0  0  0
   -2.7946    0.7048    3.0343 H   0  0  0  0  0  0  0  0  0  0  0  0
   -1.5848    0.7472    4.7873 C   0  0  0  0  0  0  0  0  0  0  0  0
   -0.8819    1.5774    4.8838 H   0  0  0  0  0  0  0  0  0  0  0  0
   -2.5030    0.9948    5.3214 H   0  0  0  0  0  0  0  0  0  0  0  0
   -1.1344   -0.1399    5.2381 H   0  0  0  0  0  0  0  0  0  0  0  0
  5  6  2  0  0  0  0
  5  7  1  0  0  0  0
  2  3  1  0  0  0  0
  2  4  1  0  0  0  0
  2  5  1  0  0  0  0
  1  2  1  0  0  0  0
 29 30  2  0  0  0  0
 29 31  1  0  0  0  0
 26 27  1  0  0  0  0
 26 28  1  0  0  0  0
 23 24  1  0  0  0  0
 23 25  1  0  0  0  0
 22 23  1  0  0  0  0
 22 26  1  0  0  0  0
 20 21  1  0  0  0  0
 20 22  2  0  0  0  0
 17 18  1  0  0  0  0
 17 19  1  0  0  0  0
 17 20  1  0  0  0  0
 14 15  1  0  0  0  0
 14 16  1  0  0  0  0
 14 17  1  0  0  0  0
 11 12  1  0  0  0  0
 11 13  1  0  0  0  0
 11 14  1  0  0  0  0
  9 10  1  0  0  0  0
  9 11  1  0  0  0  0
  9 29  1  0  0  0  0
  7  8  1  0  0  0  0
  7  9  1  0  0  0  0
 33 34  1  0  0  0  0
 33 35  1  0  0  0  0
 33 36  1  0  0  0  0
 31 32  1  0  0  0  0
 31 33  1  0  0  0  0
M  CHG  1  20   1
M  END
$$$$
default_name
  -OEChem-02102213163D

 36 35  0     1  0  0  0  0  0999 V2000
   -4.2256   -3.6731    1.8584 H   0  0  0  0  0  0  0  0  0  0  0  0
   -4.2396   -2.6781    1.4144 C   0  0  0  0  0  0  0  0  0  0  0  0
   -4.9506   -2.0521    1.9514 H   0  0  0  0  0  0  0  0  0  0  0  0
   -4.5266   -2.7521    0.3674 H   0  0  0  0  0  0  0  0  0  0  0  0
   -2.8576   -2.0761    1.5184 C   0  0  0  0  0  0  0  0  0  0  0  0
   -1.9456   -2.7051    2.0404 O   0  0  0  0  0  0  0  0  0  0  0  0
   -2.6926   -0.8481    1.0174 N   0  0  0  0  0  0  0  0  0  0  0  0
   -3.4926   -0.3971    0.5954 H   0  0  0  0  0  0  0  0  0  0  0  0
   -1.4216   -0.1071    1.0434 C   0  0  1  0  0  0  0  0  0  0  0  0
   -0.6709   -0.6930    0.5106 H   0  0  0  0  0  0  0  0  0  0  0  0
   -1.6221    1.2315    0.3051 C   0  0  0  0  0  0  0  0  0  0  0  0
   -1.4075    2.0473    0.9984 H   0  0  0  0  0  0  0  0  0  0  0  0
   -0.9109    1.2932   -0.5215 H   0  0  0  0  0  0  0  0  0  0  0  0
   -3.0454    1.4224   -0.2389 C   0  0  0  0  0  0  0  0  0  0  0  0
   -3.7577    0.8976    0.3992 H   0  0  0  0  0  0  0  0  0  0  0  0
   -3.2875    2.4856   -0.2507 H   0  0  0  0  0  0  0  0  0  0  0  0
   -3.1395    0.8617   -1.6644 C   0  0  0  0  0  0  0  0  0  0  0  0
   -2.4048    1.3739   -2.2898 H   0  0  0  0  0  0  0  0  0  0  0  0
   -2.8969   -0.2032   -1.6358 H   0  0  0  0  0  0  0  0  0  0  0  0
   -4.4885    1.0455   -2.2380 N   0  3  0  0  0  0  0  0  0  0  0  0
   -5.1822    1.4579   -1.6379 H   0  0  0  0  0  0  0  0  0  0  0  0
   -4.8683    0.7202   -3.4623 C   0  0  0  0  0  0  0  0  0  0  0  0
   -4.0500    0.1799   -4.3213 N   0  0  0  0  0  0  0  0  0  0  0  0
   -3.1003    0.0074   -4.0423 H   0  0  0  0  0  0  0  0  0  0  0  0
   -4.3544   -0.0614   -5.2465 H   0  0  0  0  0  0  0  0  0  0  0  0
   -6.0931    0.9330   -3.8518 N   0  0  0  0  0  0  0  0  0  0  0  0
   -6.7608    1.3479   -3.2248 H   0  0  0  0  0  0  0  0  0  0  0  0
   -6.3770    0.6847   -4.7815 H   0  0  0  0  0  0  0  0  0  0  0  0
   -0.9523    0.1012    2.4848 C   0  0  0  0  0  0  0  0  0  0  0  0
    0.2133   -0.1319    2.7814 O   0  0  0  0  0  0  0  0  0  0  0  0
   -1.8684    0.5006    3.3725 N   0  0  0  0  0  0  0  0  0  0  0  0
   -2.7946    0.7048    3.0343 H   0  0  0  0  0  0  0  0  0  0  0  0
   -1.5848    0.7472    4.7873 C   0  0  0  0  0  0  0  0  0  0  0  0
   -0.8819    1.5774    4.8838 H   0  0  0  0  0  0  0  0  0  0  0  0
   -2.5030    0.9948    5.3214 H   0  0  0  0  0  0  0  0  0  0  0  0
   -1.1344   -0.1399    5.2381 H   0  0  0  0  0  0  0  0  0  0  0  0
  5  6  2  0  0  0  0
  5  7  1  0  0  0  0
  2  3  1  0  0  0  0
  2  4  1  0  0  0  0
  2  5  1  0  0  0  0
  1  2  1  0  0  0  0
 29 30  2  0  0  0  0
 29 31  1  0  0  0  0
 26 27  1  0  0  0  0
 26 28  1  0  0  0  0
 23 24  1  0  0  0  0
 23 25  1  0  0  0  0
 22 23  1  0  0  0  0
 22 26  1  0  0  0  0
 20 21  1  0  0  0  0
 20 22  2  0  0  0  0
 17 18  1  0  0  0  0
 17 19  1  0  0  0  0
 17 20  1  0  0  0  0
 14 15  1  0  0  0  0
 14 16  1  0  0  0  0
 14 17  1  0  0  0  0
 11 12  1  0  0  0  0
 11 13  1  0  0  0  0
 11 14  1  0  0  0  0
  9 10  1  0  0  0  0
  9 11  1  0  0  0  0
  9 29  1  0  0  0  0
  7  8  1  0  0  0  0
  7  9  1  0  0  0  0
 33 34  1  0  0  0  0
 33 35  1  0  0  0  0
 33 36  1  0  0  0  0
 31 32  1  0  0  0  0
 31 33  1  0  0  0  0
M  CHG  1  20   1
M  END
$$$$
default_name
  -OEChem-02102213163D

 36 35  0     1  0  0  0  0  0999 V2000
   -4.2256   -3.6731    1.8584 H   0  0  0  0  0  0  0  0  0  0  0  0
   -4.2396   -2.6781    1.4144 C   0  0  0  0  0  0  0  0  0  0  0  0
   -4.9506   -2.0521    1.9514 H   0  0  0  0  0  0  0  0  0  0  0  0
   -4.5266   -2.7521    0.3674 H   0  0  0  0  0  0  0  0  0  0  0  0
   -2.8576   -2.0761    1.5184 C   0  0  0  0  0  0  0  0  0  0  0  0
   -1.9456   -2.7051    2.0404 O   0  0  0  0  0  0  0  0  0  0  0  0
   -2.6926   -0.8481    1.0174 N   0  0  0  0  0  0  0  0  0  0  0  0
   -3.4926   -0.3971    0.5954 H   0  0  0  0  0  0  0  0  0  0  0  0
   -1.4216   -0.1071    1.0434 C   0  0  1  0  0  0  0  0  0  0  0  0
   -0.6709   -0.6930    0.5106 H   0  0  0  0  0  0  0  0  0  0  0  0
   -1.6221    1.2315    0.3051 C   0  0  0  0  0  0  0  0  0  0  0  0
   -1.4075    2.0473    0.9984 H   0  0  0  0  0  0  0  0  0  0  0  0
   -0.9109    1.2932   -0.5215 H   0  0  0  0  0  0  0  0  0  0  0  0
   -3.0454    1.4224   -0.2389 C   0  0  0  0  0  0  0  0  0  0  0  0
   -3.7727    1.1354    0.5219 H   0  0  0  0  0  0  0  0  0  0  0  0
   -3.1935    2.4703   -0.5019 H   0  0  0  0  0  0  0  0  0  0  0  0
   -3.2501    0.5496   -1.4846 C   0  0  0  0  0  0  0  0  0  0  0  0
   -2.5010    0.8254   -2.2304 H   0  0  0  0  0  0  0  0  0  0  0  0
   -3.1009   -0.4959   -1.2049 H   0  0  0  0  0  0  0  0  0  0  0  0
   -4.6014    0.7196   -2.0572 N   0  3  0  0  0  0  0  0  0  0  0  0
   -5.2295    1.3275   -1.5599 H   0  0  0  0  0  0  0  0  0  0  0  0
   -5.0609    0.1496   -3.1585 C   0  0  0  0  0  0  0  0  0  0  0  0
   -4.3312   -0.6556   -3.8786 N   0  0  0  0  0  0  0  0  0  0  0  0
   -3.3892   -0.8466   -3.5862 H   0  0  0  0  0  0  0  0  0  0  0  0
   -4.6955   -1.0802   -4.7116 H   0  0  0  0  0  0  0  0  0  0  0  0
   -6.2781    0.3796   -3.5620 N   0  0  0  0  0  0  0  0  0  0  0  0
   -6.8790    0.9938   -3.0398 H   0  0  0  0  0  0  0  0  0  0  0  0
   -6.6227   -0.0549   -4.3981 H   0  0  0  0  0  0  0  0  0  0  0  0
   -0.9523    0.1012    2.4848 C   0  0  0  0  0  0  0  0  0  0  0  0
    0.2133   -0.1319    2.7814 O   0  0  0  0  0  0  0  0  0  0  0  0
   -1.8684    0.5006    3.3725 N   0  0  0  0  0  0  0  0  0  0  0  0
   -2.7946    0.7048    3.0343 H   0  0  0  0  0  0  0  0  0  0  0  0
   -1.5848    0.7472    4.7873 C   0  0  0  0  0  0  0  0  0  0  0  0
   -0.8819    1.5774    4.8838 H   0  0  0  0  0  0  0  0  0  0  0  0
   -2.5030    0.9948    5.3214 H   0  0  0  0  0  0  0  0  0  0  0  0
   -1.1344   -0.1399    5.2381 H   0  0  0  0  0  0  0  0  0  0  0  0
  5  6  2  0  0  0  0
  5  7  1  0  0  0  0
  2  3  1  0  0  0  0
  2  4  1  0  0  0  0
  2  5  1  0  0  0  0
  1  2  1  0  0  0  0
 29 30  2  0  0  0  0
 29 31  1  0  0  0  0
 26 27  1  0  0  0  0
 26 28  1  0  0  0  0
 23 24  1  0  0  0  0
 23 25  1  0  0  0  0
 22 23  1  0  0  0  0
 22 26  1  0  0  0  0
 20 21  1  0  0  0  0
 20 22  2  0  0  0  0
 17 18  1  0  0  0  0
 17 19  1  0  0  0  0
 17 20  1  0  0  0  0
 14 15  1  0  0  0  0
 14 16  1  0  0  0  0
 14 17  1  0  0  0  0
 11 12  1  0  0  0  0
 11 13  1  0  0  0  0
 11 14  1  0  0  0  0
  9 10  1  0  0  0  0
  9 11  1  0  0  0  0
  9 29  1  0  0  0  0
  7  8  1  0  0  0  0
  7  9  1  0  0  0  0
 33 34  1  0  0  0  0
 33 35  1  0  0  0  0
 33 36  1  0  0  0  0
 31 32  1  0  0  0  0
 31 33  1  0  0  0  0
M  CHG  1  20   1
M  END
$$$$
default_name
  -OEChem-02102213163D

 36 35  0     1  0  0  0  0  0999 V2000
   -4.2256   -3.6731    1.8584 H   0  0  0  0  0  0  0  0  0  0  0  0
   -4.2396   -2.6781    1.4144 C   0  0  0  0  0  0  0  0  0  0  0  0
   -4.9506   -2.0521    1.9514 H   0  0  0  0  0  0  0  0  0  0  0  0
   -4.5266   -2.7521    0.3674 H   0  0  0  0  0  0  0  0  0  0  0  0
   -2.8576   -2.0761    1.5184 C   0  0  0  0  0  0  0  0  0  0  0  0
   -1.9456   -2.7051    2.0404 O   0  0  0  0  0  0  0  0  0  0  0  0
   -2.6926   -0.8481    1.0174 N   0  0  0  0  0  0  0  0  0  0  0  0
   -3.4926   -0.3971    0.5954 H   0  0  0  0  0  0  0  0  0  0  0  0
   -1.4216   -0.1071    1.0434 C   0  0  1  0  0  0  0  0  0  0  0  0
   -0.6709   -0.6930    0.5106 H   0  0  0  0  0  0  0  0  0  0  0  0
   -1.6221    1.2315    0.3051 C   0  0  0  0  0  0  0  0  0  0  0  0
   -1.4075    2.0473    0.9984 H   0  0  0  0  0  0  0  0  0  0  0  0
   -0.9109    1.2932   -0.5215 H   0  0  0  0  0  0  0  0  0  0  0  0
   -3.0454    1.4224   -0.2389 C   0  0  0  0  0  0  0  0  0  0  0  0
   -3.7614    1.3960    0.5837 H   0  0  0  0  0  0  0  0  0  0  0  0
   -3.1123    2.3866   -0.7439 H   0  0  0  0  0  0  0  0  0  0  0  0
   -3.3797    0.3015   -1.2325 C   0  0  0  0  0  0  0  0  0  0  0  0
   -2.6424    0.3186   -2.0384 H   0  0  0  0  0  0  0  0  0  0  0  0
   -3.3109   -0.6565   -0.7119 H   0  0  0  0  0  0  0  0  0  0  0  0
   -4.7344    0.4585   -1.8007 N   0  3  0  0  0  0  0  0  0  0  0  0
   -5.2846    1.2246   -1.4518 H   0  0  0  0  0  0  0  0  0  0  0  0
   -5.2896   -0.3110   -2.7220 C   0  0  0  0  0  0  0  0  0  0  0  0
   -4.6653   -1.3306   -3.2416 N   0  0  0  0  0  0  0  0  0  0  0  0
   -3.7318   -1.5356   -2.9316 H   0  0  0  0  0  0  0  0  0  0  0  0
   -5.1012   -1.9047   -3.9396 H   0  0  0  0  0  0  0  0  0  0  0  0
   -6.4982   -0.0685   -3.1434 N   0  0  0  0  0  0  0  0  0  0  0  0
   -7.0196    0.7070   -2.7724 H   0  0  0  0  0  0  0  0  0  0  0  0
   -6.9156   -0.6548   -3.8425 H   0  0  0  0  0  0  0  0  0  0  0  0
   -0.9523    0.1012    2.4848 C   0  0  0  0  0  0  0  0  0  0  0  0
    0.2133   -0.1319    2.7814 O   0  0  0  0  0  0  0  0  0  0  0  0
   -1.8684    0.5006    3.3725 N   0  0  0  0  0  0  0  0  0  0  0  0
   -2.7946    0.7048    3.0343 H   0  0  0  0  0  0  0  0  0  0  0  0
   -1.5848    0.7472    4.7873 C   0  0  0  0  0  0  0  0  0  0  0  0
   -0.8819    1.5774    4.8838 H   0  0  0  0  0  0  0  0  0  0  0  0
   -2.5030    0.9948    5.3214 H   0  0  0  0  0  0  0  0  0  0  0  0
   -1.1344   -0.1399    5.2381 H   0  0  0  0  0  0  0  0  0  0  0  0
  5  6  2  0  0  0  0
  5  7  1  0  0  0  0
  2  3  1  0  0  0  0
  2  4  1  0  0  0  0
  2  5  1  0  0  0  0
  1  2  1  0  0  0  0
 29 30  2  0  0  0  0
 29 31  1  0  0  0  0
 26 27  1  0  0  0  0
 26 28  1  0  0  0  0
 23 24  1  0  0  0  0
 23 25  1  0  0  0  0
 22 23  1  0  0  0  0
 22 26  1  0  0  0  0
 20 21  1  0  0  0  0
 20 22  2  0  0  0  0
 17 18  1  0  0  0  0
 17 19  1  0  0  0  0
 17 20  1  0  0  0  0
 14 15  1  0  0  0  0
 14 16  1  0  0  0  0
 14 17  1  0  0  0  0
 11 12  1  0  0  0  0
 11 13  1  0  0  0  0
 11 14  1  0  0  0  0
  9 10  1  0  0  0  0
  9 11  1  0  0  0  0
  9 29  1  0  0  0  0
  7  8  1  0  0  0  0
  7  9  1  0  0  0  0
 33 34  1  0  0  0  0
 33 35  1  0  0  0  0
 33 36  1  0  0  0  0
 31 32  1  0  0  0  0
 31 33  1  0  0  0  0
M  CHG  1  20   1
M  END
$$$$
default_name
  -OEChem-02102213163D

 36 35  0     1  0  0  0  0  0999 V2000
   -4.2256   -3.6731    1.8584 H   0  0  0  0  0  0  0  0  0  0  0  0
   -4.2396   -2.6781    1.4144 C   0  0  0  0  0  0  0  0  0  0  0  0
   -4.9506   -2.0521    1.9514 H   0  0  0  0  0  0  0  0  0  0  0  0
   -4.5266   -2.7521    0.3674 H   0  0  0  0  0  0  0  0  0  0  0  0
   -2.8576   -2.0761    1.5184 C   0  0  0  0  0  0  0  0  0  0  0  0
   -1.9456   -2.7051    2.0404 O   0  0  0  0  0  0  0  0  0  0  0  0
   -2.6926   -0.8481    1.0174 N   0  0  0  0  0  0  0  0  0  0  0  0
   -3.4926   -0.3971    0.5954 H   0  0  0  0  0  0  0  0  0  0  0  0
   -1.4216   -0.1071    1.0434 C   0  0  1  0  0  0  0  0  0  0  0  0
   -0.6709   -0.6930    0.5106 H   0  0  0  0  0  0  0  0  0  0  0  0
   -1.6221    1.2315    0.3051 C   0  0  0  0  0  0  0  0  0  0  0  0
   -1.4075    2.0473    0.9984 H   0  0  0  0  0  0  0  0  0  0  0  0
   -0.9109    1.2932   -0.5215 H   0  0  0  0  0  0  0  0  0  0  0  0
   -3.0454    1.4224   -0.2389 C   0  0  0  0  0  0  0  0  0  0  0  0
   -3.7246    1.6614    0.5806 H   0  0  0  0  0  0  0  0  0  0  0  0
   -3.0492    2.2402   -0.9602 H   0  0  0  0  0  0  0  0  0  0  0  0
   -3.5196    0.1342   -0.9253 C   0  0  0  0  0  0  0  0  0  0  0  0
   -2.8192   -0.1119   -1.7268 H   0  0  0  0  0  0  0  0  0  0  0  0
   -3.5125   -0.6742   -0.1904 H   0  0  0  0  0  0  0  0  0  0  0  0
   -4.8787    0.2800   -1.4860 N   0  3  0  0  0  0  0  0  0  0  0  0
   -5.3438    1.1562   -1.3209 H   0  0  0  0  0  0  0  0  0  0  0  0
   -5.5386   -0.6302   -2.1824 C   0  0  0  0  0  0  0  0  0  0  0  0
   -5.0293   -1.7992   -2.4535 N   0  0  0  0  0  0  0  0  0  0  0  0
   -4.1049   -2.0126   -2.1229 H   0  0  0  0  0  0  0  0  0  0  0  0
   -5.5438   -2.4787   -2.9830 H   0  0  0  0  0  0  0  0  0  0  0  0
   -6.7385   -0.3808   -2.6245 N   0  0  0  0  0  0  0  0  0  0  0  0
   -7.1732    0.5071   -2.4408 H   0  0  0  0  0  0  0  0  0  0  0  0
   -7.2356   -1.0741   -3.1525 H   0  0  0  0  0  0  0  0  0  0  0  0
   -0.9523    0.1012    2.4848 C   0  0  0  0  0  0  0  0  0  0  0  0
    0.2133   -0.1319    2.7814 O   0  0  0  0  0  0  0  0  0  0  0  0
   -1.8684    0.5006    3.3725 N   0  0  0  0  0  0  0  0  0  0  0  0
   -2.7946    0.7048    3.0343 H   0  0  0  0  0  0  0  0  0  0  0  0
   -1.5848    0.7472    4.7873 C   0  0  0  0  0  0  0  0  0  0  0  0
   -0.8819    1.5774    4.8838 H   0  0  0  0  0  0  0  0  0  0  0  0
   -2.5030    0.9948    5.3214 H   0  0  0  0  0  0  0  0  0  0  0  0
   -1.1344   -0.1399    5.2381 H   0  0  0  0  0  0  0  0  0  0  0  0
  5  6  2  0  0  0  0
  5  7  1  0  0  0  0
  2  3  1  0  0  0  0
  2  4  1  0  0  0  0
  2  5  1  0  0  0  0
  1  2  1  0  0  0  0
 29 30  2  0  0  0  0
 29 31  1  0  0  0  0
 26 27  1  0  0  0  0
 26 28  1  0  0  0  0
 23 24  1  0  0  0  0
 23 25  1  0  0  0  0
 22 23  1  0  0  0  0
 22 26  1  0  0  0  0
 20 21  1  0  0  0  0
 20 22  2  0  0  0  0
 17 18  1  0  0  0  0
 17 19  1  0  0  0  0
 17 20  1  0  0  0  0
 14 15  1  0  0  0  0
 14 16  1  0  0  0  0
 14 17  1  0  0  0  0
 11 12  1  0  0  0  0
 11 13  1  0  0  0  0
 11 14  1  0  0  0  0
  9 10  1  0  0  0  0
  9 11  1  0  0  0  0
  9 29  1  0  0  0  0
  7  8  1  0  0  0  0
  7  9  1  0  0  0  0
 33 34  1  0  0  0  0
 33 35  1  0  0  0  0
 33 36  1  0  0  0  0
 31 32  1  0  0  0  0
 31 33  1  0  0  0  0
M  CHG  1  20   1
M  END
$$$$
default_name
  -OEChem-02102213163D

 36 35  0     1  0  0  0  0  0999 V2000
   -4.2256   -3.6731    1.8584 H   0  0  0  0  0  0  0  0  0  0  0  0
   -4.2396   -2.6781    1.4144 C   0  0  0  0  0  0  0  0  0  0  0  0
   -4.9506   -2.0521    1.9514 H   0  0  0  0  0  0  0  0  0  0  0  0
   -4.5266   -2.7521    0.3674 H   0  0  0  0  0  0  0  0  0  0  0  0
   -2.8576   -2.0761    1.5184 C   0  0  0  0  0  0  0  0  0  0  0  0
   -1.9456   -2.7051    2.0404 O   0  0  0  0  0  0  0  0  0  0  0  0
   -2.6926   -0.8481    1.0174 N   0  0  0  0  0  0  0  0  0  0  0  0
   -3.4926   -0.3971    0.5954 H   0  0  0  0  0  0  0  0  0  0  0  0
   -1.4216   -0.1071    1.0434 C   0  0  1  0  0  0  0  0  0  0  0  0
   -0.6709   -0.6930    0.5106 H   0  0  0  0  0  0  0  0  0  0  0  0
   -1.6221    1.2315    0.3051 C   0  0  0  0  0  0  0  0  0  0  0  0
   -1.4075    2.0473    0.9984 H   0  0  0  0  0  0  0  0  0  0  0  0
   -0.9109    1.2932   -0.5215 H   0  0  0  0  0  0  0  0  0  0  0  0
   -3.0454    1.4224   -0.2389 C   0  0  0  0  0  0  0  0  0  0  0  0
   -3.6648    1.9137    0.5128 H   0  0  0  0  0  0  0  0  0  0  0  0
   -3.0087    2.0412   -1.1360 H   0  0  0  0  0  0  0  0  0  0  0  0
   -3.6601    0.0592   -0.5840 C   0  0  0  0  0  0  0  0  0  0  0  0
   -3.0195   -0.4367   -1.3168 H   0  0  0  0  0  0  0  0  0  0  0  0
   -3.6922   -0.5476    0.3241 H   0  0  0  0  0  0  0  0  0  0  0  0
   -5.0242    0.1963   -1.1346 N   0  3  0  0  0  0  0  0  0  0  0  0
   -5.4031    1.1269   -1.1762 H   0  0  0  0  0  0  0  0  0  0  0  0
   -5.7910   -0.7863   -1.5767 C   0  0  0  0  0  0  0  0  0  0  0  0
   -5.3986   -2.0293   -1.5682 N   0  0  0  0  0  0  0  0  0  0  0  0
   -4.4830   -2.2452   -1.2154 H   0  0  0  0  0  0  0  0  0  0  0  0
   -5.9932   -2.7632   -1.9071 H   0  0  0  0  0  0  0  0  0  0  0  0
   -6.9824   -0.5359   -2.0406 N   0  0  0  0  0  0  0  0  0  0  0  0
   -7.3292    0.4075   -2.0676 H   0  0  0  0  0  0  0  0  0  0  0  0
   -7.5609   -1.2843   -2.3751 H   0  0  0  0  0  0  0  0  0  0  0  0
   -0.9523    0.1012    2.4848 C   0  0  0  0  0  0  0  0  0  0  0  0
    0.2133   -0.1319    2.7814 O   0  0  0  0  0  0  0  0  0  0  0  0
   -1.8684    0.5006    3.3725 N   0  0  0  0  0  0  0  0  0  0  0  0
   -2.7946    0.7048    3.0343 H   0  0  0  0  0  0  0  0  0  0  0  0
   -1.5848    0.7472    4.7873 C   0  0  0  0  0  0  0  0  0  0  0  0
   -0.8819    1.5774    4.8838 H   0  0  0  0  0  0  0  0  0  0  0  0
   -2.5030    0.9948    5.3214 H   0  0  0  0  0  0  0  0  0  0  0  0
   -1.1344   -0.1399    5.2381 H   0  0  0  0  0  0  0  0  0  0  0  0
  5  6  2  0  0  0  0
  5  7  1  0  0  0  0
  2  3  1  0  0  0  0
  2  4  1  0  0  0  0
  2  5  1  0  0  0  0
  1  2  1  0  0  0  0
 29 30  2  0  0  0  0
 29 31  1  0  0  0  0
 26 27  1  0  0  0  0
 26 28  1  0  0  0  0
 23 24  1  0  0  0  0
 23 25  1  0  0  0  0
 22 23  1  0  0  0  0
 22 26  1  0  0  0  0
 20 21  1  0  0  0  0
 20 22  2  0  0  0  0
 17 18  1  0  0  0  0
 17 19  1  0  0  0  0
 17 20  1  0  0  0  0
 14 15  1  0  0  0  0
 14 16  1  0  0  0  0
 14 17  1  0  0  0  0
 11 12  1  0  0  0  0
 11 13  1  0  0  0  0
 11 14  1  0  0  0  0
  9 10  1  0  0  0  0
  9 11  1  0  0  0  0
  9 29  1  0  0  0  0
  7  8  1  0  0  0  0
  7  9  1  0  0  0  0
 33 34  1  0  0  0  0
 33 35  1  0  0  0  0
 33 36  1  0  0  0  0
 31 32  1  0  0  0  0
 31 33  1  0  0  0  0
M  CHG  1  20   1
M  END
$$$$
default_name
  -OEChem-02102213163D

 36 35  0     1  0  0  0  0  0999 V2000
   -4.2256   -3.6731    1.8584 H   0  0  0  0  0  0  0  0  0  0  0  0
   -4.2396   -2.6781    1.4144 C   0  0  0  0  0  0  0  0  0  0  0  0
   -4.9506   -2.0521    1.9514 H   0  0  0  0  0  0  0  0  0  0  0  0
   -4.5266   -2.7521    0.3674 H   0  0  0  0  0  0  0  0  0  0  0  0
   -2.8576   -2.0761    1.5184 C   0  0  0  0  0  0  0  0  0  0  0  0
   -1.9456   -2.7051    2.0404 O   0  0  0  0  0  0  0  0  0  0  0  0
   -2.6926   -0.8481    1.0174 N   0  0  0  0  0  0  0  0  0  0  0  0
   -3.4926   -0.3971    0.5954 H   0  0  0  0  0  0  0  0  0  0  0  0
   -1.4216   -0.1071    1.0434 C   0  0  1  0  0  0  0  0  0  0  0  0
   -0.6709   -0.6930    0.5106 H   0  0  0  0  0  0  0  0  0  0  0  0
   -1.6221    1.2315    0.3051 C   0  0  0  0  0  0  0  0  0  0  0  0
   -1.4075    2.0473    0.9984 H   0  0  0  0  0  0  0  0  0  0  0  0
   -0.9109    1.2932   -0.5215 H   0  0  0  0  0  0  0  0  0  0  0  0
   -3.0454    1.4224   -0.2389 C   0  0  0  0  0  0  0  0  0  0  0  0
   -3.5861    2.1356    0.3848 H   0  0  0  0  0  0  0  0  0  0  0  0
   -2.9935    1.8031   -1.2594 H   0  0  0  0  0  0  0  0  0  0  0  0
   -3.7918    0.0814   -0.2317 C   0  0  0  0  0  0  0  0  0  0  0  0
   -3.2295   -0.6338   -0.8365 H   0  0  0  0  0  0  0  0  0  0  0  0
   -3.8376   -0.2855    0.7964 H   0  0  0  0  0  0  0  0  0  0  0  0
   -5.1611    0.2131   -0.7704 N   0  3  0  0  0  0  0  0  0  0  0  0
   -5.4583    1.1388   -1.0274 H   0  0  0  0  0  0  0  0  0  0  0  0
   -6.0297   -0.7686   -0.9460 C   0  0  0  0  0  0  0  0  0  0  0  0
   -5.7478   -2.0054   -0.6460 N   0  0  0  0  0  0  0  0  0  0  0  0
   -4.8403   -2.2175   -0.2708 H   0  0  0  0  0  0  0  0  0  0  0  0
   -6.4187   -2.7386   -0.7852 H   0  0  0  0  0  0  0  0  0  0  0  0
   -7.2135   -0.5233   -1.4315 N   0  0  0  0  0  0  0  0  0  0  0  0
   -7.4770    0.4152   -1.6782 H   0  0  0  0  0  0  0  0  0  0  0  0
   -7.8694   -1.2710   -1.5633 H   0  0  0  0  0  0  0  0  0  0  0  0
   -0.9523    0.1012    2.4848 C   0  0  0  0  0  0  0  0  0  0  0  0
    0.2133   -0.1319    2.7814 O   0  0  0  0  0  0  0  0  0  0  0  0
   -1.8684    0.5006    3.3725 N   0  0  0  0  0  0  0  0  0  0  0  0
   -2.7946    0.7048    3.0343 H   0  0  0  0  0  0  0  0  0  0  0  0
   -1.5848    0.7472    4.7873 C   0  0  0  0  0  0  0  0  0  0  0  0
   -0.8819    1.5774    4.8838 H   0  0  0  0  0  0  0  0  0  0  0  0
   -2.5030    0.9948    5.3214 H   0  0  0  0  0  0  0  0  0  0  0  0
   -1.1344   -0.1399    5.2381 H   0  0  0  0  0  0  0  0  0  0  0  0
  5  6  2  0  0  0  0
  5  7  1  0  0  0  0
  2  3  1  0  0  0  0
  2  4  1  0  0  0  0
  2  5  1  0  0  0  0
  1  2  1  0  0  0  0
 29 30  2  0  0  0  0
 29 31  1  0  0  0  0
 26 27  1  0  0  0  0
 26 28  1  0  0  0  0
 23 24  1  0  0  0  0
 23 25  1  0  0  0  0
 22 23  1  0  0  0  0
 22 26  1  0  0  0  0
 20 21  1  0  0  0  0
 20 22  2  0  0  0  0
 17 18  1  0  0  0  0
 17 19  1  0  0  0  0
 17 20  1  0  0  0  0
 14 15  1  0  0  0  0
 14 16  1  0  0  0  0
 14 17  1  0  0  0  0
 11 12  1  0  0  0  0
 11 13  1  0  0  0  0
 11 14  1  0  0  0  0
  9 10  1  0  0  0  0
  9 11  1  0  0  0  0
  9 29  1  0  0  0  0
  7  8  1  0  0  0  0
  7  9  1  0  0  0  0
 33 34  1  0  0  0  0
 33 35  1  0  0  0  0
 33 36  1  0  0  0  0
 31 32  1  0  0  0  0
 31 33  1  0  0  0  0
M  CHG  1  20   1
M  END
$$$$
default_name
  -OEChem-02102213163D

 36 35  0     1  0  0  0  0  0999 V2000
   -4.2256   -3.6731    1.8584 H   0  0  0  0  0  0  0  0  0  0  0  0
   -4.2396   -2.6781    1.4144 C   0  0  0  0  0  0  0  0  0  0  0  0
   -4.9506   -2.0521    1.9514 H   0  0  0  0  0  0  0  0  0  0  0  0
   -4.5266   -2.7521    0.3674 H   0  0  0  0  0  0  0  0  0  0  0  0
   -2.8576   -2.0761    1.5184 C   0  0  0  0  0  0  0  0  0  0  0  0
   -1.9456   -2.7051    2.0404 O   0  0  0  0  0  0  0  0  0  0  0  0
   -2.6926   -0.8481    1.0174 N   0  0  0  0  0  0  0  0  0  0  0  0
   -3.4926   -0.3971    0.5954 H   0  0  0  0  0  0  0  0  0  0  0  0
   -1.4216   -0.1071    1.0434 C   0  0  1  0  0  0  0  0  0  0  0  0
   -0.6709   -0.6930    0.5106 H   0  0  0  0  0  0  0  0  0  0  0  0
   -1.6221    1.2315    0.3051 C   0  0  0  0  0  0  0  0  0  0  0  0
   -1.4075    2.0473    0.9984 H   0  0  0  0  0  0  0  0  0  0  0  0
   -0.9109    1.2932   -0.5215 H   0  0  0  0  0  0  0  0  0  0  0  0
   -3.0454    1.4224   -0.2389 C   0  0  0  0  0  0  0  0  0  0  0  0
   -3.4939    2.3121    0.2054 H   0  0  0  0  0  0  0  0  0  0  0  0
   -3.0046    1.5421   -1.3220 H   0  0  0  0  0  0  0  0  0  0  0  0
   -3.9056    0.1995    0.1075 C   0  0  0  0  0  0  0  0  0  0  0  0
   -3.4350   -0.6897   -0.3185 H   0  0  0  0  0  0  0  0  0  0  0  0
   -3.9387    0.0943    1.1944 H   0  0  0  0  0  0  0  0  0  0  0  0
   -5.2802    0.3293   -0.4182 N   0  3  0  0  0  0  0  0  0  0  0  0
   -5.5058    1.1911   -0.8848 H   0  0  0  0  0  0  0  0  0  0  0  0
   -6.2383   -0.5783   -0.3334 C   0  0  0  0  0  0  0  0  0  0  0  0
   -6.0533   -1.7291    0.2503 N   0  0  0  0  0  0  0  0  0  0  0  0
   -5.1525   -1.9313    0.6465 H   0  0  0  0  0  0  0  0  0  0  0  0
   -6.7913   -2.4067    0.3063 H   0  0  0  0  0  0  0  0  0  0  0  0
   -7.4160   -0.3438   -0.8388 N   0  0  0  0  0  0  0  0  0  0  0  0
   -7.6065    0.5296   -1.2992 H   0  0  0  0  0  0  0  0  0  0  0  0
   -8.1400   -1.0351   -0.7724 H   0  0  0  0  0  0  0  0  0  0  0  0
   -0.9523    0.1012    2.4848 C   0  0  0  0  0  0  0  0  0  0  0  0
    0.2133   -0.1319    2.7814 O   0  0  0  0  0  0  0  0  0  0  0  0
   -1.8684    0.5006    3.3725 N   0  0  0  0  0  0  0  0  0  0  0  0
   -2.7946    0.7048    3.0343 H   0  0  0  0  0  0  0  0  0  0  0  0
   -1.5848    0.7472    4.7873 C   0  0  0  0  0  0  0  0  0  0  0  0
   -0.8819    1.5774    4.8838 H   0  0  0  0  0  0  0  0  0  0  0  0
   -2.5030    0.9948    5.3214 H   0  0  0  0  0  0  0  0  0  0  0  0
   -1.1344   -0.1399    5.2381 H   0  0  0  0  0  0  0  0  0  0  0  0
  5  6  2  0  0  0  0
  5  7  1  0  0  0  0
  2  3  1  0  0  0  0
  2  4  1  0  0  0  0
  2  5  1  0  0  0  0
  1  2  1  0  0  0  0
 29 30  2  0  0  0  0
 29 31  1  0  0  0  0
 26 27  1  0  0  0  0
 26 28  1  0  0  0  0
 23 24  1  0  0  0  0
 23 25  1  0  0  0  0
 22 23  1  0  0  0  0
 22 26  1  0  0  0  0
 20 21  1  0  0  0  0
 20 22  2  0  0  0  0
 17 18  1  0  0  0  0
 17 19  1  0  0  0  0
 17 20  1  0  0  0  0
 14 15  1  0  0  0  0
 14 16  1  0  0  0  0
 14 17  1  0  0  0  0
 11 12  1  0  0  0  0
 11 13  1  0  0  0  0
 11 14  1  0  0  0  0
  9 10  1  0  0  0  0
  9 11  1  0  0  0  0
  9 29  1  0  0  0  0
  7  8  1  0  0  0  0
  7  9  1  0  0  0  0
 33 34  1  0  0  0  0
 33 35  1  0  0  0  0
 33 36  1  0  0  0  0
 31 32  1  0  0  0  0
 31 33  1  0  0  0  0
M  CHG  1  20   1
M  END
$$$$
default_name
  -OEChem-02102213163D

 36 35  0     1  0  0  0  0  0999 V2000
   -4.2256   -3.6731    1.8584 H   0  0  0  0  0  0  0  0  0  0  0  0
   -4.2396   -2.6781    1.4144 C   0  0  0  0  0  0  0  0  0  0  0  0
   -4.9506   -2.0521    1.9514 H   0  0  0  0  0  0  0  0  0  0  0  0
   -4.5266   -2.7521    0.3674 H   0  0  0  0  0  0  0  0  0  0  0  0
   -2.8576   -2.0761    1.5184 C   0  0  0  0  0  0  0  0  0  0  0  0
   -1.9456   -2.7051    2.0404 O   0  0  0  0  0  0  0  0  0  0  0  0
   -2.6926   -0.8481    1.0174 N   0  0  0  0  0  0  0  0  0  0  0  0
   -3.4926   -0.3971    0.5954 H   0  0  0  0  0  0  0  0  0  0  0  0
   -1.4216   -0.1071    1.0434 C   0  0  1  0  0  0  0  0  0  0  0  0
   -0.6709   -0.6930    0.5106 H   0  0  0  0  0  0  0  0  0  0  0  0
   -1.6221    1.2315    0.3051 C   0  0  0  0  0  0  0  0  0  0  0  0
   -1.4075    2.0473    0.9984 H   0  0  0  0  0  0  0  0  0  0  0  0
   -0.9109    1.2932   -0.5215 H   0  0  0  0  0  0  0  0  0  0  0  0
   -3.0454    1.4224   -0.2389 C   0  0  0  0  0  0  0  0  0  0  0  0
   -3.3944    2.4310   -0.0132 H   0  0  0  0  0  0  0  0  0  0  0  0
   -3.0412    1.2760   -1.3194 H   0  0  0  0  0  0  0  0  0  0  0  0
   -3.9937    0.4053    0.4104 C   0  0  0  0  0  0  0  0  0  0  0  0
   -3.6220   -0.6005    0.2019 H   0  0  0  0  0  0  0  0  0  0  0  0
   -3.9888    0.5660    1.4911 H   0  0  0  0  0  0  0  0  0  0  0  0
   -5.3731    0.5369   -0.1021 N   0  3  0  0  0  0  0  0  0  0  0  0
   -5.5423    1.2801   -0.7581 H   0  0  0  0  0  0  0  0  0  0  0  0
   -6.4027   -0.2285    0.2194 C   0  0  0  0  0  0  0  0  0  0  0  0
   -6.2942   -1.2192    1.0596 N   0  0  0  0  0  0  0  0  0  0  0  0
   -5.3983   -1.4063    1.4739 H   0  0  0  0  0  0  0  0  0  0  0  0
   -7.0857   -1.7901    1.2930 H   0  0  0  0  0  0  0  0  0  0  0  0
   -7.5760   -0.0097   -0.3029 N   0  0  0  0  0  0  0  0  0  0  0  0
   -7.7089    0.7429   -0.9563 H   0  0  0  0  0  0  0  0  0  0  0  0
   -8.3543   -0.5927   -0.0563 H   0  0  0  0  0  0  0  0  0  0  0  0
   -0.9523    0.1012    2.4848 C   0  0  0  0  0  0  0  0  0  0  0  0
    0.2133   -0.1319    2.7814 O   0  0  0  0  0  0  0  0  0  0  0  0
   -1.8684    0.5006    3.3725 N   0  0  0  0  0  0  0  0  0  0  0  0
   -2.7946    0.7048    3.0343 H   0  0  0  0  0  0  0  0  0  0  0  0
   -1.5848    0.7472    4.7873 C   0  0  0  0  0  0  0  0  0  0  0  0
   -0.8819    1.5774    4.8838 H   0  0  0  0  0  0  0  0  0  0  0  0
   -2.5030    0.9948    5.3214 H   0  0  0  0  0  0  0  0  0  0  0  0
   -1.1344   -0.1399    5.2381 H   0  0  0  0  0  0  0  0  0  0  0  0
  5  6  2  0  0  0  0
  5  7  1  0  0  0  0
  2  3  1  0  0  0  0
  2  4  1  0  0  0  0
  2  5  1  0  0  0  0
  1  2  1  0  0  0  0
 29 30  2  0  0  0  0
 29 31  1  0  0  0  0
 26 27  1  0  0  0  0
 26 28  1  0  0  0  0
 23 24  1  0  0  0  0
 23 25  1  0  0  0  0
 22 23  1  0  0  0  0
 22 26  1  0  0  0  0
 20 21  1  0  0  0  0
 20 22  2  0  0  0  0
 17 18  1  0  0  0  0
 17 19  1  0  0  0  0
 17 20  1  0  0  0  0
 14 15  1  0  0  0  0
 14 16  1  0  0  0  0
 14 17  1  0  0  0  0
 11 12  1  0  0  0  0
 11 13  1  0  0  0  0
 11 14  1  0  0  0  0
  9 10  1  0  0  0  0
  9 11  1  0  0  0  0
  9 29  1  0  0  0  0
  7  8  1  0  0  0  0
  7  9  1  0  0  0  0
 33 34  1  0  0  0  0
 33 35  1  0  0  0  0
 33 36  1  0  0  0  0
 31 32  1  0  0  0  0
 31 33  1  0  0  0  0
M  CHG  1  20   1
M  END
$$$$
default_name
  -OEChem-02102213163D

 36 35  0     1  0  0  0  0  0999 V2000
   -4.2256   -3.6731    1.8584 H   0  0  0  0  0  0  0  0  0  0  0  0
   -4.2396   -2.6781    1.4144 C   0  0  0  0  0  0  0  0  0  0  0  0
   -4.9506   -2.0521    1.9514 H   0  0  0  0  0  0  0  0  0  0  0  0
   -4.5266   -2.7521    0.3674 H   0  0  0  0  0  0  0  0  0  0  0  0
   -2.8576   -2.0761    1.5184 C   0  0  0  0  0  0  0  0  0  0  0  0
   -1.9456   -2.7051    2.0404 O   0  0  0  0  0  0  0  0  0  0  0  0
   -2.6926   -0.8481    1.0174 N   0  0  0  0  0  0  0  0  0  0  0  0
   -3.4926   -0.3971    0.5954 H   0  0  0  0  0  0  0  0  0  0  0  0
   -1.4216   -0.1071    1.0434 C   0  0  1  0  0  0  0  0  0  0  0  0
   -0.6709   -0.6930    0.5106 H   0  0  0  0  0  0  0  0  0  0  0  0
   -1.6221    1.2315    0.3051 C   0  0  0  0  0  0  0  0  0  0  0  0
   -1.4075    2.0473    0.9984 H   0  0  0  0  0  0  0  0  0  0  0  0
   -0.9109    1.2932   -0.5215 H   0  0  0  0  0  0  0  0  0  0  0  0
   -3.0454    1.4224   -0.2389 C   0  0  0  0  0  0  0  0  0  0  0  0
   -3.2944    2.4844   -0.2560 H   0  0  0  0  0  0  0  0  0  0  0  0
   -3.1010    1.0229   -1.2520 H   0  0  0  0  0  0  0  0  0  0  0  0
   -4.0503    0.6849    0.6565 C   0  0  0  0  0  0  0  0  0  0  0  0
   -3.7776   -0.3725    0.6892 H   0  0  0  0  0  0  0  0  0  0  0  0
   -3.9845    1.0973    1.6661 H   0  0  0  0  0  0  0  0  0  0  0  0
   -5.4337    0.8217    0.1564 N   0  3  0  0  0  0  0  0  0  0  0  0
   -5.5653    1.3998   -0.6558 H   0  0  0  0  0  0  0  0  0  0  0  0
   -6.5116    0.2571    0.6747 C   0  0  0  0  0  0  0  0  0  0  0  0
   -6.4542   -0.5104    1.7267 N   0  0  0  0  0  0  0  0  0  0  0  0
   -5.5610   -0.6782    2.1551 H   0  0  0  0  0  0  0  0  0  0  0  0
   -7.2818   -0.9309    2.1076 H   0  0  0  0  0  0  0  0  0  0  0  0
   -7.6827    0.4563    0.1398 N   0  0  0  0  0  0  0  0  0  0  0  0
   -7.7773    1.0405   -0.6730 H   0  0  0  0  0  0  0  0  0  0  0  0
   -8.4978    0.0260    0.5361 H   0  0  0  0  0  0  0  0  0  0  0  0
   -0.9523    0.1012    2.4848 C   0  0  0  0  0  0  0  0  0  0  0  0
    0.2133   -0.1319    2.7814 O   0  0  0  0  0  0  0  0  0  0  0  0
   -1.8684    0.5006    3.3725 N   0  0  0  0  0  0  0  0  0  0  0  0
   -2.7946    0.7048    3.0343 H   0  0  0  0  0  0  0  0  0  0  0  0
   -1.5848    0.7472    4.7873 C   0  0  0  0  0  0  0  0  0  0  0  0
   -0.8819    1.5774    4.8838 H   0  0  0  0  0  0  0  0  0  0  0  0
   -2.5030    0.9948    5.3214 H   0  0  0  0  0  0  0  0  0  0  0  0
   -1.1344   -0.1399    5.2381 H   0  0  0  0  0  0  0  0  0  0  0  0
  5  6  2  0  0  0  0
  5  7  1  0  0  0  0
  2  3  1  0  0  0  0
  2  4  1  0  0  0  0
  2  5  1  0  0  0  0
  1  2  1  0  0  0  0
 29 30  2  0  0  0  0
 29 31  1  0  0  0  0
 26 27  1  0  0  0  0
 26 28  1  0  0  0  0
 23 24  1  0  0  0  0
 23 25  1  0  0  0  0
 22 23  1  0  0  0  0
 22 26  1  0  0  0  0
 20 21  1  0  0  0  0
 20 22  2  0  0  0  0
 17 18  1  0  0  0  0
 17 19  1  0  0  0  0
 17 20  1  0  0  0  0
 14 15  1  0  0  0  0
 14 16  1  0  0  0  0
 14 17  1  0  0  0  0
 11 12  1  0  0  0  0
 11 13  1  0  0  0  0
 11 14  1  0  0  0  0
  9 10  1  0  0  0  0
  9 11  1  0  0  0  0
  9 29  1  0  0  0  0
  7  8  1  0  0  0  0
  7  9  1  0  0  0  0
 33 34  1  0  0  0  0
 33 35  1  0  0  0  0
 33 36  1  0  0  0  0
 31 32  1  0  0  0  0
 31 33  1  0  0  0  0
M  CHG  1  20   1
M  END
$$$$
default_name
  -OEChem-02102213163D

 36 35  0     1  0  0  0  0  0999 V2000
   -4.2256   -3.6731    1.8584 H   0  0  0  0  0  0  0  0  0  0  0  0
   -4.2396   -2.6781    1.4144 C   0  0  0  0  0  0  0  0  0  0  0  0
   -4.9506   -2.0521    1.9514 H   0  0  0  0  0  0  0  0  0  0  0  0
   -4.5266   -2.7521    0.3674 H   0  0  0  0  0  0  0  0  0  0  0  0
   -2.8576   -2.0761    1.5184 C   0  0  0  0  0  0  0  0  0  0  0  0
   -1.9456   -2.7051    2.0404 O   0  0  0  0  0  0  0  0  0  0  0  0
   -2.6926   -0.8481    1.0174 N   0  0  0  0  0  0  0  0  0  0  0  0
   -3.4926   -0.3971    0.5954 H   0  0  0  0  0  0  0  0  0  0  0  0
   -1.4216   -0.1071    1.0434 C   0  0  1  0  0  0  0  0  0  0  0  0
   -0.6709   -0.6930    0.5106 H   0  0  0  0  0  0  0  0  0  0  0  0
   -1.6221    1.2315    0.3051 C   0  0  0  0  0  0  0  0  0  0  0  0
   -1.4075    2.0473    0.9984 H   0  0  0  0  0  0  0  0  0  0  0  0
   -0.9109    1.2932   -0.5215 H   0  0  0  0  0  0  0  0  0  0  0  0
   -3.0454    1.4224   -0.2389 C   0  0  0  0  0  0  0  0  0  0  0  0
   -3.2008    2.4685   -0.5066 H   0  0  0  0  0  0  0  0  0  0  0  0
   -3.1797    0.8001   -1.1242 H   0  0  0  0  0  0  0  0  0  0  0  0
   -4.0714    1.0191    0.8289 C   0  0  0  0  0  0  0  0  0  0  0  0
   -3.8914   -0.0210    1.1102 H   0  0  0  0  0  0  0  0  0  0  0  0
   -3.9259    1.6521    1.7075 H   0  0  0  0  0  0  0  0  0  0  0  0
   -5.4578    1.1645    0.3398 N   0  3  0  0  0  0  0  0  0  0  0  0
   -5.5733    1.5421   -0.5851 H   0  0  0  0  0  0  0  0  0  0  0  0
   -6.5576    0.8454    1.0015 C   0  0  0  0  0  0  0  0  0  0  0  0
   -6.5222    0.3489    2.2063 N   0  0  0  0  0  0  0  0  0  0  0  0
   -5.6294    0.2035    2.6436 H   0  0  0  0  0  0  0  0  0  0  0  0
   -7.3662    0.1125    2.6947 H   0  0  0  0  0  0  0  0  0  0  0  0
   -7.7288    1.0224    0.4591 N   0  0  0  0  0  0  0  0  0  0  0  0
   -7.8069    1.4023   -0.4686 H   0  0  0  0  0  0  0  0  0  0  0  0
   -8.5605    0.7789    0.9645 H   0  0  0  0  0  0  0  0  0  0  0  0
   -0.9523    0.1012    2.4848 C   0  0  0  0  0  0  0  0  0  0  0  0
    0.2133   -0.1319    2.7814 O   0  0  0  0  0  0  0  0  0  0  0  0
   -1.8684    0.5006    3.3725 N   0  0  0  0  0  0  0  0  0  0  0  0
   -2.7946    0.7048    3.0343 H   0  0  0  0  0  0  0  0  0  0  0  0
   -1.5848    0.7472    4.7873 C   0  0  0  0  0  0  0  0  0  0  0  0
   -0.8819    1.5774    4.8838 H   0  0  0  0  0  0  0  0  0  0  0  0
   -2.5030    0.9948    5.3214 H   0  0  0  0  0  0  0  0  0  0  0  0
   -1.1344   -0.1399    5.2381 H   0  0  0  0  0  0  0  0  0  0  0  0
  5  6  2  0  0  0  0
  5  7  1  0  0  0  0
  2  3  1  0  0  0  0
  2  4  1  0  0  0  0
  2  5  1  0  0  0  0
  1  2  1  0  0  0  0
 29 30  2  0  0  0  0
 29 31  1  0  0  0  0
 26 27  1  0  0  0  0
 26 28  1  0  0  0  0
 23 24  1  0  0  0  0
 23 25  1  0  0  0  0
 22 23  1  0  0  0  0
 22 26  1  0  0  0  0
 20 21  1  0  0  0  0
 20 22  2  0  0  0  0
 17 18  1  0  0  0  0
 17 19  1  0  0  0  0
 17 20  1  0  0  0  0
 14 15  1  0  0  0  0
 14 16  1  0  0  0  0
 14 17  1  0  0  0  0
 11 12  1  0  0  0  0
 11 13  1  0  0  0  0
 11 14  1  0  0  0  0
  9 10  1  0  0  0  0
  9 11  1  0  0  0  0
  9 29  1  0  0  0  0
  7  8  1  0  0  0  0
  7  9  1  0  0  0  0
 33 34  1  0  0  0  0
 33 35  1  0  0  0  0
 33 36  1  0  0  0  0
 31 32  1  0  0  0  0
 31 33  1  0  0  0  0
M  CHG  1  20   1
M  END
$$$$
default_name
  -OEChem-02102213163D

 36 35  0     1  0  0  0  0  0999 V2000
   -4.2256   -3.6731    1.8584 H   0  0  0  0  0  0  0  0  0  0  0  0
   -4.2396   -2.6781    1.4144 C   0  0  0  0  0  0  0  0  0  0  0  0
   -4.9506   -2.0521    1.9514 H   0  0  0  0  0  0  0  0  0  0  0  0
   -4.5266   -2.7521    0.3674 H   0  0  0  0  0  0  0  0  0  0  0  0
   -2.8576   -2.0761    1.5184 C   0  0  0  0  0  0  0  0  0  0  0  0
   -1.9456   -2.7051    2.0404 O   0  0  0  0  0  0  0  0  0  0  0  0
   -2.6926   -0.8481    1.0174 N   0  0  0  0  0  0  0  0  0  0  0  0
   -3.4926   -0.3971    0.5954 H   0  0  0  0  0  0  0  0  0  0  0  0
   -1.4216   -0.1071    1.0434 C   0  0  1  0  0  0  0  0  0  0  0  0
   -0.6709   -0.6930    0.5106 H   0  0  0  0  0  0  0  0  0  0  0  0
   -1.6221    1.2315    0.3051 C   0  0  0  0  0  0  0  0  0  0  0  0
   -1.4075    2.0473    0.9984 H   0  0  0  0  0  0  0  0  0  0  0  0
   -0.9109    1.2932   -0.5215 H   0  0  0  0  0  0  0  0  0  0  0  0
   -3.0454    1.4224   -0.2389 C   0  0  0  0  0  0  0  0  0  0  0  0
   -3.1198    2.3844   -0.7479 H   0  0  0  0  0  0  0  0  0  0  0  0
   -3.2721    0.6228   -0.9448 H   0  0  0  0  0  0  0  0  0  0  0  0
   -4.0555    1.3853    0.9160 C   0  0  0  0  0  0  0  0  0  0  0  0
   -3.9555    0.4299    1.4362 H   0  0  0  0  0  0  0  0  0  0  0  0
   -3.8171    2.1926    1.6125 H   0  0  0  0  0  0  0  0  0  0  0  0
   -5.4438    1.5417    0.4355 N   0  3  0  0  0  0  0  0  0  0  0  0
   -5.5657    1.6973   -0.5506 H   0  0  0  0  0  0  0  0  0  0  0  0
   -6.5375    1.4963    1.1775 C   0  0  0  0  0  0  0  0  0  0  0  0
   -6.4937    1.3002    2.4655 N   0  0  0  0  0  0  0  0  0  0  0  0
   -5.5990    1.1786    2.9062 H   0  0  0  0  0  0  0  0  0  0  0  0
   -7.3332    1.2689    3.0142 H   0  0  0  0  0  0  0  0  0  0  0  0
   -7.7111    1.6499    0.6332 N   0  0  0  0  0  0  0  0  0  0  0  0
   -7.7958    1.8035   -0.3569 H   0  0  0  0  0  0  0  0  0  0  0  0
   -8.5383    1.6147    1.1998 H   0  0  0  0  0  0  0  0  0  0  0  0
   -0.9523    0.1012    2.4848 C   0  0  0  0  0  0  0  0  0  0  0  0
    0.2133   -0.1319    2.7814 O   0  0  0  0  0  0  0  0  0  0  0  0
   -1.8684    0.5006    3.3725 N   0  0  0  0  0  0  0  0  0  0  0  0
   -2.7946    0.7048    3.0343 H   0  0  0  0  0  0  0  0  0  0  0  0
   -1.5848    0.7472    4.7873 C   0  0  0  0  0  0  0  0  0  0  0  0
   -0.8819    1.5774    4.8838 H   0  0  0  0  0  0  0  0  0  0  0  0
   -2.5030    0.9948    5.3214 H   0  0  0  0  0  0  0  0  0  0  0  0
   -1.1344   -0.1399    5.2381 H   0  0  0  0  0  0  0  0  0  0  0  0
  5  6  2  0  0  0  0
  5  7  1  0  0  0  0
  2  3  1  0  0  0  0
  2  4  1  0  0  0  0
  2  5  1  0  0  0  0
  1  2  1  0  0  0  0
 29 30  2  0  0  0  0
 29 31  1  0  0  0  0
 26 27  1  0  0  0  0
 26 28  1  0  0  0  0
 23 24  1  0  0  0  0
 23 25  1  0  0  0  0
 22 23  1  0  0  0  0
 22 26  1  0  0  0  0
 20 21  1  0  0  0  0
 20 22  2  0  0  0  0
 17 18  1  0  0  0  0
 17 19  1  0  0  0  0
 17 20  1  0  0  0  0
 14 15  1  0  0  0  0
 14 16  1  0  0  0  0
 14 17  1  0  0  0  0
 11 12  1  0  0  0  0
 11 13  1  0  0  0  0
 11 14  1  0  0  0  0
  9 10  1  0  0  0  0
  9 11  1  0  0  0  0
  9 29  1  0  0  0  0
  7  8  1  0  0  0  0
  7  9  1  0  0  0  0
 33 34  1  0  0  0  0
 33 35  1  0  0  0  0
 33 36  1  0  0  0  0
 31 32  1  0  0  0  0
 31 33  1  0  0  0  0
M  CHG  1  20   1
M  END
$$$$
default_name
  -OEChem-02102213163D

 36 35  0     1  0  0  0  0  0999 V2000
   -4.2256   -3.6731    1.8584 H   0  0  0  0  0  0  0  0  0  0  0  0
   -4.2396   -2.6781    1.4144 C   0  0  0  0  0  0  0  0  0  0  0  0
   -4.9506   -2.0521    1.9514 H   0  0  0  0  0  0  0  0  0  0  0  0
   -4.5266   -2.7521    0.3674 H   0  0  0  0  0  0  0  0  0  0  0  0
   -2.8576   -2.0761    1.5184 C   0  0  0  0  0  0  0  0  0  0  0  0
   -1.9456   -2.7051    2.0404 O   0  0  0  0  0  0  0  0  0  0  0  0
   -2.6926   -0.8481    1.0174 N   0  0  0  0  0  0  0  0  0  0  0  0
   -3.4926   -0.3971    0.5954 H   0  0  0  0  0  0  0  0  0  0  0  0
   -1.4216   -0.1071    1.0434 C   0  0  1  0  0  0  0  0  0  0  0  0
   -0.6709   -0.6930    0.5106 H   0  0  0  0  0  0  0  0  0  0  0  0
   -1.6221    1.2315    0.3051 C   0  0  0  0  0  0  0  0  0  0  0  0
   -1.4075    2.0473    0.9984 H   0  0  0  0  0  0  0  0  0  0  0  0
   -0.9109    1.2932   -0.5215 H   0  0  0  0  0  0  0  0  0  0  0  0
   -3.0454    1.4224   -0.2389 C   0  0  0  0  0  0  0  0  0  0  0  0
   -3.0571    2.2379   -0.9634 H   0  0  0  0  0  0  0  0  0  0  0  0
   -3.3718    0.5030   -0.7259 H   0  0  0  0  0  0  0  0  0  0  0  0
   -4.0038    1.7584    0.9118 C   0  0  0  0  0  0  0  0  0  0  0  0
   -3.9656    0.9495    1.6449 H   0  0  0  0  0  0  0  0  0  0  0  0
   -3.6655    2.6819    1.3876 H   0  0  0  0  0  0  0  0  0  0  0  0
   -5.3926    1.9278    0.4369 N   0  3  0  0  0  0  0  0  0  0  0  0
   -5.5430    1.8547   -0.5548 H   0  0  0  0  0  0  0  0  0  0  0  0
   -6.4529    2.1653    1.1908 C   0  0  0  0  0  0  0  0  0  0  0  0
   -6.3705    2.2787    2.4868 N   0  0  0  0  0  0  0  0  0  0  0  0
   -5.4717    2.1807    2.9249 H   0  0  0  0  0  0  0  0  0  0  0  0
   -7.1850    2.4595    3.0443 H   0  0  0  0  0  0  0  0  0  0  0  0
   -7.6309    2.2963    0.6502 N   0  0  0  0  0  0  0  0  0  0  0  0
   -7.7446    2.2167   -0.3457 H   0  0  0  0  0  0  0  0  0  0  0  0
   -8.4327    2.4764    1.2258 H   0  0  0  0  0  0  0  0  0  0  0  0
   -0.9523    0.1012    2.4848 C   0  0  0  0  0  0  0  0  0  0  0  0
    0.2133   -0.1319    2.7814 O   0  0  0  0  0  0  0  0  0  0  0  0
   -1.8684    0.5006    3.3725 N   0  0  0  0  0  0  0  0  0  0  0  0
   -2.7946    0.7048    3.0343 H   0  0  0  0  0  0  0  0  0  0  0  0
   -1.5848    0.7472    4.7873 C   0  0  0  0  0  0  0  0  0  0  0  0
   -0.8819    1.5774    4.8838 H   0  0  0  0  0  0  0  0  0  0  0  0
   -2.5030    0.9948    5.3214 H   0  0  0  0  0  0  0  0  0  0  0  0
   -1.1344   -0.1399    5.2381 H   0  0  0  0  0  0  0  0  0  0  0  0
  5  6  2  0  0  0  0
  5  7  1  0  0  0  0
  2  3  1  0  0  0  0
  2  4  1  0  0  0  0
  2  5  1  0  0  0  0
  1  2  1  0  0  0  0
 29 30  2  0  0  0  0
 29 31  1  0  0  0  0
 26 27  1  0  0  0  0
 26 28  1  0  0  0  0
 23 24  1  0  0  0  0
 23 25  1  0  0  0  0
 22 23  1  0  0  0  0
 22 26  1  0  0  0  0
 20 21  1  0  0  0  0
 20 22  2  0  0  0  0
 17 18  1  0  0  0  0
 17 19  1  0  0  0  0
 17 20  1  0  0  0  0
 14 15  1  0  0  0  0
 14 16  1  0  0  0  0
 14 17  1  0  0  0  0
 11 12  1  0  0  0  0
 11 13  1  0  0  0  0
 11 14  1  0  0  0  0
  9 10  1  0  0  0  0
  9 11  1  0  0  0  0
  9 29  1  0  0  0  0
  7  8  1  0  0  0  0
  7  9  1  0  0  0  0
 33 34  1  0  0  0  0
 33 35  1  0  0  0  0
 33 36  1  0  0  0  0
 31 32  1  0  0  0  0
 31 33  1  0  0  0  0
M  CHG  1  20   1
M  END
$$$$
default_name
  -OEChem-02102213163D

 36 35  0     1  0  0  0  0  0999 V2000
   -4.2256   -3.6731    1.8584 H   0  0  0  0  0  0  0  0  0  0  0  0
   -4.2396   -2.6781    1.4144 C   0  0  0  0  0  0  0  0  0  0  0  0
   -4.9506   -2.0521    1.9514 H   0  0  0  0  0  0  0  0  0  0  0  0
   -4.5266   -2.7521    0.3674 H   0  0  0  0  0  0  0  0  0  0  0  0
   -2.8576   -2.0761    1.5184 C   0  0  0  0  0  0  0  0  0  0  0  0
   -1.9456   -2.7051    2.0404 O   0  0  0  0  0  0  0  0  0  0  0  0
   -2.6926   -0.8481    1.0174 N   0  0  0  0  0  0  0  0  0  0  0  0
   -3.4926   -0.3971    0.5954 H   0  0  0  0  0  0  0  0  0  0  0  0
   -1.4216   -0.1071    1.0434 C   0  0  1  0  0  0  0  0  0  0  0  0
   -0.6709   -0.6930    0.5106 H   0  0  0  0  0  0  0  0  0  0  0  0
   -1.6221    1.2315    0.3051 C   0  0  0  0  0  0  0  0  0  0  0  0
   -1.4075    2.0473    0.9984 H   0  0  0  0  0  0  0  0  0  0  0  0
   -0.9109    1.2932   -0.5215 H   0  0  0  0  0  0  0  0  0  0  0  0
   -3.0454    1.4224   -0.2389 C   0  0  0  0  0  0  0  0  0  0  0  0
   -3.0169    2.0390   -1.1384 H   0  0  0  0  0  0  0  0  0  0  0  0
   -3.4720    0.4489   -0.4826 H   0  0  0  0  0  0  0  0  0  0  0  0
   -3.9198    2.1131    0.8165 C   0  0  0  0  0  0  0  0  0  0  0  0
   -3.9210    1.5024    1.7223 H   0  0  0  0  0  0  0  0  0  0  0  0
   -3.4814    3.0866    1.0482 H   0  0  0  0  0  0  0  0  0  0  0  0
   -5.3076    2.2964    0.3440 N   0  3  0  0  0  0  0  0  0  0  0  0
   -5.5067    2.0037   -0.5973 H   0  0  0  0  0  0  0  0  0  0  0  0
   -6.3093    2.8070    1.0404 C   0  0  0  0  0  0  0  0  0  0  0  0
   -6.1612    3.2177    2.2687 N   0  0  0  0  0  0  0  0  0  0  0  0
   -5.2563    3.1414    2.6985 H   0  0  0  0  0  0  0  0  0  0  0  0
   -6.9318    3.6032    2.7830 H   0  0  0  0  0  0  0  0  0  0  0  0
   -7.4937    2.9174    0.5090 N   0  0  0  0  0  0  0  0  0  0  0  0
   -7.6570    2.6139   -0.4356 H   0  0  0  0  0  0  0  0  0  0  0  0
   -8.2508    3.3053    1.0408 H   0  0  0  0  0  0  0  0  0  0  0  0
   -0.9523    0.1012    2.4848 C   0  0  0  0  0  0  0  0  0  0  0  0
    0.2133   -0.1319    2.7814 O   0  0  0  0  0  0  0  0  0  0  0  0
   -1.8684    0.5006    3.3725 N   0  0  0  0  0  0  0  0  0  0  0  0
   -2.7946    0.7048    3.0343 H   0  0  0  0  0  0  0  0  0  0  0  0
   -1.5848    0.7472    4.7873 C   0  0  0  0  0  0  0  0  0  0  0  0
   -0.8819    1.5774    4.8838 H   0  0  0  0  0  0  0  0  0  0  0  0
   -2.5030    0.9948    5.3214 H   0  0  0  0  0  0  0  0  0  0  0  0
   -1.1344   -0.1399    5.2381 H   0  0  0  0  0  0  0  0  0  0  0  0
  5  6  2  0  0  0  0
  5  7  1  0  0  0  0
  2  3  1  0  0  0  0
  2  4  1  0  0  0  0
  2  5  1  0  0  0  0
  1  2  1  0  0  0  0
 29 30  2  0  0  0  0
 29 31  1  0  0  0  0
 26 27  1  0  0  0  0
 26 28  1  0  0  0  0
 23 24  1  0  0  0  0
 23 25  1  0  0  0  0
 22 23  1  0  0  0  0
 22 26  1  0  0  0  0
 20 21  1  0  0  0  0
 20 22  2  0  0  0  0
 17 18  1  0  0  0  0
 17 19  1  0  0  0  0
 17 20  1  0  0  0  0
 14 15  1  0  0  0  0
 14 16  1  0  0  0  0
 14 17  1  0  0  0  0
 11 12  1  0  0  0  0
 11 13  1  0  0  0  0
 11 14  1  0  0  0  0
  9 10  1  0  0  0  0
  9 11  1  0  0  0  0
  9 29  1  0  0  0  0
  7  8  1  0  0  0  0
  7  9  1  0  0  0  0
 33 34  1  0  0  0  0
 33 35  1  0  0  0  0
 33 36  1  0  0  0  0
 31 32  1  0  0  0  0
 31 33  1  0  0  0  0
M  CHG  1  20   1
M  END
$$$$
default_name
  -OEChem-02102213163D

 36 35  0     1  0  0  0  0  0999 V2000
   -4.2256   -3.6731    1.8584 H   0  0  0  0  0  0  0  0  0  0  0  0
   -4.2396   -2.6781    1.4144 C   0  0  0  0  0  0  0  0  0  0  0  0
   -4.9506   -2.0521    1.9514 H   0  0  0  0  0  0  0  0  0  0  0  0
   -4.5266   -2.7521    0.3674 H   0  0  0  0  0  0  0  0  0  0  0  0
   -2.8576   -2.0761    1.5184 C   0  0  0  0  0  0  0  0  0  0  0  0
   -1.9456   -2.7051    2.0404 O   0  0  0  0  0  0  0  0  0  0  0  0
   -2.6926   -0.8481    1.0174 N   0  0  0  0  0  0  0  0  0  0  0  0
   -3.4926   -0.3971    0.5954 H   0  0  0  0  0  0  0  0  0  0  0  0
   -1.4216   -0.1071    1.0434 C   0  0  1  0  0  0  0  0  0  0  0  0
   -0.6709   -0.6930    0.5106 H   0  0  0  0  0  0  0  0  0  0  0  0
   -1.6221    1.2315    0.3051 C   0  0  0  0  0  0  0  0  0  0  0  0
   -1.4075    2.0473    0.9984 H   0  0  0  0  0  0  0  0  0  0  0  0
   -0.9109    1.2932   -0.5215 H   0  0  0  0  0  0  0  0  0  0  0  0
   -3.0454    1.4224   -0.2389 C   0  0  0  0  0  0  0  0  0  0  0  0
   -3.0020    1.8011   -1.2610 H   0  0  0  0  0  0  0  0  0  0  0  0
   -3.5660    0.4643   -0.2314 H   0  0  0  0  0  0  0  0  0  0  0  0
   -3.8093    2.4251    0.6367 C   0  0  0  0  0  0  0  0  0  0  0  0
   -3.8247    2.0510    1.6629 H   0  0  0  0  0  0  0  0  0  0  0  0
   -3.2775    3.3793    0.6173 H   0  0  0  0  0  0  0  0  0  0  0  0
   -5.1948    2.6223    0.1632 N   0  3  0  0  0  0  0  0  0  0  0  0
   -5.4594    2.1341   -0.6752 H   0  0  0  0  0  0  0  0  0  0  0  0
   -6.1166    3.3776    0.7366 C   0  0  0  0  0  0  0  0  0  0  0  0
   -5.8800    4.0531    1.8260 N   0  0  0  0  0  0  0  0  0  0  0  0
   -4.9675    3.9954    2.2425 H   0  0  0  0  0  0  0  0  0  0  0  0
   -6.5907    4.6220    2.2481 H   0  0  0  0  0  0  0  0  0  0  0  0
   -7.3087    3.4708    0.2192 N   0  0  0  0  0  0  0  0  0  0  0  0
   -7.5388    2.9680   -0.6205 H   0  0  0  0  0  0  0  0  0  0  0  0
   -8.0051    4.0449    0.6575 H   0  0  0  0  0  0  0  0  0  0  0  0
   -0.9523    0.1012    2.4848 C   0  0  0  0  0  0  0  0  0  0  0  0
    0.2133   -0.1319    2.7814 O   0  0  0  0  0  0  0  0  0  0  0  0
   -1.8684    0.5006    3.3725 N   0  0  0  0  0  0  0  0  0  0  0  0
   -2.7946    0.7048    3.0343 H   0  0  0  0  0  0  0  0  0  0  0  0
   -1.5848    0.7472    4.7873 C   0  0  0  0  0  0  0  0  0  0  0  0
   -0.8819    1.5774    4.8838 H   0  0  0  0  0  0  0  0  0  0  0  0
   -2.5030    0.9948    5.3214 H   0  0  0  0  0  0  0  0  0  0  0  0
   -1.1344   -0.1399    5.2381 H   0  0  0  0  0  0  0  0  0  0  0  0
  5  6  2  0  0  0  0
  5  7  1  0  0  0  0
  2  3  1  0  0  0  0
  2  4  1  0  0  0  0
  2  5  1  0  0  0  0
  1  2  1  0  0  0  0
 29 30  2  0  0  0  0
 29 31  1  0  0  0  0
 26 27  1  0  0  0  0
 26 28  1  0  0  0  0
 23 24  1  0  0  0  0
 23 25  1  0  0  0  0
 22 23  1  0  0  0  0
 22 26  1  0  0  0  0
 20 21  1  0  0  0  0
 20 22  2  0  0  0  0
 17 18  1  0  0  0  0
 17 19  1  0  0  0  0
 17 20  1  0  0  0  0
 14 15  1  0  0  0  0
 14 16  1  0  0  0  0
 14 17  1  0  0  0  0
 11 12  1  0  0  0  0
 11 13  1  0  0  0  0
 11 14  1  0  0  0  0
  9 10  1  0  0  0  0
  9 11  1  0  0  0  0
  9 29  1  0  0  0  0
  7  8  1  0  0  0  0
  7  9  1  0  0  0  0
 33 34  1  0  0  0  0
 33 35  1  0  0  0  0
 33 36  1  0  0  0  0
 31 32  1  0  0  0  0
 31 33  1  0  0  0  0
M  CHG  1  20   1
M  END
$$$$
default_name
  -OEChem-02102213163D

 36 35  0     1  0  0  0  0  0999 V2000
   -4.2256   -3.6731    1.8584 H   0  0  0  0  0  0  0  0  0  0  0  0
   -4.2396   -2.6781    1.4144 C   0  0  0  0  0  0  0  0  0  0  0  0
   -4.9506   -2.0521    1.9514 H   0  0  0  0  0  0  0  0  0  0  0  0
   -4.5266   -2.7521    0.3674 H   0  0  0  0  0  0  0  0  0  0  0  0
   -2.8576   -2.0761    1.5184 C   0  0  0  0  0  0  0  0  0  0  0  0
   -1.9456   -2.7051    2.0404 O   0  0  0  0  0  0  0  0  0  0  0  0
   -2.6926   -0.8481    1.0174 N   0  0  0  0  0  0  0  0  0  0  0  0
   -3.4926   -0.3971    0.5954 H   0  0  0  0  0  0  0  0  0  0  0  0
   -1.4216   -0.1071    1.0434 C   0  0  1  0  0  0  0  0  0  0  0  0
   -0.6709   -0.6930    0.5106 H   0  0  0  0  0  0  0  0  0  0  0  0
   -1.6221    1.2315    0.3051 C   0  0  0  0  0  0  0  0  0  0  0  0
   -1.4075    2.0473    0.9984 H   0  0  0  0  0  0  0  0  0  0  0  0
   -0.9109    1.2932   -0.5215 H   0  0  0  0  0  0  0  0  0  0  0  0
   -3.0454    1.4224   -0.2389 C   0  0  0  0  0  0  0  0  0  0  0  0
   -3.0133    1.5406   -1.3229 H   0  0  0  0  0  0  0  0  0  0  0  0
   -3.6472    0.5480    0.0106 H   0  0  0  0  0  0  0  0  0  0  0  0
   -3.6796    2.6732    0.3846 C   0  0  0  0  0  0  0  0  0  0  0  0
   -3.6833    2.5577    1.4709 H   0  0  0  0  0  0  0  0  0  0  0  0
   -3.0675    3.5400    0.1242 H   0  0  0  0  0  0  0  0  0  0  0  0
   -5.0617    2.8834   -0.0933 N   0  3  0  0  0  0  0  0  0  0  0  0
   -5.4043    2.2370   -0.7834 H   0  0  0  0  0  0  0  0  0  0  0  0
   -5.8880    3.8382    0.3000 C   0  0  0  0  0  0  0  0  0  0  0  0
   -5.5459    4.7282    1.1890 N   0  0  0  0  0  0  0  0  0  0  0  0
   -4.6248    4.6843    1.5878 H   0  0  0  0  0  0  0  0  0  0  0  0
   -6.1850    5.4465    1.4761 H   0  0  0  0  0  0  0  0  0  0  0  0
   -7.0886    3.9189   -0.1994 N   0  0  0  0  0  0  0  0  0  0  0  0
   -7.3981    3.2548   -0.8879 H   0  0  0  0  0  0  0  0  0  0  0  0
   -7.7122    4.6448    0.1018 H   0  0  0  0  0  0  0  0  0  0  0  0
   -0.9523    0.1012    2.4848 C   0  0  0  0  0  0  0  0  0  0  0  0
    0.2133   -0.1319    2.7814 O   0  0  0  0  0  0  0  0  0  0  0  0
   -1.8684    0.5006    3.3725 N   0  0  0  0  0  0  0  0  0  0  0  0
   -2.7946    0.7048    3.0343 H   0  0  0  0  0  0  0  0  0  0  0  0
   -1.5848    0.7472    4.7873 C   0  0  0  0  0  0  0  0  0  0  0  0
   -0.8819    1.5774    4.8838 H   0  0  0  0  0  0  0  0  0  0  0  0
   -2.5030    0.9948    5.3214 H   0  0  0  0  0  0  0  0  0  0  0  0
   -1.1344   -0.1399    5.2381 H   0  0  0  0  0  0  0  0  0  0  0  0
  5  6  2  0  0  0  0
  5  7  1  0  0  0  0
  2  3  1  0  0  0  0
  2  4  1  0  0  0  0
  2  5  1  0  0  0  0
  1  2  1  0  0  0  0
 29 30  2  0  0  0  0
 29 31  1  0  0  0  0
 26 27  1  0  0  0  0
 26 28  1  0  0  0  0
 23 24  1  0  0  0  0
 23 25  1  0  0  0  0
 22 23  1  0  0  0  0
 22 26  1  0  0  0  0
 20 21  1  0  0  0  0
 20 22  2  0  0  0  0
 17 18  1  0  0  0  0
 17 19  1  0  0  0  0
 17 20  1  0  0  0  0
 14 15  1  0  0  0  0
 14 16  1  0  0  0  0
 14 17  1  0  0  0  0
 11 12  1  0  0  0  0
 11 13  1  0  0  0  0
 11 14  1  0  0  0  0
  9 10  1  0  0  0  0
  9 11  1  0  0  0  0
  9 29  1  0  0  0  0
  7  8  1  0  0  0  0
  7  9  1  0  0  0  0
 33 34  1  0  0  0  0
 33 35  1  0  0  0  0
 33 36  1  0  0  0  0
 31 32  1  0  0  0  0
 31 33  1  0  0  0  0
M  CHG  1  20   1
M  END
$$$$
default_name
  -OEChem-02102213163D

 36 35  0     1  0  0  0  0  0999 V2000
   -4.2256   -3.6731    1.8584 H   0  0  0  0  0  0  0  0  0  0  0  0
   -4.2396   -2.6781    1.4144 C   0  0  0  0  0  0  0  0  0  0  0  0
   -4.9506   -2.0521    1.9514 H   0  0  0  0  0  0  0  0  0  0  0  0
   -4.5266   -2.7521    0.3674 H   0  0  0  0  0  0  0  0  0  0  0  0
   -2.8576   -2.0761    1.5184 C   0  0  0  0  0  0  0  0  0  0  0  0
   -1.9456   -2.7051    2.0404 O   0  0  0  0  0  0  0  0  0  0  0  0
   -2.6926   -0.8481    1.0174 N   0  0  0  0  0  0  0  0  0  0  0  0
   -3.4926   -0.3971    0.5954 H   0  0  0  0  0  0  0  0  0  0  0  0
   -1.4216   -0.1071    1.0434 C   0  0  1  0  0  0  0  0  0  0  0  0
   -0.6709   -0.6930    0.5106 H   0  0  0  0  0  0  0  0  0  0  0  0
   -1.6221    1.2315    0.3051 C   0  0  0  0  0  0  0  0  0  0  0  0
   -1.4075    2.0473    0.9984 H   0  0  0  0  0  0  0  0  0  0  0  0
   -0.9109    1.2932   -0.5215 H   0  0  0  0  0  0  0  0  0  0  0  0
   -3.0454    1.4224   -0.2389 C   0  0  0  0  0  0  0  0  0  0  0  0
   -3.0501    1.2752   -1.3198 H   0  0  0  0  0  0  0  0  0  0  0  0
   -3.7103    0.6943    0.2268 H   0  0  0  0  0  0  0  0  0  0  0  0
   -3.5398    2.8405    0.0774 C   0  0  0  0  0  0  0  0  0  0  0  0
   -3.5065    2.9882    1.1593 H   0  0  0  0  0  0  0  0  0  0  0  0
   -2.8658    3.5576   -0.3973 H   0  0  0  0  0  0  0  0  0  0  0  0
   -4.9175    3.0619   -0.4080 N   0  3  0  0  0  0  0  0  0  0  0  0
   -5.3451    2.3054   -0.9143 H   0  0  0  0  0  0  0  0  0  0  0  0
   -5.6390    4.1574   -0.2395 C   0  0  0  0  0  0  0  0  0  0  0  0
   -5.1819    5.1967    0.4009 N   0  0  0  0  0  0  0  0  0  0  0  0
   -4.2518    5.1614    0.7791 H   0  0  0  0  0  0  0  0  0  0  0  0
   -5.7424    6.0205    0.5196 H   0  0  0  0  0  0  0  0  0  0  0  0
   -6.8484    4.2312   -0.7183 N   0  0  0  0  0  0  0  0  0  0  0  0
   -7.2446    3.4548   -1.2195 H   0  0  0  0  0  0  0  0  0  0  0  0
   -7.3923    5.0641   -0.5882 H   0  0  0  0  0  0  0  0  0  0  0  0
   -0.9523    0.1012    2.4848 C   0  0  0  0  0  0  0  0  0  0  0  0
    0.2133   -0.1319    2.7814 O   0  0  0  0  0  0  0  0  0  0  0  0
   -1.8684    0.5006    3.3725 N   0  0  0  0  0  0  0  0  0  0  0  0
   -2.7946    0.7048    3.0343 H   0  0  0  0  0  0  0  0  0  0  0  0
   -1.5848    0.7472    4.7873 C   0  0  0  0  0  0  0  0  0  0  0  0
   -0.8819    1.5774    4.8838 H   0  0  0  0  0  0  0  0  0  0  0  0
   -2.5030    0.9948    5.3214 H   0  0  0  0  0  0  0  0  0  0  0  0
   -1.1344   -0.1399    5.2381 H   0  0  0  0  0  0  0  0  0  0  0  0
  5  6  2  0  0  0  0
  5  7  1  0  0  0  0
  2  3  1  0  0  0  0
  2  4  1  0  0  0  0
  2  5  1  0  0  0  0
  1  2  1  0  0  0  0
 29 30  2  0  0  0  0
 29 31  1  0  0  0  0
 26 27  1  0  0  0  0
 26 28  1  0  0  0  0
 23 24  1  0  0  0  0
 23 25  1  0  0  0  0
 22 23  1  0  0  0  0
 22 26  1  0  0  0  0
 20 21  1  0  0  0  0
 20 22  2  0  0  0  0
 17 18  1  0  0  0  0
 17 19  1  0  0  0  0
 17 20  1  0  0  0  0
 14 15  1  0  0  0  0
 14 16  1  0  0  0  0
 14 17  1  0  0  0  0
 11 12  1  0  0  0  0
 11 13  1  0  0  0  0
 11 14  1  0  0  0  0
  9 10  1  0  0  0  0
  9 11  1  0  0  0  0
  9 29  1  0  0  0  0
  7  8  1  0  0  0  0
  7  9  1  0  0  0  0
 33 34  1  0  0  0  0
 33 35  1  0  0  0  0
 33 36  1  0  0  0  0
 31 32  1  0  0  0  0
 31 33  1  0  0  0  0
M  CHG  1  20   1
M  END
$$$$
default_name
  -OEChem-02102213163D

 36 35  0     1  0  0  0  0  0999 V2000
   -4.2256   -3.6731    1.8584 H   0  0  0  0  0  0  0  0  0  0  0  0
   -4.2396   -2.6781    1.4144 C   0  0  0  0  0  0  0  0  0  0  0  0
   -4.9506   -2.0521    1.9514 H   0  0  0  0  0  0  0  0  0  0  0  0
   -4.5266   -2.7521    0.3674 H   0  0  0  0  0  0  0  0  0  0  0  0
   -2.8576   -2.0761    1.5184 C   0  0  0  0  0  0  0  0  0  0  0  0
   -1.9456   -2.7051    2.0404 O   0  0  0  0  0  0  0  0  0  0  0  0
   -2.6926   -0.8481    1.0174 N   0  0  0  0  0  0  0  0  0  0  0  0
   -3.4926   -0.3971    0.5954 H   0  0  0  0  0  0  0  0  0  0  0  0
   -1.4216   -0.1071    1.0434 C   0  0  1  0  0  0  0  0  0  0  0  0
   -0.6709   -0.6930    0.5106 H   0  0  0  0  0  0  0  0  0  0  0  0
   -1.6221    1.2315    0.3051 C   0  0  0  0  0  0  0  0  0  0  0  0
   -1.4075    2.0473    0.9984 H   0  0  0  0  0  0  0  0  0  0  0  0
   -0.9109    1.2932   -0.5215 H   0  0  0  0  0  0  0  0  0  0  0  0
   -3.0454    1.4224   -0.2389 C   0  0  0  0  0  0  0  0  0  0  0  0
   -3.1098    1.0229   -1.2519 H   0  0  0  0  0  0  0  0  0  0  0  0
   -3.7508    0.8933    0.4027 H   0  0  0  0  0  0  0  0  0  0  0  0
   -3.3992    2.9156   -0.2640 C   0  0  0  0  0  0  0  0  0  0  0  0
   -3.3062    3.3131    0.7493 H   0  0  0  0  0  0  0  0  0  0  0  0
   -2.6862    3.4310   -0.9117 H   0  0  0  0  0  0  0  0  0  0  0  0
   -4.7720    3.1456   -0.7594 N   0  3  0  0  0  0  0  0  0  0  0  0
   -5.2858    2.3347   -1.0590 H   0  0  0  0  0  0  0  0  0  0  0  0
   -5.3865    4.3135   -0.8452 C   0  0  0  0  0  0  0  0  0  0  0  0
   -4.8126    5.4269   -0.4843 N   0  0  0  0  0  0  0  0  0  0  0  0
   -3.8737    5.3940   -0.1284 H   0  0  0  0  0  0  0  0  0  0  0  0
   -5.2930    6.3049   -0.5563 H   0  0  0  0  0  0  0  0  0  0  0  0
   -6.6044    4.3862   -1.3022 N   0  0  0  0  0  0  0  0  0  0  0  0
   -7.0886    3.5543   -1.5927 H   0  0  0  0  0  0  0  0  0  0  0  0
   -7.0669    5.2743   -1.3656 H   0  0  0  0  0  0  0  0  0  0  0  0
   -0.9523    0.1012    2.4848 C   0  0  0  0  0  0  0  0  0  0  0  0
    0.2133   -0.1319    2.7814 O   0  0  0  0  0  0  0  0  0  0  0  0
   -1.8684    0.5006    3.3725 N   0  0  0  0  0  0  0  0  0  0  0  0
   -2.7946    0.7048    3.0343 H   0  0  0  0  0  0  0  0  0  0  0  0
   -1.5848    0.7472    4.7873 C   0  0  0  0  0  0  0  0  0  0  0  0
   -0.8819    1.5774    4.8838 H   0  0  0  0  0  0  0  0  0  0  0  0
   -2.5030    0.9948    5.3214 H   0  0  0  0  0  0  0  0  0  0  0  0
   -1.1344   -0.1399    5.2381 H   0  0  0  0  0  0  0  0  0  0  0  0
  5  6  2  0  0  0  0
  5  7  1  0  0  0  0
  2  3  1  0  0  0  0
  2  4  1  0  0  0  0
  2  5  1  0  0  0  0
  1  2  1  0  0  0  0
 29 30  2  0  0  0  0
 29 31  1  0  0  0  0
 26 27  1  0  0  0  0
 26 28  1  0  0  0  0
 23 24  1  0  0  0  0
 23 25  1  0  0  0  0
 22 23  1  0  0  0  0
 22 26  1  0  0  0  0
 20 21  1  0  0  0  0
 20 22  2  0  0  0  0
 17 18  1  0  0  0  0
 17 19  1  0  0  0  0
 17 20  1  0  0  0  0
 14 15  1  0  0  0  0
 14 16  1  0  0  0  0
 14 17  1  0  0  0  0
 11 12  1  0  0  0  0
 11 13  1  0  0  0  0
 11 14  1  0  0  0  0
  9 10  1  0  0  0  0
  9 11  1  0  0  0  0
  9 29  1  0  0  0  0
  7  8  1  0  0  0  0
  7  9  1  0  0  0  0
 33 34  1  0  0  0  0
 33 35  1  0  0  0  0
 33 36  1  0  0  0  0
 31 32  1  0  0  0  0
 31 33  1  0  0  0  0
M  CHG  1  20   1
M  END
$$$$
default_name
  -OEChem-02102213163D

 36 35  0     1  0  0  0  0  0999 V2000
   -4.2256   -3.6731    1.8584 H   0  0  0  0  0  0  0  0  0  0  0  0
   -4.2396   -2.6781    1.4144 C   0  0  0  0  0  0  0  0  0  0  0  0
   -4.9506   -2.0521    1.9514 H   0  0  0  0  0  0  0  0  0  0  0  0
   -4.5266   -2.7521    0.3674 H   0  0  0  0  0  0  0  0  0  0  0  0
   -2.8576   -2.0761    1.5184 C   0  0  0  0  0  0  0  0  0  0  0  0
   -1.9456   -2.7051    2.0404 O   0  0  0  0  0  0  0  0  0  0  0  0
   -2.6926   -0.8481    1.0174 N   0  0  0  0  0  0  0  0  0  0  0  0
   -3.4926   -0.3971    0.5954 H   0  0  0  0  0  0  0  0  0  0  0  0
   -1.4216   -0.1071    1.0434 C   0  0  1  0  0  0  0  0  0  0  0  0
   -0.6709   -0.6930    0.5106 H   0  0  0  0  0  0  0  0  0  0  0  0
   -1.6221    1.2315    0.3051 C   0  0  0  0  0  0  0  0  0  0  0  0
   -1.4075    2.0473    0.9984 H   0  0  0  0  0  0  0  0  0  0  0  0
   -0.9109    1.2932   -0.5215 H   0  0  0  0  0  0  0  0  0  0  0  0
   -3.0454    1.4224   -0.2389 C   0  0  0  0  0  0  0  0  0  0  0  0
   -3.1885    0.8010   -1.1239 H   0  0  0  0  0  0  0  0  0  0  0  0
   -3.7660    1.1315    0.5261 H   0  0  0  0  0  0  0  0  0  0  0  0
   -3.2676    2.8934   -0.6162 C   0  0  0  0  0  0  0  0  0  0  0  0
   -3.0962    3.5102    0.2690 H   0  0  0  0  0  0  0  0  0  0  0  0
   -2.5408    3.1689   -1.3841 H   0  0  0  0  0  0  0  0  0  0  0  0
   -4.6350    3.1288   -1.1236 N   0  3  0  0  0  0  0  0  0  0  0  0
   -5.2306    2.3228   -1.2077 H   0  0  0  0  0  0  0  0  0  0  0  0
   -5.1479    4.2958   -1.4759 C   0  0  0  0  0  0  0  0  0  0  0  0
   -4.4634    5.4030   -1.4066 N   0  0  0  0  0  0  0  0  0  0  0  0
   -3.5164    5.3663   -1.0730 H   0  0  0  0  0  0  0  0  0  0  0  0
   -4.8675    6.2803   -1.6783 H   0  0  0  0  0  0  0  0  0  0  0  0
   -6.3733    4.3736   -1.9112 N   0  0  0  0  0  0  0  0  0  0  0  0
   -6.9408    3.5466   -1.9821 H   0  0  0  0  0  0  0  0  0  0  0  0
   -6.7585    5.2610   -2.1774 H   0  0  0  0  0  0  0  0  0  0  0  0
   -0.9523    0.1012    2.4848 C   0  0  0  0  0  0  0  0  0  0  0  0
    0.2133   -0.1319    2.7814 O   0  0  0  0  0  0  0  0  0  0  0  0
   -1.8684    0.5006    3.3725 N   0  0  0  0  0  0  0  0  0  0  0  0
   -2.7946    0.7048    3.0343 H   0  0  0  0  0  0  0  0  0  0  0  0
   -1.5848    0.7472    4.7873 C   0  0  0  0  0  0  0  0  0  0  0  0
   -0.8819    1.5774    4.8838 H   0  0  0  0  0  0  0  0  0  0  0  0
   -2.5030    0.9948    5.3214 H   0  0  0  0  0  0  0  0  0  0  0  0
   -1.1344   -0.1399    5.2381 H   0  0  0  0  0  0  0  0  0  0  0  0
  5  6  2  0  0  0  0
  5  7  1  0  0  0  0
  2  3  1  0  0  0  0
  2  4  1  0  0  0  0
  2  5  1  0  0  0  0
  1  2  1  0  0  0  0
 29 30  2  0  0  0  0
 29 31  1  0  0  0  0
 26 27  1  0  0  0  0
 26 28  1  0  0  0  0
 23 24  1  0  0  0  0
 23 25  1  0  0  0  0
 22 23  1  0  0  0  0
 22 26  1  0  0  0  0
 20 21  1  0  0  0  0
 20 22  2  0  0  0  0
 17 18  1  0  0  0  0
 17 19  1  0  0  0  0
 17 20  1  0  0  0  0
 14 15  1  0  0  0  0
 14 16  1  0  0  0  0
 14 17  1  0  0  0  0
 11 12  1  0  0  0  0
 11 13  1  0  0  0  0
 11 14  1  0  0  0  0
  9 10  1  0  0  0  0
  9 11  1  0  0  0  0
  9 29  1  0  0  0  0
  7  8  1  0  0  0  0
  7  9  1  0  0  0  0
 33 34  1  0  0  0  0
 33 35  1  0  0  0  0
 33 36  1  0  0  0  0
 31 32  1  0  0  0  0
 31 33  1  0  0  0  0
M  CHG  1  20   1
M  END
$$$$
default_name
  -OEChem-02102213163D

 36 35  0     1  0  0  0  0  0999 V2000
   -4.2256   -3.6731    1.8584 H   0  0  0  0  0  0  0  0  0  0  0  0
   -4.2396   -2.6781    1.4144 C   0  0  0  0  0  0  0  0  0  0  0  0
   -4.9506   -2.0521    1.9514 H   0  0  0  0  0  0  0  0  0  0  0  0
   -4.5266   -2.7521    0.3674 H   0  0  0  0  0  0  0  0  0  0  0  0
   -2.8576   -2.0761    1.5184 C   0  0  0  0  0  0  0  0  0  0  0  0
   -1.9456   -2.7051    2.0404 O   0  0  0  0  0  0  0  0  0  0  0  0
   -2.6926   -0.8481    1.0174 N   0  0  0  0  0  0  0  0  0  0  0  0
   -3.4926   -0.3971    0.5954 H   0  0  0  0  0  0  0  0  0  0  0  0
   -1.4216   -0.1071    1.0434 C   0  0  1  0  0  0  0  0  0  0  0  0
   -0.6709   -0.6930    0.5106 H   0  0  0  0  0  0  0  0  0  0  0  0
   -1.6221    1.2315    0.3051 C   0  0  0  0  0  0  0  0  0  0  0  0
   -1.1595    2.0265    0.8934 H   0  0  0  0  0  0  0  0  0  0  0  0
   -1.1148    1.1857   -0.6611 H   0  0  0  0  0  0  0  0  0  0  0  0
   -3.0982    1.5921    0.0831 C   0  0  0  0  0  0  0  0  0  0  0  0
   -3.5816    0.8172   -0.5135 H   0  0  0  0  0  0  0  0  0  0  0  0
   -3.5998    1.6692    1.0483 H   0  0  0  0  0  0  0  0  0  0  0  0
   -3.2030    2.9335   -0.6552 C   0  0  0  0  0  0  0  0  0  0  0  0
   -2.6935    3.6978   -0.0638 H   0  0  0  0  0  0  0  0  0  0  0  0
   -2.6986    2.8398   -1.6198 H   0  0  0  0  0  0  0  0  0  0  0  0
   -4.6092    3.3328   -0.8700 N   0  3  0  0  0  0  0  0  0  0  0  0
   -5.3145    2.6846   -0.5639 H   0  0  0  0  0  0  0  0  0  0  0  0
   -5.0259    4.4586   -1.4247 C   0  0  0  0  0  0  0  0  0  0  0  0
   -4.1967    5.3672   -1.8562 N   0  0  0  0  0  0  0  0  0  0  0  0
   -3.2097    5.2053   -1.7619 H   0  0  0  0  0  0  0  0  0  0  0  0
   -4.5297    6.2160   -2.2751 H   0  0  0  0  0  0  0  0  0  0  0  0
   -6.2999    4.6958   -1.5593 N   0  0  0  0  0  0  0  0  0  0  0  0
   -6.9779    4.0249   -1.2414 H   0  0  0  0  0  0  0  0  0  0  0  0
   -6.6118    5.5512   -1.9807 H   0  0  0  0  0  0  0  0  0  0  0  0
   -0.9523    0.1012    2.4848 C   0  0  0  0  0  0  0  0  0  0  0  0
    0.2133   -0.1319    2.7814 O   0  0  0  0  0  0  0  0  0  0  0  0
   -1.8684    0.5006    3.3725 N   0  0  0  0  0  0  0  0  0  0  0  0
   -2.7946    0.7048    3.0343 H   0  0  0  0  0  0  0  0  0  0  0  0
   -1.5848    0.7472    4.7873 C   0  0  0  0  0  0  0  0  0  0  0  0
   -0.8819    1.5774    4.8838 H   0  0  0  0  0  0  0  0  0  0  0  0
   -2.5030    0.9948    5.3214 H   0  0  0  0  0  0  0  0  0  0  0  0
   -1.1344   -0.1399    5.2381 H   0  0  0  0  0  0  0  0  0  0  0  0
  5  6  2  0  0  0  0
  5  7  1  0  0  0  0
  2  3  1  0  0  0  0
  2  4  1  0  0  0  0
  2  5  1  0  0  0  0
  1  2  1  0  0  0  0
 29 30  2  0  0  0  0
 29 31  1  0  0  0  0
 26 27  1  0  0  0  0
 26 28  1  0  0  0  0
 23 24  1  0  0  0  0
 23 25  1  0  0  0  0
 22 23  1  0  0  0  0
 22 26  1  0  0  0  0
 20 21  1  0  0  0  0
 20 22  2  0  0  0  0
 17 18  1  0  0  0  0
 17 19  1  0  0  0  0
 17 20  1  0  0  0  0
 14 15  1  0  0  0  0
 14 16  1  0  0  0  0
 14 17  1  0  0  0  0
 11 12  1  0  0  0  0
 11 13  1  0  0  0  0
 11 14  1  0  0  0  0
  9 10  1  0  0  0  0
  9 11  1  0  0  0  0
  9 29  1  0  0  0  0
  7  8  1  0  0  0  0
  7  9  1  0  0  0  0
 33 34  1  0  0  0  0
 33 35  1  0  0  0  0
 33 36  1  0  0  0  0
 31 32  1  0  0  0  0
 31 33  1  0  0  0  0
M  CHG  1  20   1
M  END
$$$$
default_name
  -OEChem-02102213163D

 36 35  0     1  0  0  0  0  0999 V2000
   -4.2256   -3.6731    1.8584 H   0  0  0  0  0  0  0  0  0  0  0  0
   -4.2396   -2.6781    1.4144 C   0  0  0  0  0  0  0  0  0  0  0  0
   -4.9506   -2.0521    1.9514 H   0  0  0  0  0  0  0  0  0  0  0  0
   -4.5266   -2.7521    0.3674 H   0  0  0  0  0  0  0  0  0  0  0  0
   -2.8576   -2.0761    1.5184 C   0  0  0  0  0  0  0  0  0  0  0  0
   -1.9456   -2.7051    2.0404 O   0  0  0  0  0  0  0  0  0  0  0  0
   -2.6926   -0.8481    1.0174 N   0  0  0  0  0  0  0  0  0  0  0  0
   -3.4926   -0.3971    0.5954 H   0  0  0  0  0  0  0  0  0  0  0  0
   -1.4216   -0.1071    1.0434 C   0  0  1  0  0  0  0  0  0  0  0  0
   -0.6709   -0.6930    0.5106 H   0  0  0  0  0  0  0  0  0  0  0  0
   -1.6221    1.2315    0.3051 C   0  0  0  0  0  0  0  0  0  0  0  0
   -1.1595    2.0265    0.8934 H   0  0  0  0  0  0  0  0  0  0  0  0
   -1.1148    1.1857   -0.6611 H   0  0  0  0  0  0  0  0  0  0  0  0
   -3.0982    1.5921    0.0831 C   0  0  0  0  0  0  0  0  0  0  0  0
   -3.6424    0.7162   -0.2728 H   0  0  0  0  0  0  0  0  0  0  0  0
   -3.5330    1.9283    1.0249 H   0  0  0  0  0  0  0  0  0  0  0  0
   -3.2112    2.7122   -0.9600 C   0  0  0  0  0  0  0  0  0  0  0  0
   -2.6416    3.5753   -0.6078 H   0  0  0  0  0  0  0  0  0  0  0  0
   -2.7741    2.3599   -1.8972 H   0  0  0  0  0  0  0  0  0  0  0  0
   -4.6159    3.1089   -1.1886 N   0  3  0  0  0  0  0  0  0  0  0  0
   -5.3187    2.5892   -0.6912 H   0  0  0  0  0  0  0  0  0  0  0  0
   -5.0345    4.0799   -1.9828 C   0  0  0  0  0  0  0  0  0  0  0  0
   -4.2087    4.8150   -2.6735 N   0  0  0  0  0  0  0  0  0  0  0  0
   -3.2228    4.6371   -2.5971 H   0  0  0  0  0  0  0  0  0  0  0  0
   -4.5430    5.5478   -3.2720 H   0  0  0  0  0  0  0  0  0  0  0  0
   -6.3069    4.3336   -2.1008 N   0  0  0  0  0  0  0  0  0  0  0  0
   -6.9823    3.7936   -1.5878 H   0  0  0  0  0  0  0  0  0  0  0  0
   -6.6202    5.0712   -2.7045 H   0  0  0  0  0  0  0  0  0  0  0  0
   -0.9523    0.1012    2.4848 C   0  0  0  0  0  0  0  0  0  0  0  0
    0.2133   -0.1319    2.7814 O   0  0  0  0  0  0  0  0  0  0  0  0
   -1.8684    0.5006    3.3725 N   0  0  0  0  0  0  0  0  0  0  0  0
   -2.7946    0.7048    3.0343 H   0  0  0  0  0  0  0  0  0  0  0  0
   -1.5848    0.7472    4.7873 C   0  0  0  0  0  0  0  0  0  0  0  0
   -0.8819    1.5774    4.8838 H   0  0  0  0  0  0  0  0  0  0  0  0
   -2.5030    0.9948    5.3214 H   0  0  0  0  0  0  0  0  0  0  0  0
   -1.1344   -0.1399    5.2381 H   0  0  0  0  0  0  0  0  0  0  0  0
  5  6  2  0  0  0  0
  5  7  1  0  0  0  0
  2  3  1  0  0  0  0
  2  4  1  0  0  0  0
  2  5  1  0  0  0  0
  1  2  1  0  0  0  0
 29 30  2  0  0  0  0
 29 31  1  0  0  0  0
 26 27  1  0  0  0  0
 26 28  1  0  0  0  0
 23 24  1  0  0  0  0
 23 25  1  0  0  0  0
 22 23  1  0  0  0  0
 22 26  1  0  0  0  0
 20 21  1  0  0  0  0
 20 22  2  0  0  0  0
 17 18  1  0  0  0  0
 17 19  1  0  0  0  0
 17 20  1  0  0  0  0
 14 15  1  0  0  0  0
 14 16  1  0  0  0  0
 14 17  1  0  0  0  0
 11 12  1  0  0  0  0
 11 13  1  0  0  0  0
 11 14  1  0  0  0  0
  9 10  1  0  0  0  0
  9 11  1  0  0  0  0
  9 29  1  0  0  0  0
  7  8  1  0  0  0  0
  7  9  1  0  0  0  0
 33 34  1  0  0  0  0
 33 35  1  0  0  0  0
 33 36  1  0  0  0  0
 31 32  1  0  0  0  0
 31 33  1  0  0  0  0
M  CHG  1  20   1
M  END
$$$$
default_name
  -OEChem-02102213163D

 36 35  0     1  0  0  0  0  0999 V2000
   -4.2256   -3.6731    1.8584 H   0  0  0  0  0  0  0  0  0  0  0  0
   -4.2396   -2.6781    1.4144 C   0  0  0  0  0  0  0  0  0  0  0  0
   -4.9506   -2.0521    1.9514 H   0  0  0  0  0  0  0  0  0  0  0  0
   -4.5266   -2.7521    0.3674 H   0  0  0  0  0  0  0  0  0  0  0  0
   -2.8576   -2.0761    1.5184 C   0  0  0  0  0  0  0  0  0  0  0  0
   -1.9456   -2.7051    2.0404 O   0  0  0  0  0  0  0  0  0  0  0  0
   -2.6926   -0.8481    1.0174 N   0  0  0  0  0  0  0  0  0  0  0  0
   -3.4926   -0.3971    0.5954 H   0  0  0  0  0  0  0  0  0  0  0  0
   -1.4216   -0.1071    1.0434 C   0  0  1  0  0  0  0  0  0  0  0  0
   -0.6709   -0.6930    0.5106 H   0  0  0  0  0  0  0  0  0  0  0  0
   -1.6221    1.2315    0.3051 C   0  0  0  0  0  0  0  0  0  0  0  0
   -1.1595    2.0265    0.8934 H   0  0  0  0  0  0  0  0  0  0  0  0
   -1.1148    1.1857   -0.6611 H   0  0  0  0  0  0  0  0  0  0  0  0
   -3.0982    1.5921    0.0831 C   0  0  0  0  0  0  0  0  0  0  0  0
   -3.6904    0.6808   -0.0115 H   0  0  0  0  0  0  0  0  0  0  0  0
   -3.4602    2.1703    0.9338 H   0  0  0  0  0  0  0  0  0  0  0  0
   -3.2460    2.4230   -1.1988 C   0  0  0  0  0  0  0  0  0  0  0  0
   -2.6291    3.3198   -1.1061 H   0  0  0  0  0  0  0  0  0  0  0  0
   -2.8819    1.8302   -2.0412 H   0  0  0  0  0  0  0  0  0  0  0  0
   -4.6502    2.8136   -1.4402 N   0  3  0  0  0  0  0  0  0  0  0  0
   -5.3340    2.4655   -0.7901 H   0  0  0  0  0  0  0  0  0  0  0  0
   -5.0908    3.5756   -2.4272 C   0  0  0  0  0  0  0  0  0  0  0  0
   -4.2906    4.0787   -3.3248 N   0  0  0  0  0  0  0  0  0  0  0  0
   -3.3076    3.8810   -3.2618 H   0  0  0  0  0  0  0  0  0  0  0  0
   -4.6414    4.6548   -4.0678 H   0  0  0  0  0  0  0  0  0  0  0  0
   -6.3602    3.8493   -2.5334 N   0  0  0  0  0  0  0  0  0  0  0  0
   -7.0163    3.4842   -1.8647 H   0  0  0  0  0  0  0  0  0  0  0  0
   -6.6902    4.4278   -3.2837 H   0  0  0  0  0  0  0  0  0  0  0  0
   -0.9523    0.1012    2.4848 C   0  0  0  0  0  0  0  0  0  0  0  0
    0.2133   -0.1319    2.7814 O   0  0  0  0  0  0  0  0  0  0  0  0
   -1.8684    0.5006    3.3725 N   0  0  0  0  0  0  0  0  0  0  0  0
   -2.7946    0.7048    3.0343 H   0  0  0  0  0  0  0  0  0  0  0  0
   -1.5848    0.7472    4.7873 C   0  0  0  0  0  0  0  0  0  0  0  0
   -0.8819    1.5774    4.8838 H   0  0  0  0  0  0  0  0  0  0  0  0
   -2.5030    0.9948    5.3214 H   0  0  0  0  0  0  0  0  0  0  0  0
   -1.1344   -0.1399    5.2381 H   0  0  0  0  0  0  0  0  0  0  0  0
  5  6  2  0  0  0  0
  5  7  1  0  0  0  0
  2  3  1  0  0  0  0
  2  4  1  0  0  0  0
  2  5  1  0  0  0  0
  1  2  1  0  0  0  0
 29 30  2  0  0  0  0
 29 31  1  0  0  0  0
 26 27  1  0  0  0  0
 26 28  1  0  0  0  0
 23 24  1  0  0  0  0
 23 25  1  0  0  0  0
 22 23  1  0  0  0  0
 22 26  1  0  0  0  0
 20 21  1  0  0  0  0
 20 22  2  0  0  0  0
 17 18  1  0  0  0  0
 17 19  1  0  0  0  0
 17 20  1  0  0  0  0
 14 15  1  0  0  0  0
 14 16  1  0  0  0  0
 14 17  1  0  0  0  0
 11 12  1  0  0  0  0
 11 13  1  0  0  0  0
 11 14  1  0  0  0  0
  9 10  1  0  0  0  0
  9 11  1  0  0  0  0
  9 29  1  0  0  0  0
  7  8  1  0  0  0  0
  7  9  1  0  0  0  0
 33 34  1  0  0  0  0
 33 35  1  0  0  0  0
 33 36  1  0  0  0  0
 31 32  1  0  0  0  0
 31 33  1  0  0  0  0
M  CHG  1  20   1
M  END
$$$$
default_name
  -OEChem-02102213163D

 36 35  0     1  0  0  0  0  0999 V2000
   -4.2256   -3.6731    1.8584 H   0  0  0  0  0  0  0  0  0  0  0  0
   -4.2396   -2.6781    1.4144 C   0  0  0  0  0  0  0  0  0  0  0  0
   -4.9506   -2.0521    1.9514 H   0  0  0  0  0  0  0  0  0  0  0  0
   -4.5266   -2.7521    0.3674 H   0  0  0  0  0  0  0  0  0  0  0  0
   -2.8576   -2.0761    1.5184 C   0  0  0  0  0  0  0  0  0  0  0  0
   -1.9456   -2.7051    2.0404 O   0  0  0  0  0  0  0  0  0  0  0  0
   -2.6926   -0.8481    1.0174 N   0  0  0  0  0  0  0  0  0  0  0  0
   -3.4926   -0.3971    0.5954 H   0  0  0  0  0  0  0  0  0  0  0  0
   -1.4216   -0.1071    1.0434 C   0  0  1  0  0  0  0  0  0  0  0  0
   -0.6709   -0.6930    0.5106 H   0  0  0  0  0  0  0  0  0  0  0  0
   -1.6221    1.2315    0.3051 C   0  0  0  0  0  0  0  0  0  0  0  0
   -1.1595    2.0265    0.8934 H   0  0  0  0  0  0  0  0  0  0  0  0
   -1.1148    1.1857   -0.6611 H   0  0  0  0  0  0  0  0  0  0  0  0
   -3.0982    1.5921    0.0831 C   0  0  0  0  0  0  0  0  0  0  0  0
   -3.7221    0.7135    0.2526 H   0  0  0  0  0  0  0  0  0  0  0  0
   -3.3863    2.3787    0.7812 H   0  0  0  0  0  0  0  0  0  0  0  0
   -3.3049    2.0855   -1.3554 C   0  0  0  0  0  0  0  0  0  0  0  0
   -2.6569    2.9485   -1.5245 H   0  0  0  0  0  0  0  0  0  0  0  0
   -3.0145    1.2867   -2.0420 H   0  0  0  0  0  0  0  0  0  0  0  0
   -4.7097    2.4671   -1.6077 N   0  3  0  0  0  0  0  0  0  0  0  0
   -5.3595    2.3220   -0.8540 H   0  0  0  0  0  0  0  0  0  0  0  0
   -5.1912    2.9800   -2.7276 C   0  0  0  0  0  0  0  0  0  0  0  0
   -4.4368    3.2086   -3.7658 N   0  0  0  0  0  0  0  0  0  0  0  0
   -3.4581    2.9885   -3.7106 H   0  0  0  0  0  0  0  0  0  0  0  0
   -4.8183    3.5980   -4.6083 H   0  0  0  0  0  0  0  0  0  0  0  0
   -6.4560    3.2759   -2.8275 N   0  0  0  0  0  0  0  0  0  0  0  0
   -7.0775    3.1177   -2.0530 H   0  0  0  0  0  0  0  0  0  0  0  0
   -6.8171    3.6649   -3.6788 H   0  0  0  0  0  0  0  0  0  0  0  0
   -0.9523    0.1012    2.4848 C   0  0  0  0  0  0  0  0  0  0  0  0
    0.2133   -0.1319    2.7814 O   0  0  0  0  0  0  0  0  0  0  0  0
   -1.8684    0.5006    3.3725 N   0  0  0  0  0  0  0  0  0  0  0  0
   -2.7946    0.7048    3.0343 H   0  0  0  0  0  0  0  0  0  0  0  0
   -1.5848    0.7472    4.7873 C   0  0  0  0  0  0  0  0  0  0  0  0
   -0.8819    1.5774    4.8838 H   0  0  0  0  0  0  0  0  0  0  0  0
   -2.5030    0.9948    5.3214 H   0  0  0  0  0  0  0  0  0  0  0  0
   -1.1344   -0.1399    5.2381 H   0  0  0  0  0  0  0  0  0  0  0  0
  5  6  2  0  0  0  0
  5  7  1  0  0  0  0
  2  3  1  0  0  0  0
  2  4  1  0  0  0  0
  2  5  1  0  0  0  0
  1  2  1  0  0  0  0
 29 30  2  0  0  0  0
 29 31  1  0  0  0  0
 26 27  1  0  0  0  0
 26 28  1  0  0  0  0
 23 24  1  0  0  0  0
 23 25  1  0  0  0  0
 22 23  1  0  0  0  0
 22 26  1  0  0  0  0
 20 21  1  0  0  0  0
 20 22  2  0  0  0  0
 17 18  1  0  0  0  0
 17 19  1  0  0  0  0
 17 20  1  0  0  0  0
 14 15  1  0  0  0  0
 14 16  1  0  0  0  0
 14 17  1  0  0  0  0
 11 12  1  0  0  0  0
 11 13  1  0  0  0  0
 11 14  1  0  0  0  0
  9 10  1  0  0  0  0
  9 11  1  0  0  0  0
  9 29  1  0  0  0  0
  7  8  1  0  0  0  0
  7  9  1  0  0  0  0
 33 34  1  0  0  0  0
 33 35  1  0  0  0  0
 33 36  1  0  0  0  0
 31 32  1  0  0  0  0
 31 33  1  0  0  0  0
M  CHG  1  20   1
M  END
$$$$
default_name
  -OEChem-02102213163D

 36 35  0     1  0  0  0  0  0999 V2000
   -4.2256   -3.6731    1.8584 H   0  0  0  0  0  0  0  0  0  0  0  0
   -4.2396   -2.6781    1.4144 C   0  0  0  0  0  0  0  0  0  0  0  0
   -4.9506   -2.0521    1.9514 H   0  0  0  0  0  0  0  0  0  0  0  0
   -4.5266   -2.7521    0.3674 H   0  0  0  0  0  0  0  0  0  0  0  0
   -2.8576   -2.0761    1.5184 C   0  0  0  0  0  0  0  0  0  0  0  0
   -1.9456   -2.7051    2.0404 O   0  0  0  0  0  0  0  0  0  0  0  0
   -2.6926   -0.8481    1.0174 N   0  0  0  0  0  0  0  0  0  0  0  0
   -3.4926   -0.3971    0.5954 H   0  0  0  0  0  0  0  0  0  0  0  0
   -1.4216   -0.1071    1.0434 C   0  0  1  0  0  0  0  0  0  0  0  0
   -0.6709   -0.6930    0.5106 H   0  0  0  0  0  0  0  0  0  0  0  0
   -1.6221    1.2315    0.3051 C   0  0  0  0  0  0  0  0  0  0  0  0
   -1.1595    2.0265    0.8934 H   0  0  0  0  0  0  0  0  0  0  0  0
   -1.1148    1.1857   -0.6611 H   0  0  0  0  0  0  0  0  0  0  0  0
   -3.0982    1.5921    0.0831 C   0  0  0  0  0  0  0  0  0  0  0  0
   -3.7355    0.8119    0.5015 H   0  0  0  0  0  0  0  0  0  0  0  0
   -3.3165    2.5392    0.5774 H   0  0  0  0  0  0  0  0  0  0  0  0
   -3.3839    1.7227   -1.4192 C   0  0  0  0  0  0  0  0  0  0  0  0
   -2.7230    2.4869   -1.8346 H   0  0  0  0  0  0  0  0  0  0  0  0
   -3.1630    0.7666   -1.8995 H   0  0  0  0  0  0  0  0  0  0  0  0
   -4.7902    2.0929   -1.6797 N   0  3  0  0  0  0  0  0  0  0  0  0
   -5.3933    2.1685   -0.8785 H   0  0  0  0  0  0  0  0  0  0  0  0
   -5.3286    2.3338   -2.8634 C   0  0  0  0  0  0  0  0  0  0  0  0
   -4.6374    2.2638   -3.9664 N   0  0  0  0  0  0  0  0  0  0  0  0
   -3.6642    2.0203   -3.9129 H   0  0  0  0  0  0  0  0  0  0  0  0
   -5.0615    2.4493   -4.8567 H   0  0  0  0  0  0  0  0  0  0  0  0
   -6.5879    2.6524   -2.9630 N   0  0  0  0  0  0  0  0  0  0  0  0
   -7.1617    2.7192   -2.1401 H   0  0  0  0  0  0  0  0  0  0  0  0
   -6.9923    2.8344   -3.8630 H   0  0  0  0  0  0  0  0  0  0  0  0
   -0.9523    0.1012    2.4848 C   0  0  0  0  0  0  0  0  0  0  0  0
    0.2133   -0.1319    2.7814 O   0  0  0  0  0  0  0  0  0  0  0  0
   -1.8684    0.5006    3.3725 N   0  0  0  0  0  0  0  0  0  0  0  0
   -2.7946    0.7048    3.0343 H   0  0  0  0  0  0  0  0  0  0  0  0
   -1.5848    0.7472    4.7873 C   0  0  0  0  0  0  0  0  0  0  0  0
   -0.8819    1.5774    4.8838 H   0  0  0  0  0  0  0  0  0  0  0  0
   -2.5030    0.9948    5.3214 H   0  0  0  0  0  0  0  0  0  0  0  0
   -1.1344   -0.1399    5.2381 H   0  0  0  0  0  0  0  0  0  0  0  0
  5  6  2  0  0  0  0
  5  7  1  0  0  0  0
  2  3  1  0  0  0  0
  2  4  1  0  0  0  0
  2  5  1  0  0  0  0
  1  2  1  0  0  0  0
 29 30  2  0  0  0  0
 29 31  1  0  0  0  0
 26 27  1  0  0  0  0
 26 28  1  0  0  0  0
 23 24  1  0  0  0  0
 23 25  1  0  0  0  0
 22 23  1  0  0  0  0
 22 26  1  0  0  0  0
 20 21  1  0  0  0  0
 20 22  2  0  0  0  0
 17 18  1  0  0  0  0
 17 19  1  0  0  0  0
 17 20  1  0  0  0  0
 14 15  1  0  0  0  0
 14 16  1  0  0  0  0
 14 17  1  0  0  0  0
 11 12  1  0  0  0  0
 11 13  1  0  0  0  0
 11 14  1  0  0  0  0
  9 10  1  0  0  0  0
  9 11  1  0  0  0  0
  9 29  1  0  0  0  0
  7  8  1  0  0  0  0
  7  9  1  0  0  0  0
 33 34  1  0  0  0  0
 33 35  1  0  0  0  0
 33 36  1  0  0  0  0
 31 32  1  0  0  0  0
 31 33  1  0  0  0  0
M  CHG  1  20   1
M  END
$$$$
default_name
  -OEChem-02102213163D

 36 35  0     1  0  0  0  0  0999 V2000
   -4.2256   -3.6731    1.8584 H   0  0  0  0  0  0  0  0  0  0  0  0
   -4.2396   -2.6781    1.4144 C   0  0  0  0  0  0  0  0  0  0  0  0
   -4.9506   -2.0521    1.9514 H   0  0  0  0  0  0  0  0  0  0  0  0
   -4.5266   -2.7521    0.3674 H   0  0  0  0  0  0  0  0  0  0  0  0
   -2.8576   -2.0761    1.5184 C   0  0  0  0  0  0  0  0  0  0  0  0
   -1.9456   -2.7051    2.0404 O   0  0  0  0  0  0  0  0  0  0  0  0
   -2.6926   -0.8481    1.0174 N   0  0  0  0  0  0  0  0  0  0  0  0
   -3.4926   -0.3971    0.5954 H   0  0  0  0  0  0  0  0  0  0  0  0
   -1.4216   -0.1071    1.0434 C   0  0  1  0  0  0  0  0  0  0  0  0
   -0.6709   -0.6930    0.5106 H   0  0  0  0  0  0  0  0  0  0  0  0
   -1.6221    1.2315    0.3051 C   0  0  0  0  0  0  0  0  0  0  0  0
   -1.1595    2.0265    0.8934 H   0  0  0  0  0  0  0  0  0  0  0  0
   -1.1148    1.1857   -0.6611 H   0  0  0  0  0  0  0  0  0  0  0  0
   -3.0982    1.5921    0.0831 C   0  0  0  0  0  0  0  0  0  0  0  0
   -3.7297    0.9693    0.7183 H   0  0  0  0  0  0  0  0  0  0  0  0
   -3.2553    2.6410    0.3364 H   0  0  0  0  0  0  0  0  0  0  0  0
   -3.4777    1.3594   -1.3857 C   0  0  0  0  0  0  0  0  0  0  0  0
   -2.8230    1.9663   -2.0153 H   0  0  0  0  0  0  0  0  0  0  0  0
   -3.3173    0.3051   -1.6234 H   0  0  0  0  0  0  0  0  0  0  0  0
   -4.8864    1.7166   -1.6512 N   0  3  0  0  0  0  0  0  0  0  0  0
   -5.4332    2.0154   -0.8618 H   0  0  0  0  0  0  0  0  0  0  0  0
   -5.4938    1.6809   -2.8255 C   0  0  0  0  0  0  0  0  0  0  0  0
   -4.8788    1.3088   -3.9130 N   0  0  0  0  0  0  0  0  0  0  0  0
   -3.9118    1.0426   -3.8549 H   0  0  0  0  0  0  0  0  0  0  0  0
   -5.3546    1.2870   -4.7961 H   0  0  0  0  0  0  0  0  0  0  0  0
   -6.7469    2.0214   -2.9309 N   0  0  0  0  0  0  0  0  0  0  0  0
   -7.2633    2.3157   -2.1199 H   0  0  0  0  0  0  0  0  0  0  0  0
   -7.2038    1.9929   -3.8236 H   0  0  0  0  0  0  0  0  0  0  0  0
   -0.9523    0.1012    2.4848 C   0  0  0  0  0  0  0  0  0  0  0  0
    0.2133   -0.1319    2.7814 O   0  0  0  0  0  0  0  0  0  0  0  0
   -1.8684    0.5006    3.3725 N   0  0  0  0  0  0  0  0  0  0  0  0
   -2.7946    0.7048    3.0343 H   0  0  0  0  0  0  0  0  0  0  0  0
   -1.5848    0.7472    4.7873 C   0  0  0  0  0  0  0  0  0  0  0  0
   -0.8819    1.5774    4.8838 H   0  0  0  0  0  0  0  0  0  0  0  0
   -2.5030    0.9948    5.3214 H   0  0  0  0  0  0  0  0  0  0  0  0
   -1.1344   -0.1399    5.2381 H   0  0  0  0  0  0  0  0  0  0  0  0
  5  6  2  0  0  0  0
  5  7  1  0  0  0  0
  2  3  1  0  0  0  0
  2  4  1  0  0  0  0
  2  5  1  0  0  0  0
  1  2  1  0  0  0  0
 29 30  2  0  0  0  0
 29 31  1  0  0  0  0
 26 27  1  0  0  0  0
 26 28  1  0  0  0  0
 23 24  1  0  0  0  0
 23 25  1  0  0  0  0
 22 23  1  0  0  0  0
 22 26  1  0  0  0  0
 20 21  1  0  0  0  0
 20 22  2  0  0  0  0
 17 18  1  0  0  0  0
 17 19  1  0  0  0  0
 17 20  1  0  0  0  0
 14 15  1  0  0  0  0
 14 16  1  0  0  0  0
 14 17  1  0  0  0  0
 11 12  1  0  0  0  0
 11 13  1  0  0  0  0
 11 14  1  0  0  0  0
  9 10  1  0  0  0  0
  9 11  1  0  0  0  0
  9 29  1  0  0  0  0
  7  8  1  0  0  0  0
  7  9  1  0  0  0  0
 33 34  1  0  0  0  0
 33 35  1  0  0  0  0
 33 36  1  0  0  0  0
 31 32  1  0  0  0  0
 31 33  1  0  0  0  0
M  CHG  1  20   1
M  END
$$$$
default_name
  -OEChem-02102213163D

 36 35  0     1  0  0  0  0  0999 V2000
   -4.2256   -3.6731    1.8584 H   0  0  0  0  0  0  0  0  0  0  0  0
   -4.2396   -2.6781    1.4144 C   0  0  0  0  0  0  0  0  0  0  0  0
   -4.9506   -2.0521    1.9514 H   0  0  0  0  0  0  0  0  0  0  0  0
   -4.5266   -2.7521    0.3674 H   0  0  0  0  0  0  0  0  0  0  0  0
   -2.8576   -2.0761    1.5184 C   0  0  0  0  0  0  0  0  0  0  0  0
   -1.9456   -2.7051    2.0404 O   0  0  0  0  0  0  0  0  0  0  0  0
   -2.6926   -0.8481    1.0174 N   0  0  0  0  0  0  0  0  0  0  0  0
   -3.4926   -0.3971    0.5954 H   0  0  0  0  0  0  0  0  0  0  0  0
   -1.4216   -0.1071    1.0434 C   0  0  1  0  0  0  0  0  0  0  0  0
   -0.6709   -0.6930    0.5106 H   0  0  0  0  0  0  0  0  0  0  0  0
   -1.6221    1.2315    0.3051 C   0  0  0  0  0  0  0  0  0  0  0  0
   -1.1595    2.0265    0.8934 H   0  0  0  0  0  0  0  0  0  0  0  0
   -1.1148    1.1857   -0.6611 H   0  0  0  0  0  0  0  0  0  0  0  0
   -3.0982    1.5921    0.0831 C   0  0  0  0  0  0  0  0  0  0  0  0
   -3.7049    1.1752    0.8881 H   0  0  0  0  0  0  0  0  0  0  0  0
   -3.2072    2.6771    0.0746 H   0  0  0  0  0  0  0  0  0  0  0  0
   -3.5798    1.0203   -1.2572 C   0  0  0  0  0  0  0  0  0  0  0  0
   -2.9500    1.4222   -2.0543 H   0  0  0  0  0  0  0  0  0  0  0  0
   -3.4668   -0.0661   -1.2325 H   0  0  0  0  0  0  0  0  0  0  0  0
   -4.9917    1.3638   -1.5243 N   0  3  0  0  0  0  0  0  0  0  0  0
   -5.4765    1.8731   -0.8053 H   0  0  0  0  0  0  0  0  0  0  0  0
   -5.6755    1.0658   -2.6164 C   0  0  0  0  0  0  0  0  0  0  0  0
   -5.1444    0.4088   -3.6091 N   0  0  0  0  0  0  0  0  0  0  0  0
   -4.1840    0.1218   -3.5405 H   0  0  0  0  0  0  0  0  0  0  0  0
   -5.6774    0.1904   -4.4307 H   0  0  0  0  0  0  0  0  0  0  0  0
   -6.9221    1.4258   -2.7331 N   0  0  0  0  0  0  0  0  0  0  0  0
   -7.3753    1.9348   -1.9938 H   0  0  0  0  0  0  0  0  0  0  0  0
   -7.4372    1.1978   -3.5633 H   0  0  0  0  0  0  0  0  0  0  0  0
   -0.9523    0.1012    2.4848 C   0  0  0  0  0  0  0  0  0  0  0  0
    0.2133   -0.1319    2.7814 O   0  0  0  0  0  0  0  0  0  0  0  0
   -1.8684    0.5006    3.3725 N   0  0  0  0  0  0  0  0  0  0  0  0
   -2.7946    0.7048    3.0343 H   0  0  0  0  0  0  0  0  0  0  0  0
   -1.5848    0.7472    4.7873 C   0  0  0  0  0  0  0  0  0  0  0  0
   -0.8819    1.5774    4.8838 H   0  0  0  0  0  0  0  0  0  0  0  0
   -2.5030    0.9948    5.3214 H   0  0  0  0  0  0  0  0  0  0  0  0
   -1.1344   -0.1399    5.2381 H   0  0  0  0  0  0  0  0  0  0  0  0
  5  6  2  0  0  0  0
  5  7  1  0  0  0  0
  2  3  1  0  0  0  0
  2  4  1  0  0  0  0
  2  5  1  0  0  0  0
  1  2  1  0  0  0  0
 29 30  2  0  0  0  0
 29 31  1  0  0  0  0
 26 27  1  0  0  0  0
 26 28  1  0  0  0  0
 23 24  1  0  0  0  0
 23 25  1  0  0  0  0
 22 23  1  0  0  0  0
 22 26  1  0  0  0  0
 20 21  1  0  0  0  0
 20 22  2  0  0  0  0
 17 18  1  0  0  0  0
 17 19  1  0  0  0  0
 17 20  1  0  0  0  0
 14 15  1  0  0  0  0
 14 16  1  0  0  0  0
 14 17  1  0  0  0  0
 11 12  1  0  0  0  0
 11 13  1  0  0  0  0
 11 14  1  0  0  0  0
  9 10  1  0  0  0  0
  9 11  1  0  0  0  0
  9 29  1  0  0  0  0
  7  8  1  0  0  0  0
  7  9  1  0  0  0  0
 33 34  1  0  0  0  0
 33 35  1  0  0  0  0
 33 36  1  0  0  0  0
 31 32  1  0  0  0  0
 31 33  1  0  0  0  0
M  CHG  1  20   1
M  END
$$$$
default_name
  -OEChem-02102213163D

 36 35  0     1  0  0  0  0  0999 V2000
   -4.2256   -3.6731    1.8584 H   0  0  0  0  0  0  0  0  0  0  0  0
   -4.2396   -2.6781    1.4144 C   0  0  0  0  0  0  0  0  0  0  0  0
   -4.9506   -2.0521    1.9514 H   0  0  0  0  0  0  0  0  0  0  0  0
   -4.5266   -2.7521    0.3674 H   0  0  0  0  0  0  0  0  0  0  0  0
   -2.8576   -2.0761    1.5184 C   0  0  0  0  0  0  0  0  0  0  0  0
   -1.9456   -2.7051    2.0404 O   0  0  0  0  0  0  0  0  0  0  0  0
   -2.6926   -0.8481    1.0174 N   0  0  0  0  0  0  0  0  0  0  0  0
   -3.4926   -0.3971    0.5954 H   0  0  0  0  0  0  0  0  0  0  0  0
   -1.4216   -0.1071    1.0434 C   0  0  1  0  0  0  0  0  0  0  0  0
   -0.6709   -0.6930    0.5106 H   0  0  0  0  0  0  0  0  0  0  0  0
   -1.6221    1.2315    0.3051 C   0  0  0  0  0  0  0  0  0  0  0  0
   -1.1595    2.0265    0.8934 H   0  0  0  0  0  0  0  0  0  0  0  0
   -1.1148    1.1857   -0.6611 H   0  0  0  0  0  0  0  0  0  0  0  0
   -3.0982    1.5921    0.0831 C   0  0  0  0  0  0  0  0  0  0  0  0
   -3.6630    1.4153    0.9995 H   0  0  0  0  0  0  0  0  0  0  0  0
   -3.1752    2.6449   -0.1902 H   0  0  0  0  0  0  0  0  0  0  0  0
   -3.6834    0.7285   -1.0426 C   0  0  0  0  0  0  0  0  0  0  0  0
   -3.0955    0.8917   -1.9488 H   0  0  0  0  0  0  0  0  0  0  0  0
   -3.6013   -0.3219   -0.7535 H   0  0  0  0  0  0  0  0  0  0  0  0
   -5.0989    1.0586   -1.3075 N   0  3  0  0  0  0  0  0  0  0  0  0
   -5.5202    1.7513   -0.7126 H   0  0  0  0  0  0  0  0  0  0  0  0
   -5.8613    0.5306   -2.2504 C   0  0  0  0  0  0  0  0  0  0  0  0
   -5.4161   -0.3751   -3.0755 N   0  0  0  0  0  0  0  0  0  0  0  0
   -4.4622   -0.6792   -2.9913 H   0  0  0  0  0  0  0  0  0  0  0  0
   -6.0081   -0.7659   -3.7852 H   0  0  0  0  0  0  0  0  0  0  0  0
   -7.1017    0.9063   -2.3833 N   0  0  0  0  0  0  0  0  0  0  0  0
   -7.4901    1.6024   -1.7705 H   0  0  0  0  0  0  0  0  0  0  0  0
   -7.6766    0.5033   -3.1000 H   0  0  0  0  0  0  0  0  0  0  0  0
   -0.9523    0.1012    2.4848 C   0  0  0  0  0  0  0  0  0  0  0  0
    0.2133   -0.1319    2.7814 O   0  0  0  0  0  0  0  0  0  0  0  0
   -1.8684    0.5006    3.3725 N   0  0  0  0  0  0  0  0  0  0  0  0
   -2.7946    0.7048    3.0343 H   0  0  0  0  0  0  0  0  0  0  0  0
   -1.5848    0.7472    4.7873 C   0  0  0  0  0  0  0  0  0  0  0  0
   -0.8819    1.5774    4.8838 H   0  0  0  0  0  0  0  0  0  0  0  0
   -2.5030    0.9948    5.3214 H   0  0  0  0  0  0  0  0  0  0  0  0
   -1.1344   -0.1399    5.2381 H   0  0  0  0  0  0  0  0  0  0  0  0
  5  6  2  0  0  0  0
  5  7  1  0  0  0  0
  2  3  1  0  0  0  0
  2  4  1  0  0  0  0
  2  5  1  0  0  0  0
  1  2  1  0  0  0  0
 29 30  2  0  0  0  0
 29 31  1  0  0  0  0
 26 27  1  0  0  0  0
 26 28  1  0  0  0  0
 23 24  1  0  0  0  0
 23 25  1  0  0  0  0
 22 23  1  0  0  0  0
 22 26  1  0  0  0  0
 20 21  1  0  0  0  0
 20 22  2  0  0  0  0
 17 18  1  0  0  0  0
 17 19  1  0  0  0  0
 17 20  1  0  0  0  0
 14 15  1  0  0  0  0
 14 16  1  0  0  0  0
 14 17  1  0  0  0  0
 11 12  1  0  0  0  0
 11 13  1  0  0  0  0
 11 14  1  0  0  0  0
  9 10  1  0  0  0  0
  9 11  1  0  0  0  0
  9 29  1  0  0  0  0
  7  8  1  0  0  0  0
  7  9  1  0  0  0  0
 33 34  1  0  0  0  0
 33 35  1  0  0  0  0
 33 36  1  0  0  0  0
 31 32  1  0  0  0  0
 31 33  1  0  0  0  0
M  CHG  1  20   1
M  END
$$$$
default_name
  -OEChem-02102213163D

 36 35  0     1  0  0  0  0  0999 V2000
   -4.2256   -3.6731    1.8584 H   0  0  0  0  0  0  0  0  0  0  0  0
   -4.2396   -2.6781    1.4144 C   0  0  0  0  0  0  0  0  0  0  0  0
   -4.9506   -2.0521    1.9514 H   0  0  0  0  0  0  0  0  0  0  0  0
   -4.5266   -2.7521    0.3674 H   0  0  0  0  0  0  0  0  0  0  0  0
   -2.8576   -2.0761    1.5184 C   0  0  0  0  0  0  0  0  0  0  0  0
   -1.9456   -2.7051    2.0404 O   0  0  0  0  0  0  0  0  0  0  0  0
   -2.6926   -0.8481    1.0174 N   0  0  0  0  0  0  0  0  0  0  0  0
   -3.4926   -0.3971    0.5954 H   0  0  0  0  0  0  0  0  0  0  0  0
   -1.4216   -0.1071    1.0434 C   0  0  1  0  0  0  0  0  0  0  0  0
   -0.6709   -0.6930    0.5106 H   0  0  0  0  0  0  0  0  0  0  0  0
   -1.6221    1.2315    0.3051 C   0  0  0  0  0  0  0  0  0  0  0  0
   -1.1595    2.0265    0.8934 H   0  0  0  0  0  0  0  0  0  0  0  0
   -1.1148    1.1857   -0.6611 H   0  0  0  0  0  0  0  0  0  0  0  0
   -3.0982    1.5921    0.0831 C   0  0  0  0  0  0  0  0  0  0  0  0
   -3.6068    1.6734    1.0447 H   0  0  0  0  0  0  0  0  0  0  0  0
   -3.1616    2.5469   -0.4399 H   0  0  0  0  0  0  0  0  0  0  0  0
   -3.7813    0.5040   -0.7564 C   0  0  0  0  0  0  0  0  0  0  0  0
   -3.2494    0.4110   -1.7061 H   0  0  0  0  0  0  0  0  0  0  0  0
   -3.7117   -0.4447   -0.2190 H   0  0  0  0  0  0  0  0  0  0  0  0
   -5.2007    0.8216   -1.0156 N   0  3  0  0  0  0  0  0  0  0  0  0
   -5.5613    1.6584   -0.5901 H   0  0  0  0  0  0  0  0  0  0  0  0
   -6.0386    0.1116   -1.7523 C   0  0  0  0  0  0  0  0  0  0  0  0
   -5.6755   -0.9894   -2.3485 N   0  0  0  0  0  0  0  0  0  0  0  0
   -4.7276   -1.3058   -2.2446 H   0  0  0  0  0  0  0  0  0  0  0  0
   -6.3241   -1.5166   -2.9037 H   0  0  0  0  0  0  0  0  0  0  0  0
   -7.2732    0.4982   -1.9053 N   0  0  0  0  0  0  0  0  0  0  0  0
   -7.5999    1.3412   -1.4651 H   0  0  0  0  0  0  0  0  0  0  0  0
   -7.9056   -0.0434   -2.4651 H   0  0  0  0  0  0  0  0  0  0  0  0
   -0.9523    0.1012    2.4848 C   0  0  0  0  0  0  0  0  0  0  0  0
    0.2133   -0.1319    2.7814 O   0  0  0  0  0  0  0  0  0  0  0  0
   -1.8684    0.5006    3.3725 N   0  0  0  0  0  0  0  0  0  0  0  0
   -2.7946    0.7048    3.0343 H   0  0  0  0  0  0  0  0  0  0  0  0
   -1.5848    0.7472    4.7873 C   0  0  0  0  0  0  0  0  0  0  0  0
   -0.8819    1.5774    4.8838 H   0  0  0  0  0  0  0  0  0  0  0  0
   -2.5030    0.9948    5.3214 H   0  0  0  0  0  0  0  0  0  0  0  0
   -1.1344   -0.1399    5.2381 H   0  0  0  0  0  0  0  0  0  0  0  0
  5  6  2  0  0  0  0
  5  7  1  0  0  0  0
  2  3  1  0  0  0  0
  2  4  1  0  0  0  0
  2  5  1  0  0  0  0
  1  2  1  0  0  0  0
 29 30  2  0  0  0  0
 29 31  1  0  0  0  0
 26 27  1  0  0  0  0
 26 28  1  0  0  0  0
 23 24  1  0  0  0  0
 23 25  1  0  0  0  0
 22 23  1  0  0  0  0
 22 26  1  0  0  0  0
 20 21  1  0  0  0  0
 20 22  2  0  0  0  0
 17 18  1  0  0  0  0
 17 19  1  0  0  0  0
 17 20  1  0  0  0  0
 14 15  1  0  0  0  0
 14 16  1  0  0  0  0
 14 17  1  0  0  0  0
 11 12  1  0  0  0  0
 11 13  1  0  0  0  0
 11 14  1  0  0  0  0
  9 10  1  0  0  0  0
  9 11  1  0  0  0  0
  9 29  1  0  0  0  0
  7  8  1  0  0  0  0
  7  9  1  0  0  0  0
 33 34  1  0  0  0  0
 33 35  1  0  0  0  0
 33 36  1  0  0  0  0
 31 32  1  0  0  0  0
 31 33  1  0  0  0  0
M  CHG  1  20   1
M  END
$$$$
default_name
  -OEChem-02102213163D

 36 35  0     1  0  0  0  0  0999 V2000
   -4.2256   -3.6731    1.8584 H   0  0  0  0  0  0  0  0  0  0  0  0
   -4.2396   -2.6781    1.4144 C   0  0  0  0  0  0  0  0  0  0  0  0
   -4.9506   -2.0521    1.9514 H   0  0  0  0  0  0  0  0  0  0  0  0
   -4.5266   -2.7521    0.3674 H   0  0  0  0  0  0  0  0  0  0  0  0
   -2.8576   -2.0761    1.5184 C   0  0  0  0  0  0  0  0  0  0  0  0
   -1.9456   -2.7051    2.0404 O   0  0  0  0  0  0  0  0  0  0  0  0
   -2.6926   -0.8481    1.0174 N   0  0  0  0  0  0  0  0  0  0  0  0
   -3.4926   -0.3971    0.5954 H   0  0  0  0  0  0  0  0  0  0  0  0
   -1.4216   -0.1071    1.0434 C   0  0  1  0  0  0  0  0  0  0  0  0
   -0.6709   -0.6930    0.5106 H   0  0  0  0  0  0  0  0  0  0  0  0
   -1.6221    1.2315    0.3051 C   0  0  0  0  0  0  0  0  0  0  0  0
   -1.1595    2.0265    0.8934 H   0  0  0  0  0  0  0  0  0  0  0  0
   -1.1148    1.1857   -0.6611 H   0  0  0  0  0  0  0  0  0  0  0  0
   -3.0982    1.5921    0.0831 C   0  0  0  0  0  0  0  0  0  0  0  0
   -3.5400    1.9318    1.0208 H   0  0  0  0  0  0  0  0  0  0  0  0
   -3.1673    2.3895   -0.6575 H   0  0  0  0  0  0  0  0  0  0  0  0
   -3.8669    0.3619   -0.4182 C   0  0  0  0  0  0  0  0  0  0  0  0
   -3.4014    0.0128   -1.3427 H   0  0  0  0  0  0  0  0  0  0  0  0
   -3.7905   -0.4263    0.3345 H   0  0  0  0  0  0  0  0  0  0  0  0
   -5.2901    0.6692   -0.6686 N   0  3  0  0  0  0  0  0  0  0  0  0
   -5.5970    1.6007   -0.4462 H   0  0  0  0  0  0  0  0  0  0  0  0
   -6.1952   -0.1626   -1.1563 C   0  0  0  0  0  0  0  0  0  0  0  0
   -5.9049   -1.3921   -1.4777 N   0  0  0  0  0  0  0  0  0  0  0  0
   -4.9621   -1.7154   -1.3513 H   0  0  0  0  0  0  0  0  0  0  0  0
   -6.6038   -2.0106   -1.8463 H   0  0  0  0  0  0  0  0  0  0  0  0
   -7.4252    0.2294   -1.3316 N   0  0  0  0  0  0  0  0  0  0  0  0
   -7.6971    1.1690   -1.0985 H   0  0  0  0  0  0  0  0  0  0  0  0
   -8.1087   -0.4048   -1.7019 H   0  0  0  0  0  0  0  0  0  0  0  0
   -0.9523    0.1012    2.4848 C   0  0  0  0  0  0  0  0  0  0  0  0
    0.2133   -0.1319    2.7814 O   0  0  0  0  0  0  0  0  0  0  0  0
   -1.8684    0.5006    3.3725 N   0  0  0  0  0  0  0  0  0  0  0  0
   -2.7946    0.7048    3.0343 H   0  0  0  0  0  0  0  0  0  0  0  0
   -1.5848    0.7472    4.7873 C   0  0  0  0  0  0  0  0  0  0  0  0
   -0.8819    1.5774    4.8838 H   0  0  0  0  0  0  0  0  0  0  0  0
   -2.5030    0.9948    5.3214 H   0  0  0  0  0  0  0  0  0  0  0  0
   -1.1344   -0.1399    5.2381 H   0  0  0  0  0  0  0  0  0  0  0  0
  5  6  2  0  0  0  0
  5  7  1  0  0  0  0
  2  3  1  0  0  0  0
  2  4  1  0  0  0  0
  2  5  1  0  0  0  0
  1  2  1  0  0  0  0
 29 30  2  0  0  0  0
 29 31  1  0  0  0  0
 26 27  1  0  0  0  0
 26 28  1  0  0  0  0
 23 24  1  0  0  0  0
 23 25  1  0  0  0  0
 22 23  1  0  0  0  0
 22 26  1  0  0  0  0
 20 21  1  0  0  0  0
 20 22  2  0  0  0  0
 17 18  1  0  0  0  0
 17 19  1  0  0  0  0
 17 20  1  0  0  0  0
 14 15  1  0  0  0  0
 14 16  1  0  0  0  0
 14 17  1  0  0  0  0
 11 12  1  0  0  0  0
 11 13  1  0  0  0  0
 11 14  1  0  0  0  0
  9 10  1  0  0  0  0
  9 11  1  0  0  0  0
  9 29  1  0  0  0  0
  7  8  1  0  0  0  0
  7  9  1  0  0  0  0
 33 34  1  0  0  0  0
 33 35  1  0  0  0  0
 33 36  1  0  0  0  0
 31 32  1  0  0  0  0
 31 33  1  0  0  0  0
M  CHG  1  20   1
M  END
$$$$
default_name
  -OEChem-02102213163D

 36 35  0     1  0  0  0  0  0999 V2000
   -4.2256   -3.6731    1.8584 H   0  0  0  0  0  0  0  0  0  0  0  0
   -4.2396   -2.6781    1.4144 C   0  0  0  0  0  0  0  0  0  0  0  0
   -4.9506   -2.0521    1.9514 H   0  0  0  0  0  0  0  0  0  0  0  0
   -4.5266   -2.7521    0.3674 H   0  0  0  0  0  0  0  0  0  0  0  0
   -2.8576   -2.0761    1.5184 C   0  0  0  0  0  0  0  0  0  0  0  0
   -1.9456   -2.7051    2.0404 O   0  0  0  0  0  0  0  0  0  0  0  0
   -2.6926   -0.8481    1.0174 N   0  0  0  0  0  0  0  0  0  0  0  0
   -3.4926   -0.3971    0.5954 H   0  0  0  0  0  0  0  0  0  0  0  0
   -1.4216   -0.1071    1.0434 C   0  0  1  0  0  0  0  0  0  0  0  0
   -0.6709   -0.6930    0.5106 H   0  0  0  0  0  0  0  0  0  0  0  0
   -1.6221    1.2315    0.3051 C   0  0  0  0  0  0  0  0  0  0  0  0
   -1.1595    2.0265    0.8934 H   0  0  0  0  0  0  0  0  0  0  0  0
   -1.1148    1.1857   -0.6611 H   0  0  0  0  0  0  0  0  0  0  0  0
   -3.0982    1.5921    0.0831 C   0  0  0  0  0  0  0  0  0  0  0  0
   -3.4674    2.1730    0.9294 H   0  0  0  0  0  0  0  0  0  0  0  0
   -3.1919    2.1835   -0.8282 H   0  0  0  0  0  0  0  0  0  0  0  0
   -3.9343    0.3121   -0.0509 C   0  0  0  0  0  0  0  0  0  0  0  0
   -3.5409   -0.2758   -0.8834 H   0  0  0  0  0  0  0  0  0  0  0  0
   -3.8322   -0.2678    0.8694 H   0  0  0  0  0  0  0  0  0  0  0  0
   -5.3611    0.6117   -0.2900 N   0  3  0  0  0  0  0  0  0  0  0  0
   -5.6250    1.5821   -0.2907 H   0  0  0  0  0  0  0  0  0  0  0  0
   -6.3206   -0.2733   -0.5028 C   0  0  0  0  0  0  0  0  0  0  0  0
   -6.0886   -1.5559   -0.5225 N   0  0  0  0  0  0  0  0  0  0  0  0
   -5.1495   -1.8801   -0.3724 H   0  0  0  0  0  0  0  0  0  0  0  0
   -6.8282   -2.2142   -0.6850 H   0  0  0  0  0  0  0  0  0  0  0  0
   -7.5472    0.1182   -0.7013 N   0  0  0  0  0  0  0  0  0  0  0  0
   -7.7752    1.0975   -0.6956 H   0  0  0  0  0  0  0  0  0  0  0  0
   -8.2720   -0.5565   -0.8624 H   0  0  0  0  0  0  0  0  0  0  0  0
   -0.9523    0.1012    2.4848 C   0  0  0  0  0  0  0  0  0  0  0  0
    0.2133   -0.1319    2.7814 O   0  0  0  0  0  0  0  0  0  0  0  0
   -1.8684    0.5006    3.3725 N   0  0  0  0  0  0  0  0  0  0  0  0
   -2.7946    0.7048    3.0343 H   0  0  0  0  0  0  0  0  0  0  0  0
   -1.5848    0.7472    4.7873 C   0  0  0  0  0  0  0  0  0  0  0  0
   -0.8819    1.5774    4.8838 H   0  0  0  0  0  0  0  0  0  0  0  0
   -2.5030    0.9948    5.3214 H   0  0  0  0  0  0  0  0  0  0  0  0
   -1.1344   -0.1399    5.2381 H   0  0  0  0  0  0  0  0  0  0  0  0
  5  6  2  0  0  0  0
  5  7  1  0  0  0  0
  2  3  1  0  0  0  0
  2  4  1  0  0  0  0
  2  5  1  0  0  0  0
  1  2  1  0  0  0  0
 29 30  2  0  0  0  0
 29 31  1  0  0  0  0
 26 27  1  0  0  0  0
 26 28  1  0  0  0  0
 23 24  1  0  0  0  0
 23 25  1  0  0  0  0
 22 23  1  0  0  0  0
 22 26  1  0  0  0  0
 20 21  1  0  0  0  0
 20 22  2  0  0  0  0
 17 18  1  0  0  0  0
 17 19  1  0  0  0  0
 17 20  1  0  0  0  0
 14 15  1  0  0  0  0
 14 16  1  0  0  0  0
 14 17  1  0  0  0  0
 11 12  1  0  0  0  0
 11 13  1  0  0  0  0
 11 14  1  0  0  0  0
  9 10  1  0  0  0  0
  9 11  1  0  0  0  0
  9 29  1  0  0  0  0
  7  8  1  0  0  0  0
  7  9  1  0  0  0  0
 33 34  1  0  0  0  0
 33 35  1  0  0  0  0
 33 36  1  0  0  0  0
 31 32  1  0  0  0  0
 31 33  1  0  0  0  0
M  CHG  1  20   1
M  END
$$$$
default_name
  -OEChem-02102213163D

 36 35  0     1  0  0  0  0  0999 V2000
   -4.2256   -3.6731    1.8584 H   0  0  0  0  0  0  0  0  0  0  0  0
   -4.2396   -2.6781    1.4144 C   0  0  0  0  0  0  0  0  0  0  0  0
   -4.9506   -2.0521    1.9514 H   0  0  0  0  0  0  0  0  0  0  0  0
   -4.5266   -2.7521    0.3674 H   0  0  0  0  0  0  0  0  0  0  0  0
   -2.8576   -2.0761    1.5184 C   0  0  0  0  0  0  0  0  0  0  0  0
   -1.9456   -2.7051    2.0404 O   0  0  0  0  0  0  0  0  0  0  0  0
   -2.6926   -0.8481    1.0174 N   0  0  0  0  0  0  0  0  0  0  0  0
   -3.4926   -0.3971    0.5954 H   0  0  0  0  0  0  0  0  0  0  0  0
   -1.4216   -0.1071    1.0434 C   0  0  1  0  0  0  0  0  0  0  0  0
   -0.6709   -0.6930    0.5106 H   0  0  0  0  0  0  0  0  0  0  0  0
   -1.6221    1.2315    0.3051 C   0  0  0  0  0  0  0  0  0  0  0  0
   -1.1595    2.0265    0.8934 H   0  0  0  0  0  0  0  0  0  0  0  0
   -1.1148    1.1857   -0.6611 H   0  0  0  0  0  0  0  0  0  0  0  0
   -3.0982    1.5921    0.0831 C   0  0  0  0  0  0  0  0  0  0  0  0
   -3.3937    2.3806    0.7767 H   0  0  0  0  0  0  0  0  0  0  0  0
   -3.2338    1.9430   -0.9404 H   0  0  0  0  0  0  0  0  0  0  0  0
   -3.9790    0.3578    0.3204 C   0  0  0  0  0  0  0  0  0  0  0  0
   -3.6586   -0.4350   -0.3595 H   0  0  0  0  0  0  0  0  0  0  0  0
   -3.8341    0.0199    1.3492 H   0  0  0  0  0  0  0  0  0  0  0  0
   -5.4088    0.6529    0.0943 N   0  3  0  0  0  0  0  0  0  0  0  0
   -5.6432    1.6039   -0.1341 H   0  0  0  0  0  0  0  0  0  0  0  0
   -6.4060   -0.2130    0.1636 C   0  0  0  0  0  0  0  0  0  0  0  0
   -6.2141   -1.4696    0.4521 N   0  0  0  0  0  0  0  0  0  0  0  0
   -5.2773   -1.7885    0.6256 H   0  0  0  0  0  0  0  0  0  0  0  0
   -6.9821   -2.1136    0.5010 H   0  0  0  0  0  0  0  0  0  0  0  0
   -7.6309    0.1721   -0.0574 N   0  0  0  0  0  0  0  0  0  0  0  0
   -7.8288    1.1315   -0.2839 H   0  0  0  0  0  0  0  0  0  0  0  0
   -8.3844   -0.4881   -0.0039 H   0  0  0  0  0  0  0  0  0  0  0  0
   -0.9523    0.1012    2.4848 C   0  0  0  0  0  0  0  0  0  0  0  0
    0.2133   -0.1319    2.7814 O   0  0  0  0  0  0  0  0  0  0  0  0
   -1.8684    0.5006    3.3725 N   0  0  0  0  0  0  0  0  0  0  0  0
   -2.7946    0.7048    3.0343 H   0  0  0  0  0  0  0  0  0  0  0  0
   -1.5848    0.7472    4.7873 C   0  0  0  0  0  0  0  0  0  0  0  0
   -0.8819    1.5774    4.8838 H   0  0  0  0  0  0  0  0  0  0  0  0
   -2.5030    0.9948    5.3214 H   0  0  0  0  0  0  0  0  0  0  0  0
   -1.1344   -0.1399    5.2381 H   0  0  0  0  0  0  0  0  0  0  0  0
  5  6  2  0  0  0  0
  5  7  1  0  0  0  0
  2  3  1  0  0  0  0
  2  4  1  0  0  0  0
  2  5  1  0  0  0  0
  1  2  1  0  0  0  0
 29 30  2  0  0  0  0
 29 31  1  0  0  0  0
 26 27  1  0  0  0  0
 26 28  1  0  0  0  0
 23 24  1  0  0  0  0
 23 25  1  0  0  0  0
 22 23  1  0  0  0  0
 22 26  1  0  0  0  0
 20 21  1  0  0  0  0
 20 22  2  0  0  0  0
 17 18  1  0  0  0  0
 17 19  1  0  0  0  0
 17 20  1  0  0  0  0
 14 15  1  0  0  0  0
 14 16  1  0  0  0  0
 14 17  1  0  0  0  0
 11 12  1  0  0  0  0
 11 13  1  0  0  0  0
 11 14  1  0  0  0  0
  9 10  1  0  0  0  0
  9 11  1  0  0  0  0
  9 29  1  0  0  0  0
  7  8  1  0  0  0  0
  7  9  1  0  0  0  0
 33 34  1  0  0  0  0
 33 35  1  0  0  0  0
 33 36  1  0  0  0  0
 31 32  1  0  0  0  0
 31 33  1  0  0  0  0
M  CHG  1  20   1
M  END
$$$$
default_name
  -OEChem-02102213163D

 36 35  0     1  0  0  0  0  0999 V2000
   -4.2256   -3.6731    1.8584 H   0  0  0  0  0  0  0  0  0  0  0  0
   -4.2396   -2.6781    1.4144 C   0  0  0  0  0  0  0  0  0  0  0  0
   -4.9506   -2.0521    1.9514 H   0  0  0  0  0  0  0  0  0  0  0  0
   -4.5266   -2.7521    0.3674 H   0  0  0  0  0  0  0  0  0  0  0  0
   -2.8576   -2.0761    1.5184 C   0  0  0  0  0  0  0  0  0  0  0  0
   -1.9456   -2.7051    2.0404 O   0  0  0  0  0  0  0  0  0  0  0  0
   -2.6926   -0.8481    1.0174 N   0  0  0  0  0  0  0  0  0  0  0  0
   -3.4926   -0.3971    0.5954 H   0  0  0  0  0  0  0  0  0  0  0  0
   -1.4216   -0.1071    1.0434 C   0  0  1  0  0  0  0  0  0  0  0  0
   -0.6709   -0.6930    0.5106 H   0  0  0  0  0  0  0  0  0  0  0  0
   -1.6221    1.2315    0.3051 C   0  0  0  0  0  0  0  0  0  0  0  0
   -1.1595    2.0265    0.8934 H   0  0  0  0  0  0  0  0  0  0  0  0
   -1.1148    1.1857   -0.6611 H   0  0  0  0  0  0  0  0  0  0  0  0
   -3.0982    1.5921    0.0831 C   0  0  0  0  0  0  0  0  0  0  0  0
   -3.3241    2.5403    0.5730 H   0  0  0  0  0  0  0  0  0  0  0  0
   -3.2901    1.6844   -0.9864 H   0  0  0  0  0  0  0  0  0  0  0  0
   -3.9978    0.4961    0.6703 C   0  0  0  0  0  0  0  0  0  0  0  0
   -3.7465   -0.4541    0.1933 H   0  0  0  0  0  0  0  0  0  0  0  0
   -3.7960    0.4172    1.7411 H   0  0  0  0  0  0  0  0  0  0  0  0
   -5.4300    0.7902    0.4582 N   0  3  0  0  0  0  0  0  0  0  0  0
   -5.6505    1.6645    0.0128 H   0  0  0  0  0  0  0  0  0  0  0  0
   -6.4459    0.0143    0.7974 C   0  0  0  0  0  0  0  0  0  0  0  0
   -6.2729   -1.1391    1.3796 N   0  0  0  0  0  0  0  0  0  0  0  0
   -5.3366   -1.4470    1.5746 H   0  0  0  0  0  0  0  0  0  0  0  0
   -7.0548   -1.7156    1.6309 H   0  0  0  0  0  0  0  0  0  0  0  0
   -7.6705    0.3875    0.5562 N   0  0  0  0  0  0  0  0  0  0  0  0
   -7.8542    1.2689    0.1086 H   0  0  0  0  0  0  0  0  0  0  0  0
   -8.4383   -0.2042    0.8151 H   0  0  0  0  0  0  0  0  0  0  0  0
   -0.9523    0.1012    2.4848 C   0  0  0  0  0  0  0  0  0  0  0  0
    0.2133   -0.1319    2.7814 O   0  0  0  0  0  0  0  0  0  0  0  0
   -1.8684    0.5006    3.3725 N   0  0  0  0  0  0  0  0  0  0  0  0
   -2.7946    0.7048    3.0343 H   0  0  0  0  0  0  0  0  0  0  0  0
   -1.5848    0.7472    4.7873 C   0  0  0  0  0  0  0  0  0  0  0  0
   -0.8819    1.5774    4.8838 H   0  0  0  0  0  0  0  0  0  0  0  0
   -2.5030    0.9948    5.3214 H   0  0  0  0  0  0  0  0  0  0  0  0
   -1.1344   -0.1399    5.2381 H   0  0  0  0  0  0  0  0  0  0  0  0
  5  6  2  0  0  0  0
  5  7  1  0  0  0  0
  2  3  1  0  0  0  0
  2  4  1  0  0  0  0
  2  5  1  0  0  0  0
  1  2  1  0  0  0  0
 29 30  2  0  0  0  0
 29 31  1  0  0  0  0
 26 27  1  0  0  0  0
 26 28  1  0  0  0  0
 23 24  1  0  0  0  0
 23 25  1  0  0  0  0
 22 23  1  0  0  0  0
 22 26  1  0  0  0  0
 20 21  1  0  0  0  0
 20 22  2  0  0  0  0
 17 18  1  0  0  0  0
 17 19  1  0  0  0  0
 17 20  1  0  0  0  0
 14 15  1  0  0  0  0
 14 16  1  0  0  0  0
 14 17  1  0  0  0  0
 11 12  1  0  0  0  0
 11 13  1  0  0  0  0
 11 14  1  0  0  0  0
  9 10  1  0  0  0  0
  9 11  1  0  0  0  0
  9 29  1  0  0  0  0
  7  8  1  0  0  0  0
  7  9  1  0  0  0  0
 33 34  1  0  0  0  0
 33 35  1  0  0  0  0
 33 36  1  0  0  0  0
 31 32  1  0  0  0  0
 31 33  1  0  0  0  0
M  CHG  1  20   1
M  END
$$$$
default_name
  -OEChem-02102213163D

 36 35  0     1  0  0  0  0  0999 V2000
   -4.2256   -3.6731    1.8584 H   0  0  0  0  0  0  0  0  0  0  0  0
   -4.2396   -2.6781    1.4144 C   0  0  0  0  0  0  0  0  0  0  0  0
   -4.9506   -2.0521    1.9514 H   0  0  0  0  0  0  0  0  0  0  0  0
   -4.5266   -2.7521    0.3674 H   0  0  0  0  0  0  0  0  0  0  0  0
   -2.8576   -2.0761    1.5184 C   0  0  0  0  0  0  0  0  0  0  0  0
   -1.9456   -2.7051    2.0404 O   0  0  0  0  0  0  0  0  0  0  0  0
   -2.6926   -0.8481    1.0174 N   0  0  0  0  0  0  0  0  0  0  0  0
   -3.4926   -0.3971    0.5954 H   0  0  0  0  0  0  0  0  0  0  0  0
   -1.4216   -0.1071    1.0434 C   0  0  1  0  0  0  0  0  0  0  0  0
   -0.6709   -0.6930    0.5106 H   0  0  0  0  0  0  0  0  0  0  0  0
   -1.6221    1.2315    0.3051 C   0  0  0  0  0  0  0  0  0  0  0  0
   -1.1595    2.0265    0.8934 H   0  0  0  0  0  0  0  0  0  0  0  0
   -1.1148    1.1857   -0.6611 H   0  0  0  0  0  0  0  0  0  0  0  0
   -3.0982    1.5921    0.0831 C   0  0  0  0  0  0  0  0  0  0  0  0
   -3.2632    2.6412    0.3323 H   0  0  0  0  0  0  0  0  0  0  0  0
   -3.3569    1.4253   -0.9630 H   0  0  0  0  0  0  0  0  0  0  0  0
   -3.9896    0.7173    0.9751 C   0  0  0  0  0  0  0  0  0  0  0  0
   -3.7984   -0.3316    0.7374 H   0  0  0  0  0  0  0  0  0  0  0  0
   -3.7205    0.8971    2.0186 H   0  0  0  0  0  0  0  0  0  0  0  0
   -5.4233    1.0141    0.7767 N   0  3  0  0  0  0  0  0  0  0  0  0
   -5.6463    1.7599    0.1401 H   0  0  0  0  0  0  0  0  0  0  0  0
   -6.4373    0.3930    1.3555 C   0  0  0  0  0  0  0  0  0  0  0  0
   -6.2609   -0.5869    2.1969 N   0  0  0  0  0  0  0  0  0  0  0  0
   -5.3235   -0.8789    2.4099 H   0  0  0  0  0  0  0  0  0  0  0  0
   -7.0415   -1.0473    2.6277 H   0  0  0  0  0  0  0  0  0  0  0  0
   -7.6635    0.7497    1.0977 N   0  0  0  0  0  0  0  0  0  0  0  0
   -7.8499    1.5002    0.4550 H   0  0  0  0  0  0  0  0  0  0  0  0
   -8.4299    0.2758    1.5389 H   0  0  0  0  0  0  0  0  0  0  0  0
   -0.9523    0.1012    2.4848 C   0  0  0  0  0  0  0  0  0  0  0  0
    0.2133   -0.1319    2.7814 O   0  0  0  0  0  0  0  0  0  0  0  0
   -1.8684    0.5006    3.3725 N   0  0  0  0  0  0  0  0  0  0  0  0
   -2.7946    0.7048    3.0343 H   0  0  0  0  0  0  0  0  0  0  0  0
   -1.5848    0.7472    4.7873 C   0  0  0  0  0  0  0  0  0  0  0  0
   -0.8819    1.5774    4.8838 H   0  0  0  0  0  0  0  0  0  0  0  0
   -2.5030    0.9948    5.3214 H   0  0  0  0  0  0  0  0  0  0  0  0
   -1.1344   -0.1399    5.2381 H   0  0  0  0  0  0  0  0  0  0  0  0
  5  6  2  0  0  0  0
  5  7  1  0  0  0  0
  2  3  1  0  0  0  0
  2  4  1  0  0  0  0
  2  5  1  0  0  0  0
  1  2  1  0  0  0  0
 29 30  2  0  0  0  0
 29 31  1  0  0  0  0
 26 27  1  0  0  0  0
 26 28  1  0  0  0  0
 23 24  1  0  0  0  0
 23 25  1  0  0  0  0
 22 23  1  0  0  0  0
 22 26  1  0  0  0  0
 20 21  1  0  0  0  0
 20 22  2  0  0  0  0
 17 18  1  0  0  0  0
 17 19  1  0  0  0  0
 17 20  1  0  0  0  0
 14 15  1  0  0  0  0
 14 16  1  0  0  0  0
 14 17  1  0  0  0  0
 11 12  1  0  0  0  0
 11 13  1  0  0  0  0
 11 14  1  0  0  0  0
  9 10  1  0  0  0  0
  9 11  1  0  0  0  0
  9 29  1  0  0  0  0
  7  8  1  0  0  0  0
  7  9  1  0  0  0  0
 33 34  1  0  0  0  0
 33 35  1  0  0  0  0
 33 36  1  0  0  0  0
 31 32  1  0  0  0  0
 31 33  1  0  0  0  0
M  CHG  1  20   1
M  END
$$$$
default_name
  -OEChem-02102213163D

 36 35  0     1  0  0  0  0  0999 V2000
   -4.2256   -3.6731    1.8584 H   0  0  0  0  0  0  0  0  0  0  0  0
   -4.2396   -2.6781    1.4144 C   0  0  0  0  0  0  0  0  0  0  0  0
   -4.9506   -2.0521    1.9514 H   0  0  0  0  0  0  0  0  0  0  0  0
   -4.5266   -2.7521    0.3674 H   0  0  0  0  0  0  0  0  0  0  0  0
   -2.8576   -2.0761    1.5184 C   0  0  0  0  0  0  0  0  0  0  0  0
   -1.9456   -2.7051    2.0404 O   0  0  0  0  0  0  0  0  0  0  0  0
   -2.6926   -0.8481    1.0174 N   0  0  0  0  0  0  0  0  0  0  0  0
   -3.4926   -0.3971    0.5954 H   0  0  0  0  0  0  0  0  0  0  0  0
   -1.4216   -0.1071    1.0434 C   0  0  1  0  0  0  0  0  0  0  0  0
   -0.6709   -0.6930    0.5106 H   0  0  0  0  0  0  0  0  0  0  0  0
   -1.6221    1.2315    0.3051 C   0  0  0  0  0  0  0  0  0  0  0  0
   -1.1595    2.0265    0.8934 H   0  0  0  0  0  0  0  0  0  0  0  0
   -1.1148    1.1857   -0.6611 H   0  0  0  0  0  0  0  0  0  0  0  0
   -3.0982    1.5921    0.0831 C   0  0  0  0  0  0  0  0  0  0  0  0
   -3.2152    2.6766    0.0711 H   0  0  0  0  0  0  0  0  0  0  0  0
   -3.4297    1.1833   -0.8719 H   0  0  0  0  0  0  0  0  0  0  0  0
   -3.9549    1.0066    1.2139 C   0  0  0  0  0  0  0  0  0  0  0  0
   -3.8109   -0.0761    1.2356 H   0  0  0  0  0  0  0  0  0  0  0  0
   -3.6127    1.4268    2.1626 H   0  0  0  0  0  0  0  0  0  0  0  0
   -5.3890    1.3093    1.0284 N   0  3  0  0  0  0  0  0  0  0  0  0
   -5.6310    1.8836    0.2391 H   0  0  0  0  0  0  0  0  0  0  0  0
   -6.3810    0.8973    1.7999 C   0  0  0  0  0  0  0  0  0  0  0  0
   -6.1790    0.1494    2.8483 N   0  0  0  0  0  0  0  0  0  0  0  0
   -5.2387   -0.1228    3.0746 H   0  0  0  0  0  0  0  0  0  0  0  0
   -6.9430   -0.1544    3.4235 H   0  0  0  0  0  0  0  0  0  0  0  0
   -7.6103    1.2340    1.5302 N   0  0  0  0  0  0  0  0  0  0  0  0
   -7.8159    1.8096    0.7319 H   0  0  0  0  0  0  0  0  0  0  0  0
   -8.3598    0.9192    2.1181 H   0  0  0  0  0  0  0  0  0  0  0  0
   -0.9523    0.1012    2.4848 C   0  0  0  0  0  0  0  0  0  0  0  0
    0.2133   -0.1319    2.7814 O   0  0  0  0  0  0  0  0  0  0  0  0
   -1.8684    0.5006    3.3725 N   0  0  0  0  0  0  0  0  0  0  0  0
   -2.7946    0.7048    3.0343 H   0  0  0  0  0  0  0  0  0  0  0  0
   -1.5848    0.7472    4.7873 C   0  0  0  0  0  0  0  0  0  0  0  0
   -0.8819    1.5774    4.8838 H   0  0  0  0  0  0  0  0  0  0  0  0
   -2.5030    0.9948    5.3214 H   0  0  0  0  0  0  0  0  0  0  0  0
   -1.1344   -0.1399    5.2381 H   0  0  0  0  0  0  0  0  0  0  0  0
  5  6  2  0  0  0  0
  5  7  1  0  0  0  0
  2  3  1  0  0  0  0
  2  4  1  0  0  0  0
  2  5  1  0  0  0  0
  1  2  1  0  0  0  0
 29 30  2  0  0  0  0
 29 31  1  0  0  0  0
 26 27  1  0  0  0  0
 26 28  1  0  0  0  0
 23 24  1  0  0  0  0
 23 25  1  0  0  0  0
 22 23  1  0  0  0  0
 22 26  1  0  0  0  0
 20 21  1  0  0  0  0
 20 22  2  0  0  0  0
 17 18  1  0  0  0  0
 17 19  1  0  0  0  0
 17 20  1  0  0  0  0
 14 15  1  0  0  0  0
 14 16  1  0  0  0  0
 14 17  1  0  0  0  0
 11 12  1  0  0  0  0
 11 13  1  0  0  0  0
 11 14  1  0  0  0  0
  9 10  1  0  0  0  0
  9 11  1  0  0  0  0
  9 29  1  0  0  0  0
  7  8  1  0  0  0  0
  7  9  1  0  0  0  0
 33 34  1  0  0  0  0
 33 35  1  0  0  0  0
 33 36  1  0  0  0  0
 31 32  1  0  0  0  0
 31 33  1  0  0  0  0
M  CHG  1  20   1
M  END
$$$$
default_name
  -OEChem-02102213163D

 36 35  0     1  0  0  0  0  0999 V2000
   -4.2256   -3.6731    1.8584 H   0  0  0  0  0  0  0  0  0  0  0  0
   -4.2396   -2.6781    1.4144 C   0  0  0  0  0  0  0  0  0  0  0  0
   -4.9506   -2.0521    1.9514 H   0  0  0  0  0  0  0  0  0  0  0  0
   -4.5266   -2.7521    0.3674 H   0  0  0  0  0  0  0  0  0  0  0  0
   -2.8576   -2.0761    1.5184 C   0  0  0  0  0  0  0  0  0  0  0  0
   -1.9456   -2.7051    2.0404 O   0  0  0  0  0  0  0  0  0  0  0  0
   -2.6926   -0.8481    1.0174 N   0  0  0  0  0  0  0  0  0  0  0  0
   -3.4926   -0.3971    0.5954 H   0  0  0  0  0  0  0  0  0  0  0  0
   -1.4216   -0.1071    1.0434 C   0  0  1  0  0  0  0  0  0  0  0  0
   -0.6709   -0.6930    0.5106 H   0  0  0  0  0  0  0  0  0  0  0  0
   -1.6221    1.2315    0.3051 C   0  0  0  0  0  0  0  0  0  0  0  0
   -1.1595    2.0265    0.8934 H   0  0  0  0  0  0  0  0  0  0  0  0
   -1.1148    1.1857   -0.6611 H   0  0  0  0  0  0  0  0  0  0  0  0
   -3.0982    1.5921    0.0831 C   0  0  0  0  0  0  0  0  0  0  0  0
   -3.1835    2.6440   -0.1931 H   0  0  0  0  0  0  0  0  0  0  0  0
   -3.5036    0.9749   -0.7193 H   0  0  0  0  0  0  0  0  0  0  0  0
   -3.8960    1.3441    1.3705 C   0  0  0  0  0  0  0  0  0  0  0  0
   -3.7832    0.2952    1.6541 H   0  0  0  0  0  0  0  0  0  0  0  0
   -3.4801    1.9703    2.1633 H   0  0  0  0  0  0  0  0  0  0  0  0
   -5.3295    1.6559    1.1959 N   0  3  0  0  0  0  0  0  0  0  0  0
   -5.6056    2.0271    0.3029 H   0  0  0  0  0  0  0  0  0  0  0  0
   -6.2806    1.4929    2.1003 C   0  0  0  0  0  0  0  0  0  0  0  0
   -6.0328    1.0195    3.2893 N   0  0  0  0  0  0  0  0  0  0  0  0
   -5.0882    0.7698    3.5233 H   0  0  0  0  0  0  0  0  0  0  0  0
   -6.7662    0.9025    3.9640 H   0  0  0  0  0  0  0  0  0  0  0  0
   -7.5144    1.8074    1.8243 N   0  0  0  0  0  0  0  0  0  0  0  0
   -7.7547    2.1761    0.9203 H   0  0  0  0  0  0  0  0  0  0  0  0
   -8.2329    1.6822    2.5133 H   0  0  0  0  0  0  0  0  0  0  0  0
   -0.9523    0.1012    2.4848 C   0  0  0  0  0  0  0  0  0  0  0  0
    0.2133   -0.1319    2.7814 O   0  0  0  0  0  0  0  0  0  0  0  0
   -1.8684    0.5006    3.3725 N   0  0  0  0  0  0  0  0  0  0  0  0
   -2.7946    0.7048    3.0343 H   0  0  0  0  0  0  0  0  0  0  0  0
   -1.5848    0.7472    4.7873 C   0  0  0  0  0  0  0  0  0  0  0  0
   -0.8819    1.5774    4.8838 H   0  0  0  0  0  0  0  0  0  0  0  0
   -2.5030    0.9948    5.3214 H   0  0  0  0  0  0  0  0  0  0  0  0
   -1.1344   -0.1399    5.2381 H   0  0  0  0  0  0  0  0  0  0  0  0
  5  6  2  0  0  0  0
  5  7  1  0  0  0  0
  2  3  1  0  0  0  0
  2  4  1  0  0  0  0
  2  5  1  0  0  0  0
  1  2  1  0  0  0  0
 29 30  2  0  0  0  0
 29 31  1  0  0  0  0
 26 27  1  0  0  0  0
 26 28  1  0  0  0  0
 23 24  1  0  0  0  0
 23 25  1  0  0  0  0
 22 23  1  0  0  0  0
 22 26  1  0  0  0  0
 20 21  1  0  0  0  0
 20 22  2  0  0  0  0
 17 18  1  0  0  0  0
 17 19  1  0  0  0  0
 17 20  1  0  0  0  0
 14 15  1  0  0  0  0
 14 16  1  0  0  0  0
 14 17  1  0  0  0  0
 11 12  1  0  0  0  0
 11 13  1  0  0  0  0
 11 14  1  0  0  0  0
  9 10  1  0  0  0  0
  9 11  1  0  0  0  0
  9 29  1  0  0  0  0
  7  8  1  0  0  0  0
  7  9  1  0  0  0  0
 33 34  1  0  0  0  0
 33 35  1  0  0  0  0
 33 36  1  0  0  0  0
 31 32  1  0  0  0  0
 31 33  1  0  0  0  0
M  CHG  1  20   1
M  END
$$$$
default_name
  -OEChem-02102213163D

 36 35  0     1  0  0  0  0  0999 V2000
   -4.2256   -3.6731    1.8584 H   0  0  0  0  0  0  0  0  0  0  0  0
   -4.2396   -2.6781    1.4144 C   0  0  0  0  0  0  0  0  0  0  0  0
   -4.9506   -2.0521    1.9514 H   0  0  0  0  0  0  0  0  0  0  0  0
   -4.5266   -2.7521    0.3674 H   0  0  0  0  0  0  0  0  0  0  0  0
   -2.8576   -2.0761    1.5184 C   0  0  0  0  0  0  0  0  0  0  0  0
   -1.9456   -2.7051    2.0404 O   0  0  0  0  0  0  0  0  0  0  0  0
   -2.6926   -0.8481    1.0174 N   0  0  0  0  0  0  0  0  0  0  0  0
   -3.4926   -0.3971    0.5954 H   0  0  0  0  0  0  0  0  0  0  0  0
   -1.4216   -0.1071    1.0434 C   0  0  1  0  0  0  0  0  0  0  0  0
   -0.6709   -0.6930    0.5106 H   0  0  0  0  0  0  0  0  0  0  0  0
   -1.6221    1.2315    0.3051 C   0  0  0  0  0  0  0  0  0  0  0  0
   -1.1595    2.0265    0.8934 H   0  0  0  0  0  0  0  0  0  0  0  0
   -1.1148    1.1857   -0.6611 H   0  0  0  0  0  0  0  0  0  0  0  0
   -3.0982    1.5921    0.0831 C   0  0  0  0  0  0  0  0  0  0  0  0
   -3.1701    2.5456   -0.4420 H   0  0  0  0  0  0  0  0  0  0  0  0
   -3.5734    0.8144   -0.5155 H   0  0  0  0  0  0  0  0  0  0  0  0
   -3.8170    1.7069    1.4343 C   0  0  0  0  0  0  0  0  0  0  0  0
   -3.7170    0.7568    1.9642 H   0  0  0  0  0  0  0  0  0  0  0  0
   -3.3316    2.4905    2.0208 H   0  0  0  0  0  0  0  0  0  0  0  0
   -5.2490    2.0300    1.2679 N   0  3  0  0  0  0  0  0  0  0  0  0
   -5.5717    2.1806    0.3274 H   0  0  0  0  0  0  0  0  0  0  0  0
   -6.1432    2.1392    2.2361 C   0  0  0  0  0  0  0  0  0  0  0  0
   -5.8322    1.9643    3.4899 N   0  0  0  0  0  0  0  0  0  0  0  0
   -4.8821    1.7379    3.7256 H   0  0  0  0  0  0  0  0  0  0  0  0
   -6.5229    2.0512    4.2125 H   0  0  0  0  0  0  0  0  0  0  0  0
   -7.3825    2.4309    1.9599 N   0  0  0  0  0  0  0  0  0  0  0  0
   -7.6705    2.5746    1.0073 H   0  0  0  0  0  0  0  0  0  0  0  0
   -8.0577    2.5127    2.6974 H   0  0  0  0  0  0  0  0  0  0  0  0
   -0.9523    0.1012    2.4848 C   0  0  0  0  0  0  0  0  0  0  0  0
    0.2133   -0.1319    2.7814 O   0  0  0  0  0  0  0  0  0  0  0  0
   -1.8684    0.5006    3.3725 N   0  0  0  0  0  0  0  0  0  0  0  0
   -2.7946    0.7048    3.0343 H   0  0  0  0  0  0  0  0  0  0  0  0
   -1.5848    0.7472    4.7873 C   0  0  0  0  0  0  0  0  0  0  0  0
   -0.8819    1.5774    4.8838 H   0  0  0  0  0  0  0  0  0  0  0  0
   -2.5030    0.9948    5.3214 H   0  0  0  0  0  0  0  0  0  0  0  0
   -1.1344   -0.1399    5.2381 H   0  0  0  0  0  0  0  0  0  0  0  0
  5  6  2  0  0  0  0
  5  7  1  0  0  0  0
  2  3  1  0  0  0  0
  2  4  1  0  0  0  0
  2  5  1  0  0  0  0
  1  2  1  0  0  0  0
 29 30  2  0  0  0  0
 29 31  1  0  0  0  0
 26 27  1  0  0  0  0
 26 28  1  0  0  0  0
 23 24  1  0  0  0  0
 23 25  1  0  0  0  0
 22 23  1  0  0  0  0
 22 26  1  0  0  0  0
 20 21  1  0  0  0  0
 20 22  2  0  0  0  0
 17 18  1  0  0  0  0
 17 19  1  0  0  0  0
 17 20  1  0  0  0  0
 14 15  1  0  0  0  0
 14 16  1  0  0  0  0
 14 17  1  0  0  0  0
 11 12  1  0  0  0  0
 11 13  1  0  0  0  0
 11 14  1  0  0  0  0
  9 10  1  0  0  0  0
  9 11  1  0  0  0  0
  9 29  1  0  0  0  0
  7  8  1  0  0  0  0
  7  9  1  0  0  0  0
 33 34  1  0  0  0  0
 33 35  1  0  0  0  0
 33 36  1  0  0  0  0
 31 32  1  0  0  0  0
 31 33  1  0  0  0  0
M  CHG  1  20   1
M  END
$$$$
default_name
  -OEChem-02102213163D

 36 35  0     1  0  0  0  0  0999 V2000
   -4.2256   -3.6731    1.8584 H   0  0  0  0  0  0  0  0  0  0  0  0
   -4.2396   -2.6781    1.4144 C   0  0  0  0  0  0  0  0  0  0  0  0
   -4.9506   -2.0521    1.9514 H   0  0  0  0  0  0  0  0  0  0  0  0
   -4.5266   -2.7521    0.3674 H   0  0  0  0  0  0  0  0  0  0  0  0
   -2.8576   -2.0761    1.5184 C   0  0  0  0  0  0  0  0  0  0  0  0
   -1.9456   -2.7051    2.0404 O   0  0  0  0  0  0  0  0  0  0  0  0
   -2.6926   -0.8481    1.0174 N   0  0  0  0  0  0  0  0  0  0  0  0
   -3.4926   -0.3971    0.5954 H   0  0  0  0  0  0  0  0  0  0  0  0
   -1.4216   -0.1071    1.0434 C   0  0  1  0  0  0  0  0  0  0  0  0
   -0.6709   -0.6930    0.5106 H   0  0  0  0  0  0  0  0  0  0  0  0
   -1.6221    1.2315    0.3051 C   0  0  0  0  0  0  0  0  0  0  0  0
   -1.1595    2.0265    0.8934 H   0  0  0  0  0  0  0  0  0  0  0  0
   -1.1148    1.1857   -0.6611 H   0  0  0  0  0  0  0  0  0  0  0  0
   -3.0982    1.5921    0.0831 C   0  0  0  0  0  0  0  0  0  0  0  0
   -3.1759    2.3881   -0.6587 H   0  0  0  0  0  0  0  0  0  0  0  0
   -3.6345    0.7126   -0.2746 H   0  0  0  0  0  0  0  0  0  0  0  0
   -3.7232    2.0702    1.4008 C   0  0  0  0  0  0  0  0  0  0  0  0
   -3.6170    1.2774    2.1449 H   0  0  0  0  0  0  0  0  0  0  0  0
   -3.1773    2.9519    1.7447 H   0  0  0  0  0  0  0  0  0  0  0  0
   -5.1528    2.4063    1.2394 N   0  3  0  0  0  0  0  0  0  0  0  0
   -5.5318    2.3338    0.3108 H   0  0  0  0  0  0  0  0  0  0  0  0
   -5.9780    2.7921    2.1982 C   0  0  0  0  0  0  0  0  0  0  0  0
   -5.5908    2.9192    3.4364 N   0  0  0  0  0  0  0  0  0  0  0  0
   -4.6345    2.7157    3.6676 H   0  0  0  0  0  0  0  0  0  0  0  0
   -6.2299    3.2134    4.1519 H   0  0  0  0  0  0  0  0  0  0  0  0
   -7.2235    3.0619    1.9277 N   0  0  0  0  0  0  0  0  0  0  0  0
   -7.5688    2.9781    0.9871 H   0  0  0  0  0  0  0  0  0  0  0  0
   -7.8462    3.3542    2.6581 H   0  0  0  0  0  0  0  0  0  0  0  0
   -0.9523    0.1012    2.4848 C   0  0  0  0  0  0  0  0  0  0  0  0
    0.2133   -0.1319    2.7814 O   0  0  0  0  0  0  0  0  0  0  0  0
   -1.8684    0.5006    3.3725 N   0  0  0  0  0  0  0  0  0  0  0  0
   -2.7946    0.7048    3.0343 H   0  0  0  0  0  0  0  0  0  0  0  0
   -1.5848    0.7472    4.7873 C   0  0  0  0  0  0  0  0  0  0  0  0
   -0.8819    1.5774    4.8838 H   0  0  0  0  0  0  0  0  0  0  0  0
   -2.5030    0.9948    5.3214 H   0  0  0  0  0  0  0  0  0  0  0  0
   -1.1344   -0.1399    5.2381 H   0  0  0  0  0  0  0  0  0  0  0  0
  5  6  2  0  0  0  0
  5  7  1  0  0  0  0
  2  3  1  0  0  0  0
  2  4  1  0  0  0  0
  2  5  1  0  0  0  0
  1  2  1  0  0  0  0
 29 30  2  0  0  0  0
 29 31  1  0  0  0  0
 26 27  1  0  0  0  0
 26 28  1  0  0  0  0
 23 24  1  0  0  0  0
 23 25  1  0  0  0  0
 22 23  1  0  0  0  0
 22 26  1  0  0  0  0
 20 21  1  0  0  0  0
 20 22  2  0  0  0  0
 17 18  1  0  0  0  0
 17 19  1  0  0  0  0
 17 20  1  0  0  0  0
 14 15  1  0  0  0  0
 14 16  1  0  0  0  0
 14 17  1  0  0  0  0
 11 12  1  0  0  0  0
 11 13  1  0  0  0  0
 11 14  1  0  0  0  0
  9 10  1  0  0  0  0
  9 11  1  0  0  0  0
  9 29  1  0  0  0  0
  7  8  1  0  0  0  0
  7  9  1  0  0  0  0
 33 34  1  0  0  0  0
 33 35  1  0  0  0  0
 33 36  1  0  0  0  0
 31 32  1  0  0  0  0
 31 33  1  0  0  0  0
M  CHG  1  20   1
M  END
$$$$
default_name
  -OEChem-02102213163D

 36 35  0     1  0  0  0  0  0999 V2000
   -4.2256   -3.6731    1.8584 H   0  0  0  0  0  0  0  0  0  0  0  0
   -4.2396   -2.6781    1.4144 C   0  0  0  0  0  0  0  0  0  0  0  0
   -4.9506   -2.0521    1.9514 H   0  0  0  0  0  0  0  0  0  0  0  0
   -4.5266   -2.7521    0.3674 H   0  0  0  0  0  0  0  0  0  0  0  0
   -2.8576   -2.0761    1.5184 C   0  0  0  0  0  0  0  0  0  0  0  0
   -1.9456   -2.7051    2.0404 O   0  0  0  0  0  0  0  0  0  0  0  0
   -2.6926   -0.8481    1.0174 N   0  0  0  0  0  0  0  0  0  0  0  0
   -3.4926   -0.3971    0.5954 H   0  0  0  0  0  0  0  0  0  0  0  0
   -1.4216   -0.1071    1.0434 C   0  0  1  0  0  0  0  0  0  0  0  0
   -0.6709   -0.6930    0.5106 H   0  0  0  0  0  0  0  0  0  0  0  0
   -1.6221    1.2315    0.3051 C   0  0  0  0  0  0  0  0  0  0  0  0
   -1.1595    2.0265    0.8934 H   0  0  0  0  0  0  0  0  0  0  0  0
   -1.1148    1.1857   -0.6611 H   0  0  0  0  0  0  0  0  0  0  0  0
   -3.0982    1.5921    0.0831 C   0  0  0  0  0  0  0  0  0  0  0  0
   -3.2007    2.1823   -0.8286 H   0  0  0  0  0  0  0  0  0  0  0  0
   -3.6827    0.6765   -0.0127 H   0  0  0  0  0  0  0  0  0  0  0  0
   -3.6210    2.4093    1.2723 C   0  0  0  0  0  0  0  0  0  0  0  0
   -3.4900    1.8215    2.1838 H   0  0  0  0  0  0  0  0  0  0  0  0
   -3.0278    3.3232    1.3538 H   0  0  0  0  0  0  0  0  0  0  0  0
   -5.0475    2.7591    1.1125 N   0  3  0  0  0  0  0  0  0  0  0  0
   -5.4885    2.4760    0.2542 H   0  0  0  0  0  0  0  0  0  0  0  0
   -5.7963    3.4071    1.9891 C   0  0  0  0  0  0  0  0  0  0  0  0
   -5.3252    3.8193    3.1325 N   0  0  0  0  0  0  0  0  0  0  0  0
   -4.3623    3.6364    3.3533 H   0  0  0  0  0  0  0  0  0  0  0  0
   -5.9070    4.3101    3.7864 H   0  0  0  0  0  0  0  0  0  0  0  0
   -7.0483    3.6575    1.7300 N   0  0  0  0  0  0  0  0  0  0  0  0
   -7.4568    3.3591    0.8611 H   0  0  0  0  0  0  0  0  0  0  0  0
   -7.6128    4.1493    2.3978 H   0  0  0  0  0  0  0  0  0  0  0  0
   -0.9523    0.1012    2.4848 C   0  0  0  0  0  0  0  0  0  0  0  0
    0.2133   -0.1319    2.7814 O   0  0  0  0  0  0  0  0  0  0  0  0
   -1.8684    0.5006    3.3725 N   0  0  0  0  0  0  0  0  0  0  0  0
   -2.7946    0.7048    3.0343 H   0  0  0  0  0  0  0  0  0  0  0  0
   -1.5848    0.7472    4.7873 C   0  0  0  0  0  0  0  0  0  0  0  0
   -0.8819    1.5774    4.8838 H   0  0  0  0  0  0  0  0  0  0  0  0
   -2.5030    0.9948    5.3214 H   0  0  0  0  0  0  0  0  0  0  0  0
   -1.1344   -0.1399    5.2381 H   0  0  0  0  0  0  0  0  0  0  0  0
  5  6  2  0  0  0  0
  5  7  1  0  0  0  0
  2  3  1  0  0  0  0
  2  4  1  0  0  0  0
  2  5  1  0  0  0  0
  1  2  1  0  0  0  0
 29 30  2  0  0  0  0
 29 31  1  0  0  0  0
 26 27  1  0  0  0  0
 26 28  1  0  0  0  0
 23 24  1  0  0  0  0
 23 25  1  0  0  0  0
 22 23  1  0  0  0  0
 22 26  1  0  0  0  0
 20 21  1  0  0  0  0
 20 22  2  0  0  0  0
 17 18  1  0  0  0  0
 17 19  1  0  0  0  0
 17 20  1  0  0  0  0
 14 15  1  0  0  0  0
 14 16  1  0  0  0  0
 14 17  1  0  0  0  0
 11 12  1  0  0  0  0
 11 13  1  0  0  0  0
 11 14  1  0  0  0  0
  9 10  1  0  0  0  0
  9 11  1  0  0  0  0
  9 29  1  0  0  0  0
  7  8  1  0  0  0  0
  7  9  1  0  0  0  0
 33 34  1  0  0  0  0
 33 35  1  0  0  0  0
 33 36  1  0  0  0  0
 31 32  1  0  0  0  0
 31 33  1  0  0  0  0
M  CHG  1  20   1
M  END
$$$$
default_name
  -OEChem-02102213163D

 36 35  0     1  0  0  0  0  0999 V2000
   -4.2256   -3.6731    1.8584 H   0  0  0  0  0  0  0  0  0  0  0  0
   -4.2396   -2.6781    1.4144 C   0  0  0  0  0  0  0  0  0  0  0  0
   -4.9506   -2.0521    1.9514 H   0  0  0  0  0  0  0  0  0  0  0  0
   -4.5266   -2.7521    0.3674 H   0  0  0  0  0  0  0  0  0  0  0  0
   -2.8576   -2.0761    1.5184 C   0  0  0  0  0  0  0  0  0  0  0  0
   -1.9456   -2.7051    2.0404 O   0  0  0  0  0  0  0  0  0  0  0  0
   -2.6926   -0.8481    1.0174 N   0  0  0  0  0  0  0  0  0  0  0  0
   -3.4926   -0.3971    0.5954 H   0  0  0  0  0  0  0  0  0  0  0  0
   -1.4216   -0.1071    1.0434 C   0  0  1  0  0  0  0  0  0  0  0  0
   -0.6709   -0.6930    0.5106 H   0  0  0  0  0  0  0  0  0  0  0  0
   -1.6221    1.2315    0.3051 C   0  0  0  0  0  0  0  0  0  0  0  0
   -1.1595    2.0265    0.8934 H   0  0  0  0  0  0  0  0  0  0  0  0
   -1.1148    1.1857   -0.6611 H   0  0  0  0  0  0  0  0  0  0  0  0
   -3.0982    1.5921    0.0831 C   0  0  0  0  0  0  0  0  0  0  0  0
   -3.2426    1.9422   -0.9400 H   0  0  0  0  0  0  0  0  0  0  0  0
   -3.7147    0.7087    0.2520 H   0  0  0  0  0  0  0  0  0  0  0  0
   -3.5175    2.7011    1.0577 C   0  0  0  0  0  0  0  0  0  0  0  0
   -3.3445    2.3520    2.0783 H   0  0  0  0  0  0  0  0  0  0  0  0
   -2.8933    3.5789    0.8748 H   0  0  0  0  0  0  0  0  0  0  0  0
   -4.9403    3.0644    0.8957 N   0  3  0  0  0  0  0  0  0  0  0  0
   -5.4449    2.5978    0.1615 H   0  0  0  0  0  0  0  0  0  0  0  0
   -5.6105    3.9423    1.6230 C   0  0  0  0  0  0  0  0  0  0  0  0
   -5.0535    4.6032    2.5989 N   0  0  0  0  0  0  0  0  0  0  0  0
   -4.0840    4.4374    2.8041 H   0  0  0  0  0  0  0  0  0  0  0  0
   -5.5763    5.2663    3.1409 H   0  0  0  0  0  0  0  0  0  0  0  0
   -6.8688    4.1770    1.3802 N   0  0  0  0  0  0  0  0  0  0  0  0
   -7.3420    3.6914    0.6377 H   0  0  0  0  0  0  0  0  0  0  0  0
   -7.3735    4.8438    1.9345 H   0  0  0  0  0  0  0  0  0  0  0  0
   -0.9523    0.1012    2.4848 C   0  0  0  0  0  0  0  0  0  0  0  0
    0.2133   -0.1319    2.7814 O   0  0  0  0  0  0  0  0  0  0  0  0
   -1.8684    0.5006    3.3725 N   0  0  0  0  0  0  0  0  0  0  0  0
   -2.7946    0.7048    3.0343 H   0  0  0  0  0  0  0  0  0  0  0  0
   -1.5848    0.7472    4.7873 C   0  0  0  0  0  0  0  0  0  0  0  0
   -0.8819    1.5774    4.8838 H   0  0  0  0  0  0  0  0  0  0  0  0
   -2.5030    0.9948    5.3214 H   0  0  0  0  0  0  0  0  0  0  0  0
   -1.1344   -0.1399    5.2381 H   0  0  0  0  0  0  0  0  0  0  0  0
  5  6  2  0  0  0  0
  5  7  1  0  0  0  0
  2  3  1  0  0  0  0
  2  4  1  0  0  0  0
  2  5  1  0  0  0  0
  1  2  1  0  0  0  0
 29 30  2  0  0  0  0
 29 31  1  0  0  0  0
 26 27  1  0  0  0  0
 26 28  1  0  0  0  0
 23 24  1  0  0  0  0
 23 25  1  0  0  0  0
 22 23  1  0  0  0  0
 22 26  1  0  0  0  0
 20 21  1  0  0  0  0
 20 22  2  0  0  0  0
 17 18  1  0  0  0  0
 17 19  1  0  0  0  0
 17 20  1  0  0  0  0
 14 15  1  0  0  0  0
 14 16  1  0  0  0  0
 14 17  1  0  0  0  0
 11 12  1  0  0  0  0
 11 13  1  0  0  0  0
 11 14  1  0  0  0  0
  9 10  1  0  0  0  0
  9 11  1  0  0  0  0
  9 29  1  0  0  0  0
  7  8  1  0  0  0  0
  7  9  1  0  0  0  0
 33 34  1  0  0  0  0
 33 35  1  0  0  0  0
 33 36  1  0  0  0  0
 31 32  1  0  0  0  0
 31 33  1  0  0  0  0
M  CHG  1  20   1
M  END
$$$$
default_name
  -OEChem-02102213163D

 36 35  0     1  0  0  0  0  0999 V2000
   -4.2256   -3.6731    1.8584 H   0  0  0  0  0  0  0  0  0  0  0  0
   -4.2396   -2.6781    1.4144 C   0  0  0  0  0  0  0  0  0  0  0  0
   -4.9506   -2.0521    1.9514 H   0  0  0  0  0  0  0  0  0  0  0  0
   -4.5266   -2.7521    0.3674 H   0  0  0  0  0  0  0  0  0  0  0  0
   -2.8576   -2.0761    1.5184 C   0  0  0  0  0  0  0  0  0  0  0  0
   -1.9456   -2.7051    2.0404 O   0  0  0  0  0  0  0  0  0  0  0  0
   -2.6926   -0.8481    1.0174 N   0  0  0  0  0  0  0  0  0  0  0  0
   -3.4926   -0.3971    0.5954 H   0  0  0  0  0  0  0  0  0  0  0  0
   -1.4216   -0.1071    1.0434 C   0  0  1  0  0  0  0  0  0  0  0  0
   -0.6709   -0.6930    0.5106 H   0  0  0  0  0  0  0  0  0  0  0  0
   -1.6221    1.2315    0.3051 C   0  0  0  0  0  0  0  0  0  0  0  0
   -1.1595    2.0265    0.8934 H   0  0  0  0  0  0  0  0  0  0  0  0
   -1.1148    1.1857   -0.6611 H   0  0  0  0  0  0  0  0  0  0  0  0
   -3.0982    1.5921    0.0831 C   0  0  0  0  0  0  0  0  0  0  0  0
   -3.2988    1.6841   -0.9852 H   0  0  0  0  0  0  0  0  0  0  0  0
   -3.7283    0.8067    0.5018 H   0  0  0  0  0  0  0  0  0  0  0  0
   -3.4196    2.9256    0.7715 C   0  0  0  0  0  0  0  0  0  0  0  0
   -3.1906    2.8327    1.8356 H   0  0  0  0  0  0  0  0  0  0  0  0
   -2.7829    3.7018    0.3403 H   0  0  0  0  0  0  0  0  0  0  0  0
   -4.8385    3.3013    0.6038 N   0  3  0  0  0  0  0  0  0  0  0  0
   -5.4037    2.6907    0.0390 H   0  0  0  0  0  0  0  0  0  0  0  0
   -5.4332    4.3613    1.1250 C   0  0  0  0  0  0  0  0  0  0  0  0
   -4.7941    5.2174    1.8719 N   0  0  0  0  0  0  0  0  0  0  0  0
   -3.8186    5.0641    2.0574 H   0  0  0  0  0  0  0  0  0  0  0  0
   -5.2604    6.0170    2.2595 H   0  0  0  0  0  0  0  0  0  0  0  0
   -6.6972    4.5851    0.9021 N   0  0  0  0  0  0  0  0  0  0  0  0
   -7.2323    3.9526    0.3323 H   0  0  0  0  0  0  0  0  0  0  0  0
   -7.1445    5.3904    1.2995 H   0  0  0  0  0  0  0  0  0  0  0  0
   -0.9523    0.1012    2.4848 C   0  0  0  0  0  0  0  0  0  0  0  0
    0.2133   -0.1319    2.7814 O   0  0  0  0  0  0  0  0  0  0  0  0
   -1.8684    0.5006    3.3725 N   0  0  0  0  0  0  0  0  0  0  0  0
   -2.7946    0.7048    3.0343 H   0  0  0  0  0  0  0  0  0  0  0  0
   -1.5848    0.7472    4.7873 C   0  0  0  0  0  0  0  0  0  0  0  0
   -0.8819    1.5774    4.8838 H   0  0  0  0  0  0  0  0  0  0  0  0
   -2.5030    0.9948    5.3214 H   0  0  0  0  0  0  0  0  0  0  0  0
   -1.1344   -0.1399    5.2381 H   0  0  0  0  0  0  0  0  0  0  0  0
  5  6  2  0  0  0  0
  5  7  1  0  0  0  0
  2  3  1  0  0  0  0
  2  4  1  0  0  0  0
  2  5  1  0  0  0  0
  1  2  1  0  0  0  0
 29 30  2  0  0  0  0
 29 31  1  0  0  0  0
 26 27  1  0  0  0  0
 26 28  1  0  0  0  0
 23 24  1  0  0  0  0
 23 25  1  0  0  0  0
 22 23  1  0  0  0  0
 22 26  1  0  0  0  0
 20 21  1  0  0  0  0
 20 22  2  0  0  0  0
 17 18  1  0  0  0  0
 17 19  1  0  0  0  0
 17 20  1  0  0  0  0
 14 15  1  0  0  0  0
 14 16  1  0  0  0  0
 14 17  1  0  0  0  0
 11 12  1  0  0  0  0
 11 13  1  0  0  0  0
 11 14  1  0  0  0  0
  9 10  1  0  0  0  0
  9 11  1  0  0  0  0
  9 29  1  0  0  0  0
  7  8  1  0  0  0  0
  7  9  1  0  0  0  0
 33 34  1  0  0  0  0
 33 35  1  0  0  0  0
 33 36  1  0  0  0  0
 31 32  1  0  0  0  0
 31 33  1  0  0  0  0
M  CHG  1  20   1
M  END
$$$$
default_name
  -OEChem-02102213163D

 36 35  0     1  0  0  0  0  0999 V2000
   -4.2256   -3.6731    1.8584 H   0  0  0  0  0  0  0  0  0  0  0  0
   -4.2396   -2.6781    1.4144 C   0  0  0  0  0  0  0  0  0  0  0  0
   -4.9506   -2.0521    1.9514 H   0  0  0  0  0  0  0  0  0  0  0  0
   -4.5266   -2.7521    0.3674 H   0  0  0  0  0  0  0  0  0  0  0  0
   -2.8576   -2.0761    1.5184 C   0  0  0  0  0  0  0  0  0  0  0  0
   -1.9456   -2.7051    2.0404 O   0  0  0  0  0  0  0  0  0  0  0  0
   -2.6926   -0.8481    1.0174 N   0  0  0  0  0  0  0  0  0  0  0  0
   -3.4926   -0.3971    0.5954 H   0  0  0  0  0  0  0  0  0  0  0  0
   -1.4216   -0.1071    1.0434 C   0  0  1  0  0  0  0  0  0  0  0  0
   -0.6709   -0.6930    0.5106 H   0  0  0  0  0  0  0  0  0  0  0  0
   -1.6221    1.2315    0.3051 C   0  0  0  0  0  0  0  0  0  0  0  0
   -1.1595    2.0265    0.8934 H   0  0  0  0  0  0  0  0  0  0  0  0
   -1.1148    1.1857   -0.6611 H   0  0  0  0  0  0  0  0  0  0  0  0
   -3.0982    1.5921    0.0831 C   0  0  0  0  0  0  0  0  0  0  0  0
   -3.3656    1.4256   -0.9613 H   0  0  0  0  0  0  0  0  0  0  0  0
   -3.7226    0.9641    0.7194 H   0  0  0  0  0  0  0  0  0  0  0  0
   -3.3340    3.0676    0.4333 C   0  0  0  0  0  0  0  0  0  0  0  0
   -3.0386    3.2309    1.4723 H   0  0  0  0  0  0  0  0  0  0  0  0
   -2.7041    3.6833   -0.2132 H   0  0  0  0  0  0  0  0  0  0  0  0
   -4.7491    3.4537    0.2568 N   0  3  0  0  0  0  0  0  0  0  0  0
   -5.3680    2.7484   -0.1049 H   0  0  0  0  0  0  0  0  0  0  0  0
   -5.2766    4.6355    0.5290 C   0  0  0  0  0  0  0  0  0  0  0  0
   -4.5647    5.6202    1.0012 N   0  0  0  0  0  0  0  0  0  0  0  0
   -3.5842    5.4737    1.1641 H   0  0  0  0  0  0  0  0  0  0  0  0
   -4.9806    6.5110    1.2020 H   0  0  0  0  0  0  0  0  0  0  0  0
   -6.5452    4.8539    0.3284 N   0  0  0  0  0  0  0  0  0  0  0  0
   -7.1351    4.1249   -0.0343 H   0  0  0  0  0  0  0  0  0  0  0  0
   -6.9414    5.7519    0.5364 H   0  0  0  0  0  0  0  0  0  0  0  0
   -0.9523    0.1012    2.4848 C   0  0  0  0  0  0  0  0  0  0  0  0
    0.2133   -0.1319    2.7814 O   0  0  0  0  0  0  0  0  0  0  0  0
   -1.8684    0.5006    3.3725 N   0  0  0  0  0  0  0  0  0  0  0  0
   -2.7946    0.7048    3.0343 H   0  0  0  0  0  0  0  0  0  0  0  0
   -1.5848    0.7472    4.7873 C   0  0  0  0  0  0  0  0  0  0  0  0
   -0.8819    1.5774    4.8838 H   0  0  0  0  0  0  0  0  0  0  0  0
   -2.5030    0.9948    5.3214 H   0  0  0  0  0  0  0  0  0  0  0  0
   -1.1344   -0.1399    5.2381 H   0  0  0  0  0  0  0  0  0  0  0  0
  5  6  2  0  0  0  0
  5  7  1  0  0  0  0
  2  3  1  0  0  0  0
  2  4  1  0  0  0  0
  2  5  1  0  0  0  0
  1  2  1  0  0  0  0
 29 30  2  0  0  0  0
 29 31  1  0  0  0  0
 26 27  1  0  0  0  0
 26 28  1  0  0  0  0
 23 24  1  0  0  0  0
 23 25  1  0  0  0  0
 22 23  1  0  0  0  0
 22 26  1  0  0  0  0
 20 21  1  0  0  0  0
 20 22  2  0  0  0  0
 17 18  1  0  0  0  0
 17 19  1  0  0  0  0
 17 20  1  0  0  0  0
 14 15  1  0  0  0  0
 14 16  1  0  0  0  0
 14 17  1  0  0  0  0
 11 12  1  0  0  0  0
 11 13  1  0  0  0  0
 11 14  1  0  0  0  0
  9 10  1  0  0  0  0
  9 11  1  0  0  0  0
  9 29  1  0  0  0  0
  7  8  1  0  0  0  0
  7  9  1  0  0  0  0
 33 34  1  0  0  0  0
 33 35  1  0  0  0  0
 33 36  1  0  0  0  0
 31 32  1  0  0  0  0
 31 33  1  0  0  0  0
M  CHG  1  20   1
M  END
$$$$
default_name
  -OEChem-02102213163D

 36 35  0     1  0  0  0  0  0999 V2000
   -4.2256   -3.6731    1.8584 H   0  0  0  0  0  0  0  0  0  0  0  0
   -4.2396   -2.6781    1.4144 C   0  0  0  0  0  0  0  0  0  0  0  0
   -4.9506   -2.0521    1.9514 H   0  0  0  0  0  0  0  0  0  0  0  0
   -4.5266   -2.7521    0.3674 H   0  0  0  0  0  0  0  0  0  0  0  0
   -2.8576   -2.0761    1.5184 C   0  0  0  0  0  0  0  0  0  0  0  0
   -1.9456   -2.7051    2.0404 O   0  0  0  0  0  0  0  0  0  0  0  0
   -2.6926   -0.8481    1.0174 N   0  0  0  0  0  0  0  0  0  0  0  0
   -3.4926   -0.3971    0.5954 H   0  0  0  0  0  0  0  0  0  0  0  0
   -1.4216   -0.1071    1.0434 C   0  0  1  0  0  0  0  0  0  0  0  0
   -0.6709   -0.6930    0.5106 H   0  0  0  0  0  0  0  0  0  0  0  0
   -1.6221    1.2315    0.3051 C   0  0  0  0  0  0  0  0  0  0  0  0
   -1.1595    2.0265    0.8934 H   0  0  0  0  0  0  0  0  0  0  0  0
   -1.1148    1.1857   -0.6611 H   0  0  0  0  0  0  0  0  0  0  0  0
   -3.0982    1.5921    0.0831 C   0  0  0  0  0  0  0  0  0  0  0  0
   -3.4382    1.1844   -0.8699 H   0  0  0  0  0  0  0  0  0  0  0  0
   -3.6980    1.1701    0.8901 H   0  0  0  0  0  0  0  0  0  0  0  0
   -3.2666    3.1175    0.0660 C   0  0  0  0  0  0  0  0  0  0  0  0
   -2.8991    3.5195    1.0130 H   0  0  0  0  0  0  0  0  0  0  0  0
   -2.6624    3.5248   -0.7481 H   0  0  0  0  0  0  0  0  0  0  0  0
   -4.6781    3.5113   -0.1218 N   0  3  0  0  0  0  0  0  0  0  0  0
   -5.3401    2.7670   -0.2604 H   0  0  0  0  0  0  0  0  0  0  0  0
   -5.1512    4.7462   -0.1245 C   0  0  0  0  0  0  0  0  0  0  0  0
   -4.3810    5.7840    0.0459 N   0  0  0  0  0  0  0  0  0  0  0  0
   -3.3967    5.6383    0.1851 H   0  0  0  0  0  0  0  0  0  0  0  0
   -4.7562    6.7146    0.0408 H   0  0  0  0  0  0  0  0  0  0  0  0
   -6.4232    4.9651   -0.3018 N   0  0  0  0  0  0  0  0  0  0  0  0
   -7.0570    4.1964   -0.4372 H   0  0  0  0  0  0  0  0  0  0  0  0
   -6.7780    5.9036   -0.3031 H   0  0  0  0  0  0  0  0  0  0  0  0
   -0.9523    0.1012    2.4848 C   0  0  0  0  0  0  0  0  0  0  0  0
    0.2133   -0.1319    2.7814 O   0  0  0  0  0  0  0  0  0  0  0  0
   -1.8684    0.5006    3.3725 N   0  0  0  0  0  0  0  0  0  0  0  0
   -2.7946    0.7048    3.0343 H   0  0  0  0  0  0  0  0  0  0  0  0
   -1.5848    0.7472    4.7873 C   0  0  0  0  0  0  0  0  0  0  0  0
   -0.8819    1.5774    4.8838 H   0  0  0  0  0  0  0  0  0  0  0  0
   -2.5030    0.9948    5.3214 H   0  0  0  0  0  0  0  0  0  0  0  0
   -1.1344   -0.1399    5.2381 H   0  0  0  0  0  0  0  0  0  0  0  0
  5  6  2  0  0  0  0
  5  7  1  0  0  0  0
  2  3  1  0  0  0  0
  2  4  1  0  0  0  0
  2  5  1  0  0  0  0
  1  2  1  0  0  0  0
 29 30  2  0  0  0  0
 29 31  1  0  0  0  0
 26 27  1  0  0  0  0
 26 28  1  0  0  0  0
 23 24  1  0  0  0  0
 23 25  1  0  0  0  0
 22 23  1  0  0  0  0
 22 26  1  0  0  0  0
 20 21  1  0  0  0  0
 20 22  2  0  0  0  0
 17 18  1  0  0  0  0
 17 19  1  0  0  0  0
 17 20  1  0  0  0  0
 14 15  1  0  0  0  0
 14 16  1  0  0  0  0
 14 17  1  0  0  0  0
 11 12  1  0  0  0  0
 11 13  1  0  0  0  0
 11 14  1  0  0  0  0
  9 10  1  0  0  0  0
  9 11  1  0  0  0  0
  9 29  1  0  0  0  0
  7  8  1  0  0  0  0
  7  9  1  0  0  0  0
 33 34  1  0  0  0  0
 33 35  1  0  0  0  0
 33 36  1  0  0  0  0
 31 32  1  0  0  0  0
 31 33  1  0  0  0  0
M  CHG  1  20   1
M  END
$$$$
default_name
  -OEChem-02102213163D

 36 35  0     1  0  0  0  0  0999 V2000
   -4.2256   -3.6731    1.8584 H   0  0  0  0  0  0  0  0  0  0  0  0
   -4.2396   -2.6781    1.4144 C   0  0  0  0  0  0  0  0  0  0  0  0
   -4.9506   -2.0521    1.9514 H   0  0  0  0  0  0  0  0  0  0  0  0
   -4.5266   -2.7521    0.3674 H   0  0  0  0  0  0  0  0  0  0  0  0
   -2.8576   -2.0761    1.5184 C   0  0  0  0  0  0  0  0  0  0  0  0
   -1.9456   -2.7051    2.0404 O   0  0  0  0  0  0  0  0  0  0  0  0
   -2.6926   -0.8481    1.0174 N   0  0  0  0  0  0  0  0  0  0  0  0
   -3.4926   -0.3971    0.5954 H   0  0  0  0  0  0  0  0  0  0  0  0
   -1.4216   -0.1071    1.0434 C   0  0  1  0  0  0  0  0  0  0  0  0
   -0.6709   -0.6930    0.5106 H   0  0  0  0  0  0  0  0  0  0  0  0
   -1.6221    1.2315    0.3051 C   0  0  0  0  0  0  0  0  0  0  0  0
   -1.1595    2.0265    0.8934 H   0  0  0  0  0  0  0  0  0  0  0  0
   -1.1148    1.1857   -0.6611 H   0  0  0  0  0  0  0  0  0  0  0  0
   -3.0982    1.5921    0.0831 C   0  0  0  0  0  0  0  0  0  0  0  0
   -3.5119    0.9769   -0.7171 H   0  0  0  0  0  0  0  0  0  0  0  0
   -3.6561    1.4106    1.0023 H   0  0  0  0  0  0  0  0  0  0  0  0
   -3.2219    3.0717   -0.3052 C   0  0  0  0  0  0  0  0  0  0  0  0
   -2.7814    3.6787    0.4891 H   0  0  0  0  0  0  0  0  0  0  0  0
   -2.6605    3.2371   -1.2278 H   0  0  0  0  0  0  0  0  0  0  0  0
   -4.6304    3.4700   -0.5061 N   0  3  0  0  0  0  0  0  0  0  0  0
   -5.3218    2.7453   -0.4170 H   0  0  0  0  0  0  0  0  0  0  0  0
   -5.0658    4.6859   -0.7909 C   0  0  0  0  0  0  0  0  0  0  0  0
   -4.2555    5.6977   -0.9287 N   0  0  0  0  0  0  0  0  0  0  0  0
   -3.2690    5.5468   -0.8129 H   0  0  0  0  0  0  0  0  0  0  0  0
   -4.6024    6.6140   -1.1452 H   0  0  0  0  0  0  0  0  0  0  0  0
   -6.3396    4.9112   -0.9457 N   0  0  0  0  0  0  0  0  0  0  0  0
   -7.0034    4.1623   -0.8489 H   0  0  0  0  0  0  0  0  0  0  0  0
   -6.6656    5.8351   -1.1616 H   0  0  0  0  0  0  0  0  0  0  0  0
   -0.9523    0.1012    2.4848 C   0  0  0  0  0  0  0  0  0  0  0  0
    0.2133   -0.1319    2.7814 O   0  0  0  0  0  0  0  0  0  0  0  0
   -1.8684    0.5006    3.3725 N   0  0  0  0  0  0  0  0  0  0  0  0
   -2.7946    0.7048    3.0343 H   0  0  0  0  0  0  0  0  0  0  0  0
   -1.5848    0.7472    4.7873 C   0  0  0  0  0  0  0  0  0  0  0  0
   -0.8819    1.5774    4.8838 H   0  0  0  0  0  0  0  0  0  0  0  0
   -2.5030    0.9948    5.3214 H   0  0  0  0  0  0  0  0  0  0  0  0
   -1.1344   -0.1399    5.2381 H   0  0  0  0  0  0  0  0  0  0  0  0
  5  6  2  0  0  0  0
  5  7  1  0  0  0  0
  2  3  1  0  0  0  0
  2  4  1  0  0  0  0
  2  5  1  0  0  0  0
  1  2  1  0  0  0  0
 29 30  2  0  0  0  0
 29 31  1  0  0  0  0
 26 27  1  0  0  0  0
 26 28  1  0  0  0  0
 23 24  1  0  0  0  0
 23 25  1  0  0  0  0
 22 23  1  0  0  0  0
 22 26  1  0  0  0  0
 20 21  1  0  0  0  0
 20 22  2  0  0  0  0
 17 18  1  0  0  0  0
 17 19  1  0  0  0  0
 17 20  1  0  0  0  0
 14 15  1  0  0  0  0
 14 16  1  0  0  0  0
 14 17  1  0  0  0  0
 11 12  1  0  0  0  0
 11 13  1  0  0  0  0
 11 14  1  0  0  0  0
  9 10  1  0  0  0  0
  9 11  1  0  0  0  0
  9 29  1  0  0  0  0
  7  8  1  0  0  0  0
  7  9  1  0  0  0  0
 33 34  1  0  0  0  0
 33 35  1  0  0  0  0
 33 36  1  0  0  0  0
 31 32  1  0  0  0  0
 31 33  1  0  0  0  0
M  CHG  1  20   1
M  END
$$$$
default_name
  -OEChem-02102213163D

 36 35  0     1  0  0  0  0  0999 V2000
   -4.2256   -3.6731    1.8584 H   0  0  0  0  0  0  0  0  0  0  0  0
   -4.2396   -2.6781    1.4144 C   0  0  0  0  0  0  0  0  0  0  0  0
   -4.9506   -2.0521    1.9514 H   0  0  0  0  0  0  0  0  0  0  0  0
   -4.5266   -2.7521    0.3674 H   0  0  0  0  0  0  0  0  0  0  0  0
   -2.8576   -2.0761    1.5184 C   0  0  0  0  0  0  0  0  0  0  0  0
   -1.9456   -2.7051    2.0404 O   0  0  0  0  0  0  0  0  0  0  0  0
   -2.6926   -0.8481    1.0174 N   0  0  0  0  0  0  0  0  0  0  0  0
   -3.4926   -0.3971    0.5954 H   0  0  0  0  0  0  0  0  0  0  0  0
   -1.4216   -0.1071    1.0434 C   0  0  1  0  0  0  0  0  0  0  0  0
   -0.6709   -0.6930    0.5106 H   0  0  0  0  0  0  0  0  0  0  0  0
   -1.6221    1.2315    0.3051 C   0  0  0  0  0  0  0  0  0  0  0  0
   -0.9460    1.9722    0.7370 H   0  0  0  0  0  0  0  0  0  0  0  0
   -1.3565    1.1024   -0.7464 H   0  0  0  0  0  0  0  0  0  0  0  0
   -3.0558    1.7734    0.4003 C   0  0  0  0  0  0  0  0  0  0  0  0
   -3.7514    1.0551   -0.0360 H   0  0  0  0  0  0  0  0  0  0  0  0
   -3.3124    1.9327    1.4480 H   0  0  0  0  0  0  0  0  0  0  0  0
   -3.1635    3.1025   -0.3595 C   0  0  0  0  0  0  0  0  0  0  0  0
   -2.4452    3.8068    0.0665 H   0  0  0  0  0  0  0  0  0  0  0  0
   -2.9061    2.9264   -1.4065 H   0  0  0  0  0  0  0  0  0  0  0  0
   -4.5233    3.6739   -0.2747 N   0  3  0  0  0  0  0  0  0  0  0  0
   -5.2135    3.1273    0.2113 H   0  0  0  0  0  0  0  0  0  0  0  0
   -4.9167    4.8328   -0.7760 C   0  0  0  0  0  0  0  0  0  0  0  0
   -4.1041    5.6194   -1.4241 N   0  0  0  0  0  0  0  0  0  0  0  0
   -3.1481    5.3345   -1.5442 H   0  0  0  0  0  0  0  0  0  0  0  0
   -4.4190    6.4955   -1.7986 H   0  0  0  0  0  0  0  0  0  0  0  0
   -6.1501    5.2281   -0.6348 N   0  0  0  0  0  0  0  0  0  0  0  0
   -6.8139    4.6557   -0.1422 H   0  0  0  0  0  0  0  0  0  0  0  0
   -6.4444    6.1080   -1.0166 H   0  0  0  0  0  0  0  0  0  0  0  0
   -0.9523    0.1012    2.4848 C   0  0  0  0  0  0  0  0  0  0  0  0
    0.2133   -0.1319    2.7814 O   0  0  0  0  0  0  0  0  0  0  0  0
   -1.8684    0.5006    3.3725 N   0  0  0  0  0  0  0  0  0  0  0  0
   -2.7946    0.7048    3.0343 H   0  0  0  0  0  0  0  0  0  0  0  0
   -1.5848    0.7472    4.7873 C   0  0  0  0  0  0  0  0  0  0  0  0
   -0.8819    1.5774    4.8838 H   0  0  0  0  0  0  0  0  0  0  0  0
   -2.5030    0.9948    5.3214 H   0  0  0  0  0  0  0  0  0  0  0  0
   -1.1344   -0.1399    5.2381 H   0  0  0  0  0  0  0  0  0  0  0  0
  5  6  2  0  0  0  0
  5  7  1  0  0  0  0
  2  3  1  0  0  0  0
  2  4  1  0  0  0  0
  2  5  1  0  0  0  0
  1  2  1  0  0  0  0
 29 30  2  0  0  0  0
 29 31  1  0  0  0  0
 26 27  1  0  0  0  0
 26 28  1  0  0  0  0
 23 24  1  0  0  0  0
 23 25  1  0  0  0  0
 22 23  1  0  0  0  0
 22 26  1  0  0  0  0
 20 21  1  0  0  0  0
 20 22  2  0  0  0  0
 17 18  1  0  0  0  0
 17 19  1  0  0  0  0
 17 20  1  0  0  0  0
 14 15  1  0  0  0  0
 14 16  1  0  0  0  0
 14 17  1  0  0  0  0
 11 12  1  0  0  0  0
 11 13  1  0  0  0  0
 11 14  1  0  0  0  0
  9 10  1  0  0  0  0
  9 11  1  0  0  0  0
  9 29  1  0  0  0  0
  7  8  1  0  0  0  0
  7  9  1  0  0  0  0
 33 34  1  0  0  0  0
 33 35  1  0  0  0  0
 33 36  1  0  0  0  0
 31 32  1  0  0  0  0
 31 33  1  0  0  0  0
M  CHG  1  20   1
M  END
$$$$
default_name
  -OEChem-02102213163D

 36 35  0     1  0  0  0  0  0999 V2000
   -4.2256   -3.6731    1.8584 H   0  0  0  0  0  0  0  0  0  0  0  0
   -4.2396   -2.6781    1.4144 C   0  0  0  0  0  0  0  0  0  0  0  0
   -4.9506   -2.0521    1.9514 H   0  0  0  0  0  0  0  0  0  0  0  0
   -4.5266   -2.7521    0.3674 H   0  0  0  0  0  0  0  0  0  0  0  0
   -2.8576   -2.0761    1.5184 C   0  0  0  0  0  0  0  0  0  0  0  0
   -1.9456   -2.7051    2.0404 O   0  0  0  0  0  0  0  0  0  0  0  0
   -2.6926   -0.8481    1.0174 N   0  0  0  0  0  0  0  0  0  0  0  0
   -3.4926   -0.3971    0.5954 H   0  0  0  0  0  0  0  0  0  0  0  0
   -1.4216   -0.1071    1.0434 C   0  0  1  0  0  0  0  0  0  0  0  0
   -0.6709   -0.6930    0.5106 H   0  0  0  0  0  0  0  0  0  0  0  0
   -1.6221    1.2315    0.3051 C   0  0  0  0  0  0  0  0  0  0  0  0
   -0.9460    1.9722    0.7370 H   0  0  0  0  0  0  0  0  0  0  0  0
   -1.3565    1.1024   -0.7464 H   0  0  0  0  0  0  0  0  0  0  0  0
   -3.0558    1.7734    0.4003 C   0  0  0  0  0  0  0  0  0  0  0  0
   -3.7677    0.9674    0.2167 H   0  0  0  0  0  0  0  0  0  0  0  0
   -3.2220    2.1807    1.3980 H   0  0  0  0  0  0  0  0  0  0  0  0
   -3.2671    2.8782   -0.6438 C   0  0  0  0  0  0  0  0  0  0  0  0
   -2.5331    3.6682   -0.4690 H   0  0  0  0  0  0  0  0  0  0  0  0
   -3.0996    2.4547   -1.6369 H   0  0  0  0  0  0  0  0  0  0  0  0
   -4.6290    3.4466   -0.5727 N   0  3  0  0  0  0  0  0  0  0  0  0
   -5.2578    3.0308    0.0929 H   0  0  0  0  0  0  0  0  0  0  0  0
   -5.0971    4.4475   -1.2994 C   0  0  0  0  0  0  0  0  0  0  0  0
   -4.3674    5.0574   -2.1909 N   0  0  0  0  0  0  0  0  0  0  0  0
   -3.4186    4.7565   -2.3275 H   0  0  0  0  0  0  0  0  0  0  0  0
   -4.7382    5.8151   -2.7343 H   0  0  0  0  0  0  0  0  0  0  0  0
   -6.3232    4.8593   -1.1432 N   0  0  0  0  0  0  0  0  0  0  0  0
   -6.9245    4.4202   -0.4675 H   0  0  0  0  0  0  0  0  0  0  0  0
   -6.6743    5.6190   -1.6965 H   0  0  0  0  0  0  0  0  0  0  0  0
   -0.9523    0.1012    2.4848 C   0  0  0  0  0  0  0  0  0  0  0  0
    0.2133   -0.1319    2.7814 O   0  0  0  0  0  0  0  0  0  0  0  0
   -1.8684    0.5006    3.3725 N   0  0  0  0  0  0  0  0  0  0  0  0
   -2.7946    0.7048    3.0343 H   0  0  0  0  0  0  0  0  0  0  0  0
   -1.5848    0.7472    4.7873 C   0  0  0  0  0  0  0  0  0  0  0  0
   -0.8819    1.5774    4.8838 H   0  0  0  0  0  0  0  0  0  0  0  0
   -2.5030    0.9948    5.3214 H   0  0  0  0  0  0  0  0  0  0  0  0
   -1.1344   -0.1399    5.2381 H   0  0  0  0  0  0  0  0  0  0  0  0
  5  6  2  0  0  0  0
  5  7  1  0  0  0  0
  2  3  1  0  0  0  0
  2  4  1  0  0  0  0
  2  5  1  0  0  0  0
  1  2  1  0  0  0  0
 29 30  2  0  0  0  0
 29 31  1  0  0  0  0
 26 27  1  0  0  0  0
 26 28  1  0  0  0  0
 23 24  1  0  0  0  0
 23 25  1  0  0  0  0
 22 23  1  0  0  0  0
 22 26  1  0  0  0  0
 20 21  1  0  0  0  0
 20 22  2  0  0  0  0
 17 18  1  0  0  0  0
 17 19  1  0  0  0  0
 17 20  1  0  0  0  0
 14 15  1  0  0  0  0
 14 16  1  0  0  0  0
 14 17  1  0  0  0  0
 11 12  1  0  0  0  0
 11 13  1  0  0  0  0
 11 14  1  0  0  0  0
  9 10  1  0  0  0  0
  9 11  1  0  0  0  0
  9 29  1  0  0  0  0
  7  8  1  0  0  0  0
  7  9  1  0  0  0  0
 33 34  1  0  0  0  0
 33 35  1  0  0  0  0
 33 36  1  0  0  0  0
 31 32  1  0  0  0  0
 31 33  1  0  0  0  0
M  CHG  1  20   1
M  END
$$$$
default_name
  -OEChem-02102213163D

 36 35  0     1  0  0  0  0  0999 V2000
   -4.2256   -3.6731    1.8584 H   0  0  0  0  0  0  0  0  0  0  0  0
   -4.2396   -2.6781    1.4144 C   0  0  0  0  0  0  0  0  0  0  0  0
   -4.9506   -2.0521    1.9514 H   0  0  0  0  0  0  0  0  0  0  0  0
   -4.5266   -2.7521    0.3674 H   0  0  0  0  0  0  0  0  0  0  0  0
   -2.8576   -2.0761    1.5184 C   0  0  0  0  0  0  0  0  0  0  0  0
   -1.9456   -2.7051    2.0404 O   0  0  0  0  0  0  0  0  0  0  0  0
   -2.6926   -0.8481    1.0174 N   0  0  0  0  0  0  0  0  0  0  0  0
   -3.4926   -0.3971    0.5954 H   0  0  0  0  0  0  0  0  0  0  0  0
   -1.4216   -0.1071    1.0434 C   0  0  1  0  0  0  0  0  0  0  0  0
   -0.6709   -0.6930    0.5106 H   0  0  0  0  0  0  0  0  0  0  0  0
   -1.6221    1.2315    0.3051 C   0  0  0  0  0  0  0  0  0  0  0  0
   -0.9460    1.9722    0.7370 H   0  0  0  0  0  0  0  0  0  0  0  0
   -1.3565    1.1024   -0.7464 H   0  0  0  0  0  0  0  0  0  0  0  0
   -3.0558    1.7734    0.4003 C   0  0  0  0  0  0  0  0  0  0  0  0
   -3.7590    0.9436    0.4835 H   0  0  0  0  0  0  0  0  0  0  0  0
   -3.1433    2.4096    1.2815 H   0  0  0  0  0  0  0  0  0  0  0  0
   -3.3896    2.5912   -0.8548 C   0  0  0  0  0  0  0  0  0  0  0  0
   -2.6647    3.4035   -0.9447 H   0  0  0  0  0  0  0  0  0  0  0  0
   -3.3000    1.9404   -1.7278 H   0  0  0  0  0  0  0  0  0  0  0  0
   -4.7547    3.1533   -0.7960 N   0  3  0  0  0  0  0  0  0  0  0  0
   -5.3099    2.9082    0.0058 H   0  0  0  0  0  0  0  0  0  0  0  0
   -5.3129    3.9459   -1.6955 C   0  0  0  0  0  0  0  0  0  0  0  0
   -4.6827    4.3251   -2.7717 N   0  0  0  0  0  0  0  0  0  0  0  0
   -3.7420    4.0046   -2.9197 H   0  0  0  0  0  0  0  0  0  0  0  0
   -5.1211    4.9267   -3.4446 H   0  0  0  0  0  0  0  0  0  0  0  0
   -6.5309    4.3774   -1.5294 N   0  0  0  0  0  0  0  0  0  0  0  0
   -7.0572    4.1123   -0.7147 H   0  0  0  0  0  0  0  0  0  0  0  0
   -6.9506    4.9787   -2.2142 H   0  0  0  0  0  0  0  0  0  0  0  0
   -0.9523    0.1012    2.4848 C   0  0  0  0  0  0  0  0  0  0  0  0
    0.2133   -0.1319    2.7814 O   0  0  0  0  0  0  0  0  0  0  0  0
   -1.8684    0.5006    3.3725 N   0  0  0  0  0  0  0  0  0  0  0  0
   -2.7946    0.7048    3.0343 H   0  0  0  0  0  0  0  0  0  0  0  0
   -1.5848    0.7472    4.7873 C   0  0  0  0  0  0  0  0  0  0  0  0
   -0.8819    1.5774    4.8838 H   0  0  0  0  0  0  0  0  0  0  0  0
   -2.5030    0.9948    5.3214 H   0  0  0  0  0  0  0  0  0  0  0  0
   -1.1344   -0.1399    5.2381 H   0  0  0  0  0  0  0  0  0  0  0  0
  5  6  2  0  0  0  0
  5  7  1  0  0  0  0
  2  3  1  0  0  0  0
  2  4  1  0  0  0  0
  2  5  1  0  0  0  0
  1  2  1  0  0  0  0
 29 30  2  0  0  0  0
 29 31  1  0  0  0  0
 26 27  1  0  0  0  0
 26 28  1  0  0  0  0
 23 24  1  0  0  0  0
 23 25  1  0  0  0  0
 22 23  1  0  0  0  0
 22 26  1  0  0  0  0
 20 21  1  0  0  0  0
 20 22  2  0  0  0  0
 17 18  1  0  0  0  0
 17 19  1  0  0  0  0
 17 20  1  0  0  0  0
 14 15  1  0  0  0  0
 14 16  1  0  0  0  0
 14 17  1  0  0  0  0
 11 12  1  0  0  0  0
 11 13  1  0  0  0  0
 11 14  1  0  0  0  0
  9 10  1  0  0  0  0
  9 11  1  0  0  0  0
  9 29  1  0  0  0  0
  7  8  1  0  0  0  0
  7  9  1  0  0  0  0
 33 34  1  0  0  0  0
 33 35  1  0  0  0  0
 33 36  1  0  0  0  0
 31 32  1  0  0  0  0
 31 33  1  0  0  0  0
M  CHG  1  20   1
M  END
$$$$
default_name
  -OEChem-02102213163D

 36 35  0     1  0  0  0  0  0999 V2000
   -4.2256   -3.6731    1.8584 H   0  0  0  0  0  0  0  0  0  0  0  0
   -4.2396   -2.6781    1.4144 C   0  0  0  0  0  0  0  0  0  0  0  0
   -4.9506   -2.0521    1.9514 H   0  0  0  0  0  0  0  0  0  0  0  0
   -4.5266   -2.7521    0.3674 H   0  0  0  0  0  0  0  0  0  0  0  0
   -2.8576   -2.0761    1.5184 C   0  0  0  0  0  0  0  0  0  0  0  0
   -1.9456   -2.7051    2.0404 O   0  0  0  0  0  0  0  0  0  0  0  0
   -2.6926   -0.8481    1.0174 N   0  0  0  0  0  0  0  0  0  0  0  0
   -3.4926   -0.3971    0.5954 H   0  0  0  0  0  0  0  0  0  0  0  0
   -1.4216   -0.1071    1.0434 C   0  0  1  0  0  0  0  0  0  0  0  0
   -0.6709   -0.6930    0.5106 H   0  0  0  0  0  0  0  0  0  0  0  0
   -1.6221    1.2315    0.3051 C   0  0  0  0  0  0  0  0  0  0  0  0
   -0.9460    1.9722    0.7370 H   0  0  0  0  0  0  0  0  0  0  0  0
   -1.3565    1.1024   -0.7464 H   0  0  0  0  0  0  0  0  0  0  0  0
   -3.0558    1.7734    0.4003 C   0  0  0  0  0  0  0  0  0  0  0  0
   -3.7259    0.9851    0.7462 H   0  0  0  0  0  0  0  0  0  0  0  0
   -3.0815    2.6038    1.1065 H   0  0  0  0  0  0  0  0  0  0  0  0
   -3.5226    2.2610   -0.9781 C   0  0  0  0  0  0  0  0  0  0  0  0
   -2.8310    3.0307   -1.3282 H   0  0  0  0  0  0  0  0  0  0  0  0
   -3.4936    1.4185   -1.6731 H   0  0  0  0  0  0  0  0  0  0  0  0
   -4.8917    2.8140   -0.9293 N   0  3  0  0  0  0  0  0  0  0  0  0
   -5.3662    2.7679   -0.0438 H   0  0  0  0  0  0  0  0  0  0  0  0
   -5.5495    3.3623   -1.9371 C   0  0  0  0  0  0  0  0  0  0  0  0
   -5.0285    3.4723   -3.1269 N   0  0  0  0  0  0  0  0  0  0  0  0
   -4.0965    3.1301   -3.2805 H   0  0  0  0  0  0  0  0  0  0  0  0
   -5.5416    3.8908   -3.8810 H   0  0  0  0  0  0  0  0  0  0  0  0
   -6.7591    3.8153   -1.7670 N   0  0  0  0  0  0  0  0  0  0  0  0
   -7.2031    3.7531   -0.8670 H   0  0  0  0  0  0  0  0  0  0  0  0
   -7.2546    4.2307   -2.5342 H   0  0  0  0  0  0  0  0  0  0  0  0
   -0.9523    0.1012    2.4848 C   0  0  0  0  0  0  0  0  0  0  0  0
    0.2133   -0.1319    2.7814 O   0  0  0  0  0  0  0  0  0  0  0  0
   -1.8684    0.5006    3.3725 N   0  0  0  0  0  0  0  0  0  0  0  0
   -2.7946    0.7048    3.0343 H   0  0  0  0  0  0  0  0  0  0  0  0
   -1.5848    0.7472    4.7873 C   0  0  0  0  0  0  0  0  0  0  0  0
   -0.8819    1.5774    4.8838 H   0  0  0  0  0  0  0  0  0  0  0  0
   -2.5030    0.9948    5.3214 H   0  0  0  0  0  0  0  0  0  0  0  0
   -1.1344   -0.1399    5.2381 H   0  0  0  0  0  0  0  0  0  0  0  0
  5  6  2  0  0  0  0
  5  7  1  0  0  0  0
  2  3  1  0  0  0  0
  2  4  1  0  0  0  0
  2  5  1  0  0  0  0
  1  2  1  0  0  0  0
 29 30  2  0  0  0  0
 29 31  1  0  0  0  0
 26 27  1  0  0  0  0
 26 28  1  0  0  0  0
 23 24  1  0  0  0  0
 23 25  1  0  0  0  0
 22 23  1  0  0  0  0
 22 26  1  0  0  0  0
 20 21  1  0  0  0  0
 20 22  2  0  0  0  0
 17 18  1  0  0  0  0
 17 19  1  0  0  0  0
 17 20  1  0  0  0  0
 14 15  1  0  0  0  0
 14 16  1  0  0  0  0
 14 17  1  0  0  0  0
 11 12  1  0  0  0  0
 11 13  1  0  0  0  0
 11 14  1  0  0  0  0
  9 10  1  0  0  0  0
  9 11  1  0  0  0  0
  9 29  1  0  0  0  0
  7  8  1  0  0  0  0
  7  9  1  0  0  0  0
 33 34  1  0  0  0  0
 33 35  1  0  0  0  0
 33 36  1  0  0  0  0
 31 32  1  0  0  0  0
 31 33  1  0  0  0  0
M  CHG  1  20   1
M  END
$$$$
default_name
  -OEChem-02102213163D

 36 35  0     1  0  0  0  0  0999 V2000
   -4.2256   -3.6731    1.8584 H   0  0  0  0  0  0  0  0  0  0  0  0
   -4.2396   -2.6781    1.4144 C   0  0  0  0  0  0  0  0  0  0  0  0
   -4.9506   -2.0521    1.9514 H   0  0  0  0  0  0  0  0  0  0  0  0
   -4.5266   -2.7521    0.3674 H   0  0  0  0  0  0  0  0  0  0  0  0
   -2.8576   -2.0761    1.5184 C   0  0  0  0  0  0  0  0  0  0  0  0
   -1.9456   -2.7051    2.0404 O   0  0  0  0  0  0  0  0  0  0  0  0
   -2.6926   -0.8481    1.0174 N   0  0  0  0  0  0  0  0  0  0  0  0
   -3.4926   -0.3971    0.5954 H   0  0  0  0  0  0  0  0  0  0  0  0
   -1.4216   -0.1071    1.0434 C   0  0  1  0  0  0  0  0  0  0  0  0
   -0.6709   -0.6930    0.5106 H   0  0  0  0  0  0  0  0  0  0  0  0
   -1.6221    1.2315    0.3051 C   0  0  0  0  0  0  0  0  0  0  0  0
   -0.9460    1.9722    0.7370 H   0  0  0  0  0  0  0  0  0  0  0  0
   -1.3565    1.1024   -0.7464 H   0  0  0  0  0  0  0  0  0  0  0  0
   -3.0558    1.7734    0.4003 C   0  0  0  0  0  0  0  0  0  0  0  0
   -3.6706    1.0893    0.9868 H   0  0  0  0  0  0  0  0  0  0  0  0
   -3.0409    2.7501    0.8849 H   0  0  0  0  0  0  0  0  0  0  0  0
   -3.6570    1.9101   -1.0052 C   0  0  0  0  0  0  0  0  0  0  0  0
   -3.0207    2.5753   -1.5934 H   0  0  0  0  0  0  0  0  0  0  0  0
   -3.6673    0.9244   -1.4763 H   0  0  0  0  0  0  0  0  0  0  0  0
   -5.0309    2.4519   -0.9636 N   0  3  0  0  0  0  0  0  0  0  0  0
   -5.4229    2.6195   -0.0528 H   0  0  0  0  0  0  0  0  0  0  0  0
   -5.7908    2.7364   -2.0079 C   0  0  0  0  0  0  0  0  0  0  0  0
   -5.3814    2.5572   -3.2324 N   0  0  0  0  0  0  0  0  0  0  0  0
   -4.4578    2.1924   -3.3853 H   0  0  0  0  0  0  0  0  0  0  0  0
   -5.9709    2.7779   -4.0138 H   0  0  0  0  0  0  0  0  0  0  0  0
   -6.9923    3.2113   -1.8398 N   0  0  0  0  0  0  0  0  0  0  0  0
   -7.3522    3.3669   -0.9139 H   0  0  0  0  0  0  0  0  0  0  0  0
   -7.5654    3.4259   -2.6348 H   0  0  0  0  0  0  0  0  0  0  0  0
   -0.9523    0.1012    2.4848 C   0  0  0  0  0  0  0  0  0  0  0  0
    0.2133   -0.1319    2.7814 O   0  0  0  0  0  0  0  0  0  0  0  0
   -1.8684    0.5006    3.3725 N   0  0  0  0  0  0  0  0  0  0  0  0
   -2.7946    0.7048    3.0343 H   0  0  0  0  0  0  0  0  0  0  0  0
   -1.5848    0.7472    4.7873 C   0  0  0  0  0  0  0  0  0  0  0  0
   -0.8819    1.5774    4.8838 H   0  0  0  0  0  0  0  0  0  0  0  0
   -2.5030    0.9948    5.3214 H   0  0  0  0  0  0  0  0  0  0  0  0
   -1.1344   -0.1399    5.2381 H   0  0  0  0  0  0  0  0  0  0  0  0
  5  6  2  0  0  0  0
  5  7  1  0  0  0  0
  2  3  1  0  0  0  0
  2  4  1  0  0  0  0
  2  5  1  0  0  0  0
  1  2  1  0  0  0  0
 29 30  2  0  0  0  0
 29 31  1  0  0  0  0
 26 27  1  0  0  0  0
 26 28  1  0  0  0  0
 23 24  1  0  0  0  0
 23 25  1  0  0  0  0
 22 23  1  0  0  0  0
 22 26  1  0  0  0  0
 20 21  1  0  0  0  0
 20 22  2  0  0  0  0
 17 18  1  0  0  0  0
 17 19  1  0  0  0  0
 17 20  1  0  0  0  0
 14 15  1  0  0  0  0
 14 16  1  0  0  0  0
 14 17  1  0  0  0  0
 11 12  1  0  0  0  0
 11 13  1  0  0  0  0
 11 14  1  0  0  0  0
  9 10  1  0  0  0  0
  9 11  1  0  0  0  0
  9 29  1  0  0  0  0
  7  8  1  0  0  0  0
  7  9  1  0  0  0  0
 33 34  1  0  0  0  0
 33 35  1  0  0  0  0
 33 36  1  0  0  0  0
 31 32  1  0  0  0  0
 31 33  1  0  0  0  0
M  CHG  1  20   1
M  END
$$$$
default_name
  -OEChem-02102213163D

 36 35  0     1  0  0  0  0  0999 V2000
   -4.2256   -3.6731    1.8584 H   0  0  0  0  0  0  0  0  0  0  0  0
   -4.2396   -2.6781    1.4144 C   0  0  0  0  0  0  0  0  0  0  0  0
   -4.9506   -2.0521    1.9514 H   0  0  0  0  0  0  0  0  0  0  0  0
   -4.5266   -2.7521    0.3674 H   0  0  0  0  0  0  0  0  0  0  0  0
   -2.8576   -2.0761    1.5184 C   0  0  0  0  0  0  0  0  0  0  0  0
   -1.9456   -2.7051    2.0404 O   0  0  0  0  0  0  0  0  0  0  0  0
   -2.6926   -0.8481    1.0174 N   0  0  0  0  0  0  0  0  0  0  0  0
   -3.4926   -0.3971    0.5954 H   0  0  0  0  0  0  0  0  0  0  0  0
   -1.4216   -0.1071    1.0434 C   0  0  1  0  0  0  0  0  0  0  0  0
   -0.6709   -0.6930    0.5106 H   0  0  0  0  0  0  0  0  0  0  0  0
   -1.6221    1.2315    0.3051 C   0  0  0  0  0  0  0  0  0  0  0  0
   -0.9460    1.9722    0.7370 H   0  0  0  0  0  0  0  0  0  0  0  0
   -1.3565    1.1024   -0.7464 H   0  0  0  0  0  0  0  0  0  0  0  0
   -3.0558    1.7734    0.4003 C   0  0  0  0  0  0  0  0  0  0  0  0
   -3.5968    1.2489    1.1891 H   0  0  0  0  0  0  0  0  0  0  0  0
   -3.0243    2.8385    0.6318 H   0  0  0  0  0  0  0  0  0  0  0  0
   -3.7837    1.5625   -0.9343 C   0  0  0  0  0  0  0  0  0  0  0  0
   -3.2209    2.0683   -1.7222 H   0  0  0  0  0  0  0  0  0  0  0  0
   -3.8092    0.4919   -1.1511 H   0  0  0  0  0  0  0  0  0  0  0  0
   -5.1626    2.0916   -0.8964 N   0  3  0  0  0  0  0  0  0  0  0  0
   -5.4761    2.4730   -0.0204 H   0  0  0  0  0  0  0  0  0  0  0  0
   -6.0203    2.1108   -1.9030 C   0  0  0  0  0  0  0  0  0  0  0  0
   -5.7172    1.6421   -3.0810 N   0  0  0  0  0  0  0  0  0  0  0  0
   -4.8014    1.2557   -3.2269 H   0  0  0  0  0  0  0  0  0  0  0  0
   -6.3800    1.6641   -3.8340 H   0  0  0  0  0  0  0  0  0  0  0  0
   -7.2144    2.6065   -1.7429 N   0  0  0  0  0  0  0  0  0  0  0  0
   -7.4942    2.9802   -0.8524 H   0  0  0  0  0  0  0  0  0  0  0  0
   -7.8619    2.6193   -2.5091 H   0  0  0  0  0  0  0  0  0  0  0  0
   -0.9523    0.1012    2.4848 C   0  0  0  0  0  0  0  0  0  0  0  0
    0.2133   -0.1319    2.7814 O   0  0  0  0  0  0  0  0  0  0  0  0
   -1.8684    0.5006    3.3725 N   0  0  0  0  0  0  0  0  0  0  0  0
   -2.7946    0.7048    3.0343 H   0  0  0  0  0  0  0  0  0  0  0  0
   -1.5848    0.7472    4.7873 C   0  0  0  0  0  0  0  0  0  0  0  0
   -0.8819    1.5774    4.8838 H   0  0  0  0  0  0  0  0  0  0  0  0
   -2.5030    0.9948    5.3214 H   0  0  0  0  0  0  0  0  0  0  0  0
   -1.1344   -0.1399    5.2381 H   0  0  0  0  0  0  0  0  0  0  0  0
  5  6  2  0  0  0  0
  5  7  1  0  0  0  0
  2  3  1  0  0  0  0
  2  4  1  0  0  0  0
  2  5  1  0  0  0  0
  1  2  1  0  0  0  0
 29 30  2  0  0  0  0
 29 31  1  0  0  0  0
 26 27  1  0  0  0  0
 26 28  1  0  0  0  0
 23 24  1  0  0  0  0
 23 25  1  0  0  0  0
 22 23  1  0  0  0  0
 22 26  1  0  0  0  0
 20 21  1  0  0  0  0
 20 22  2  0  0  0  0
 17 18  1  0  0  0  0
 17 19  1  0  0  0  0
 17 20  1  0  0  0  0
 14 15  1  0  0  0  0
 14 16  1  0  0  0  0
 14 17  1  0  0  0  0
 11 12  1  0  0  0  0
 11 13  1  0  0  0  0
 11 14  1  0  0  0  0
  9 10  1  0  0  0  0
  9 11  1  0  0  0  0
  9 29  1  0  0  0  0
  7  8  1  0  0  0  0
  7  9  1  0  0  0  0
 33 34  1  0  0  0  0
 33 35  1  0  0  0  0
 33 36  1  0  0  0  0
 31 32  1  0  0  0  0
 31 33  1  0  0  0  0
M  CHG  1  20   1
M  END
$$$$
default_name
  -OEChem-02102213163D

 36 35  0     1  0  0  0  0  0999 V2000
   -4.2256   -3.6731    1.8584 H   0  0  0  0  0  0  0  0  0  0  0  0
   -4.2396   -2.6781    1.4144 C   0  0  0  0  0  0  0  0  0  0  0  0
   -4.9506   -2.0521    1.9514 H   0  0  0  0  0  0  0  0  0  0  0  0
   -4.5266   -2.7521    0.3674 H   0  0  0  0  0  0  0  0  0  0  0  0
   -2.8576   -2.0761    1.5184 C   0  0  0  0  0  0  0  0  0  0  0  0
   -1.9456   -2.7051    2.0404 O   0  0  0  0  0  0  0  0  0  0  0  0
   -2.6926   -0.8481    1.0174 N   0  0  0  0  0  0  0  0  0  0  0  0
   -3.4926   -0.3971    0.5954 H   0  0  0  0  0  0  0  0  0  0  0  0
   -1.4216   -0.1071    1.0434 C   0  0  1  0  0  0  0  0  0  0  0  0
   -0.6709   -0.6930    0.5106 H   0  0  0  0  0  0  0  0  0  0  0  0
   -1.6221    1.2315    0.3051 C   0  0  0  0  0  0  0  0  0  0  0  0
   -0.9460    1.9722    0.7370 H   0  0  0  0  0  0  0  0  0  0  0  0
   -1.3565    1.1024   -0.7464 H   0  0  0  0  0  0  0  0  0  0  0  0
   -3.0558    1.7734    0.4003 C   0  0  0  0  0  0  0  0  0  0  0  0
   -3.5097    1.4531    1.3391 H   0  0  0  0  0  0  0  0  0  0  0  0
   -3.0327    2.8630    0.3644 H   0  0  0  0  0  0  0  0  0  0  0  0
   -3.8940    1.2418   -0.7703 C   0  0  0  0  0  0  0  0  0  0  0  0
   -3.4178    1.5443   -1.7058 H   0  0  0  0  0  0  0  0  0  0  0  0
   -3.9096    0.1505   -0.7194 H   0  0  0  0  0  0  0  0  0  0  0  0
   -5.2779    1.7576   -0.7325 N   0  3  0  0  0  0  0  0  0  0  0  0
   -5.5222    2.3386    0.0512 H   0  0  0  0  0  0  0  0  0  0  0  0
   -6.2223    1.5282   -1.6295 C   0  0  0  0  0  0  0  0  0  0  0  0
   -6.0130    0.7895   -2.6829 N   0  0  0  0  0  0  0  0  0  0  0  0
   -5.1037    0.3835   -2.8162 H   0  0  0  0  0  0  0  0  0  0  0  0
   -6.7408    0.6250   -3.3538 H   0  0  0  0  0  0  0  0  0  0  0  0
   -7.4104    2.0422   -1.4829 N   0  0  0  0  0  0  0  0  0  0  0  0
   -7.6196    2.6192   -0.6865 H   0  0  0  0  0  0  0  0  0  0  0  0
   -8.1239    1.8658   -2.1658 H   0  0  0  0  0  0  0  0  0  0  0  0
   -0.9523    0.1012    2.4848 C   0  0  0  0  0  0  0  0  0  0  0  0
    0.2133   -0.1319    2.7814 O   0  0  0  0  0  0  0  0  0  0  0  0
   -1.8684    0.5006    3.3725 N   0  0  0  0  0  0  0  0  0  0  0  0
   -2.7946    0.7048    3.0343 H   0  0  0  0  0  0  0  0  0  0  0  0
   -1.5848    0.7472    4.7873 C   0  0  0  0  0  0  0  0  0  0  0  0
   -0.8819    1.5774    4.8838 H   0  0  0  0  0  0  0  0  0  0  0  0
   -2.5030    0.9948    5.3214 H   0  0  0  0  0  0  0  0  0  0  0  0
   -1.1344   -0.1399    5.2381 H   0  0  0  0  0  0  0  0  0  0  0  0
  5  6  2  0  0  0  0
  5  7  1  0  0  0  0
  2  3  1  0  0  0  0
  2  4  1  0  0  0  0
  2  5  1  0  0  0  0
  1  2  1  0  0  0  0
 29 30  2  0  0  0  0
 29 31  1  0  0  0  0
 26 27  1  0  0  0  0
 26 28  1  0  0  0  0
 23 24  1  0  0  0  0
 23 25  1  0  0  0  0
 22 23  1  0  0  0  0
 22 26  1  0  0  0  0
 20 21  1  0  0  0  0
 20 22  2  0  0  0  0
 17 18  1  0  0  0  0
 17 19  1  0  0  0  0
 17 20  1  0  0  0  0
 14 15  1  0  0  0  0
 14 16  1  0  0  0  0
 14 17  1  0  0  0  0
 11 12  1  0  0  0  0
 11 13  1  0  0  0  0
 11 14  1  0  0  0  0
  9 10  1  0  0  0  0
  9 11  1  0  0  0  0
  9 29  1  0  0  0  0
  7  8  1  0  0  0  0
  7  9  1  0  0  0  0
 33 34  1  0  0  0  0
 33 35  1  0  0  0  0
 33 36  1  0  0  0  0
 31 32  1  0  0  0  0
 31 33  1  0  0  0  0
M  CHG  1  20   1
M  END
$$$$
default_name
  -OEChem-02102213163D

 36 35  0     1  0  0  0  0  0999 V2000
   -4.2256   -3.6731    1.8584 H   0  0  0  0  0  0  0  0  0  0  0  0
   -4.2396   -2.6781    1.4144 C   0  0  0  0  0  0  0  0  0  0  0  0
   -4.9506   -2.0521    1.9514 H   0  0  0  0  0  0  0  0  0  0  0  0
   -4.5266   -2.7521    0.3674 H   0  0  0  0  0  0  0  0  0  0  0  0
   -2.8576   -2.0761    1.5184 C   0  0  0  0  0  0  0  0  0  0  0  0
   -1.9456   -2.7051    2.0404 O   0  0  0  0  0  0  0  0  0  0  0  0
   -2.6926   -0.8481    1.0174 N   0  0  0  0  0  0  0  0  0  0  0  0
   -3.4926   -0.3971    0.5954 H   0  0  0  0  0  0  0  0  0  0  0  0
   -1.4216   -0.1071    1.0434 C   0  0  1  0  0  0  0  0  0  0  0  0
   -0.6709   -0.6930    0.5106 H   0  0  0  0  0  0  0  0  0  0  0  0
   -1.6221    1.2315    0.3051 C   0  0  0  0  0  0  0  0  0  0  0  0
   -0.9460    1.9722    0.7370 H   0  0  0  0  0  0  0  0  0  0  0  0
   -1.3565    1.1024   -0.7464 H   0  0  0  0  0  0  0  0  0  0  0  0
   -3.0558    1.7734    0.4003 C   0  0  0  0  0  0  0  0  0  0  0  0
   -3.4151    1.6881    1.4267 H   0  0  0  0  0  0  0  0  0  0  0  0
   -3.0658    2.8219    0.1010 H   0  0  0  0  0  0  0  0  0  0  0  0
   -3.9805    0.9699   -0.5243 C   0  0  0  0  0  0  0  0  0  0  0  0
   -3.5982    1.0389   -1.5454 H   0  0  0  0  0  0  0  0  0  0  0  0
   -3.9617   -0.0766   -0.2108 H   0  0  0  0  0  0  0  0  0  0  0  0
   -5.3690    1.4729   -0.4830 N   0  3  0  0  0  0  0  0  0  0  0  0
   -5.5580    2.2253    0.1570 H   0  0  0  0  0  0  0  0  0  0  0  0
   -6.3831    1.0284   -1.2061 C   0  0  0  0  0  0  0  0  0  0  0  0
   -6.2488    0.0573   -2.0653 N   0  0  0  0  0  0  0  0  0  0  0  0
   -5.3443   -0.3645   -2.1812 H   0  0  0  0  0  0  0  0  0  0  0  0
   -7.0289   -0.2684   -2.6060 H   0  0  0  0  0  0  0  0  0  0  0  0
   -7.5670    1.5568   -1.0775 N   0  0  0  0  0  0  0  0  0  0  0  0
   -7.7199    2.3087   -0.4276 H   0  0  0  0  0  0  0  0  0  0  0  0
   -8.3336    1.2167   -1.6281 H   0  0  0  0  0  0  0  0  0  0  0  0
   -0.9523    0.1012    2.4848 C   0  0  0  0  0  0  0  0  0  0  0  0
    0.2133   -0.1319    2.7814 O   0  0  0  0  0  0  0  0  0  0  0  0
   -1.8684    0.5006    3.3725 N   0  0  0  0  0  0  0  0  0  0  0  0
   -2.7946    0.7048    3.0343 H   0  0  0  0  0  0  0  0  0  0  0  0
   -1.5848    0.7472    4.7873 C   0  0  0  0  0  0  0  0  0  0  0  0
   -0.8819    1.5774    4.8838 H   0  0  0  0  0  0  0  0  0  0  0  0
   -2.5030    0.9948    5.3214 H   0  0  0  0  0  0  0  0  0  0  0  0
   -1.1344   -0.1399    5.2381 H   0  0  0  0  0  0  0  0  0  0  0  0
  5  6  2  0  0  0  0
  5  7  1  0  0  0  0
  2  3  1  0  0  0  0
  2  4  1  0  0  0  0
  2  5  1  0  0  0  0
  1  2  1  0  0  0  0
 29 30  2  0  0  0  0
 29 31  1  0  0  0  0
 26 27  1  0  0  0  0
 26 28  1  0  0  0  0
 23 24  1  0  0  0  0
 23 25  1  0  0  0  0
 22 23  1  0  0  0  0
 22 26  1  0  0  0  0
 20 21  1  0  0  0  0
 20 22  2  0  0  0  0
 17 18  1  0  0  0  0
 17 19  1  0  0  0  0
 17 20  1  0  0  0  0
 14 15  1  0  0  0  0
 14 16  1  0  0  0  0
 14 17  1  0  0  0  0
 11 12  1  0  0  0  0
 11 13  1  0  0  0  0
 11 14  1  0  0  0  0
  9 10  1  0  0  0  0
  9 11  1  0  0  0  0
  9 29  1  0  0  0  0
  7  8  1  0  0  0  0
  7  9  1  0  0  0  0
 33 34  1  0  0  0  0
 33 35  1  0  0  0  0
 33 36  1  0  0  0  0
 31 32  1  0  0  0  0
 31 33  1  0  0  0  0
M  CHG  1  20   1
M  END
$$$$
default_name
  -OEChem-02102213163D

 36 35  0     1  0  0  0  0  0999 V2000
   -4.2256   -3.6731    1.8584 H   0  0  0  0  0  0  0  0  0  0  0  0
   -4.2396   -2.6781    1.4144 C   0  0  0  0  0  0  0  0  0  0  0  0
   -4.9506   -2.0521    1.9514 H   0  0  0  0  0  0  0  0  0  0  0  0
   -4.5266   -2.7521    0.3674 H   0  0  0  0  0  0  0  0  0  0  0  0
   -2.8576   -2.0761    1.5184 C   0  0  0  0  0  0  0  0  0  0  0  0
   -1.9456   -2.7051    2.0404 O   0  0  0  0  0  0  0  0  0  0  0  0
   -2.6926   -0.8481    1.0174 N   0  0  0  0  0  0  0  0  0  0  0  0
   -3.4926   -0.3971    0.5954 H   0  0  0  0  0  0  0  0  0  0  0  0
   -1.4216   -0.1071    1.0434 C   0  0  1  0  0  0  0  0  0  0  0  0
   -0.6709   -0.6930    0.5106 H   0  0  0  0  0  0  0  0  0  0  0  0
   -1.6221    1.2315    0.3051 C   0  0  0  0  0  0  0  0  0  0  0  0
   -0.9460    1.9722    0.7370 H   0  0  0  0  0  0  0  0  0  0  0  0
   -1.3565    1.1024   -0.7464 H   0  0  0  0  0  0  0  0  0  0  0  0
   -3.0558    1.7734    0.4003 C   0  0  0  0  0  0  0  0  0  0  0  0
   -3.3195    1.9377    1.4460 H   0  0  0  0  0  0  0  0  0  0  0  0
   -3.1210    2.7180   -0.1405 H   0  0  0  0  0  0  0  0  0  0  0  0
   -4.0371    0.7653   -0.2131 C   0  0  0  0  0  0  0  0  0  0  0  0
   -3.7497    0.5866   -1.2518 H   0  0  0  0  0  0  0  0  0  0  0  0
   -3.9619   -0.1738    0.3401 H   0  0  0  0  0  0  0  0  0  0  0  0
   -5.4296    1.2566   -0.1648 N   0  3  0  0  0  0  0  0  0  0  0  0
   -5.5811    2.1408    0.2898 H   0  0  0  0  0  0  0  0  0  0  0  0
   -6.4918    0.6452   -0.6617 C   0  0  0  0  0  0  0  0  0  0  0  0
   -6.4084   -0.5045   -1.2704 N   0  0  0  0  0  0  0  0  0  0  0  0
   -5.5067   -0.9374   -1.3651 H   0  0  0  0  0  0  0  0  0  0  0  0
   -7.2245   -0.9552   -1.6414 H   0  0  0  0  0  0  0  0  0  0  0  0
   -7.6734    1.1834   -0.5543 N   0  0  0  0  0  0  0  0  0  0  0  0
   -7.7880    2.0696   -0.0933 H   0  0  0  0  0  0  0  0  0  0  0  0
   -8.4766    0.7163   -0.9327 H   0  0  0  0  0  0  0  0  0  0  0  0
   -0.9523    0.1012    2.4848 C   0  0  0  0  0  0  0  0  0  0  0  0
    0.2133   -0.1319    2.7814 O   0  0  0  0  0  0  0  0  0  0  0  0
   -1.8684    0.5006    3.3725 N   0  0  0  0  0  0  0  0  0  0  0  0
   -2.7946    0.7048    3.0343 H   0  0  0  0  0  0  0  0  0  0  0  0
   -1.5848    0.7472    4.7873 C   0  0  0  0  0  0  0  0  0  0  0  0
   -0.8819    1.5774    4.8838 H   0  0  0  0  0  0  0  0  0  0  0  0
   -2.5030    0.9948    5.3214 H   0  0  0  0  0  0  0  0  0  0  0  0
   -1.1344   -0.1399    5.2381 H   0  0  0  0  0  0  0  0  0  0  0  0
  5  6  2  0  0  0  0
  5  7  1  0  0  0  0
  2  3  1  0  0  0  0
  2  4  1  0  0  0  0
  2  5  1  0  0  0  0
  1  2  1  0  0  0  0
 29 30  2  0  0  0  0
 29 31  1  0  0  0  0
 26 27  1  0  0  0  0
 26 28  1  0  0  0  0
 23 24  1  0  0  0  0
 23 25  1  0  0  0  0
 22 23  1  0  0  0  0
 22 26  1  0  0  0  0
 20 21  1  0  0  0  0
 20 22  2  0  0  0  0
 17 18  1  0  0  0  0
 17 19  1  0  0  0  0
 17 20  1  0  0  0  0
 14 15  1  0  0  0  0
 14 16  1  0  0  0  0
 14 17  1  0  0  0  0
 11 12  1  0  0  0  0
 11 13  1  0  0  0  0
 11 14  1  0  0  0  0
  9 10  1  0  0  0  0
  9 11  1  0  0  0  0
  9 29  1  0  0  0  0
  7  8  1  0  0  0  0
  7  9  1  0  0  0  0
 33 34  1  0  0  0  0
 33 35  1  0  0  0  0
 33 36  1  0  0  0  0
 31 32  1  0  0  0  0
 31 33  1  0  0  0  0
M  CHG  1  20   1
M  END
$$$$
default_name
  -OEChem-02102213163D

 36 35  0     1  0  0  0  0  0999 V2000
   -4.2256   -3.6731    1.8584 H   0  0  0  0  0  0  0  0  0  0  0  0
   -4.2396   -2.6781    1.4144 C   0  0  0  0  0  0  0  0  0  0  0  0
   -4.9506   -2.0521    1.9514 H   0  0  0  0  0  0  0  0  0  0  0  0
   -4.5266   -2.7521    0.3674 H   0  0  0  0  0  0  0  0  0  0  0  0
   -2.8576   -2.0761    1.5184 C   0  0  0  0  0  0  0  0  0  0  0  0
   -1.9456   -2.7051    2.0404 O   0  0  0  0  0  0  0  0  0  0  0  0
   -2.6926   -0.8481    1.0174 N   0  0  0  0  0  0  0  0  0  0  0  0
   -3.4926   -0.3971    0.5954 H   0  0  0  0  0  0  0  0  0  0  0  0
   -1.4216   -0.1071    1.0434 C   0  0  1  0  0  0  0  0  0  0  0  0
   -0.6709   -0.6930    0.5106 H   0  0  0  0  0  0  0  0  0  0  0  0
   -1.6221    1.2315    0.3051 C   0  0  0  0  0  0  0  0  0  0  0  0
   -0.9460    1.9722    0.7370 H   0  0  0  0  0  0  0  0  0  0  0  0
   -1.3565    1.1024   -0.7464 H   0  0  0  0  0  0  0  0  0  0  0  0
   -3.0558    1.7734    0.4003 C   0  0  0  0  0  0  0  0  0  0  0  0
   -3.2293    2.1850    1.3955 H   0  0  0  0  0  0  0  0  0  0  0  0
   -3.1948    2.5585   -0.3437 H   0  0  0  0  0  0  0  0  0  0  0  0
   -4.0602    0.6420    0.1421 C   0  0  0  0  0  0  0  0  0  0  0  0
   -3.8619    0.2182   -0.8451 H   0  0  0  0  0  0  0  0  0  0  0  0
   -3.9102   -0.1347    0.8957 H   0  0  0  0  0  0  0  0  0  0  0  0
   -5.4556    1.1237    0.2004 N   0  3  0  0  0  0  0  0  0  0  0  0
   -5.5900    2.0909    0.4407 H   0  0  0  0  0  0  0  0  0  0  0  0
   -6.5409    0.4050   -0.0333 C   0  0  0  0  0  0  0  0  0  0  0  0
   -6.4809   -0.8576   -0.3521 N   0  0  0  0  0  0  0  0  0  0  0  0
   -5.5798   -1.2962   -0.4235 H   0  0  0  0  0  0  0  0  0  0  0  0
   -7.3143   -1.3887   -0.5259 H   0  0  0  0  0  0  0  0  0  0  0  0
   -7.7224    0.9475    0.0510 N   0  0  0  0  0  0  0  0  0  0  0  0
   -7.8195    1.9184    0.2936 H   0  0  0  0  0  0  0  0  0  0  0  0
   -8.5432    0.3987   -0.1271 H   0  0  0  0  0  0  0  0  0  0  0  0
   -0.9523    0.1012    2.4848 C   0  0  0  0  0  0  0  0  0  0  0  0
    0.2133   -0.1319    2.7814 O   0  0  0  0  0  0  0  0  0  0  0  0
   -1.8684    0.5006    3.3725 N   0  0  0  0  0  0  0  0  0  0  0  0
   -2.7946    0.7048    3.0343 H   0  0  0  0  0  0  0  0  0  0  0  0
   -1.5848    0.7472    4.7873 C   0  0  0  0  0  0  0  0  0  0  0  0
   -0.8819    1.5774    4.8838 H   0  0  0  0  0  0  0  0  0  0  0  0
   -2.5030    0.9948    5.3214 H   0  0  0  0  0  0  0  0  0  0  0  0
   -1.1344   -0.1399    5.2381 H   0  0  0  0  0  0  0  0  0  0  0  0
  5  6  2  0  0  0  0
  5  7  1  0  0  0  0
  2  3  1  0  0  0  0
  2  4  1  0  0  0  0
  2  5  1  0  0  0  0
  1  2  1  0  0  0  0
 29 30  2  0  0  0  0
 29 31  1  0  0  0  0
 26 27  1  0  0  0  0
 26 28  1  0  0  0  0
 23 24  1  0  0  0  0
 23 25  1  0  0  0  0
 22 23  1  0  0  0  0
 22 26  1  0  0  0  0
 20 21  1  0  0  0  0
 20 22  2  0  0  0  0
 17 18  1  0  0  0  0
 17 19  1  0  0  0  0
 17 20  1  0  0  0  0
 14 15  1  0  0  0  0
 14 16  1  0  0  0  0
 14 17  1  0  0  0  0
 11 12  1  0  0  0  0
 11 13  1  0  0  0  0
 11 14  1  0  0  0  0
  9 10  1  0  0  0  0
  9 11  1  0  0  0  0
  9 29  1  0  0  0  0
  7  8  1  0  0  0  0
  7  9  1  0  0  0  0
 33 34  1  0  0  0  0
 33 35  1  0  0  0  0
 33 36  1  0  0  0  0
 31 32  1  0  0  0  0
 31 33  1  0  0  0  0
M  CHG  1  20   1
M  END
$$$$
default_name
  -OEChem-02102213163D

 36 35  0     1  0  0  0  0  0999 V2000
   -4.2256   -3.6731    1.8584 H   0  0  0  0  0  0  0  0  0  0  0  0
   -4.2396   -2.6781    1.4144 C   0  0  0  0  0  0  0  0  0  0  0  0
   -4.9506   -2.0521    1.9514 H   0  0  0  0  0  0  0  0  0  0  0  0
   -4.5266   -2.7521    0.3674 H   0  0  0  0  0  0  0  0  0  0  0  0
   -2.8576   -2.0761    1.5184 C   0  0  0  0  0  0  0  0  0  0  0  0
   -1.9456   -2.7051    2.0404 O   0  0  0  0  0  0  0  0  0  0  0  0
   -2.6926   -0.8481    1.0174 N   0  0  0  0  0  0  0  0  0  0  0  0
   -3.4926   -0.3971    0.5954 H   0  0  0  0  0  0  0  0  0  0  0  0
   -1.4216   -0.1071    1.0434 C   0  0  1  0  0  0  0  0  0  0  0  0
   -0.6709   -0.6930    0.5106 H   0  0  0  0  0  0  0  0  0  0  0  0
   -1.6221    1.2315    0.3051 C   0  0  0  0  0  0  0  0  0  0  0  0
   -0.9460    1.9722    0.7370 H   0  0  0  0  0  0  0  0  0  0  0  0
   -1.3565    1.1024   -0.7464 H   0  0  0  0  0  0  0  0  0  0  0  0
   -3.0558    1.7734    0.4003 C   0  0  0  0  0  0  0  0  0  0  0  0
   -3.1509    2.4131    1.2787 H   0  0  0  0  0  0  0  0  0  0  0  0
   -3.2821    2.3541   -0.4946 H   0  0  0  0  0  0  0  0  0  0  0  0
   -4.0480    0.6083    0.5171 C   0  0  0  0  0  0  0  0  0  0  0  0
   -3.9273   -0.0411   -0.3530 H   0  0  0  0  0  0  0  0  0  0  0  0
   -3.8102    0.0382    1.4183 H   0  0  0  0  0  0  0  0  0  0  0  0
   -5.4453    1.0831    0.5875 N   0  3  0  0  0  0  0  0  0  0  0  0
   -5.5839    2.0791    0.5992 H   0  0  0  0  0  0  0  0  0  0  0  0
   -6.5271    0.3240    0.6362 C   0  0  0  0  0  0  0  0  0  0  0  0
   -6.4614   -0.9779    0.6267 N   0  0  0  0  0  0  0  0  0  0  0  0
   -5.5587   -1.4164    0.5794 H   0  0  0  0  0  0  0  0  0  0  0  0
   -7.2922   -1.5393    0.6646 H   0  0  0  0  0  0  0  0  0  0  0  0
   -7.7107    0.8650    0.6972 N   0  0  0  0  0  0  0  0  0  0  0  0
   -7.8121    1.8653    0.7067 H   0  0  0  0  0  0  0  0  0  0  0  0
   -8.5288    0.2855    0.7339 H   0  0  0  0  0  0  0  0  0  0  0  0
   -0.9523    0.1012    2.4848 C   0  0  0  0  0  0  0  0  0  0  0  0
    0.2133   -0.1319    2.7814 O   0  0  0  0  0  0  0  0  0  0  0  0
   -1.8684    0.5006    3.3725 N   0  0  0  0  0  0  0  0  0  0  0  0
   -2.7946    0.7048    3.0343 H   0  0  0  0  0  0  0  0  0  0  0  0
   -1.5848    0.7472    4.7873 C   0  0  0  0  0  0  0  0  0  0  0  0
   -0.8819    1.5774    4.8838 H   0  0  0  0  0  0  0  0  0  0  0  0
   -2.5030    0.9948    5.3214 H   0  0  0  0  0  0  0  0  0  0  0  0
   -1.1344   -0.1399    5.2381 H   0  0  0  0  0  0  0  0  0  0  0  0
  5  6  2  0  0  0  0
  5  7  1  0  0  0  0
  2  3  1  0  0  0  0
  2  4  1  0  0  0  0
  2  5  1  0  0  0  0
  1  2  1  0  0  0  0
 29 30  2  0  0  0  0
 29 31  1  0  0  0  0
 26 27  1  0  0  0  0
 26 28  1  0  0  0  0
 23 24  1  0  0  0  0
 23 25  1  0  0  0  0
 22 23  1  0  0  0  0
 22 26  1  0  0  0  0
 20 21  1  0  0  0  0
 20 22  2  0  0  0  0
 17 18  1  0  0  0  0
 17 19  1  0  0  0  0
 17 20  1  0  0  0  0
 14 15  1  0  0  0  0
 14 16  1  0  0  0  0
 14 17  1  0  0  0  0
 11 12  1  0  0  0  0
 11 13  1  0  0  0  0
 11 14  1  0  0  0  0
  9 10  1  0  0  0  0
  9 11  1  0  0  0  0
  9 29  1  0  0  0  0
  7  8  1  0  0  0  0
  7  9  1  0  0  0  0
 33 34  1  0  0  0  0
 33 35  1  0  0  0  0
 33 36  1  0  0  0  0
 31 32  1  0  0  0  0
 31 33  1  0  0  0  0
M  CHG  1  20   1
M  END
$$$$
default_name
  -OEChem-02102213163D

 36 35  0     1  0  0  0  0  0999 V2000
   -4.2256   -3.6731    1.8584 H   0  0  0  0  0  0  0  0  0  0  0  0
   -4.2396   -2.6781    1.4144 C   0  0  0  0  0  0  0  0  0  0  0  0
   -4.9506   -2.0521    1.9514 H   0  0  0  0  0  0  0  0  0  0  0  0
   -4.5266   -2.7521    0.3674 H   0  0  0  0  0  0  0  0  0  0  0  0
   -2.8576   -2.0761    1.5184 C   0  0  0  0  0  0  0  0  0  0  0  0
   -1.9456   -2.7051    2.0404 O   0  0  0  0  0  0  0  0  0  0  0  0
   -2.6926   -0.8481    1.0174 N   0  0  0  0  0  0  0  0  0  0  0  0
   -3.4926   -0.3971    0.5954 H   0  0  0  0  0  0  0  0  0  0  0  0
   -1.4216   -0.1071    1.0434 C   0  0  1  0  0  0  0  0  0  0  0  0
   -0.6709   -0.6930    0.5106 H   0  0  0  0  0  0  0  0  0  0  0  0
   -1.6221    1.2315    0.3051 C   0  0  0  0  0  0  0  0  0  0  0  0
   -0.9460    1.9722    0.7370 H   0  0  0  0  0  0  0  0  0  0  0  0
   -1.3565    1.1024   -0.7464 H   0  0  0  0  0  0  0  0  0  0  0  0
   -3.0558    1.7734    0.4003 C   0  0  0  0  0  0  0  0  0  0  0  0
   -3.0894    2.6065    1.1037 H   0  0  0  0  0  0  0  0  0  0  0  0
   -3.3769    2.1188   -0.5830 H   0  0  0  0  0  0  0  0  0  0  0  0
   -4.0015    0.6666    0.8864 C   0  0  0  0  0  0  0  0  0  0  0  0
   -3.9413   -0.1737    0.1910 H   0  0  0  0  0  0  0  0  0  0  0  0
   -3.6687    0.3331    1.8721 H   0  0  0  0  0  0  0  0  0  0  0  0
   -5.3993    1.1376    0.9704 N   0  3  0  0  0  0  0  0  0  0  0  0
   -5.5634    2.1060    0.7547 H   0  0  0  0  0  0  0  0  0  0  0  0
   -6.4514    0.4077    1.3012 C   0  0  0  0  0  0  0  0  0  0  0  0
   -6.3513   -0.8573    1.5995 N   0  0  0  0  0  0  0  0  0  0  0  0
   -5.4448   -1.2899    1.5753 H   0  0  0  0  0  0  0  0  0  0  0  0
   -7.1598   -1.3968    1.8489 H   0  0  0  0  0  0  0  0  0  0  0  0
   -7.6390    0.9418    1.3402 N   0  0  0  0  0  0  0  0  0  0  0  0
   -7.7665    1.9140    1.1179 H   0  0  0  0  0  0  0  0  0  0  0  0
   -8.4345    0.3844    1.5916 H   0  0  0  0  0  0  0  0  0  0  0  0
   -0.9523    0.1012    2.4848 C   0  0  0  0  0  0  0  0  0  0  0  0
    0.2133   -0.1319    2.7814 O   0  0  0  0  0  0  0  0  0  0  0  0
   -1.8684    0.5006    3.3725 N   0  0  0  0  0  0  0  0  0  0  0  0
   -2.7946    0.7048    3.0343 H   0  0  0  0  0  0  0  0  0  0  0  0
   -1.5848    0.7472    4.7873 C   0  0  0  0  0  0  0  0  0  0  0  0
   -0.8819    1.5774    4.8838 H   0  0  0  0  0  0  0  0  0  0  0  0
   -2.5030    0.9948    5.3214 H   0  0  0  0  0  0  0  0  0  0  0  0
   -1.1344   -0.1399    5.2381 H   0  0  0  0  0  0  0  0  0  0  0  0
  5  6  2  0  0  0  0
  5  7  1  0  0  0  0
  2  3  1  0  0  0  0
  2  4  1  0  0  0  0
  2  5  1  0  0  0  0
  1  2  1  0  0  0  0
 29 30  2  0  0  0  0
 29 31  1  0  0  0  0
 26 27  1  0  0  0  0
 26 28  1  0  0  0  0
 23 24  1  0  0  0  0
 23 25  1  0  0  0  0
 22 23  1  0  0  0  0
 22 26  1  0  0  0  0
 20 21  1  0  0  0  0
 20 22  2  0  0  0  0
 17 18  1  0  0  0  0
 17 19  1  0  0  0  0
 17 20  1  0  0  0  0
 14 15  1  0  0  0  0
 14 16  1  0  0  0  0
 14 17  1  0  0  0  0
 11 12  1  0  0  0  0
 11 13  1  0  0  0  0
 11 14  1  0  0  0  0
  9 10  1  0  0  0  0
  9 11  1  0  0  0  0
  9 29  1  0  0  0  0
  7  8  1  0  0  0  0
  7  9  1  0  0  0  0
 33 34  1  0  0  0  0
 33 35  1  0  0  0  0
 33 36  1  0  0  0  0
 31 32  1  0  0  0  0
 31 33  1  0  0  0  0
M  CHG  1  20   1
M  END
$$$$
default_name
  -OEChem-02102213163D

 36 35  0     1  0  0  0  0  0999 V2000
   -4.2256   -3.6731    1.8584 H   0  0  0  0  0  0  0  0  0  0  0  0
   -4.2396   -2.6781    1.4144 C   0  0  0  0  0  0  0  0  0  0  0  0
   -4.9506   -2.0521    1.9514 H   0  0  0  0  0  0  0  0  0  0  0  0
   -4.5266   -2.7521    0.3674 H   0  0  0  0  0  0  0  0  0  0  0  0
   -2.8576   -2.0761    1.5184 C   0  0  0  0  0  0  0  0  0  0  0  0
   -1.9456   -2.7051    2.0404 O   0  0  0  0  0  0  0  0  0  0  0  0
   -2.6926   -0.8481    1.0174 N   0  0  0  0  0  0  0  0  0  0  0  0
   -3.4926   -0.3971    0.5954 H   0  0  0  0  0  0  0  0  0  0  0  0
   -1.4216   -0.1071    1.0434 C   0  0  1  0  0  0  0  0  0  0  0  0
   -0.6709   -0.6930    0.5106 H   0  0  0  0  0  0  0  0  0  0  0  0
   -1.6221    1.2315    0.3051 C   0  0  0  0  0  0  0  0  0  0  0  0
   -0.9460    1.9722    0.7370 H   0  0  0  0  0  0  0  0  0  0  0  0
   -1.3565    1.1024   -0.7464 H   0  0  0  0  0  0  0  0  0  0  0  0
   -3.0558    1.7734    0.4003 C   0  0  0  0  0  0  0  0  0  0  0  0
   -3.0491    2.7520    0.8822 H   0  0  0  0  0  0  0  0  0  0  0  0
   -3.4727    1.8686   -0.6028 H   0  0  0  0  0  0  0  0  0  0  0  0
   -3.9237    0.8129    1.2247 C   0  0  0  0  0  0  0  0  0  0  0  0
   -3.9031   -0.1706    0.7497 H   0  0  0  0  0  0  0  0  0  0  0  0
   -3.4952    0.7299    2.2263 H   0  0  0  0  0  0  0  0  0  0  0  0
   -5.3208    1.2835    1.3229 N   0  3  0  0  0  0  0  0  0  0  0  0
   -5.5298    2.1699    0.8965 H   0  0  0  0  0  0  0  0  0  0  0  0
   -6.3188    0.6505    1.9164 C   0  0  0  0  0  0  0  0  0  0  0  0
   -6.1580   -0.5040    2.5000 N   0  0  0  0  0  0  0  0  0  0  0  0
   -5.2459   -0.9252    2.4962 H   0  0  0  0  0  0  0  0  0  0  0  0
   -6.9260   -0.9708    2.9463 H   0  0  0  0  0  0  0  0  0  0  0  0
   -7.5123    1.1724    1.9363 N   0  0  0  0  0  0  0  0  0  0  0  0
   -7.6856    2.0611    1.4992 H   0  0  0  0  0  0  0  0  0  0  0  0
   -8.2667    0.6888    2.3876 H   0  0  0  0  0  0  0  0  0  0  0  0
   -0.9523    0.1012    2.4848 C   0  0  0  0  0  0  0  0  0  0  0  0
    0.2133   -0.1319    2.7814 O   0  0  0  0  0  0  0  0  0  0  0  0
   -1.8684    0.5006    3.3725 N   0  0  0  0  0  0  0  0  0  0  0  0
   -2.7946    0.7048    3.0343 H   0  0  0  0  0  0  0  0  0  0  0  0
   -1.5848    0.7472    4.7873 C   0  0  0  0  0  0  0  0  0  0  0  0
   -0.8819    1.5774    4.8838 H   0  0  0  0  0  0  0  0  0  0  0  0
   -2.5030    0.9948    5.3214 H   0  0  0  0  0  0  0  0  0  0  0  0
   -1.1344   -0.1399    5.2381 H   0  0  0  0  0  0  0  0  0  0  0  0
  5  6  2  0  0  0  0
  5  7  1  0  0  0  0
  2  3  1  0  0  0  0
  2  4  1  0  0  0  0
  2  5  1  0  0  0  0
  1  2  1  0  0  0  0
 29 30  2  0  0  0  0
 29 31  1  0  0  0  0
 26 27  1  0  0  0  0
 26 28  1  0  0  0  0
 23 24  1  0  0  0  0
 23 25  1  0  0  0  0
 22 23  1  0  0  0  0
 22 26  1  0  0  0  0
 20 21  1  0  0  0  0
 20 22  2  0  0  0  0
 17 18  1  0  0  0  0
 17 19  1  0  0  0  0
 17 20  1  0  0  0  0
 14 15  1  0  0  0  0
 14 16  1  0  0  0  0
 14 17  1  0  0  0  0
 11 12  1  0  0  0  0
 11 13  1  0  0  0  0
 11 14  1  0  0  0  0
  9 10  1  0  0  0  0
  9 11  1  0  0  0  0
  9 29  1  0  0  0  0
  7  8  1  0  0  0  0
  7  9  1  0  0  0  0
 33 34  1  0  0  0  0
 33 35  1  0  0  0  0
 33 36  1  0  0  0  0
 31 32  1  0  0  0  0
 31 33  1  0  0  0  0
M  CHG  1  20   1
M  END
$$$$
default_name
  -OEChem-02102213163D

 36 35  0     1  0  0  0  0  0999 V2000
   -4.2256   -3.6731    1.8584 H   0  0  0  0  0  0  0  0  0  0  0  0
   -4.2396   -2.6781    1.4144 C   0  0  0  0  0  0  0  0  0  0  0  0
   -4.9506   -2.0521    1.9514 H   0  0  0  0  0  0  0  0  0  0  0  0
   -4.5266   -2.7521    0.3674 H   0  0  0  0  0  0  0  0  0  0  0  0
   -2.8576   -2.0761    1.5184 C   0  0  0  0  0  0  0  0  0  0  0  0
   -1.9456   -2.7051    2.0404 O   0  0  0  0  0  0  0  0  0  0  0  0
   -2.6926   -0.8481    1.0174 N   0  0  0  0  0  0  0  0  0  0  0  0
   -3.4926   -0.3971    0.5954 H   0  0  0  0  0  0  0  0  0  0  0  0
   -1.4216   -0.1071    1.0434 C   0  0  1  0  0  0  0  0  0  0  0  0
   -0.6709   -0.6930    0.5106 H   0  0  0  0  0  0  0  0  0  0  0  0
   -1.6221    1.2315    0.3051 C   0  0  0  0  0  0  0  0  0  0  0  0
   -0.9460    1.9722    0.7370 H   0  0  0  0  0  0  0  0  0  0  0  0
   -1.3565    1.1024   -0.7464 H   0  0  0  0  0  0  0  0  0  0  0  0
   -3.0558    1.7734    0.4003 C   0  0  0  0  0  0  0  0  0  0  0  0
   -3.0327    2.8396    0.6295 H   0  0  0  0  0  0  0  0  0  0  0  0
   -3.5631    1.6206   -0.5528 H   0  0  0  0  0  0  0  0  0  0  0  0
   -3.8201    1.0372    1.5091 C   0  0  0  0  0  0  0  0  0  0  0  0
   -3.8152   -0.0320    1.2852 H   0  0  0  0  0  0  0  0  0  0  0  0
   -3.3017    1.2015    2.4566 H   0  0  0  0  0  0  0  0  0  0  0  0
   -5.2151    1.5108    1.6209 N   0  3  0  0  0  0  0  0  0  0  0  0
   -5.4855    2.2665    1.0149 H   0  0  0  0  0  0  0  0  0  0  0  0
   -6.1384    1.0358    2.4399 C   0  0  0  0  0  0  0  0  0  0  0  0
   -5.8948    0.0580    3.2668 N   0  0  0  0  0  0  0  0  0  0  0  0
   -4.9755   -0.3472    3.2794 H   0  0  0  0  0  0  0  0  0  0  0  0
   -6.6068   -0.2904    3.8820 H   0  0  0  0  0  0  0  0  0  0  0  0
   -7.3392    1.5412    2.4447 N   0  0  0  0  0  0  0  0  0  0  0  0
   -7.5750    2.2967    1.8245 H   0  0  0  0  0  0  0  0  0  0  0  0
   -8.0367    1.1778    3.0676 H   0  0  0  0  0  0  0  0  0  0  0  0
   -0.9523    0.1012    2.4848 C   0  0  0  0  0  0  0  0  0  0  0  0
    0.2133   -0.1319    2.7814 O   0  0  0  0  0  0  0  0  0  0  0  0
   -1.8684    0.5006    3.3725 N   0  0  0  0  0  0  0  0  0  0  0  0
   -2.7946    0.7048    3.0343 H   0  0  0  0  0  0  0  0  0  0  0  0
   -1.5848    0.7472    4.7873 C   0  0  0  0  0  0  0  0  0  0  0  0
   -0.8819    1.5774    4.8838 H   0  0  0  0  0  0  0  0  0  0  0  0
   -2.5030    0.9948    5.3214 H   0  0  0  0  0  0  0  0  0  0  0  0
   -1.1344   -0.1399    5.2381 H   0  0  0  0  0  0  0  0  0  0  0  0
  5  6  2  0  0  0  0
  5  7  1  0  0  0  0
  2  3  1  0  0  0  0
  2  4  1  0  0  0  0
  2  5  1  0  0  0  0
  1  2  1  0  0  0  0
 29 30  2  0  0  0  0
 29 31  1  0  0  0  0
 26 27  1  0  0  0  0
 26 28  1  0  0  0  0
 23 24  1  0  0  0  0
 23 25  1  0  0  0  0
 22 23  1  0  0  0  0
 22 26  1  0  0  0  0
 20 21  1  0  0  0  0
 20 22  2  0  0  0  0
 17 18  1  0  0  0  0
 17 19  1  0  0  0  0
 17 20  1  0  0  0  0
 14 15  1  0  0  0  0
 14 16  1  0  0  0  0
 14 17  1  0  0  0  0
 11 12  1  0  0  0  0
 11 13  1  0  0  0  0
 11 14  1  0  0  0  0
  9 10  1  0  0  0  0
  9 11  1  0  0  0  0
  9 29  1  0  0  0  0
  7  8  1  0  0  0  0
  7  9  1  0  0  0  0
 33 34  1  0  0  0  0
 33 35  1  0  0  0  0
 33 36  1  0  0  0  0
 31 32  1  0  0  0  0
 31 33  1  0  0  0  0
M  CHG  1  20   1
M  END
$$$$
default_name
  -OEChem-02102213163D

 36 35  0     1  0  0  0  0  0999 V2000
   -4.2256   -3.6731    1.8584 H   0  0  0  0  0  0  0  0  0  0  0  0
   -4.2396   -2.6781    1.4144 C   0  0  0  0  0  0  0  0  0  0  0  0
   -4.9506   -2.0521    1.9514 H   0  0  0  0  0  0  0  0  0  0  0  0
   -4.5266   -2.7521    0.3674 H   0  0  0  0  0  0  0  0  0  0  0  0
   -2.8576   -2.0761    1.5184 C   0  0  0  0  0  0  0  0  0  0  0  0
   -1.9456   -2.7051    2.0404 O   0  0  0  0  0  0  0  0  0  0  0  0
   -2.6926   -0.8481    1.0174 N   0  0  0  0  0  0  0  0  0  0  0  0
   -3.4926   -0.3971    0.5954 H   0  0  0  0  0  0  0  0  0  0  0  0
   -1.4216   -0.1071    1.0434 C   0  0  1  0  0  0  0  0  0  0  0  0
   -0.6709   -0.6930    0.5106 H   0  0  0  0  0  0  0  0  0  0  0  0
   -1.6221    1.2315    0.3051 C   0  0  0  0  0  0  0  0  0  0  0  0
   -0.9460    1.9722    0.7370 H   0  0  0  0  0  0  0  0  0  0  0  0
   -1.3565    1.1024   -0.7464 H   0  0  0  0  0  0  0  0  0  0  0  0
   -3.0558    1.7734    0.4003 C   0  0  0  0  0  0  0  0  0  0  0  0
   -3.0414    2.8635    0.3627 H   0  0  0  0  0  0  0  0  0  0  0  0
   -3.6419    1.3917   -0.4363 H   0  0  0  0  0  0  0  0  0  0  0  0
   -3.6976    1.3243    1.7201 C   0  0  0  0  0  0  0  0  0  0  0  0
   -3.6835    0.2327    1.7609 H   0  0  0  0  0  0  0  0  0  0  0  0
   -3.1013    1.7158    2.5476 H   0  0  0  0  0  0  0  0  0  0  0  0
   -5.0894    1.8041    1.8441 N   0  3  0  0  0  0  0  0  0  0  0  0
   -5.4334    2.3891    1.1020 H   0  0  0  0  0  0  0  0  0  0  0  0
   -5.9226    1.5374    2.8359 C   0  0  0  0  0  0  0  0  0  0  0  0
   -5.5795    0.7903    3.8476 N   0  0  0  0  0  0  0  0  0  0  0  0
   -4.6520    0.4047    3.8716 H   0  0  0  0  0  0  0  0  0  0  0  0
   -6.2239    0.5980    4.5923 H   0  0  0  0  0  0  0  0  0  0  0  0
   -7.1315    2.0231    2.8309 N   0  0  0  0  0  0  0  0  0  0  0  0
   -7.4422    2.6045    2.0717 H   0  0  0  0  0  0  0  0  0  0  0  0
   -7.7604    1.8181    3.5852 H   0  0  0  0  0  0  0  0  0  0  0  0
   -0.9523    0.1012    2.4848 C   0  0  0  0  0  0  0  0  0  0  0  0
    0.2133   -0.1319    2.7814 O   0  0  0  0  0  0  0  0  0  0  0  0
   -1.8684    0.5006    3.3725 N   0  0  0  0  0  0  0  0  0  0  0  0
   -2.7946    0.7048    3.0343 H   0  0  0  0  0  0  0  0  0  0  0  0
   -1.5848    0.7472    4.7873 C   0  0  0  0  0  0  0  0  0  0  0  0
   -0.8819    1.5774    4.8838 H   0  0  0  0  0  0  0  0  0  0  0  0
   -2.5030    0.9948    5.3214 H   0  0  0  0  0  0  0  0  0  0  0  0
   -1.1344   -0.1399    5.2381 H   0  0  0  0  0  0  0  0  0  0  0  0
  5  6  2  0  0  0  0
  5  7  1  0  0  0  0
  2  3  1  0  0  0  0
  2  4  1  0  0  0  0
  2  5  1  0  0  0  0
  1  2  1  0  0  0  0
 29 30  2  0  0  0  0
 29 31  1  0  0  0  0
 26 27  1  0  0  0  0
 26 28  1  0  0  0  0
 23 24  1  0  0  0  0
 23 25  1  0  0  0  0
 22 23  1  0  0  0  0
 22 26  1  0  0  0  0
 20 21  1  0  0  0  0
 20 22  2  0  0  0  0
 17 18  1  0  0  0  0
 17 19  1  0  0  0  0
 17 20  1  0  0  0  0
 14 15  1  0  0  0  0
 14 16  1  0  0  0  0
 14 17  1  0  0  0  0
 11 12  1  0  0  0  0
 11 13  1  0  0  0  0
 11 14  1  0  0  0  0
  9 10  1  0  0  0  0
  9 11  1  0  0  0  0
  9 29  1  0  0  0  0
  7  8  1  0  0  0  0
  7  9  1  0  0  0  0
 33 34  1  0  0  0  0
 33 35  1  0  0  0  0
 33 36  1  0  0  0  0
 31 32  1  0  0  0  0
 31 33  1  0  0  0  0
M  CHG  1  20   1
M  END
$$$$
default_name
  -OEChem-02102213163D

 36 35  0     1  0  0  0  0  0999 V2000
   -4.2256   -3.6731    1.8584 H   0  0  0  0  0  0  0  0  0  0  0  0
   -4.2396   -2.6781    1.4144 C   0  0  0  0  0  0  0  0  0  0  0  0
   -4.9506   -2.0521    1.9514 H   0  0  0  0  0  0  0  0  0  0  0  0
   -4.5266   -2.7521    0.3674 H   0  0  0  0  0  0  0  0  0  0  0  0
   -2.8576   -2.0761    1.5184 C   0  0  0  0  0  0  0  0  0  0  0  0
   -1.9456   -2.7051    2.0404 O   0  0  0  0  0  0  0  0  0  0  0  0
   -2.6926   -0.8481    1.0174 N   0  0  0  0  0  0  0  0  0  0  0  0
   -3.4926   -0.3971    0.5954 H   0  0  0  0  0  0  0  0  0  0  0  0
   -1.4216   -0.1071    1.0434 C   0  0  1  0  0  0  0  0  0  0  0  0
   -0.6709   -0.6930    0.5106 H   0  0  0  0  0  0  0  0  0  0  0  0
   -1.6221    1.2315    0.3051 C   0  0  0  0  0  0  0  0  0  0  0  0
   -0.9460    1.9722    0.7370 H   0  0  0  0  0  0  0  0  0  0  0  0
   -1.3565    1.1024   -0.7464 H   0  0  0  0  0  0  0  0  0  0  0  0
   -3.0558    1.7734    0.4003 C   0  0  0  0  0  0  0  0  0  0  0  0
   -3.0746    2.8220    0.1000 H   0  0  0  0  0  0  0  0  0  0  0  0
   -3.7037    1.1975   -0.2613 H   0  0  0  0  0  0  0  0  0  0  0  0
   -3.5646    1.6545    1.8433 C   0  0  0  0  0  0  0  0  0  0  0  0
   -3.5172    0.6055    2.1444 H   0  0  0  0  0  0  0  0  0  0  0  0
   -2.9076    2.2378    2.4928 H   0  0  0  0  0  0  0  0  0  0  0  0
   -4.9523    2.1434    1.9774 N   0  3  0  0  0  0  0  0  0  0  0  0
   -5.3771    2.5294    1.1516 H   0  0  0  0  0  0  0  0  0  0  0  0
   -5.6860    2.1210    3.0776 C   0  0  0  0  0  0  0  0  0  0  0  0
   -5.2336    1.6431    4.2028 N   0  0  0  0  0  0  0  0  0  0  0  0
   -4.2975    1.2793    4.2324 H   0  0  0  0  0  0  0  0  0  0  0  0
   -5.8034    1.6339    5.0287 H   0  0  0  0  0  0  0  0  0  0  0  0
   -6.9033    2.5852    3.0684 N   0  0  0  0  0  0  0  0  0  0  0  0
   -7.2963    2.9638    2.2240 H   0  0  0  0  0  0  0  0  0  0  0  0
   -7.4564    2.5662    3.9052 H   0  0  0  0  0  0  0  0  0  0  0  0
   -0.9523    0.1012    2.4848 C   0  0  0  0  0  0  0  0  0  0  0  0
    0.2133   -0.1319    2.7814 O   0  0  0  0  0  0  0  0  0  0  0  0
   -1.8684    0.5006    3.3725 N   0  0  0  0  0  0  0  0  0  0  0  0
   -2.7946    0.7048    3.0343 H   0  0  0  0  0  0  0  0  0  0  0  0
   -1.5848    0.7472    4.7873 C   0  0  0  0  0  0  0  0  0  0  0  0
   -0.8819    1.5774    4.8838 H   0  0  0  0  0  0  0  0  0  0  0  0
   -2.5030    0.9948    5.3214 H   0  0  0  0  0  0  0  0  0  0  0  0
   -1.1344   -0.1399    5.2381 H   0  0  0  0  0  0  0  0  0  0  0  0
  5  6  2  0  0  0  0
  5  7  1  0  0  0  0
  2  3  1  0  0  0  0
  2  4  1  0  0  0  0
  2  5  1  0  0  0  0
  1  2  1  0  0  0  0
 29 30  2  0  0  0  0
 29 31  1  0  0  0  0
 26 27  1  0  0  0  0
 26 28  1  0  0  0  0
 23 24  1  0  0  0  0
 23 25  1  0  0  0  0
 22 23  1  0  0  0  0
 22 26  1  0  0  0  0
 20 21  1  0  0  0  0
 20 22  2  0  0  0  0
 17 18  1  0  0  0  0
 17 19  1  0  0  0  0
 17 20  1  0  0  0  0
 14 15  1  0  0  0  0
 14 16  1  0  0  0  0
 14 17  1  0  0  0  0
 11 12  1  0  0  0  0
 11 13  1  0  0  0  0
 11 14  1  0  0  0  0
  9 10  1  0  0  0  0
  9 11  1  0  0  0  0
  9 29  1  0  0  0  0
  7  8  1  0  0  0  0
  7  9  1  0  0  0  0
 33 34  1  0  0  0  0
 33 35  1  0  0  0  0
 33 36  1  0  0  0  0
 31 32  1  0  0  0  0
 31 33  1  0  0  0  0
M  CHG  1  20   1
M  END
$$$$
default_name
  -OEChem-02102213163D

 36 35  0     1  0  0  0  0  0999 V2000
   -4.2256   -3.6731    1.8584 H   0  0  0  0  0  0  0  0  0  0  0  0
   -4.2396   -2.6781    1.4144 C   0  0  0  0  0  0  0  0  0  0  0  0
   -4.9506   -2.0521    1.9514 H   0  0  0  0  0  0  0  0  0  0  0  0
   -4.5266   -2.7521    0.3674 H   0  0  0  0  0  0  0  0  0  0  0  0
   -2.8576   -2.0761    1.5184 C   0  0  0  0  0  0  0  0  0  0  0  0
   -1.9456   -2.7051    2.0404 O   0  0  0  0  0  0  0  0  0  0  0  0
   -2.6926   -0.8481    1.0174 N   0  0  0  0  0  0  0  0  0  0  0  0
   -3.4926   -0.3971    0.5954 H   0  0  0  0  0  0  0  0  0  0  0  0
   -1.4216   -0.1071    1.0434 C   0  0  1  0  0  0  0  0  0  0  0  0
   -0.6709   -0.6930    0.5106 H   0  0  0  0  0  0  0  0  0  0  0  0
   -1.6221    1.2315    0.3051 C   0  0  0  0  0  0  0  0  0  0  0  0
   -0.9460    1.9722    0.7370 H   0  0  0  0  0  0  0  0  0  0  0  0
   -1.3565    1.1024   -0.7464 H   0  0  0  0  0  0  0  0  0  0  0  0
   -3.0558    1.7734    0.4003 C   0  0  0  0  0  0  0  0  0  0  0  0
   -3.1299    2.7178   -0.1406 H   0  0  0  0  0  0  0  0  0  0  0  0
   -3.7443    1.0512   -0.0397 H   0  0  0  0  0  0  0  0  0  0  0  0
   -3.4302    2.0054    1.8704 C   0  0  0  0  0  0  0  0  0  0  0  0
   -3.3275    1.0609    2.4096 H   0  0  0  0  0  0  0  0  0  0  0  0
   -2.7339    2.7318    2.2961 H   0  0  0  0  0  0  0  0  0  0  0  0
   -4.8132    2.5055    2.0117 N   0  3  0  0  0  0  0  0  0  0  0  0
   -5.3204    2.6778    1.1606 H   0  0  0  0  0  0  0  0  0  0  0  0
   -5.4447    2.7469    3.1483 C   0  0  0  0  0  0  0  0  0  0  0  0
   -4.8807    2.5582    4.3083 N   0  0  0  0  0  0  0  0  0  0  0  0
   -3.9362    2.2169    4.3372 H   0  0  0  0  0  0  0  0  0  0  0  0
   -5.3740    2.7467    5.1615 H   0  0  0  0  0  0  0  0  0  0  0  0
   -6.6702    3.1892    3.1413 N   0  0  0  0  0  0  0  0  0  0  0  0
   -7.1473    3.3500    2.2709 H   0  0  0  0  0  0  0  0  0  0  0  0
   -7.1456    3.3709    4.0058 H   0  0  0  0  0  0  0  0  0  0  0  0
   -0.9523    0.1012    2.4848 C   0  0  0  0  0  0  0  0  0  0  0  0
    0.2133   -0.1319    2.7814 O   0  0  0  0  0  0  0  0  0  0  0  0
   -1.8684    0.5006    3.3725 N   0  0  0  0  0  0  0  0  0  0  0  0
   -2.7946    0.7048    3.0343 H   0  0  0  0  0  0  0  0  0  0  0  0
   -1.5848    0.7472    4.7873 C   0  0  0  0  0  0  0  0  0  0  0  0
   -0.8819    1.5774    4.8838 H   0  0  0  0  0  0  0  0  0  0  0  0
   -2.5030    0.9948    5.3214 H   0  0  0  0  0  0  0  0  0  0  0  0
   -1.1344   -0.1399    5.2381 H   0  0  0  0  0  0  0  0  0  0  0  0
  5  6  2  0  0  0  0
  5  7  1  0  0  0  0
  2  3  1  0  0  0  0
  2  4  1  0  0  0  0
  2  5  1  0  0  0  0
  1  2  1  0  0  0  0
 29 30  2  0  0  0  0
 29 31  1  0  0  0  0
 26 27  1  0  0  0  0
 26 28  1  0  0  0  0
 23 24  1  0  0  0  0
 23 25  1  0  0  0  0
 22 23  1  0  0  0  0
 22 26  1  0  0  0  0
 20 21  1  0  0  0  0
 20 22  2  0  0  0  0
 17 18  1  0  0  0  0
 17 19  1  0  0  0  0
 17 20  1  0  0  0  0
 14 15  1  0  0  0  0
 14 16  1  0  0  0  0
 14 17  1  0  0  0  0
 11 12  1  0  0  0  0
 11 13  1  0  0  0  0
 11 14  1  0  0  0  0
  9 10  1  0  0  0  0
  9 11  1  0  0  0  0
  9 29  1  0  0  0  0
  7  8  1  0  0  0  0
  7  9  1  0  0  0  0
 33 34  1  0  0  0  0
 33 35  1  0  0  0  0
 33 36  1  0  0  0  0
 31 32  1  0  0  0  0
 31 33  1  0  0  0  0
M  CHG  1  20   1
M  END
$$$$
default_name
  -OEChem-02102213163D

 36 35  0     1  0  0  0  0  0999 V2000
   -4.2256   -3.6731    1.8584 H   0  0  0  0  0  0  0  0  0  0  0  0
   -4.2396   -2.6781    1.4144 C   0  0  0  0  0  0  0  0  0  0  0  0
   -4.9506   -2.0521    1.9514 H   0  0  0  0  0  0  0  0  0  0  0  0
   -4.5266   -2.7521    0.3674 H   0  0  0  0  0  0  0  0  0  0  0  0
   -2.8576   -2.0761    1.5184 C   0  0  0  0  0  0  0  0  0  0  0  0
   -1.9456   -2.7051    2.0404 O   0  0  0  0  0  0  0  0  0  0  0  0
   -2.6926   -0.8481    1.0174 N   0  0  0  0  0  0  0  0  0  0  0  0
   -3.4926   -0.3971    0.5954 H   0  0  0  0  0  0  0  0  0  0  0  0
   -1.4216   -0.1071    1.0434 C   0  0  1  0  0  0  0  0  0  0  0  0
   -0.6709   -0.6930    0.5106 H   0  0  0  0  0  0  0  0  0  0  0  0
   -1.6221    1.2315    0.3051 C   0  0  0  0  0  0  0  0  0  0  0  0
   -0.9460    1.9722    0.7370 H   0  0  0  0  0  0  0  0  0  0  0  0
   -1.3565    1.1024   -0.7464 H   0  0  0  0  0  0  0  0  0  0  0  0
   -3.0558    1.7734    0.4003 C   0  0  0  0  0  0  0  0  0  0  0  0
   -3.2036    2.5582   -0.3429 H   0  0  0  0  0  0  0  0  0  0  0  0
   -3.7609    0.9628    0.2134 H   0  0  0  0  0  0  0  0  0  0  0  0
   -3.3035    2.3530    1.7996 C   0  0  0  0  0  0  0  0  0  0  0  0
   -3.1274    1.5678    2.5384 H   0  0  0  0  0  0  0  0  0  0  0  0
   -2.5921    3.1643    1.9708 H   0  0  0  0  0  0  0  0  0  0  0  0
   -4.6815    2.8659    1.9446 N   0  3  0  0  0  0  0  0  0  0  0  0
   -5.2672    2.8242    1.1282 H   0  0  0  0  0  0  0  0  0  0  0  0
   -5.2153    3.3725    3.0434 C   0  0  0  0  0  0  0  0  0  0  0  0
   -4.5449    3.4733    4.1569 N   0  0  0  0  0  0  0  0  0  0  0  0
   -3.5927    3.1537    4.1789 H   0  0  0  0  0  0  0  0  0  0  0  0
   -4.9650    3.8606    4.9817 H   0  0  0  0  0  0  0  0  0  0  0  0
   -6.4480    3.7940    3.0444 N   0  0  0  0  0  0  0  0  0  0  0  0
   -7.0052    3.7367    2.2094 H   0  0  0  0  0  0  0  0  0  0  0  0
   -6.8491    4.1776    3.8802 H   0  0  0  0  0  0  0  0  0  0  0  0
   -0.9523    0.1012    2.4848 C   0  0  0  0  0  0  0  0  0  0  0  0
    0.2133   -0.1319    2.7814 O   0  0  0  0  0  0  0  0  0  0  0  0
   -1.8684    0.5006    3.3725 N   0  0  0  0  0  0  0  0  0  0  0  0
   -2.7946    0.7048    3.0343 H   0  0  0  0  0  0  0  0  0  0  0  0
   -1.5848    0.7472    4.7873 C   0  0  0  0  0  0  0  0  0  0  0  0
   -0.8819    1.5774    4.8838 H   0  0  0  0  0  0  0  0  0  0  0  0
   -2.5030    0.9948    5.3214 H   0  0  0  0  0  0  0  0  0  0  0  0
   -1.1344   -0.1399    5.2381 H   0  0  0  0  0  0  0  0  0  0  0  0
  5  6  2  0  0  0  0
  5  7  1  0  0  0  0
  2  3  1  0  0  0  0
  2  4  1  0  0  0  0
  2  5  1  0  0  0  0
  1  2  1  0  0  0  0
 29 30  2  0  0  0  0
 29 31  1  0  0  0  0
 26 27  1  0  0  0  0
 26 28  1  0  0  0  0
 23 24  1  0  0  0  0
 23 25  1  0  0  0  0
 22 23  1  0  0  0  0
 22 26  1  0  0  0  0
 20 21  1  0  0  0  0
 20 22  2  0  0  0  0
 17 18  1  0  0  0  0
 17 19  1  0  0  0  0
 17 20  1  0  0  0  0
 14 15  1  0  0  0  0
 14 16  1  0  0  0  0
 14 17  1  0  0  0  0
 11 12  1  0  0  0  0
 11 13  1  0  0  0  0
 11 14  1  0  0  0  0
  9 10  1  0  0  0  0
  9 11  1  0  0  0  0
  9 29  1  0  0  0  0
  7  8  1  0  0  0  0
  7  9  1  0  0  0  0
 33 34  1  0  0  0  0
 33 35  1  0  0  0  0
 33 36  1  0  0  0  0
 31 32  1  0  0  0  0
 31 33  1  0  0  0  0
M  CHG  1  20   1
M  END
$$$$
default_name
  -OEChem-02102213163D

 36 35  0     1  0  0  0  0  0999 V2000
   -4.2256   -3.6731    1.8584 H   0  0  0  0  0  0  0  0  0  0  0  0
   -4.2396   -2.6781    1.4144 C   0  0  0  0  0  0  0  0  0  0  0  0
   -4.9506   -2.0521    1.9514 H   0  0  0  0  0  0  0  0  0  0  0  0
   -4.5266   -2.7521    0.3674 H   0  0  0  0  0  0  0  0  0  0  0  0
   -2.8576   -2.0761    1.5184 C   0  0  0  0  0  0  0  0  0  0  0  0
   -1.9456   -2.7051    2.0404 O   0  0  0  0  0  0  0  0  0  0  0  0
   -2.6926   -0.8481    1.0174 N   0  0  0  0  0  0  0  0  0  0  0  0
   -3.4926   -0.3971    0.5954 H   0  0  0  0  0  0  0  0  0  0  0  0
   -1.4216   -0.1071    1.0434 C   0  0  1  0  0  0  0  0  0  0  0  0
   -0.6709   -0.6930    0.5106 H   0  0  0  0  0  0  0  0  0  0  0  0
   -1.6221    1.2315    0.3051 C   0  0  0  0  0  0  0  0  0  0  0  0
   -0.9460    1.9722    0.7370 H   0  0  0  0  0  0  0  0  0  0  0  0
   -1.3565    1.1024   -0.7464 H   0  0  0  0  0  0  0  0  0  0  0  0
   -3.0558    1.7734    0.4003 C   0  0  0  0  0  0  0  0  0  0  0  0
   -3.2908    2.3539   -0.4929 H   0  0  0  0  0  0  0  0  0  0  0  0
   -3.7524    0.9383    0.4808 H   0  0  0  0  0  0  0  0  0  0  0  0
   -3.1932    2.6737    1.6356 C   0  0  0  0  0  0  0  0  0  0  0  0
   -2.9304    2.0919    2.5220 H   0  0  0  0  0  0  0  0  0  0  0  0
   -2.4917    3.5057    1.5392 H   0  0  0  0  0  0  0  0  0  0  0  0
   -4.5661    3.1998    1.7807 N   0  3  0  0  0  0  0  0  0  0  0  0
   -5.2211    2.9587    1.0566 H   0  0  0  0  0  0  0  0  0  0  0  0
   -5.0132    3.9551    2.7699 C   0  0  0  0  0  0  0  0  0  0  0  0
   -4.2491    4.3259    3.7588 N   0  0  0  0  0  0  0  0  0  0  0  0
   -3.2903    4.0258    3.7682 H   0  0  0  0  0  0  0  0  0  0  0  0
   -4.6041    4.8996    4.5015 H   0  0  0  0  0  0  0  0  0  0  0  0
   -6.2520    4.3583    2.7844 N   0  0  0  0  0  0  0  0  0  0  0  0
   -6.8798    4.0976    2.0435 H   0  0  0  0  0  0  0  0  0  0  0  0
   -6.5871    4.9311    3.5368 H   0  0  0  0  0  0  0  0  0  0  0  0
   -0.9523    0.1012    2.4848 C   0  0  0  0  0  0  0  0  0  0  0  0
    0.2133   -0.1319    2.7814 O   0  0  0  0  0  0  0  0  0  0  0  0
   -1.8684    0.5006    3.3725 N   0  0  0  0  0  0  0  0  0  0  0  0
   -2.7946    0.7048    3.0343 H   0  0  0  0  0  0  0  0  0  0  0  0
   -1.5848    0.7472    4.7873 C   0  0  0  0  0  0  0  0  0  0  0  0
   -0.8819    1.5774    4.8838 H   0  0  0  0  0  0  0  0  0  0  0  0
   -2.5030    0.9948    5.3214 H   0  0  0  0  0  0  0  0  0  0  0  0
   -1.1344   -0.1399    5.2381 H   0  0  0  0  0  0  0  0  0  0  0  0
  5  6  2  0  0  0  0
  5  7  1  0  0  0  0
  2  3  1  0  0  0  0
  2  4  1  0  0  0  0
  2  5  1  0  0  0  0
  1  2  1  0  0  0  0
 29 30  2  0  0  0  0
 29 31  1  0  0  0  0
 26 27  1  0  0  0  0
 26 28  1  0  0  0  0
 23 24  1  0  0  0  0
 23 25  1  0  0  0  0
 22 23  1  0  0  0  0
 22 26  1  0  0  0  0
 20 21  1  0  0  0  0
 20 22  2  0  0  0  0
 17 18  1  0  0  0  0
 17 19  1  0  0  0  0
 17 20  1  0  0  0  0
 14 15  1  0  0  0  0
 14 16  1  0  0  0  0
 14 17  1  0  0  0  0
 11 12  1  0  0  0  0
 11 13  1  0  0  0  0
 11 14  1  0  0  0  0
  9 10  1  0  0  0  0
  9 11  1  0  0  0  0
  9 29  1  0  0  0  0
  7  8  1  0  0  0  0
  7  9  1  0  0  0  0
 33 34  1  0  0  0  0
 33 35  1  0  0  0  0
 33 36  1  0  0  0  0
 31 32  1  0  0  0  0
 31 33  1  0  0  0  0
M  CHG  1  20   1
M  END
$$$$
default_name
  -OEChem-02102213163D

 36 35  0     1  0  0  0  0  0999 V2000
   -4.2256   -3.6731    1.8584 H   0  0  0  0  0  0  0  0  0  0  0  0
   -4.2396   -2.6781    1.4144 C   0  0  0  0  0  0  0  0  0  0  0  0
   -4.9506   -2.0521    1.9514 H   0  0  0  0  0  0  0  0  0  0  0  0
   -4.5266   -2.7521    0.3674 H   0  0  0  0  0  0  0  0  0  0  0  0
   -2.8576   -2.0761    1.5184 C   0  0  0  0  0  0  0  0  0  0  0  0
   -1.9456   -2.7051    2.0404 O   0  0  0  0  0  0  0  0  0  0  0  0
   -2.6926   -0.8481    1.0174 N   0  0  0  0  0  0  0  0  0  0  0  0
   -3.4926   -0.3971    0.5954 H   0  0  0  0  0  0  0  0  0  0  0  0
   -1.4216   -0.1071    1.0434 C   0  0  1  0  0  0  0  0  0  0  0  0
   -0.6709   -0.6930    0.5106 H   0  0  0  0  0  0  0  0  0  0  0  0
   -1.6221    1.2315    0.3051 C   0  0  0  0  0  0  0  0  0  0  0  0
   -0.9460    1.9722    0.7370 H   0  0  0  0  0  0  0  0  0  0  0  0
   -1.3565    1.1024   -0.7464 H   0  0  0  0  0  0  0  0  0  0  0  0
   -3.0558    1.7734    0.4003 C   0  0  0  0  0  0  0  0  0  0  0  0
   -3.3854    2.1190   -0.5805 H   0  0  0  0  0  0  0  0  0  0  0  0
   -3.7194    0.9794    0.7442 H   0  0  0  0  0  0  0  0  0  0  0  0
   -3.1068    2.9456    1.3896 C   0  0  0  0  0  0  0  0  0  0  0  0
   -2.7500    2.5973    2.3616 H   0  0  0  0  0  0  0  0  0  0  0  0
   -2.4396    3.7328    1.0306 H   0  0  0  0  0  0  0  0  0  0  0  0
   -4.4751    3.4845    1.5311 N   0  3  0  0  0  0  0  0  0  0  0  0
   -5.1853    3.0720    0.9508 H   0  0  0  0  0  0  0  0  0  0  0  0
   -4.8524    4.4549    2.3466 C   0  0  0  0  0  0  0  0  0  0  0  0
   -4.0133    5.0581    3.1412 N   0  0  0  0  0  0  0  0  0  0  0  0
   -3.0497    4.7738    3.1331 H   0  0  0  0  0  0  0  0  0  0  0  0
   -4.3161    5.7930    3.7537 H   0  0  0  0  0  0  0  0  0  0  0  0
   -6.0954    4.8437    2.3789 N   0  0  0  0  0  0  0  0  0  0  0  0
   -6.7796    4.4082    1.7846 H   0  0  0  0  0  0  0  0  0  0  0  0
   -6.3774    5.5802    2.9991 H   0  0  0  0  0  0  0  0  0  0  0  0
   -0.9523    0.1012    2.4848 C   0  0  0  0  0  0  0  0  0  0  0  0
    0.2133   -0.1319    2.7814 O   0  0  0  0  0  0  0  0  0  0  0  0
   -1.8684    0.5006    3.3725 N   0  0  0  0  0  0  0  0  0  0  0  0
   -2.7946    0.7048    3.0343 H   0  0  0  0  0  0  0  0  0  0  0  0
   -1.5848    0.7472    4.7873 C   0  0  0  0  0  0  0  0  0  0  0  0
   -0.8819    1.5774    4.8838 H   0  0  0  0  0  0  0  0  0  0  0  0
   -2.5030    0.9948    5.3214 H   0  0  0  0  0  0  0  0  0  0  0  0
   -1.1344   -0.1399    5.2381 H   0  0  0  0  0  0  0  0  0  0  0  0
  5  6  2  0  0  0  0
  5  7  1  0  0  0  0
  2  3  1  0  0  0  0
  2  4  1  0  0  0  0
  2  5  1  0  0  0  0
  1  2  1  0  0  0  0
 29 30  2  0  0  0  0
 29 31  1  0  0  0  0
 26 27  1  0  0  0  0
 26 28  1  0  0  0  0
 23 24  1  0  0  0  0
 23 25  1  0  0  0  0
 22 23  1  0  0  0  0
 22 26  1  0  0  0  0
 20 21  1  0  0  0  0
 20 22  2  0  0  0  0
 17 18  1  0  0  0  0
 17 19  1  0  0  0  0
 17 20  1  0  0  0  0
 14 15  1  0  0  0  0
 14 16  1  0  0  0  0
 14 17  1  0  0  0  0
 11 12  1  0  0  0  0
 11 13  1  0  0  0  0
 11 14  1  0  0  0  0
  9 10  1  0  0  0  0
  9 11  1  0  0  0  0
  9 29  1  0  0  0  0
  7  8  1  0  0  0  0
  7  9  1  0  0  0  0
 33 34  1  0  0  0  0
 33 35  1  0  0  0  0
 33 36  1  0  0  0  0
 31 32  1  0  0  0  0
 31 33  1  0  0  0  0
M  CHG  1  20   1
M  END
$$$$
default_name
  -OEChem-02102213163D

 36 35  0     1  0  0  0  0  0999 V2000
   -4.2256   -3.6731    1.8584 H   0  0  0  0  0  0  0  0  0  0  0  0
   -4.2396   -2.6781    1.4144 C   0  0  0  0  0  0  0  0  0  0  0  0
   -4.9506   -2.0521    1.9514 H   0  0  0  0  0  0  0  0  0  0  0  0
   -4.5266   -2.7521    0.3674 H   0  0  0  0  0  0  0  0  0  0  0  0
   -2.8576   -2.0761    1.5184 C   0  0  0  0  0  0  0  0  0  0  0  0
   -1.9456   -2.7051    2.0404 O   0  0  0  0  0  0  0  0  0  0  0  0
   -2.6926   -0.8481    1.0174 N   0  0  0  0  0  0  0  0  0  0  0  0
   -3.4926   -0.3971    0.5954 H   0  0  0  0  0  0  0  0  0  0  0  0
   -1.4216   -0.1071    1.0434 C   0  0  1  0  0  0  0  0  0  0  0  0
   -0.6709   -0.6930    0.5106 H   0  0  0  0  0  0  0  0  0  0  0  0
   -1.6221    1.2315    0.3051 C   0  0  0  0  0  0  0  0  0  0  0  0
   -0.9460    1.9722    0.7370 H   0  0  0  0  0  0  0  0  0  0  0  0
   -1.3565    1.1024   -0.7464 H   0  0  0  0  0  0  0  0  0  0  0  0
   -3.0558    1.7734    0.4003 C   0  0  0  0  0  0  0  0  0  0  0  0
   -3.4810    1.8694   -0.5998 H   0  0  0  0  0  0  0  0  0  0  0  0
   -3.6641    1.0833    0.9857 H   0  0  0  0  0  0  0  0  0  0  0  0
   -3.0501    3.1502    1.0784 C   0  0  0  0  0  0  0  0  0  0  0  0
   -2.5986    3.0496    2.0680 H   0  0  0  0  0  0  0  0  0  0  0  0
   -2.4394    3.8301    0.4797 H   0  0  0  0  0  0  0  0  0  0  0  0
   -4.4145    3.7008    1.2129 N   0  3  0  0  0  0  0  0  0  0  0  0
   -5.1622    3.1565    0.8180 H   0  0  0  0  0  0  0  0  0  0  0  0
   -4.7437    4.8381    1.8021 C   0  0  0  0  0  0  0  0  0  0  0  0
   -3.8538    5.6199    2.3462 N   0  0  0  0  0  0  0  0  0  0  0  0
   -2.8873    5.3468    2.3170 H   0  0  0  0  0  0  0  0  0  0  0  0
   -4.1205    6.4799    2.7891 H   0  0  0  0  0  0  0  0  0  0  0  0
   -5.9890    5.2171    1.8557 N   0  0  0  0  0  0  0  0  0  0  0  0
   -6.7114    4.6472    1.4503 H   0  0  0  0  0  0  0  0  0  0  0  0
   -6.2345    6.0806    2.3038 H   0  0  0  0  0  0  0  0  0  0  0  0
   -0.9523    0.1012    2.4848 C   0  0  0  0  0  0  0  0  0  0  0  0
    0.2133   -0.1319    2.7814 O   0  0  0  0  0  0  0  0  0  0  0  0
   -1.8684    0.5006    3.3725 N   0  0  0  0  0  0  0  0  0  0  0  0
   -2.7946    0.7048    3.0343 H   0  0  0  0  0  0  0  0  0  0  0  0
   -1.5848    0.7472    4.7873 C   0  0  0  0  0  0  0  0  0  0  0  0
   -0.8819    1.5774    4.8838 H   0  0  0  0  0  0  0  0  0  0  0  0
   -2.5030    0.9948    5.3214 H   0  0  0  0  0  0  0  0  0  0  0  0
   -1.1344   -0.1399    5.2381 H   0  0  0  0  0  0  0  0  0  0  0  0
  5  6  2  0  0  0  0
  5  7  1  0  0  0  0
  2  3  1  0  0  0  0
  2  4  1  0  0  0  0
  2  5  1  0  0  0  0
  1  2  1  0  0  0  0
 29 30  2  0  0  0  0
 29 31  1  0  0  0  0
 26 27  1  0  0  0  0
 26 28  1  0  0  0  0
 23 24  1  0  0  0  0
 23 25  1  0  0  0  0
 22 23  1  0  0  0  0
 22 26  1  0  0  0  0
 20 21  1  0  0  0  0
 20 22  2  0  0  0  0
 17 18  1  0  0  0  0
 17 19  1  0  0  0  0
 17 20  1  0  0  0  0
 14 15  1  0  0  0  0
 14 16  1  0  0  0  0
 14 17  1  0  0  0  0
 11 12  1  0  0  0  0
 11 13  1  0  0  0  0
 11 14  1  0  0  0  0
  9 10  1  0  0  0  0
  9 11  1  0  0  0  0
  9 29  1  0  0  0  0
  7  8  1  0  0  0  0
  7  9  1  0  0  0  0
 33 34  1  0  0  0  0
 33 35  1  0  0  0  0
 33 36  1  0  0  0  0
 31 32  1  0  0  0  0
 31 33  1  0  0  0  0
M  CHG  1  20   1
M  END
$$$$
default_name
  -OEChem-02102213163D

 36 35  0     1  0  0  0  0  0999 V2000
   -4.2256   -3.6731    1.8584 H   0  0  0  0  0  0  0  0  0  0  0  0
   -4.2396   -2.6781    1.4144 C   0  0  0  0  0  0  0  0  0  0  0  0
   -4.9506   -2.0521    1.9514 H   0  0  0  0  0  0  0  0  0  0  0  0
   -4.5266   -2.7521    0.3674 H   0  0  0  0  0  0  0  0  0  0  0  0
   -2.8576   -2.0761    1.5184 C   0  0  0  0  0  0  0  0  0  0  0  0
   -1.9456   -2.7051    2.0404 O   0  0  0  0  0  0  0  0  0  0  0  0
   -2.6926   -0.8481    1.0174 N   0  0  0  0  0  0  0  0  0  0  0  0
   -3.4926   -0.3971    0.5954 H   0  0  0  0  0  0  0  0  0  0  0  0
   -1.4216   -0.1071    1.0434 C   0  0  1  0  0  0  0  0  0  0  0  0
   -0.6709   -0.6930    0.5106 H   0  0  0  0  0  0  0  0  0  0  0  0
   -1.6221    1.2315    0.3051 C   0  0  0  0  0  0  0  0  0  0  0  0
   -0.9460    1.9722    0.7370 H   0  0  0  0  0  0  0  0  0  0  0  0
   -1.3565    1.1024   -0.7464 H   0  0  0  0  0  0  0  0  0  0  0  0
   -3.0558    1.7734    0.4003 C   0  0  0  0  0  0  0  0  0  0  0  0
   -3.5711    1.6221   -0.5493 H   0  0  0  0  0  0  0  0  0  0  0  0
   -3.5904    1.2429    1.1889 H   0  0  0  0  0  0  0  0  0  0  0  0
   -3.0271    3.2735    0.7231 C   0  0  0  0  0  0  0  0  0  0  0  0
   -2.4863    3.4179    1.6613 H   0  0  0  0  0  0  0  0  0  0  0  0
   -2.4910    3.7909   -0.0760 H   0  0  0  0  0  0  0  0  0  0  0  0
   -4.3884    3.8337    0.8478 N   0  3  0  0  0  0  0  0  0  0  0  0
   -5.1534    3.2064    0.6671 H   0  0  0  0  0  0  0  0  0  0  0  0
   -4.6946    5.0783    1.1738 C   0  0  0  0  0  0  0  0  0  0  0  0
   -3.7812    5.9730    1.4280 N   0  0  0  0  0  0  0  0  0  0  0  0
   -2.8142    5.7056    1.3754 H   0  0  0  0  0  0  0  0  0  0  0  0
   -4.0307    6.9134    1.6736 H   0  0  0  0  0  0  0  0  0  0  0  0
   -5.9400    5.4530    1.2504 N   0  0  0  0  0  0  0  0  0  0  0  0
   -6.6799    4.7984    1.0634 H   0  0  0  0  0  0  0  0  0  0  0  0
   -6.1679    6.3982    1.4981 H   0  0  0  0  0  0  0  0  0  0  0  0
   -0.9523    0.1012    2.4848 C   0  0  0  0  0  0  0  0  0  0  0  0
    0.2133   -0.1319    2.7814 O   0  0  0  0  0  0  0  0  0  0  0  0
   -1.8684    0.5006    3.3725 N   0  0  0  0  0  0  0  0  0  0  0  0
   -2.7946    0.7048    3.0343 H   0  0  0  0  0  0  0  0  0  0  0  0
   -1.5848    0.7472    4.7873 C   0  0  0  0  0  0  0  0  0  0  0  0
   -0.8819    1.5774    4.8838 H   0  0  0  0  0  0  0  0  0  0  0  0
   -2.5030    0.9948    5.3214 H   0  0  0  0  0  0  0  0  0  0  0  0
   -1.1344   -0.1399    5.2381 H   0  0  0  0  0  0  0  0  0  0  0  0
  5  6  2  0  0  0  0
  5  7  1  0  0  0  0
  2  3  1  0  0  0  0
  2  4  1  0  0  0  0
  2  5  1  0  0  0  0
  1  2  1  0  0  0  0
 29 30  2  0  0  0  0
 29 31  1  0  0  0  0
 26 27  1  0  0  0  0
 26 28  1  0  0  0  0
 23 24  1  0  0  0  0
 23 25  1  0  0  0  0
 22 23  1  0  0  0  0
 22 26  1  0  0  0  0
 20 21  1  0  0  0  0
 20 22  2  0  0  0  0
 17 18  1  0  0  0  0
 17 19  1  0  0  0  0
 17 20  1  0  0  0  0
 14 15  1  0  0  0  0
 14 16  1  0  0  0  0
 14 17  1  0  0  0  0
 11 12  1  0  0  0  0
 11 13  1  0  0  0  0
 11 14  1  0  0  0  0
  9 10  1  0  0  0  0
  9 11  1  0  0  0  0
  9 29  1  0  0  0  0
  7  8  1  0  0  0  0
  7  9  1  0  0  0  0
 33 34  1  0  0  0  0
 33 35  1  0  0  0  0
 33 36  1  0  0  0  0
 31 32  1  0  0  0  0
 31 33  1  0  0  0  0
M  CHG  1  20   1
M  END
$$$$
default_name
  -OEChem-02102213163D

 36 35  0     1  0  0  0  0  0999 V2000
   -4.2256   -3.6731    1.8584 H   0  0  0  0  0  0  0  0  0  0  0  0
   -4.2396   -2.6781    1.4144 C   0  0  0  0  0  0  0  0  0  0  0  0
   -4.9506   -2.0521    1.9514 H   0  0  0  0  0  0  0  0  0  0  0  0
   -4.5266   -2.7521    0.3674 H   0  0  0  0  0  0  0  0  0  0  0  0
   -2.8576   -2.0761    1.5184 C   0  0  0  0  0  0  0  0  0  0  0  0
   -1.9456   -2.7051    2.0404 O   0  0  0  0  0  0  0  0  0  0  0  0
   -2.6926   -0.8481    1.0174 N   0  0  0  0  0  0  0  0  0  0  0  0
   -3.4926   -0.3971    0.5954 H   0  0  0  0  0  0  0  0  0  0  0  0
   -1.4216   -0.1071    1.0434 C   0  0  1  0  0  0  0  0  0  0  0  0
   -0.6709   -0.6930    0.5106 H   0  0  0  0  0  0  0  0  0  0  0  0
   -1.6221    1.2315    0.3051 C   0  0  0  0  0  0  0  0  0  0  0  0
   -0.9460    1.9722    0.7370 H   0  0  0  0  0  0  0  0  0  0  0  0
   -1.3565    1.1024   -0.7464 H   0  0  0  0  0  0  0  0  0  0  0  0
   -3.0558    1.7734    0.4003 C   0  0  0  0  0  0  0  0  0  0  0  0
   -3.6496    1.3940   -0.4325 H   0  0  0  0  0  0  0  0  0  0  0  0
   -3.5031    1.4473    1.3398 H   0  0  0  0  0  0  0  0  0  0  0  0
   -3.0392    3.3071    0.3481 C   0  0  0  0  0  0  0  0  0  0  0  0
   -2.4210    3.6773    1.1692 H   0  0  0  0  0  0  0  0  0  0  0  0
   -2.5911    3.6180   -0.5985 H   0  0  0  0  0  0  0  0  0  0  0  0
   -4.3988    3.8743    0.4606 N   0  3  0  0  0  0  0  0  0  0  0  0
   -5.1594    3.2182    0.5086 H   0  0  0  0  0  0  0  0  0  0  0  0
   -4.7084    5.1593    0.5043 C   0  0  0  0  0  0  0  0  0  0  0  0
   -3.8007    6.0933    0.4491 N   0  0  0  0  0  0  0  0  0  0  0  0
   -2.8353    5.8258    0.3725 H   0  0  0  0  0  0  0  0  0  0  0  0
   -4.0527    7.0640    0.4831 H   0  0  0  0  0  0  0  0  0  0  0  0
   -5.9517    5.5355    0.6042 N   0  0  0  0  0  0  0  0  0  0  0  0
   -6.6873    4.8515    0.6503 H   0  0  0  0  0  0  0  0  0  0  0  0
   -6.1822    6.5114    0.6371 H   0  0  0  0  0  0  0  0  0  0  0  0
   -0.9523    0.1012    2.4848 C   0  0  0  0  0  0  0  0  0  0  0  0
    0.2133   -0.1319    2.7814 O   0  0  0  0  0  0  0  0  0  0  0  0
   -1.8684    0.5006    3.3725 N   0  0  0  0  0  0  0  0  0  0  0  0
   -2.7946    0.7048    3.0343 H   0  0  0  0  0  0  0  0  0  0  0  0
   -1.5848    0.7472    4.7873 C   0  0  0  0  0  0  0  0  0  0  0  0
   -0.8819    1.5774    4.8838 H   0  0  0  0  0  0  0  0  0  0  0  0
   -2.5030    0.9948    5.3214 H   0  0  0  0  0  0  0  0  0  0  0  0
   -1.1344   -0.1399    5.2381 H   0  0  0  0  0  0  0  0  0  0  0  0
  5  6  2  0  0  0  0
  5  7  1  0  0  0  0
  2  3  1  0  0  0  0
  2  4  1  0  0  0  0
  2  5  1  0  0  0  0
  1  2  1  0  0  0  0
 29 30  2  0  0  0  0
 29 31  1  0  0  0  0
 26 27  1  0  0  0  0
 26 28  1  0  0  0  0
 23 24  1  0  0  0  0
 23 25  1  0  0  0  0
 22 23  1  0  0  0  0
 22 26  1  0  0  0  0
 20 21  1  0  0  0  0
 20 22  2  0  0  0  0
 17 18  1  0  0  0  0
 17 19  1  0  0  0  0
 17 20  1  0  0  0  0
 14 15  1  0  0  0  0
 14 16  1  0  0  0  0
 14 17  1  0  0  0  0
 11 12  1  0  0  0  0
 11 13  1  0  0  0  0
 11 14  1  0  0  0  0
  9 10  1  0  0  0  0
  9 11  1  0  0  0  0
  9 29  1  0  0  0  0
  7  8  1  0  0  0  0
  7  9  1  0  0  0  0
 33 34  1  0  0  0  0
 33 35  1  0  0  0  0
 33 36  1  0  0  0  0
 31 32  1  0  0  0  0
 31 33  1  0  0  0  0
M  CHG  1  20   1
M  END
$$$$
default_name
  -OEChem-02102213163D

 36 35  0     1  0  0  0  0  0999 V2000
   -4.2256   -3.6731    1.8584 H   0  0  0  0  0  0  0  0  0  0  0  0
   -4.2396   -2.6781    1.4144 C   0  0  0  0  0  0  0  0  0  0  0  0
   -4.9506   -2.0521    1.9514 H   0  0  0  0  0  0  0  0  0  0  0  0
   -4.5266   -2.7521    0.3674 H   0  0  0  0  0  0  0  0  0  0  0  0
   -2.8576   -2.0761    1.5184 C   0  0  0  0  0  0  0  0  0  0  0  0
   -1.9456   -2.7051    2.0404 O   0  0  0  0  0  0  0  0  0  0  0  0
   -2.6926   -0.8481    1.0174 N   0  0  0  0  0  0  0  0  0  0  0  0
   -3.4926   -0.3971    0.5954 H   0  0  0  0  0  0  0  0  0  0  0  0
   -1.4216   -0.1071    1.0434 C   0  0  1  0  0  0  0  0  0  0  0  0
   -0.6709   -0.6930    0.5106 H   0  0  0  0  0  0  0  0  0  0  0  0
   -1.6221    1.2315    0.3051 C   0  0  0  0  0  0  0  0  0  0  0  0
   -0.9460    1.9722    0.7370 H   0  0  0  0  0  0  0  0  0  0  0  0
   -1.3565    1.1024   -0.7464 H   0  0  0  0  0  0  0  0  0  0  0  0
   -3.0558    1.7734    0.4003 C   0  0  0  0  0  0  0  0  0  0  0  0
   -3.7111    1.2006   -0.2575 H   0  0  0  0  0  0  0  0  0  0  0  0
   -3.4083    1.6826    1.4282 H   0  0  0  0  0  0  0  0  0  0  0  0
   -3.0858    3.2488   -0.0211 C   0  0  0  0  0  0  0  0  0  0  0  0
   -2.4069    3.8099    0.6252 H   0  0  0  0  0  0  0  0  0  0  0  0
   -2.7326    3.3231   -1.0524 H   0  0  0  0  0  0  0  0  0  0  0  0
   -4.4448    3.8198    0.0777 N   0  3  0  0  0  0  0  0  0  0  0  0
   -5.1799    3.1913    0.3531 H   0  0  0  0  0  0  0  0  0  0  0  0
   -4.7842    5.0756   -0.1608 C   0  0  0  0  0  0  0  0  0  0  0  0
   -3.9108    5.9727   -0.5237 N   0  0  0  0  0  0  0  0  0  0  0  0
   -2.9492    5.6992   -0.6233 H   0  0  0  0  0  0  0  0  0  0  0  0
   -4.1852    6.9215   -0.7012 H   0  0  0  0  0  0  0  0  0  0  0  0
   -6.0234    5.4588   -0.0388 N   0  0  0  0  0  0  0  0  0  0  0  0
   -6.7330    4.8028    0.2391 H   0  0  0  0  0  0  0  0  0  0  0  0
   -6.2765    6.4124   -0.2206 H   0  0  0  0  0  0  0  0  0  0  0  0
   -0.9523    0.1012    2.4848 C   0  0  0  0  0  0  0  0  0  0  0  0
    0.2133   -0.1319    2.7814 O   0  0  0  0  0  0  0  0  0  0  0  0
   -1.8684    0.5006    3.3725 N   0  0  0  0  0  0  0  0  0  0  0  0
   -2.7946    0.7048    3.0343 H   0  0  0  0  0  0  0  0  0  0  0  0
   -1.5848    0.7472    4.7873 C   0  0  0  0  0  0  0  0  0  0  0  0
   -0.8819    1.5774    4.8838 H   0  0  0  0  0  0  0  0  0  0  0  0
   -2.5030    0.9948    5.3214 H   0  0  0  0  0  0  0  0  0  0  0  0
   -1.1344   -0.1399    5.2381 H   0  0  0  0  0  0  0  0  0  0  0  0
  5  6  2  0  0  0  0
  5  7  1  0  0  0  0
  2  3  1  0  0  0  0
  2  4  1  0  0  0  0
  2  5  1  0  0  0  0
  1  2  1  0  0  0  0
 29 30  2  0  0  0  0
 29 31  1  0  0  0  0
 26 27  1  0  0  0  0
 26 28  1  0  0  0  0
 23 24  1  0  0  0  0
 23 25  1  0  0  0  0
 22 23  1  0  0  0  0
 22 26  1  0  0  0  0
 20 21  1  0  0  0  0
 20 22  2  0  0  0  0
 17 18  1  0  0  0  0
 17 19  1  0  0  0  0
 17 20  1  0  0  0  0
 14 15  1  0  0  0  0
 14 16  1  0  0  0  0
 14 17  1  0  0  0  0
 11 12  1  0  0  0  0
 11 13  1  0  0  0  0
 11 14  1  0  0  0  0
  9 10  1  0  0  0  0
  9 11  1  0  0  0  0
  9 29  1  0  0  0  0
  7  8  1  0  0  0  0
  7  9  1  0  0  0  0
 33 34  1  0  0  0  0
 33 35  1  0  0  0  0
 33 36  1  0  0  0  0
 31 32  1  0  0  0  0
 31 33  1  0  0  0  0
M  CHG  1  20   1
M  END
$$$$
default_name
  -OEChem-02102213163D

 36 35  0     1  0  0  0  0  0999 V2000
   -4.2256   -3.6731    1.8584 H   0  0  0  0  0  0  0  0  0  0  0  0
   -4.2396   -2.6781    1.4144 C   0  0  0  0  0  0  0  0  0  0  0  0
   -4.9506   -2.0521    1.9514 H   0  0  0  0  0  0  0  0  0  0  0  0
   -4.5266   -2.7521    0.3674 H   0  0  0  0  0  0  0  0  0  0  0  0
   -2.8576   -2.0761    1.5184 C   0  0  0  0  0  0  0  0  0  0  0  0
   -1.9456   -2.7051    2.0404 O   0  0  0  0  0  0  0  0  0  0  0  0
   -2.6926   -0.8481    1.0174 N   0  0  0  0  0  0  0  0  0  0  0  0
   -3.4926   -0.3971    0.5954 H   0  0  0  0  0  0  0  0  0  0  0  0
   -1.4216   -0.1071    1.0434 C   0  0  1  0  0  0  0  0  0  0  0  0
   -0.6709   -0.6930    0.5106 H   0  0  0  0  0  0  0  0  0  0  0  0
   -1.6221    1.2315    0.3051 C   0  0  0  0  0  0  0  0  0  0  0  0
   -0.7818    1.8880    0.5397 H   0  0  0  0  0  0  0  0  0  0  0  0
   -1.6194    1.0490   -0.7717 H   0  0  0  0  0  0  0  0  0  0  0  0
   -2.9211    1.9539    0.6910 C   0  0  0  0  0  0  0  0  0  0  0  0
   -3.7786    1.3220    0.4553 H   0  0  0  0  0  0  0  0  0  0  0  0
   -2.9124    2.1651    1.7607 H   0  0  0  0  0  0  0  0  0  0  0  0
   -3.0379    3.2709   -0.0884 C   0  0  0  0  0  0  0  0  0  0  0  0
   -2.1625    3.8857    0.1328 H   0  0  0  0  0  0  0  0  0  0  0  0
   -3.0478    3.0429   -1.1568 H   0  0  0  0  0  0  0  0  0  0  0  0
   -4.2643    4.0129    0.2695 N   0  3  0  0  0  0  0  0  0  0  0  0
   -4.8868    3.5685    0.9225 H   0  0  0  0  0  0  0  0  0  0  0  0
   -4.6191    5.2025   -0.1864 C   0  0  0  0  0  0  0  0  0  0  0  0
   -3.8863    5.8660   -1.0361 N   0  0  0  0  0  0  0  0  0  0  0  0
   -3.0238    5.4591   -1.3522 H   0  0  0  0  0  0  0  0  0  0  0  0
   -4.1703    6.7677   -1.3725 H   0  0  0  0  0  0  0  0  0  0  0  0
   -5.7316    5.7549    0.2066 N   0  0  0  0  0  0  0  0  0  0  0  0
   -6.3302    5.2817    0.8614 H   0  0  0  0  0  0  0  0  0  0  0  0
   -5.9970    6.6576   -0.1417 H   0  0  0  0  0  0  0  0  0  0  0  0
   -0.9523    0.1012    2.4848 C   0  0  0  0  0  0  0  0  0  0  0  0
    0.2133   -0.1319    2.7814 O   0  0  0  0  0  0  0  0  0  0  0  0
   -1.8684    0.5006    3.3725 N   0  0  0  0  0  0  0  0  0  0  0  0
   -2.7946    0.7048    3.0343 H   0  0  0  0  0  0  0  0  0  0  0  0
   -1.5848    0.7472    4.7873 C   0  0  0  0  0  0  0  0  0  0  0  0
   -0.8819    1.5774    4.8838 H   0  0  0  0  0  0  0  0  0  0  0  0
   -2.5030    0.9948    5.3214 H   0  0  0  0  0  0  0  0  0  0  0  0
   -1.1344   -0.1399    5.2381 H   0  0  0  0  0  0  0  0  0  0  0  0
  5  6  2  0  0  0  0
  5  7  1  0  0  0  0
  2  3  1  0  0  0  0
  2  4  1  0  0  0  0
  2  5  1  0  0  0  0
  1  2  1  0  0  0  0
 29 30  2  0  0  0  0
 29 31  1  0  0  0  0
 26 27  1  0  0  0  0
 26 28  1  0  0  0  0
 23 24  1  0  0  0  0
 23 25  1  0  0  0  0
 22 23  1  0  0  0  0
 22 26  1  0  0  0  0
 20 21  1  0  0  0  0
 20 22  2  0  0  0  0
 17 18  1  0  0  0  0
 17 19  1  0  0  0  0
 17 20  1  0  0  0  0
 14 15  1  0  0  0  0
 14 16  1  0  0  0  0
 14 17  1  0  0  0  0
 11 12  1  0  0  0  0
 11 13  1  0  0  0  0
 11 14  1  0  0  0  0
  9 10  1  0  0  0  0
  9 11  1  0  0  0  0
  9 29  1  0  0  0  0
  7  8  1  0  0  0  0
  7  9  1  0  0  0  0
 33 34  1  0  0  0  0
 33 35  1  0  0  0  0
 33 36  1  0  0  0  0
 31 32  1  0  0  0  0
 31 33  1  0  0  0  0
M  CHG  1  20   1
M  END
$$$$
default_name
  -OEChem-02102213163D

 36 35  0     1  0  0  0  0  0999 V2000
   -4.2256   -3.6731    1.8584 H   0  0  0  0  0  0  0  0  0  0  0  0
   -4.2396   -2.6781    1.4144 C   0  0  0  0  0  0  0  0  0  0  0  0
   -4.9506   -2.0521    1.9514 H   0  0  0  0  0  0  0  0  0  0  0  0
   -4.5266   -2.7521    0.3674 H   0  0  0  0  0  0  0  0  0  0  0  0
   -2.8576   -2.0761    1.5184 C   0  0  0  0  0  0  0  0  0  0  0  0
   -1.9456   -2.7051    2.0404 O   0  0  0  0  0  0  0  0  0  0  0  0
   -2.6926   -0.8481    1.0174 N   0  0  0  0  0  0  0  0  0  0  0  0
   -3.4926   -0.3971    0.5954 H   0  0  0  0  0  0  0  0  0  0  0  0
   -1.4216   -0.1071    1.0434 C   0  0  1  0  0  0  0  0  0  0  0  0
   -0.6709   -0.6930    0.5106 H   0  0  0  0  0  0  0  0  0  0  0  0
   -1.6221    1.2315    0.3051 C   0  0  0  0  0  0  0  0  0  0  0  0
   -0.7818    1.8880    0.5397 H   0  0  0  0  0  0  0  0  0  0  0  0
   -1.6194    1.0490   -0.7717 H   0  0  0  0  0  0  0  0  0  0  0  0
   -2.9211    1.9539    0.6910 C   0  0  0  0  0  0  0  0  0  0  0  0
   -3.7476    1.2421    0.7093 H   0  0  0  0  0  0  0  0  0  0  0  0
   -2.8065    2.3985    1.6801 H   0  0  0  0  0  0  0  0  0  0  0  0
   -3.2295    3.0561   -0.3315 C   0  0  0  0  0  0  0  0  0  0  0  0
   -2.3855    3.7491   -0.3624 H   0  0  0  0  0  0  0  0  0  0  0  0
   -3.3437    2.5954   -1.3155 H   0  0  0  0  0  0  0  0  0  0  0  0
   -4.4614    3.7951    0.0137 N   0  3  0  0  0  0  0  0  0  0  0  0
   -4.9681    3.4761    0.8217 H   0  0  0  0  0  0  0  0  0  0  0  0
   -4.9584    4.8333   -0.6376 C   0  0  0  0  0  0  0  0  0  0  0  0
   -4.3821    5.3275   -1.6972 N   0  0  0  0  0  0  0  0  0  0  0  0
   -3.5322    4.9052   -2.0270 H   0  0  0  0  0  0  0  0  0  0  0  0
   -4.7728    6.1156   -2.1801 H   0  0  0  0  0  0  0  0  0  0  0  0
   -6.0586    5.4014   -0.2323 N   0  0  0  0  0  0  0  0  0  0  0  0
   -6.5392    5.0559    0.5806 H   0  0  0  0  0  0  0  0  0  0  0  0
   -6.4322    6.1888   -0.7292 H   0  0  0  0  0  0  0  0  0  0  0  0
   -0.9523    0.1012    2.4848 C   0  0  0  0  0  0  0  0  0  0  0  0
    0.2133   -0.1319    2.7814 O   0  0  0  0  0  0  0  0  0  0  0  0
   -1.8684    0.5006    3.3725 N   0  0  0  0  0  0  0  0  0  0  0  0
   -2.7946    0.7048    3.0343 H   0  0  0  0  0  0  0  0  0  0  0  0
   -1.5848    0.7472    4.7873 C   0  0  0  0  0  0  0  0  0  0  0  0
   -0.8819    1.5774    4.8838 H   0  0  0  0  0  0  0  0  0  0  0  0
   -2.5030    0.9948    5.3214 H   0  0  0  0  0  0  0  0  0  0  0  0
   -1.1344   -0.1399    5.2381 H   0  0  0  0  0  0  0  0  0  0  0  0
  5  6  2  0  0  0  0
  5  7  1  0  0  0  0
  2  3  1  0  0  0  0
  2  4  1  0  0  0  0
  2  5  1  0  0  0  0
  1  2  1  0  0  0  0
 29 30  2  0  0  0  0
 29 31  1  0  0  0  0
 26 27  1  0  0  0  0
 26 28  1  0  0  0  0
 23 24  1  0  0  0  0
 23 25  1  0  0  0  0
 22 23  1  0  0  0  0
 22 26  1  0  0  0  0
 20 21  1  0  0  0  0
 20 22  2  0  0  0  0
 17 18  1  0  0  0  0
 17 19  1  0  0  0  0
 17 20  1  0  0  0  0
 14 15  1  0  0  0  0
 14 16  1  0  0  0  0
 14 17  1  0  0  0  0
 11 12  1  0  0  0  0
 11 13  1  0  0  0  0
 11 14  1  0  0  0  0
  9 10  1  0  0  0  0
  9 11  1  0  0  0  0
  9 29  1  0  0  0  0
  7  8  1  0  0  0  0
  7  9  1  0  0  0  0
 33 34  1  0  0  0  0
 33 35  1  0  0  0  0
 33 36  1  0  0  0  0
 31 32  1  0  0  0  0
 31 33  1  0  0  0  0
M  CHG  1  20   1
M  END
$$$$
default_name
  -OEChem-02102213163D

 36 35  0     1  0  0  0  0  0999 V2000
   -4.2256   -3.6731    1.8584 H   0  0  0  0  0  0  0  0  0  0  0  0
   -4.2396   -2.6781    1.4144 C   0  0  0  0  0  0  0  0  0  0  0  0
   -4.9506   -2.0521    1.9514 H   0  0  0  0  0  0  0  0  0  0  0  0
   -4.5266   -2.7521    0.3674 H   0  0  0  0  0  0  0  0  0  0  0  0
   -2.8576   -2.0761    1.5184 C   0  0  0  0  0  0  0  0  0  0  0  0
   -1.9456   -2.7051    2.0404 O   0  0  0  0  0  0  0  0  0  0  0  0
   -2.6926   -0.8481    1.0174 N   0  0  0  0  0  0  0  0  0  0  0  0
   -3.4926   -0.3971    0.5954 H   0  0  0  0  0  0  0  0  0  0  0  0
   -1.4216   -0.1071    1.0434 C   0  0  1  0  0  0  0  0  0  0  0  0
   -0.6709   -0.6930    0.5106 H   0  0  0  0  0  0  0  0  0  0  0  0
   -1.6221    1.2315    0.3051 C   0  0  0  0  0  0  0  0  0  0  0  0
   -0.7818    1.8880    0.5397 H   0  0  0  0  0  0  0  0  0  0  0  0
   -1.6194    1.0490   -0.7717 H   0  0  0  0  0  0  0  0  0  0  0  0
   -2.9211    1.9539    0.6910 C   0  0  0  0  0  0  0  0  0  0  0  0
   -3.6816    1.2225    0.9683 H   0  0  0  0  0  0  0  0  0  0  0  0
   -2.7293    2.6131    1.5382 H   0  0  0  0  0  0  0  0  0  0  0  0
   -3.4302    2.7830   -0.4959 C   0  0  0  0  0  0  0  0  0  0  0  0
   -2.6524    3.4941   -0.7837 H   0  0  0  0  0  0  0  0  0  0  0  0
   -3.6198    2.1093   -1.3349 H   0  0  0  0  0  0  0  0  0  0  0  0
   -4.6687    3.5160   -0.1617 N   0  3  0  0  0  0  0  0  0  0  0  0
   -5.0529    3.3595    0.7544 H   0  0  0  0  0  0  0  0  0  0  0  0
   -5.3171    4.3558   -0.9512 C   0  0  0  0  0  0  0  0  0  0  0  0
   -4.9066    4.6303   -2.1576 N   0  0  0  0  0  0  0  0  0  0  0  0
   -4.0695    4.1894   -2.4957 H   0  0  0  0  0  0  0  0  0  0  0  0
   -5.4107    5.2697   -2.7440 H   0  0  0  0  0  0  0  0  0  0  0  0
   -6.4048    4.9426   -0.5390 N   0  0  0  0  0  0  0  0  0  0  0  0
   -6.7605    4.7628    0.3841 H   0  0  0  0  0  0  0  0  0  0  0  0
   -6.8936    5.5791   -1.1411 H   0  0  0  0  0  0  0  0  0  0  0  0
   -0.9523    0.1012    2.4848 C   0  0  0  0  0  0  0  0  0  0  0  0
    0.2133   -0.1319    2.7814 O   0  0  0  0  0  0  0  0  0  0  0  0
   -1.8684    0.5006    3.3725 N   0  0  0  0  0  0  0  0  0  0  0  0
   -2.7946    0.7048    3.0343 H   0  0  0  0  0  0  0  0  0  0  0  0
   -1.5848    0.7472    4.7873 C   0  0  0  0  0  0  0  0  0  0  0  0
   -0.8819    1.5774    4.8838 H   0  0  0  0  0  0  0  0  0  0  0  0
   -2.5030    0.9948    5.3214 H   0  0  0  0  0  0  0  0  0  0  0  0
   -1.1344   -0.1399    5.2381 H   0  0  0  0  0  0  0  0  0  0  0  0
  5  6  2  0  0  0  0
  5  7  1  0  0  0  0
  2  3  1  0  0  0  0
  2  4  1  0  0  0  0
  2  5  1  0  0  0  0
  1  2  1  0  0  0  0
 29 30  2  0  0  0  0
 29 31  1  0  0  0  0
 26 27  1  0  0  0  0
 26 28  1  0  0  0  0
 23 24  1  0  0  0  0
 23 25  1  0  0  0  0
 22 23  1  0  0  0  0
 22 26  1  0  0  0  0
 20 21  1  0  0  0  0
 20 22  2  0  0  0  0
 17 18  1  0  0  0  0
 17 19  1  0  0  0  0
 17 20  1  0  0  0  0
 14 15  1  0  0  0  0
 14 16  1  0  0  0  0
 14 17  1  0  0  0  0
 11 12  1  0  0  0  0
 11 13  1  0  0  0  0
 11 14  1  0  0  0  0
  9 10  1  0  0  0  0
  9 11  1  0  0  0  0
  9 29  1  0  0  0  0
  7  8  1  0  0  0  0
  7  9  1  0  0  0  0
 33 34  1  0  0  0  0
 33 35  1  0  0  0  0
 33 36  1  0  0  0  0
 31 32  1  0  0  0  0
 31 33  1  0  0  0  0
M  CHG  1  20   1
M  END
$$$$
default_name
  -OEChem-02102213163D

 36 35  0     1  0  0  0  0  0999 V2000
   -4.2256   -3.6731    1.8584 H   0  0  0  0  0  0  0  0  0  0  0  0
   -4.2396   -2.6781    1.4144 C   0  0  0  0  0  0  0  0  0  0  0  0
   -4.9506   -2.0521    1.9514 H   0  0  0  0  0  0  0  0  0  0  0  0
   -4.5266   -2.7521    0.3674 H   0  0  0  0  0  0  0  0  0  0  0  0
   -2.8576   -2.0761    1.5184 C   0  0  0  0  0  0  0  0  0  0  0  0
   -1.9456   -2.7051    2.0404 O   0  0  0  0  0  0  0  0  0  0  0  0
   -2.6926   -0.8481    1.0174 N   0  0  0  0  0  0  0  0  0  0  0  0
   -3.4926   -0.3971    0.5954 H   0  0  0  0  0  0  0  0  0  0  0  0
   -1.4216   -0.1071    1.0434 C   0  0  1  0  0  0  0  0  0  0  0  0
   -0.6709   -0.6930    0.5106 H   0  0  0  0  0  0  0  0  0  0  0  0
   -1.6221    1.2315    0.3051 C   0  0  0  0  0  0  0  0  0  0  0  0
   -0.7818    1.8880    0.5397 H   0  0  0  0  0  0  0  0  0  0  0  0
   -1.6194    1.0490   -0.7717 H   0  0  0  0  0  0  0  0  0  0  0  0
   -2.9211    1.9539    0.6910 C   0  0  0  0  0  0  0  0  0  0  0  0
   -3.5850    1.2646    1.2147 H   0  0  0  0  0  0  0  0  0  0  0  0
   -2.6860    2.7944    1.3447 H   0  0  0  0  0  0  0  0  0  0  0  0
   -3.6264    2.4702   -0.5706 C   0  0  0  0  0  0  0  0  0  0  0  0
   -2.9449    3.1383   -1.1023 H   0  0  0  0  0  0  0  0  0  0  0  0
   -3.8572    1.6175   -1.2135 H   0  0  0  0  0  0  0  0  0  0  0  0
   -4.8722    3.1945   -0.2448 N   0  3  0  0  0  0  0  0  0  0  0  0
   -5.1355    3.2266    0.7253 H   0  0  0  0  0  0  0  0  0  0  0  0
   -5.6707    3.8026   -1.1059 C   0  0  0  0  0  0  0  0  0  0  0  0
   -5.4238    3.8219   -2.3857 N   0  0  0  0  0  0  0  0  0  0  0  0
   -4.5989    3.3604   -2.7263 H   0  0  0  0  0  0  0  0  0  0  0  0
   -6.0404    4.2877   -3.0258 H   0  0  0  0  0  0  0  0  0  0  0  0
   -6.7468    4.4097   -0.6927 N   0  0  0  0  0  0  0  0  0  0  0  0
   -6.9792    4.4222    0.2855 H   0  0  0  0  0  0  0  0  0  0  0  0
   -7.3498    4.8699   -1.3493 H   0  0  0  0  0  0  0  0  0  0  0  0
   -0.9523    0.1012    2.4848 C   0  0  0  0  0  0  0  0  0  0  0  0
    0.2133   -0.1319    2.7814 O   0  0  0  0  0  0  0  0  0  0  0  0
   -1.8684    0.5006    3.3725 N   0  0  0  0  0  0  0  0  0  0  0  0
   -2.7946    0.7048    3.0343 H   0  0  0  0  0  0  0  0  0  0  0  0
   -1.5848    0.7472    4.7873 C   0  0  0  0  0  0  0  0  0  0  0  0
   -0.8819    1.5774    4.8838 H   0  0  0  0  0  0  0  0  0  0  0  0
   -2.5030    0.9948    5.3214 H   0  0  0  0  0  0  0  0  0  0  0  0
   -1.1344   -0.1399    5.2381 H   0  0  0  0  0  0  0  0  0  0  0  0
  5  6  2  0  0  0  0
  5  7  1  0  0  0  0
  2  3  1  0  0  0  0
  2  4  1  0  0  0  0
  2  5  1  0  0  0  0
  1  2  1  0  0  0  0
 29 30  2  0  0  0  0
 29 31  1  0  0  0  0
 26 27  1  0  0  0  0
 26 28  1  0  0  0  0
 23 24  1  0  0  0  0
 23 25  1  0  0  0  0
 22 23  1  0  0  0  0
 22 26  1  0  0  0  0
 20 21  1  0  0  0  0
 20 22  2  0  0  0  0
 17 18  1  0  0  0  0
 17 19  1  0  0  0  0
 17 20  1  0  0  0  0
 14 15  1  0  0  0  0
 14 16  1  0  0  0  0
 14 17  1  0  0  0  0
 11 12  1  0  0  0  0
 11 13  1  0  0  0  0
 11 14  1  0  0  0  0
  9 10  1  0  0  0  0
  9 11  1  0  0  0  0
  9 29  1  0  0  0  0
  7  8  1  0  0  0  0
  7  9  1  0  0  0  0
 33 34  1  0  0  0  0
 33 35  1  0  0  0  0
 33 36  1  0  0  0  0
 31 32  1  0  0  0  0
 31 33  1  0  0  0  0
M  CHG  1  20   1
M  END
$$$$
default_name
  -OEChem-02102213163D

 36 35  0     1  0  0  0  0  0999 V2000
   -4.2256   -3.6731    1.8584 H   0  0  0  0  0  0  0  0  0  0  0  0
   -4.2396   -2.6781    1.4144 C   0  0  0  0  0  0  0  0  0  0  0  0
   -4.9506   -2.0521    1.9514 H   0  0  0  0  0  0  0  0  0  0  0  0
   -4.5266   -2.7521    0.3674 H   0  0  0  0  0  0  0  0  0  0  0  0
   -2.8576   -2.0761    1.5184 C   0  0  0  0  0  0  0  0  0  0  0  0
   -1.9456   -2.7051    2.0404 O   0  0  0  0  0  0  0  0  0  0  0  0
   -2.6926   -0.8481    1.0174 N   0  0  0  0  0  0  0  0  0  0  0  0
   -3.4926   -0.3971    0.5954 H   0  0  0  0  0  0  0  0  0  0  0  0
   -1.4216   -0.1071    1.0434 C   0  0  1  0  0  0  0  0  0  0  0  0
   -0.6709   -0.6930    0.5106 H   0  0  0  0  0  0  0  0  0  0  0  0
   -1.6221    1.2315    0.3051 C   0  0  0  0  0  0  0  0  0  0  0  0
   -0.7818    1.8880    0.5397 H   0  0  0  0  0  0  0  0  0  0  0  0
   -1.6194    1.0490   -0.7717 H   0  0  0  0  0  0  0  0  0  0  0  0
   -2.9211    1.9539    0.6910 C   0  0  0  0  0  0  0  0  0  0  0  0
   -3.4644    1.3655    1.4317 H   0  0  0  0  0  0  0  0  0  0  0  0
   -2.6795    2.9300    1.1129 H   0  0  0  0  0  0  0  0  0  0  0  0
   -3.8046    2.1389   -0.5503 C   0  0  0  0  0  0  0  0  0  0  0  0
   -3.2431    2.7058   -1.2965 H   0  0  0  0  0  0  0  0  0  0  0  0
   -4.0398    1.1536   -0.9596 H   0  0  0  0  0  0  0  0  0  0  0  0
   -5.0579    2.8525   -0.2298 N   0  3  0  0  0  0  0  0  0  0  0  0
   -5.2101    3.0865    0.7363 H   0  0  0  0  0  0  0  0  0  0  0  0
   -5.9951    3.2114   -1.0912 C   0  0  0  0  0  0  0  0  0  0  0  0
   -5.8987    2.9575   -2.3662 N   0  0  0  0  0  0  0  0  0  0  0  0
   -5.0845    2.4748   -2.7031 H   0  0  0  0  0  0  0  0  0  0  0  0
   -6.6192    3.2365   -3.0063 H   0  0  0  0  0  0  0  0  0  0  0  0
   -7.0611    3.8391   -0.6828 N   0  0  0  0  0  0  0  0  0  0  0  0
   -7.1803    4.0574    0.2914 H   0  0  0  0  0  0  0  0  0  0  0  0
   -7.7697    4.1097   -1.3396 H   0  0  0  0  0  0  0  0  0  0  0  0
   -0.9523    0.1012    2.4848 C   0  0  0  0  0  0  0  0  0  0  0  0
    0.2133   -0.1319    2.7814 O   0  0  0  0  0  0  0  0  0  0  0  0
   -1.8684    0.5006    3.3725 N   0  0  0  0  0  0  0  0  0  0  0  0
   -2.7946    0.7048    3.0343 H   0  0  0  0  0  0  0  0  0  0  0  0
   -1.5848    0.7472    4.7873 C   0  0  0  0  0  0  0  0  0  0  0  0
   -0.8819    1.5774    4.8838 H   0  0  0  0  0  0  0  0  0  0  0  0
   -2.5030    0.9948    5.3214 H   0  0  0  0  0  0  0  0  0  0  0  0
   -1.1344   -0.1399    5.2381 H   0  0  0  0  0  0  0  0  0  0  0  0
  5  6  2  0  0  0  0
  5  7  1  0  0  0  0
  2  3  1  0  0  0  0
  2  4  1  0  0  0  0
  2  5  1  0  0  0  0
  1  2  1  0  0  0  0
 29 30  2  0  0  0  0
 29 31  1  0  0  0  0
 26 27  1  0  0  0  0
 26 28  1  0  0  0  0
 23 24  1  0  0  0  0
 23 25  1  0  0  0  0
 22 23  1  0  0  0  0
 22 26  1  0  0  0  0
 20 21  1  0  0  0  0
 20 22  2  0  0  0  0
 17 18  1  0  0  0  0
 17 19  1  0  0  0  0
 17 20  1  0  0  0  0
 14 15  1  0  0  0  0
 14 16  1  0  0  0  0
 14 17  1  0  0  0  0
 11 12  1  0  0  0  0
 11 13  1  0  0  0  0
 11 14  1  0  0  0  0
  9 10  1  0  0  0  0
  9 11  1  0  0  0  0
  9 29  1  0  0  0  0
  7  8  1  0  0  0  0
  7  9  1  0  0  0  0
 33 34  1  0  0  0  0
 33 35  1  0  0  0  0
 33 36  1  0  0  0  0
 31 32  1  0  0  0  0
 31 33  1  0  0  0  0
M  CHG  1  20   1
M  END
$$$$
default_name
  -OEChem-02102213163D

 36 35  0     1  0  0  0  0  0999 V2000
   -4.2256   -3.6731    1.8584 H   0  0  0  0  0  0  0  0  0  0  0  0
   -4.2396   -2.6781    1.4144 C   0  0  0  0  0  0  0  0  0  0  0  0
   -4.9506   -2.0521    1.9514 H   0  0  0  0  0  0  0  0  0  0  0  0
   -4.5266   -2.7521    0.3674 H   0  0  0  0  0  0  0  0  0  0  0  0
   -2.8576   -2.0761    1.5184 C   0  0  0  0  0  0  0  0  0  0  0  0
   -1.9456   -2.7051    2.0404 O   0  0  0  0  0  0  0  0  0  0  0  0
   -2.6926   -0.8481    1.0174 N   0  0  0  0  0  0  0  0  0  0  0  0
   -3.4926   -0.3971    0.5954 H   0  0  0  0  0  0  0  0  0  0  0  0
   -1.4216   -0.1071    1.0434 C   0  0  1  0  0  0  0  0  0  0  0  0
   -0.6709   -0.6930    0.5106 H   0  0  0  0  0  0  0  0  0  0  0  0
   -1.6221    1.2315    0.3051 C   0  0  0  0  0  0  0  0  0  0  0  0
   -0.7818    1.8880    0.5397 H   0  0  0  0  0  0  0  0  0  0  0  0
   -1.6194    1.0490   -0.7717 H   0  0  0  0  0  0  0  0  0  0  0  0
   -2.9211    1.9539    0.6910 C   0  0  0  0  0  0  0  0  0  0  0  0
   -3.3281    1.5183    1.6046 H   0  0  0  0  0  0  0  0  0  0  0  0
   -2.7102    3.0106    0.8584 H   0  0  0  0  0  0  0  0  0  0  0  0
   -3.9527    1.8118   -0.4365 C   0  0  0  0  0  0  0  0  0  0  0  0
   -3.5267    2.2261   -1.3531 H   0  0  0  0  0  0  0  0  0  0  0  0
   -4.1551    0.7492   -0.5906 H   0  0  0  0  0  0  0  0  0  0  0  0
   -5.2133    2.5133   -0.1179 N   0  3  0  0  0  0  0  0  0  0  0  0
   -5.2718    2.9488    0.7867 H   0  0  0  0  0  0  0  0  0  0  0  0
   -6.2682    2.6224   -0.9080 C   0  0  0  0  0  0  0  0  0  0  0  0
   -6.2988    2.0960   -2.1002 N   0  0  0  0  0  0  0  0  0  0  0  0
   -5.4931    1.5929   -2.4276 H   0  0  0  0  0  0  0  0  0  0  0  0
   -7.1076    2.1877   -2.6869 H   0  0  0  0  0  0  0  0  0  0  0  0
   -7.3265    3.2697   -0.5101 N   0  0  0  0  0  0  0  0  0  0  0  0
   -7.3501    3.6933    0.4015 H   0  0  0  0  0  0  0  0  0  0  0  0
   -8.1246    3.3501   -1.1127 H   0  0  0  0  0  0  0  0  0  0  0  0
   -0.9523    0.1012    2.4848 C   0  0  0  0  0  0  0  0  0  0  0  0
    0.2133   -0.1319    2.7814 O   0  0  0  0  0  0  0  0  0  0  0  0
   -1.8684    0.5006    3.3725 N   0  0  0  0  0  0  0  0  0  0  0  0
   -2.7946    0.7048    3.0343 H   0  0  0  0  0  0  0  0  0  0  0  0
   -1.5848    0.7472    4.7873 C   0  0  0  0  0  0  0  0  0  0  0  0
   -0.8819    1.5774    4.8838 H   0  0  0  0  0  0  0  0  0  0  0  0
   -2.5030    0.9948    5.3214 H   0  0  0  0  0  0  0  0  0  0  0  0
   -1.1344   -0.1399    5.2381 H   0  0  0  0  0  0  0  0  0  0  0  0
  5  6  2  0  0  0  0
  5  7  1  0  0  0  0
  2  3  1  0  0  0  0
  2  4  1  0  0  0  0
  2  5  1  0  0  0  0
  1  2  1  0  0  0  0
 29 30  2  0  0  0  0
 29 31  1  0  0  0  0
 26 27  1  0  0  0  0
 26 28  1  0  0  0  0
 23 24  1  0  0  0  0
 23 25  1  0  0  0  0
 22 23  1  0  0  0  0
 22 26  1  0  0  0  0
 20 21  1  0  0  0  0
 20 22  2  0  0  0  0
 17 18  1  0  0  0  0
 17 19  1  0  0  0  0
 17 20  1  0  0  0  0
 14 15  1  0  0  0  0
 14 16  1  0  0  0  0
 14 17  1  0  0  0  0
 11 12  1  0  0  0  0
 11 13  1  0  0  0  0
 11 14  1  0  0  0  0
  9 10  1  0  0  0  0
  9 11  1  0  0  0  0
  9 29  1  0  0  0  0
  7  8  1  0  0  0  0
  7  9  1  0  0  0  0
 33 34  1  0  0  0  0
 33 35  1  0  0  0  0
 33 36  1  0  0  0  0
 31 32  1  0  0  0  0
 31 33  1  0  0  0  0
M  CHG  1  20   1
M  END
$$$$
default_name
  -OEChem-02102213163D

 36 35  0     1  0  0  0  0  0999 V2000
   -4.2256   -3.6731    1.8584 H   0  0  0  0  0  0  0  0  0  0  0  0
   -4.2396   -2.6781    1.4144 C   0  0  0  0  0  0  0  0  0  0  0  0
   -4.9506   -2.0521    1.9514 H   0  0  0  0  0  0  0  0  0  0  0  0
   -4.5266   -2.7521    0.3674 H   0  0  0  0  0  0  0  0  0  0  0  0
   -2.8576   -2.0761    1.5184 C   0  0  0  0  0  0  0  0  0  0  0  0
   -1.9456   -2.7051    2.0404 O   0  0  0  0  0  0  0  0  0  0  0  0
   -2.6926   -0.8481    1.0174 N   0  0  0  0  0  0  0  0  0  0  0  0
   -3.4926   -0.3971    0.5954 H   0  0  0  0  0  0  0  0  0  0  0  0
   -1.4216   -0.1071    1.0434 C   0  0  1  0  0  0  0  0  0  0  0  0
   -0.6709   -0.6930    0.5106 H   0  0  0  0  0  0  0  0  0  0  0  0
   -1.6221    1.2315    0.3051 C   0  0  0  0  0  0  0  0  0  0  0  0
   -0.7818    1.8880    0.5397 H   0  0  0  0  0  0  0  0  0  0  0  0
   -1.6194    1.0490   -0.7717 H   0  0  0  0  0  0  0  0  0  0  0  0
   -2.9211    1.9539    0.6910 C   0  0  0  0  0  0  0  0  0  0  0  0
   -3.1853    1.7126    1.7215 H   0  0  0  0  0  0  0  0  0  0  0  0
   -2.7761    3.0307    0.5988 H   0  0  0  0  0  0  0  0  0  0  0  0
   -4.0606    1.5111   -0.2369 C   0  0  0  0  0  0  0  0  0  0  0  0
   -3.7763    1.7319   -1.2683 H   0  0  0  0  0  0  0  0  0  0  0  0
   -4.1952    0.4319   -0.1317 H   0  0  0  0  0  0  0  0  0  0  0  0
   -5.3277    2.2002    0.0833 N   0  3  0  0  0  0  0  0  0  0  0  0
   -5.3162    2.8227    0.8730 H   0  0  0  0  0  0  0  0  0  0  0  0
   -6.4714    2.0759   -0.5689 C   0  0  0  0  0  0  0  0  0  0  0  0
   -6.5968    1.2960   -1.6059 N   0  0  0  0  0  0  0  0  0  0  0  0
   -5.7969    0.7747   -1.9187 H   0  0  0  0  0  0  0  0  0  0  0  0
   -7.4722    1.2129   -2.0894 H   0  0  0  0  0  0  0  0  0  0  0  0
   -7.5247    2.7402   -0.1863 N   0  0  0  0  0  0  0  0  0  0  0  0
   -7.4770    3.3546    0.6082 H   0  0  0  0  0  0  0  0  0  0  0  0
   -8.3905    2.6431   -0.6840 H   0  0  0  0  0  0  0  0  0  0  0  0
   -0.9523    0.1012    2.4848 C   0  0  0  0  0  0  0  0  0  0  0  0
    0.2133   -0.1319    2.7814 O   0  0  0  0  0  0  0  0  0  0  0  0
   -1.8684    0.5006    3.3725 N   0  0  0  0  0  0  0  0  0  0  0  0
   -2.7946    0.7048    3.0343 H   0  0  0  0  0  0  0  0  0  0  0  0
   -1.5848    0.7472    4.7873 C   0  0  0  0  0  0  0  0  0  0  0  0
   -0.8819    1.5774    4.8838 H   0  0  0  0  0  0  0  0  0  0  0  0
   -2.5030    0.9948    5.3214 H   0  0  0  0  0  0  0  0  0  0  0  0
   -1.1344   -0.1399    5.2381 H   0  0  0  0  0  0  0  0  0  0  0  0
  5  6  2  0  0  0  0
  5  7  1  0  0  0  0
  2  3  1  0  0  0  0
  2  4  1  0  0  0  0
  2  5  1  0  0  0  0
  1  2  1  0  0  0  0
 29 30  2  0  0  0  0
 29 31  1  0  0  0  0
 26 27  1  0  0  0  0
 26 28  1  0  0  0  0
 23 24  1  0  0  0  0
 23 25  1  0  0  0  0
 22 23  1  0  0  0  0
 22 26  1  0  0  0  0
 20 21  1  0  0  0  0
 20 22  2  0  0  0  0
 17 18  1  0  0  0  0
 17 19  1  0  0  0  0
 17 20  1  0  0  0  0
 14 15  1  0  0  0  0
 14 16  1  0  0  0  0
 14 17  1  0  0  0  0
 11 12  1  0  0  0  0
 11 13  1  0  0  0  0
 11 14  1  0  0  0  0
  9 10  1  0  0  0  0
  9 11  1  0  0  0  0
  9 29  1  0  0  0  0
  7  8  1  0  0  0  0
  7  9  1  0  0  0  0
 33 34  1  0  0  0  0
 33 35  1  0  0  0  0
 33 36  1  0  0  0  0
 31 32  1  0  0  0  0
 31 33  1  0  0  0  0
M  CHG  1  20   1
M  END
$$$$
default_name
  -OEChem-02102213163D

 36 35  0     1  0  0  0  0  0999 V2000
   -4.2256   -3.6731    1.8584 H   0  0  0  0  0  0  0  0  0  0  0  0
   -4.2396   -2.6781    1.4144 C   0  0  0  0  0  0  0  0  0  0  0  0
   -4.9506   -2.0521    1.9514 H   0  0  0  0  0  0  0  0  0  0  0  0
   -4.5266   -2.7521    0.3674 H   0  0  0  0  0  0  0  0  0  0  0  0
   -2.8576   -2.0761    1.5184 C   0  0  0  0  0  0  0  0  0  0  0  0
   -1.9456   -2.7051    2.0404 O   0  0  0  0  0  0  0  0  0  0  0  0
   -2.6926   -0.8481    1.0174 N   0  0  0  0  0  0  0  0  0  0  0  0
   -3.4926   -0.3971    0.5954 H   0  0  0  0  0  0  0  0  0  0  0  0
   -1.4216   -0.1071    1.0434 C   0  0  1  0  0  0  0  0  0  0  0  0
   -0.6709   -0.6930    0.5106 H   0  0  0  0  0  0  0  0  0  0  0  0
   -1.6221    1.2315    0.3051 C   0  0  0  0  0  0  0  0  0  0  0  0
   -0.7818    1.8880    0.5397 H   0  0  0  0  0  0  0  0  0  0  0  0
   -1.6194    1.0490   -0.7717 H   0  0  0  0  0  0  0  0  0  0  0  0
   -2.9211    1.9539    0.6910 C   0  0  0  0  0  0  0  0  0  0  0  0
   -3.0458    1.9352    1.7746 H   0  0  0  0  0  0  0  0  0  0  0  0
   -2.8727    2.9891    0.3516 H   0  0  0  0  0  0  0  0  0  0  0  0
   -4.1210    1.2573    0.0349 C   0  0  0  0  0  0  0  0  0  0  0  0
   -3.9749    1.2570   -1.0477 H   0  0  0  0  0  0  0  0  0  0  0  0
   -4.1574    0.2233    0.3860 H   0  0  0  0  0  0  0  0  0  0  0  0
   -5.3933    1.9343    0.3602 N   0  3  0  0  0  0  0  0  0  0  0  0
   -5.3404    2.7170    0.9894 H   0  0  0  0  0  0  0  0  0  0  0  0
   -6.5909    1.6090   -0.0970 C   0  0  0  0  0  0  0  0  0  0  0  0
   -6.7725    0.6122   -0.9171 N   0  0  0  0  0  0  0  0  0  0  0  0
   -5.9752    0.0761   -1.2110 H   0  0  0  0  0  0  0  0  0  0  0  0
   -7.6882    0.3784   -1.2543 H   0  0  0  0  0  0  0  0  0  0  0  0
   -7.6424    2.2868    0.2665 N   0  0  0  0  0  0  0  0  0  0  0  0
   -7.5524    3.0645    0.8975 H   0  0  0  0  0  0  0  0  0  0  0  0
   -8.5491    2.0367   -0.0827 H   0  0  0  0  0  0  0  0  0  0  0  0
   -0.9523    0.1012    2.4848 C   0  0  0  0  0  0  0  0  0  0  0  0
    0.2133   -0.1319    2.7814 O   0  0  0  0  0  0  0  0  0  0  0  0
   -1.8684    0.5006    3.3725 N   0  0  0  0  0  0  0  0  0  0  0  0
   -2.7946    0.7048    3.0343 H   0  0  0  0  0  0  0  0  0  0  0  0
   -1.5848    0.7472    4.7873 C   0  0  0  0  0  0  0  0  0  0  0  0
   -0.8819    1.5774    4.8838 H   0  0  0  0  0  0  0  0  0  0  0  0
   -2.5030    0.9948    5.3214 H   0  0  0  0  0  0  0  0  0  0  0  0
   -1.1344   -0.1399    5.2381 H   0  0  0  0  0  0  0  0  0  0  0  0
  5  6  2  0  0  0  0
  5  7  1  0  0  0  0
  2  3  1  0  0  0  0
  2  4  1  0  0  0  0
  2  5  1  0  0  0  0
  1  2  1  0  0  0  0
 29 30  2  0  0  0  0
 29 31  1  0  0  0  0
 26 27  1  0  0  0  0
 26 28  1  0  0  0  0
 23 24  1  0  0  0  0
 23 25  1  0  0  0  0
 22 23  1  0  0  0  0
 22 26  1  0  0  0  0
 20 21  1  0  0  0  0
 20 22  2  0  0  0  0
 17 18  1  0  0  0  0
 17 19  1  0  0  0  0
 17 20  1  0  0  0  0
 14 15  1  0  0  0  0
 14 16  1  0  0  0  0
 14 17  1  0  0  0  0
 11 12  1  0  0  0  0
 11 13  1  0  0  0  0
 11 14  1  0  0  0  0
  9 10  1  0  0  0  0
  9 11  1  0  0  0  0
  9 29  1  0  0  0  0
  7  8  1  0  0  0  0
  7  9  1  0  0  0  0
 33 34  1  0  0  0  0
 33 35  1  0  0  0  0
 33 36  1  0  0  0  0
 31 32  1  0  0  0  0
 31 33  1  0  0  0  0
M  CHG  1  20   1
M  END
$$$$
default_name
  -OEChem-02102213163D

 36 35  0     1  0  0  0  0  0999 V2000
   -4.2256   -3.6731    1.8584 H   0  0  0  0  0  0  0  0  0  0  0  0
   -4.2396   -2.6781    1.4144 C   0  0  0  0  0  0  0  0  0  0  0  0
   -4.9506   -2.0521    1.9514 H   0  0  0  0  0  0  0  0  0  0  0  0
   -4.5266   -2.7521    0.3674 H   0  0  0  0  0  0  0  0  0  0  0  0
   -2.8576   -2.0761    1.5184 C   0  0  0  0  0  0  0  0  0  0  0  0
   -1.9456   -2.7051    2.0404 O   0  0  0  0  0  0  0  0  0  0  0  0
   -2.6926   -0.8481    1.0174 N   0  0  0  0  0  0  0  0  0  0  0  0
   -3.4926   -0.3971    0.5954 H   0  0  0  0  0  0  0  0  0  0  0  0
   -1.4216   -0.1071    1.0434 C   0  0  1  0  0  0  0  0  0  0  0  0
   -0.6709   -0.6930    0.5106 H   0  0  0  0  0  0  0  0  0  0  0  0
   -1.6221    1.2315    0.3051 C   0  0  0  0  0  0  0  0  0  0  0  0
   -0.7818    1.8880    0.5397 H   0  0  0  0  0  0  0  0  0  0  0  0
   -1.6194    1.0490   -0.7717 H   0  0  0  0  0  0  0  0  0  0  0  0
   -2.9211    1.9539    0.6910 C   0  0  0  0  0  0  0  0  0  0  0  0
   -2.9190    2.1709    1.7601 H   0  0  0  0  0  0  0  0  0  0  0  0
   -2.9934    2.8884    0.1337 H   0  0  0  0  0  0  0  0  0  0  0  0
   -4.1298    1.0677    0.3603 C   0  0  0  0  0  0  0  0  0  0  0  0
   -4.1090    0.8335   -0.7065 H   0  0  0  0  0  0  0  0  0  0  0  0
   -4.0444    0.1376    0.9272 H   0  0  0  0  0  0  0  0  0  0  0  0
   -5.4056    1.7338    0.6939 N   0  3  0  0  0  0  0  0  0  0  0  0
   -5.3428    2.6388    1.1280 H   0  0  0  0  0  0  0  0  0  0  0  0
   -6.6184    1.2536    0.4757 C   0  0  0  0  0  0  0  0  0  0  0  0
   -6.8139    0.0910   -0.0806 N   0  0  0  0  0  0  0  0  0  0  0  0
   -6.0159   -0.4554   -0.3528 H   0  0  0  0  0  0  0  0  0  0  0  0
   -7.7409   -0.2589   -0.2387 H   0  0  0  0  0  0  0  0  0  0  0  0
   -7.6714    1.9403    0.8175 N   0  0  0  0  0  0  0  0  0  0  0  0
   -7.5712    2.8427    1.2496 H   0  0  0  0  0  0  0  0  0  0  0  0
   -8.5896    1.5724    0.6502 H   0  0  0  0  0  0  0  0  0  0  0  0
   -0.9523    0.1012    2.4848 C   0  0  0  0  0  0  0  0  0  0  0  0
    0.2133   -0.1319    2.7814 O   0  0  0  0  0  0  0  0  0  0  0  0
   -1.8684    0.5006    3.3725 N   0  0  0  0  0  0  0  0  0  0  0  0
   -2.7946    0.7048    3.0343 H   0  0  0  0  0  0  0  0  0  0  0  0
   -1.5848    0.7472    4.7873 C   0  0  0  0  0  0  0  0  0  0  0  0
   -0.8819    1.5774    4.8838 H   0  0  0  0  0  0  0  0  0  0  0  0
   -2.5030    0.9948    5.3214 H   0  0  0  0  0  0  0  0  0  0  0  0
   -1.1344   -0.1399    5.2381 H   0  0  0  0  0  0  0  0  0  0  0  0
  5  6  2  0  0  0  0
  5  7  1  0  0  0  0
  2  3  1  0  0  0  0
  2  4  1  0  0  0  0
  2  5  1  0  0  0  0
  1  2  1  0  0  0  0
 29 30  2  0  0  0  0
 29 31  1  0  0  0  0
 26 27  1  0  0  0  0
 26 28  1  0  0  0  0
 23 24  1  0  0  0  0
 23 25  1  0  0  0  0
 22 23  1  0  0  0  0
 22 26  1  0  0  0  0
 20 21  1  0  0  0  0
 20 22  2  0  0  0  0
 17 18  1  0  0  0  0
 17 19  1  0  0  0  0
 17 20  1  0  0  0  0
 14 15  1  0  0  0  0
 14 16  1  0  0  0  0
 14 17  1  0  0  0  0
 11 12  1  0  0  0  0
 11 13  1  0  0  0  0
 11 14  1  0  0  0  0
  9 10  1  0  0  0  0
  9 11  1  0  0  0  0
  9 29  1  0  0  0  0
  7  8  1  0  0  0  0
  7  9  1  0  0  0  0
 33 34  1  0  0  0  0
 33 35  1  0  0  0  0
 33 36  1  0  0  0  0
 31 32  1  0  0  0  0
 31 33  1  0  0  0  0
M  CHG  1  20   1
M  END
$$$$
default_name
  -OEChem-02102213163D

 36 35  0     1  0  0  0  0  0999 V2000
   -4.2256   -3.6731    1.8584 H   0  0  0  0  0  0  0  0  0  0  0  0
   -4.2396   -2.6781    1.4144 C   0  0  0  0  0  0  0  0  0  0  0  0
   -4.9506   -2.0521    1.9514 H   0  0  0  0  0  0  0  0  0  0  0  0
   -4.5266   -2.7521    0.3674 H   0  0  0  0  0  0  0  0  0  0  0  0
   -2.8576   -2.0761    1.5184 C   0  0  0  0  0  0  0  0  0  0  0  0
   -1.9456   -2.7051    2.0404 O   0  0  0  0  0  0  0  0  0  0  0  0
   -2.6926   -0.8481    1.0174 N   0  0  0  0  0  0  0  0  0  0  0  0
   -3.4926   -0.3971    0.5954 H   0  0  0  0  0  0  0  0  0  0  0  0
   -1.4216   -0.1071    1.0434 C   0  0  1  0  0  0  0  0  0  0  0  0
   -0.6709   -0.6930    0.5106 H   0  0  0  0  0  0  0  0  0  0  0  0
   -1.6221    1.2315    0.3051 C   0  0  0  0  0  0  0  0  0  0  0  0
   -0.7818    1.8880    0.5397 H   0  0  0  0  0  0  0  0  0  0  0  0
   -1.6194    1.0490   -0.7717 H   0  0  0  0  0  0  0  0  0  0  0  0
   -2.9211    1.9539    0.6910 C   0  0  0  0  0  0  0  0  0  0  0  0
   -2.8137    2.4036    1.6790 H   0  0  0  0  0  0  0  0  0  0  0  0
   -3.1299    2.7356   -0.0400 H   0  0  0  0  0  0  0  0  0  0  0  0
   -4.0863    0.9553    0.7173 C   0  0  0  0  0  0  0  0  0  0  0  0
   -4.1695    0.4905   -0.2679 H   0  0  0  0  0  0  0  0  0  0  0  0
   -3.8637    0.1807    1.4549 H   0  0  0  0  0  0  0  0  0  0  0  0
   -5.3639    1.6124    1.0616 N   0  3  0  0  0  0  0  0  0  0  0  0
   -5.3231    2.5934    1.2792 H   0  0  0  0  0  0  0  0  0  0  0  0
   -6.5522    1.0339    1.1100 C   0  0  0  0  0  0  0  0  0  0  0  0
   -6.7181   -0.2320    0.8465 N   0  0  0  0  0  0  0  0  0  0  0  0
   -5.9161   -0.7835    0.5975 H   0  0  0  0  0  0  0  0  0  0  0  0
   -7.6268   -0.6556    0.8883 H   0  0  0  0  0  0  0  0  0  0  0  0
   -7.6098    1.7244    1.4292 N   0  0  0  0  0  0  0  0  0  0  0  0
   -7.5320    2.7044    1.6405 H   0  0  0  0  0  0  0  0  0  0  0  0
   -8.5094    1.2816    1.4646 H   0  0  0  0  0  0  0  0  0  0  0  0
   -0.9523    0.1012    2.4848 C   0  0  0  0  0  0  0  0  0  0  0  0
    0.2133   -0.1319    2.7814 O   0  0  0  0  0  0  0  0  0  0  0  0
   -1.8684    0.5006    3.3725 N   0  0  0  0  0  0  0  0  0  0  0  0
   -2.7946    0.7048    3.0343 H   0  0  0  0  0  0  0  0  0  0  0  0
   -1.5848    0.7472    4.7873 C   0  0  0  0  0  0  0  0  0  0  0  0
   -0.8819    1.5774    4.8838 H   0  0  0  0  0  0  0  0  0  0  0  0
   -2.5030    0.9948    5.3214 H   0  0  0  0  0  0  0  0  0  0  0  0
   -1.1344   -0.1399    5.2381 H   0  0  0  0  0  0  0  0  0  0  0  0
  5  6  2  0  0  0  0
  5  7  1  0  0  0  0
  2  3  1  0  0  0  0
  2  4  1  0  0  0  0
  2  5  1  0  0  0  0
  1  2  1  0  0  0  0
 29 30  2  0  0  0  0
 29 31  1  0  0  0  0
 26 27  1  0  0  0  0
 26 28  1  0  0  0  0
 23 24  1  0  0  0  0
 23 25  1  0  0  0  0
 22 23  1  0  0  0  0
 22 26  1  0  0  0  0
 20 21  1  0  0  0  0
 20 22  2  0  0  0  0
 17 18  1  0  0  0  0
 17 19  1  0  0  0  0
 17 20  1  0  0  0  0
 14 15  1  0  0  0  0
 14 16  1  0  0  0  0
 14 17  1  0  0  0  0
 11 12  1  0  0  0  0
 11 13  1  0  0  0  0
 11 14  1  0  0  0  0
  9 10  1  0  0  0  0
  9 11  1  0  0  0  0
  9 29  1  0  0  0  0
  7  8  1  0  0  0  0
  7  9  1  0  0  0  0
 33 34  1  0  0  0  0
 33 35  1  0  0  0  0
 33 36  1  0  0  0  0
 31 32  1  0  0  0  0
 31 33  1  0  0  0  0
M  CHG  1  20   1
M  END
$$$$
default_name
  -OEChem-02102213163D

 36 35  0     1  0  0  0  0  0999 V2000
   -4.2256   -3.6731    1.8584 H   0  0  0  0  0  0  0  0  0  0  0  0
   -4.2396   -2.6781    1.4144 C   0  0  0  0  0  0  0  0  0  0  0  0
   -4.9506   -2.0521    1.9514 H   0  0  0  0  0  0  0  0  0  0  0  0
   -4.5266   -2.7521    0.3674 H   0  0  0  0  0  0  0  0  0  0  0  0
   -2.8576   -2.0761    1.5184 C   0  0  0  0  0  0  0  0  0  0  0  0
   -1.9456   -2.7051    2.0404 O   0  0  0  0  0  0  0  0  0  0  0  0
   -2.6926   -0.8481    1.0174 N   0  0  0  0  0  0  0  0  0  0  0  0
   -3.4926   -0.3971    0.5954 H   0  0  0  0  0  0  0  0  0  0  0  0
   -1.4216   -0.1071    1.0434 C   0  0  1  0  0  0  0  0  0  0  0  0
   -0.6709   -0.6930    0.5106 H   0  0  0  0  0  0  0  0  0  0  0  0
   -1.6221    1.2315    0.3051 C   0  0  0  0  0  0  0  0  0  0  0  0
   -0.7818    1.8880    0.5397 H   0  0  0  0  0  0  0  0  0  0  0  0
   -1.6194    1.0490   -0.7717 H   0  0  0  0  0  0  0  0  0  0  0  0
   -2.9211    1.9539    0.6910 C   0  0  0  0  0  0  0  0  0  0  0  0
   -2.7369    2.6175    1.5370 H   0  0  0  0  0  0  0  0  0  0  0  0
   -3.2731    2.5412   -0.1577 H   0  0  0  0  0  0  0  0  0  0  0  0
   -3.9935    0.9277    1.0813 C   0  0  0  0  0  0  0  0  0  0  0  0
   -4.1522    0.2513    0.2383 H   0  0  0  0  0  0  0  0  0  0  0  0
   -3.6277    0.3495    1.9332 H   0  0  0  0  0  0  0  0  0  0  0  0
   -5.2710    1.5784    1.4382 N   0  3  0  0  0  0  0  0  0  0  0  0
   -5.2827    2.5839    1.4328 H   0  0  0  0  0  0  0  0  0  0  0  0
   -6.3967    0.9648    1.7627 C   0  0  0  0  0  0  0  0  0  0  0  0
   -6.4917   -0.3347    1.8011 N   0  0  0  0  0  0  0  0  0  0  0  0
   -5.6826   -0.8858    1.5751 H   0  0  0  0  0  0  0  0  0  0  0  0
   -7.3535   -0.7845    2.0498 H   0  0  0  0  0  0  0  0  0  0  0  0
   -7.4618    1.6538    2.0597 N   0  0  0  0  0  0  0  0  0  0  0  0
   -7.4376    2.6588    2.0437 H   0  0  0  0  0  0  0  0  0  0  0  0
   -8.3138    1.1843    2.3053 H   0  0  0  0  0  0  0  0  0  0  0  0
   -0.9523    0.1012    2.4848 C   0  0  0  0  0  0  0  0  0  0  0  0
    0.2133   -0.1319    2.7814 O   0  0  0  0  0  0  0  0  0  0  0  0
   -1.8684    0.5006    3.3725 N   0  0  0  0  0  0  0  0  0  0  0  0
   -2.7946    0.7048    3.0343 H   0  0  0  0  0  0  0  0  0  0  0  0
   -1.5848    0.7472    4.7873 C   0  0  0  0  0  0  0  0  0  0  0  0
   -0.8819    1.5774    4.8838 H   0  0  0  0  0  0  0  0  0  0  0  0
   -2.5030    0.9948    5.3214 H   0  0  0  0  0  0  0  0  0  0  0  0
   -1.1344   -0.1399    5.2381 H   0  0  0  0  0  0  0  0  0  0  0  0
  5  6  2  0  0  0  0
  5  7  1  0  0  0  0
  2  3  1  0  0  0  0
  2  4  1  0  0  0  0
  2  5  1  0  0  0  0
  1  2  1  0  0  0  0
 29 30  2  0  0  0  0
 29 31  1  0  0  0  0
 26 27  1  0  0  0  0
 26 28  1  0  0  0  0
 23 24  1  0  0  0  0
 23 25  1  0  0  0  0
 22 23  1  0  0  0  0
 22 26  1  0  0  0  0
 20 21  1  0  0  0  0
 20 22  2  0  0  0  0
 17 18  1  0  0  0  0
 17 19  1  0  0  0  0
 17 20  1  0  0  0  0
 14 15  1  0  0  0  0
 14 16  1  0  0  0  0
 14 17  1  0  0  0  0
 11 12  1  0  0  0  0
 11 13  1  0  0  0  0
 11 14  1  0  0  0  0
  9 10  1  0  0  0  0
  9 11  1  0  0  0  0
  9 29  1  0  0  0  0
  7  8  1  0  0  0  0
  7  9  1  0  0  0  0
 33 34  1  0  0  0  0
 33 35  1  0  0  0  0
 33 36  1  0  0  0  0
 31 32  1  0  0  0  0
 31 33  1  0  0  0  0
M  CHG  1  20   1
M  END
$$$$
default_name
  -OEChem-02102213163D

 36 35  0     1  0  0  0  0  0999 V2000
   -4.2256   -3.6731    1.8584 H   0  0  0  0  0  0  0  0  0  0  0  0
   -4.2396   -2.6781    1.4144 C   0  0  0  0  0  0  0  0  0  0  0  0
   -4.9506   -2.0521    1.9514 H   0  0  0  0  0  0  0  0  0  0  0  0
   -4.5266   -2.7521    0.3674 H   0  0  0  0  0  0  0  0  0  0  0  0
   -2.8576   -2.0761    1.5184 C   0  0  0  0  0  0  0  0  0  0  0  0
   -1.9456   -2.7051    2.0404 O   0  0  0  0  0  0  0  0  0  0  0  0
   -2.6926   -0.8481    1.0174 N   0  0  0  0  0  0  0  0  0  0  0  0
   -3.4926   -0.3971    0.5954 H   0  0  0  0  0  0  0  0  0  0  0  0
   -1.4216   -0.1071    1.0434 C   0  0  1  0  0  0  0  0  0  0  0  0
   -0.6709   -0.6930    0.5106 H   0  0  0  0  0  0  0  0  0  0  0  0
   -1.6221    1.2315    0.3051 C   0  0  0  0  0  0  0  0  0  0  0  0
   -0.7818    1.8880    0.5397 H   0  0  0  0  0  0  0  0  0  0  0  0
   -1.6194    1.0490   -0.7717 H   0  0  0  0  0  0  0  0  0  0  0  0
   -2.9211    1.9539    0.6910 C   0  0  0  0  0  0  0  0  0  0  0  0
   -2.6940    2.7980    1.3436 H   0  0  0  0  0  0  0  0  0  0  0  0
   -3.4130    2.3182   -0.2115 H   0  0  0  0  0  0  0  0  0  0  0  0
   -3.8578    0.9868    1.4277 C   0  0  0  0  0  0  0  0  0  0  0  0
   -4.0583    0.1322    0.7774 H   0  0  0  0  0  0  0  0  0  0  0  0
   -3.3526    0.6327    2.3294 H   0  0  0  0  0  0  0  0  0  0  0  0
   -5.1331    1.6340    1.7982 N   0  3  0  0  0  0  0  0  0  0  0  0
   -5.2244    2.6111    1.5784 H   0  0  0  0  0  0  0  0  0  0  0  0
   -6.1626    1.0511    2.3894 C   0  0  0  0  0  0  0  0  0  0  0  0
   -6.1501   -0.2102    2.7181 N   0  0  0  0  0  0  0  0  0  0  0  0
   -5.3315   -0.7555    2.5134 H   0  0  0  0  0  0  0  0  0  0  0  0
   -6.9398   -0.6370    3.1667 H   0  0  0  0  0  0  0  0  0  0  0  0
   -7.2375    1.7332    2.6662 N   0  0  0  0  0  0  0  0  0  0  0  0
   -7.2943    2.7093    2.4316 H   0  0  0  0  0  0  0  0  0  0  0  0
   -8.0162    1.2871    3.1147 H   0  0  0  0  0  0  0  0  0  0  0  0
   -0.9523    0.1012    2.4848 C   0  0  0  0  0  0  0  0  0  0  0  0
    0.2133   -0.1319    2.7814 O   0  0  0  0  0  0  0  0  0  0  0  0
   -1.8684    0.5006    3.3725 N   0  0  0  0  0  0  0  0  0  0  0  0
   -2.7946    0.7048    3.0343 H   0  0  0  0  0  0  0  0  0  0  0  0
   -1.5848    0.7472    4.7873 C   0  0  0  0  0  0  0  0  0  0  0  0
   -0.8819    1.5774    4.8838 H   0  0  0  0  0  0  0  0  0  0  0  0
   -2.5030    0.9948    5.3214 H   0  0  0  0  0  0  0  0  0  0  0  0
   -1.1344   -0.1399    5.2381 H   0  0  0  0  0  0  0  0  0  0  0  0
  5  6  2  0  0  0  0
  5  7  1  0  0  0  0
  2  3  1  0  0  0  0
  2  4  1  0  0  0  0
  2  5  1  0  0  0  0
  1  2  1  0  0  0  0
 29 30  2  0  0  0  0
 29 31  1  0  0  0  0
 26 27  1  0  0  0  0
 26 28  1  0  0  0  0
 23 24  1  0  0  0  0
 23 25  1  0  0  0  0
 22 23  1  0  0  0  0
 22 26  1  0  0  0  0
 20 21  1  0  0  0  0
 20 22  2  0  0  0  0
 17 18  1  0  0  0  0
 17 19  1  0  0  0  0
 17 20  1  0  0  0  0
 14 15  1  0  0  0  0
 14 16  1  0  0  0  0
 14 17  1  0  0  0  0
 11 12  1  0  0  0  0
 11 13  1  0  0  0  0
 11 14  1  0  0  0  0
  9 10  1  0  0  0  0
  9 11  1  0  0  0  0
  9 29  1  0  0  0  0
  7  8  1  0  0  0  0
  7  9  1  0  0  0  0
 33 34  1  0  0  0  0
 33 35  1  0  0  0  0
 33 36  1  0  0  0  0
 31 32  1  0  0  0  0
 31 33  1  0  0  0  0
M  CHG  1  20   1
M  END
$$$$
default_name
  -OEChem-02102213163D

 36 35  0     1  0  0  0  0  0999 V2000
   -4.2256   -3.6731    1.8584 H   0  0  0  0  0  0  0  0  0  0  0  0
   -4.2396   -2.6781    1.4144 C   0  0  0  0  0  0  0  0  0  0  0  0
   -4.9506   -2.0521    1.9514 H   0  0  0  0  0  0  0  0  0  0  0  0
   -4.5266   -2.7521    0.3674 H   0  0  0  0  0  0  0  0  0  0  0  0
   -2.8576   -2.0761    1.5184 C   0  0  0  0  0  0  0  0  0  0  0  0
   -1.9456   -2.7051    2.0404 O   0  0  0  0  0  0  0  0  0  0  0  0
   -2.6926   -0.8481    1.0174 N   0  0  0  0  0  0  0  0  0  0  0  0
   -3.4926   -0.3971    0.5954 H   0  0  0  0  0  0  0  0  0  0  0  0
   -1.4216   -0.1071    1.0434 C   0  0  1  0  0  0  0  0  0  0  0  0
   -0.6709   -0.6930    0.5106 H   0  0  0  0  0  0  0  0  0  0  0  0
   -1.6221    1.2315    0.3051 C   0  0  0  0  0  0  0  0  0  0  0  0
   -0.7818    1.8880    0.5397 H   0  0  0  0  0  0  0  0  0  0  0  0
   -1.6194    1.0490   -0.7717 H   0  0  0  0  0  0  0  0  0  0  0  0
   -2.9211    1.9539    0.6910 C   0  0  0  0  0  0  0  0  0  0  0  0
   -2.6878    2.9328    1.1120 H   0  0  0  0  0  0  0  0  0  0  0  0
   -3.5402    2.0820   -0.1975 H   0  0  0  0  0  0  0  0  0  0  0  0
   -3.6883    1.1285    1.7329 C   0  0  0  0  0  0  0  0  0  0  0  0
   -3.8942    0.1413    1.3128 H   0  0  0  0  0  0  0  0  0  0  0  0
   -3.0569    1.0109    2.6167 H   0  0  0  0  0  0  0  0  0  0  0  0
   -4.9598    1.7755    2.1169 N   0  3  0  0  0  0  0  0  0  0  0  0
   -5.1521    2.6729    1.7059 H   0  0  0  0  0  0  0  0  0  0  0  0
   -5.8658    1.2869    2.9473 C   0  0  0  0  0  0  0  0  0  0  0  0
   -5.7166    0.1330    3.5350 N   0  0  0  0  0  0  0  0  0  0  0  0
   -4.8865   -0.4013    3.3484 H   0  0  0  0  0  0  0  0  0  0  0  0
   -6.4137   -0.2231    4.1628 H   0  0  0  0  0  0  0  0  0  0  0  0
   -6.9521    1.9573    3.2074 N   0  0  0  0  0  0  0  0  0  0  0  0
   -7.1120    2.8523    2.7778 H   0  0  0  0  0  0  0  0  0  0  0  0
   -7.6369    1.5830    3.8379 H   0  0  0  0  0  0  0  0  0  0  0  0
   -0.9523    0.1012    2.4848 C   0  0  0  0  0  0  0  0  0  0  0  0
    0.2133   -0.1319    2.7814 O   0  0  0  0  0  0  0  0  0  0  0  0
   -1.8684    0.5006    3.3725 N   0  0  0  0  0  0  0  0  0  0  0  0
   -2.7946    0.7048    3.0343 H   0  0  0  0  0  0  0  0  0  0  0  0
   -1.5848    0.7472    4.7873 C   0  0  0  0  0  0  0  0  0  0  0  0
   -0.8819    1.5774    4.8838 H   0  0  0  0  0  0  0  0  0  0  0  0
   -2.5030    0.9948    5.3214 H   0  0  0  0  0  0  0  0  0  0  0  0
   -1.1344   -0.1399    5.2381 H   0  0  0  0  0  0  0  0  0  0  0  0
  5  6  2  0  0  0  0
  5  7  1  0  0  0  0
  2  3  1  0  0  0  0
  2  4  1  0  0  0  0
  2  5  1  0  0  0  0
  1  2  1  0  0  0  0
 29 30  2  0  0  0  0
 29 31  1  0  0  0  0
 26 27  1  0  0  0  0
 26 28  1  0  0  0  0
 23 24  1  0  0  0  0
 23 25  1  0  0  0  0
 22 23  1  0  0  0  0
 22 26  1  0  0  0  0
 20 21  1  0  0  0  0
 20 22  2  0  0  0  0
 17 18  1  0  0  0  0
 17 19  1  0  0  0  0
 17 20  1  0  0  0  0
 14 15  1  0  0  0  0
 14 16  1  0  0  0  0
 14 17  1  0  0  0  0
 11 12  1  0  0  0  0
 11 13  1  0  0  0  0
 11 14  1  0  0  0  0
  9 10  1  0  0  0  0
  9 11  1  0  0  0  0
  9 29  1  0  0  0  0
  7  8  1  0  0  0  0
  7  9  1  0  0  0  0
 33 34  1  0  0  0  0
 33 35  1  0  0  0  0
 33 36  1  0  0  0  0
 31 32  1  0  0  0  0
 31 33  1  0  0  0  0
M  CHG  1  20   1
M  END
$$$$
default_name
  -OEChem-02102213163D

 36 35  0     1  0  0  0  0  0999 V2000
   -4.2256   -3.6731    1.8584 H   0  0  0  0  0  0  0  0  0  0  0  0
   -4.2396   -2.6781    1.4144 C   0  0  0  0  0  0  0  0  0  0  0  0
   -4.9506   -2.0521    1.9514 H   0  0  0  0  0  0  0  0  0  0  0  0
   -4.5266   -2.7521    0.3674 H   0  0  0  0  0  0  0  0  0  0  0  0
   -2.8576   -2.0761    1.5184 C   0  0  0  0  0  0  0  0  0  0  0  0
   -1.9456   -2.7051    2.0404 O   0  0  0  0  0  0  0  0  0  0  0  0
   -2.6926   -0.8481    1.0174 N   0  0  0  0  0  0  0  0  0  0  0  0
   -3.4926   -0.3971    0.5954 H   0  0  0  0  0  0  0  0  0  0  0  0
   -1.4216   -0.1071    1.0434 C   0  0  1  0  0  0  0  0  0  0  0  0
   -0.6709   -0.6930    0.5106 H   0  0  0  0  0  0  0  0  0  0  0  0
   -1.6221    1.2315    0.3051 C   0  0  0  0  0  0  0  0  0  0  0  0
   -0.7818    1.8880    0.5397 H   0  0  0  0  0  0  0  0  0  0  0  0
   -1.6194    1.0490   -0.7717 H   0  0  0  0  0  0  0  0  0  0  0  0
   -2.9211    1.9539    0.6910 C   0  0  0  0  0  0  0  0  0  0  0  0
   -2.7188    3.0127    0.8581 H   0  0  0  0  0  0  0  0  0  0  0  0
   -3.6460    1.8487   -0.1168 H   0  0  0  0  0  0  0  0  0  0  0  0
   -3.4967    1.3432    1.9760 C   0  0  0  0  0  0  0  0  0  0  0  0
   -3.6711    0.2779    1.8081 H   0  0  0  0  0  0  0  0  0  0  0  0
   -2.7610    1.4583    2.7754 H   0  0  0  0  0  0  0  0  0  0  0  0
   -4.7627    1.9933    2.3727 N   0  3  0  0  0  0  0  0  0  0  0  0
   -5.0708    2.7653    1.8067 H   0  0  0  0  0  0  0  0  0  0  0  0
   -5.5264    1.6562    3.3985 C   0  0  0  0  0  0  0  0  0  0  0  0
   -5.2208    0.6715    4.1962 N   0  0  0  0  0  0  0  0  0  0  0  0
   -4.3781    0.1526    4.0232 H   0  0  0  0  0  0  0  0  0  0  0  0
   -5.8112    0.4290    4.9704 H   0  0  0  0  0  0  0  0  0  0  0  0
   -6.6252    2.3108    3.6463 N   0  0  0  0  0  0  0  0  0  0  0  0
   -6.9030    3.0780    3.0587 H   0  0  0  0  0  0  0  0  0  0  0  0
   -7.2017    2.0518    4.4254 H   0  0  0  0  0  0  0  0  0  0  0  0
   -0.9523    0.1012    2.4848 C   0  0  0  0  0  0  0  0  0  0  0  0
    0.2133   -0.1319    2.7814 O   0  0  0  0  0  0  0  0  0  0  0  0
   -1.8684    0.5006    3.3725 N   0  0  0  0  0  0  0  0  0  0  0  0
   -2.7946    0.7048    3.0343 H   0  0  0  0  0  0  0  0  0  0  0  0
   -1.5848    0.7472    4.7873 C   0  0  0  0  0  0  0  0  0  0  0  0
   -0.8819    1.5774    4.8838 H   0  0  0  0  0  0  0  0  0  0  0  0
   -2.5030    0.9948    5.3214 H   0  0  0  0  0  0  0  0  0  0  0  0
   -1.1344   -0.1399    5.2381 H   0  0  0  0  0  0  0  0  0  0  0  0
  5  6  2  0  0  0  0
  5  7  1  0  0  0  0
  2  3  1  0  0  0  0
  2  4  1  0  0  0  0
  2  5  1  0  0  0  0
  1  2  1  0  0  0  0
 29 30  2  0  0  0  0
 29 31  1  0  0  0  0
 26 27  1  0  0  0  0
 26 28  1  0  0  0  0
 23 24  1  0  0  0  0
 23 25  1  0  0  0  0
 22 23  1  0  0  0  0
 22 26  1  0  0  0  0
 20 21  1  0  0  0  0
 20 22  2  0  0  0  0
 17 18  1  0  0  0  0
 17 19  1  0  0  0  0
 17 20  1  0  0  0  0
 14 15  1  0  0  0  0
 14 16  1  0  0  0  0
 14 17  1  0  0  0  0
 11 12  1  0  0  0  0
 11 13  1  0  0  0  0
 11 14  1  0  0  0  0
  9 10  1  0  0  0  0
  9 11  1  0  0  0  0
  9 29  1  0  0  0  0
  7  8  1  0  0  0  0
  7  9  1  0  0  0  0
 33 34  1  0  0  0  0
 33 35  1  0  0  0  0
 33 36  1  0  0  0  0
 31 32  1  0  0  0  0
 31 33  1  0  0  0  0
M  CHG  1  20   1
M  END
$$$$
default_name
  -OEChem-02102213163D

 36 35  0     1  0  0  0  0  0999 V2000
   -4.2256   -3.6731    1.8584 H   0  0  0  0  0  0  0  0  0  0  0  0
   -4.2396   -2.6781    1.4144 C   0  0  0  0  0  0  0  0  0  0  0  0
   -4.9506   -2.0521    1.9514 H   0  0  0  0  0  0  0  0  0  0  0  0
   -4.5266   -2.7521    0.3674 H   0  0  0  0  0  0  0  0  0  0  0  0
   -2.8576   -2.0761    1.5184 C   0  0  0  0  0  0  0  0  0  0  0  0
   -1.9456   -2.7051    2.0404 O   0  0  0  0  0  0  0  0  0  0  0  0
   -2.6926   -0.8481    1.0174 N   0  0  0  0  0  0  0  0  0  0  0  0
   -3.4926   -0.3971    0.5954 H   0  0  0  0  0  0  0  0  0  0  0  0
   -1.4216   -0.1071    1.0434 C   0  0  1  0  0  0  0  0  0  0  0  0
   -0.6709   -0.6930    0.5106 H   0  0  0  0  0  0  0  0  0  0  0  0
   -1.6221    1.2315    0.3051 C   0  0  0  0  0  0  0  0  0  0  0  0
   -0.7818    1.8880    0.5397 H   0  0  0  0  0  0  0  0  0  0  0  0
   -1.6194    1.0490   -0.7717 H   0  0  0  0  0  0  0  0  0  0  0  0
   -2.9211    1.9539    0.6910 C   0  0  0  0  0  0  0  0  0  0  0  0
   -2.7848    3.0323    0.5991 H   0  0  0  0  0  0  0  0  0  0  0  0
   -3.7232    1.6340    0.0251 H   0  0  0  0  0  0  0  0  0  0  0  0
   -3.2960    1.6163    2.1405 C   0  0  0  0  0  0  0  0  0  0  0  0
   -3.4042    0.5329    2.2293 H   0  0  0  0  0  0  0  0  0  0  0  0
   -2.4849    1.9444    2.7948 H   0  0  0  0  0  0  0  0  0  0  0  0
   -4.5554    2.2724    2.5481 N   0  3  0  0  0  0  0  0  0  0  0  0
   -4.9860    2.8819    1.8740 H   0  0  0  0  0  0  0  0  0  0  0  0
   -5.1678    2.1337    3.7121 C   0  0  0  0  0  0  0  0  0  0  0  0
   -4.6963    1.3688    4.6565 N   0  0  0  0  0  0  0  0  0  0  0  0
   -3.8408    0.8684    4.4919 H   0  0  0  0  0  0  0  0  0  0  0  0
   -5.1734    1.2749    5.5343 H   0  0  0  0  0  0  0  0  0  0  0  0
   -6.2789    2.7697    3.9530 N   0  0  0  0  0  0  0  0  0  0  0  0
   -6.6816    3.3712    3.2551 H   0  0  0  0  0  0  0  0  0  0  0  0
   -6.7403    2.6615    4.8373 H   0  0  0  0  0  0  0  0  0  0  0  0
   -0.9523    0.1012    2.4848 C   0  0  0  0  0  0  0  0  0  0  0  0
    0.2133   -0.1319    2.7814 O   0  0  0  0  0  0  0  0  0  0  0  0
   -1.8684    0.5006    3.3725 N   0  0  0  0  0  0  0  0  0  0  0  0
   -2.7946    0.7048    3.0343 H   0  0  0  0  0  0  0  0  0  0  0  0
   -1.5848    0.7472    4.7873 C   0  0  0  0  0  0  0  0  0  0  0  0
   -0.8819    1.5774    4.8838 H   0  0  0  0  0  0  0  0  0  0  0  0
   -2.5030    0.9948    5.3214 H   0  0  0  0  0  0  0  0  0  0  0  0
   -1.1344   -0.1399    5.2381 H   0  0  0  0  0  0  0  0  0  0  0  0
  5  6  2  0  0  0  0
  5  7  1  0  0  0  0
  2  3  1  0  0  0  0
  2  4  1  0  0  0  0
  2  5  1  0  0  0  0
  1  2  1  0  0  0  0
 29 30  2  0  0  0  0
 29 31  1  0  0  0  0
 26 27  1  0  0  0  0
 26 28  1  0  0  0  0
 23 24  1  0  0  0  0
 23 25  1  0  0  0  0
 22 23  1  0  0  0  0
 22 26  1  0  0  0  0
 20 21  1  0  0  0  0
 20 22  2  0  0  0  0
 17 18  1  0  0  0  0
 17 19  1  0  0  0  0
 17 20  1  0  0  0  0
 14 15  1  0  0  0  0
 14 16  1  0  0  0  0
 14 17  1  0  0  0  0
 11 12  1  0  0  0  0
 11 13  1  0  0  0  0
 11 14  1  0  0  0  0
  9 10  1  0  0  0  0
  9 11  1  0  0  0  0
  9 29  1  0  0  0  0
  7  8  1  0  0  0  0
  7  9  1  0  0  0  0
 33 34  1  0  0  0  0
 33 35  1  0  0  0  0
 33 36  1  0  0  0  0
 31 32  1  0  0  0  0
 31 33  1  0  0  0  0
M  CHG  1  20   1
M  END
$$$$
default_name
  -OEChem-02102213163D

 36 35  0     1  0  0  0  0  0999 V2000
   -4.2256   -3.6731    1.8584 H   0  0  0  0  0  0  0  0  0  0  0  0
   -4.2396   -2.6781    1.4144 C   0  0  0  0  0  0  0  0  0  0  0  0
   -4.9506   -2.0521    1.9514 H   0  0  0  0  0  0  0  0  0  0  0  0
   -4.5266   -2.7521    0.3674 H   0  0  0  0  0  0  0  0  0  0  0  0
   -2.8576   -2.0761    1.5184 C   0  0  0  0  0  0  0  0  0  0  0  0
   -1.9456   -2.7051    2.0404 O   0  0  0  0  0  0  0  0  0  0  0  0
   -2.6926   -0.8481    1.0174 N   0  0  0  0  0  0  0  0  0  0  0  0
   -3.4926   -0.3971    0.5954 H   0  0  0  0  0  0  0  0  0  0  0  0
   -1.4216   -0.1071    1.0434 C   0  0  1  0  0  0  0  0  0  0  0  0
   -0.6709   -0.6930    0.5106 H   0  0  0  0  0  0  0  0  0  0  0  0
   -1.6221    1.2315    0.3051 C   0  0  0  0  0  0  0  0  0  0  0  0
   -0.7818    1.8880    0.5397 H   0  0  0  0  0  0  0  0  0  0  0  0
   -1.6194    1.0490   -0.7717 H   0  0  0  0  0  0  0  0  0  0  0  0
   -2.9211    1.9539    0.6910 C   0  0  0  0  0  0  0  0  0  0  0  0
   -2.8814    2.9902    0.3527 H   0  0  0  0  0  0  0  0  0  0  0  0
   -3.7666    1.4528    0.2185 H   0  0  0  0  0  0  0  0  0  0  0  0
   -3.0999    1.9292    2.2151 C   0  0  0  0  0  0  0  0  0  0  0  0
   -3.1117    0.8887    2.5479 H   0  0  0  0  0  0  0  0  0  0  0  0
   -2.2475    2.4362    2.6734 H   0  0  0  0  0  0  0  0  0  0  0  0
   -4.3519    2.5939    2.6312 N   0  3  0  0  0  0  0  0  0  0  0  0
   -4.9034    3.0148    1.9032 H   0  0  0  0  0  0  0  0  0  0  0  0
   -4.8142    2.6869    3.8668 C   0  0  0  0  0  0  0  0  0  0  0  0
   -4.1791    2.1771    4.8847 N   0  0  0  0  0  0  0  0  0  0  0  0
   -3.3113    1.6973    4.7225 H   0  0  0  0  0  0  0  0  0  0  0  0
   -4.5436    2.2569    5.8161 H   0  0  0  0  0  0  0  0  0  0  0  0
   -5.9370    3.3025    4.1067 N   0  0  0  0  0  0  0  0  0  0  0  0
   -6.4630    3.7117    3.3538 H   0  0  0  0  0  0  0  0  0  0  0  0
   -6.2841    3.3707    5.0455 H   0  0  0  0  0  0  0  0  0  0  0  0
   -0.9523    0.1012    2.4848 C   0  0  0  0  0  0  0  0  0  0  0  0
    0.2133   -0.1319    2.7814 O   0  0  0  0  0  0  0  0  0  0  0  0
   -1.8684    0.5006    3.3725 N   0  0  0  0  0  0  0  0  0  0  0  0
   -2.7946    0.7048    3.0343 H   0  0  0  0  0  0  0  0  0  0  0  0
   -1.5848    0.7472    4.7873 C   0  0  0  0  0  0  0  0  0  0  0  0
   -0.8819    1.5774    4.8838 H   0  0  0  0  0  0  0  0  0  0  0  0
   -2.5030    0.9948    5.3214 H   0  0  0  0  0  0  0  0  0  0  0  0
   -1.1344   -0.1399    5.2381 H   0  0  0  0  0  0  0  0  0  0  0  0
  5  6  2  0  0  0  0
  5  7  1  0  0  0  0
  2  3  1  0  0  0  0
  2  4  1  0  0  0  0
  2  5  1  0  0  0  0
  1  2  1  0  0  0  0
 29 30  2  0  0  0  0
 29 31  1  0  0  0  0
 26 27  1  0  0  0  0
 26 28  1  0  0  0  0
 23 24  1  0  0  0  0
 23 25  1  0  0  0  0
 22 23  1  0  0  0  0
 22 26  1  0  0  0  0
 20 21  1  0  0  0  0
 20 22  2  0  0  0  0
 17 18  1  0  0  0  0
 17 19  1  0  0  0  0
 17 20  1  0  0  0  0
 14 15  1  0  0  0  0
 14 16  1  0  0  0  0
 14 17  1  0  0  0  0
 11 12  1  0  0  0  0
 11 13  1  0  0  0  0
 11 14  1  0  0  0  0
  9 10  1  0  0  0  0
  9 11  1  0  0  0  0
  9 29  1  0  0  0  0
  7  8  1  0  0  0  0
  7  9  1  0  0  0  0
 33 34  1  0  0  0  0
 33 35  1  0  0  0  0
 33 36  1  0  0  0  0
 31 32  1  0  0  0  0
 31 33  1  0  0  0  0
M  CHG  1  20   1
M  END
$$$$
default_name
  -OEChem-02102213163D

 36 35  0     1  0  0  0  0  0999 V2000
   -4.2256   -3.6731    1.8584 H   0  0  0  0  0  0  0  0  0  0  0  0
   -4.2396   -2.6781    1.4144 C   0  0  0  0  0  0  0  0  0  0  0  0
   -4.9506   -2.0521    1.9514 H   0  0  0  0  0  0  0  0  0  0  0  0
   -4.5266   -2.7521    0.3674 H   0  0  0  0  0  0  0  0  0  0  0  0
   -2.8576   -2.0761    1.5184 C   0  0  0  0  0  0  0  0  0  0  0  0
   -1.9456   -2.7051    2.0404 O   0  0  0  0  0  0  0  0  0  0  0  0
   -2.6926   -0.8481    1.0174 N   0  0  0  0  0  0  0  0  0  0  0  0
   -3.4926   -0.3971    0.5954 H   0  0  0  0  0  0  0  0  0  0  0  0
   -1.4216   -0.1071    1.0434 C   0  0  1  0  0  0  0  0  0  0  0  0
   -0.6709   -0.6930    0.5106 H   0  0  0  0  0  0  0  0  0  0  0  0
   -1.6221    1.2315    0.3051 C   0  0  0  0  0  0  0  0  0  0  0  0
   -0.7818    1.8880    0.5397 H   0  0  0  0  0  0  0  0  0  0  0  0
   -1.6194    1.0490   -0.7717 H   0  0  0  0  0  0  0  0  0  0  0  0
   -2.9211    1.9539    0.6910 C   0  0  0  0  0  0  0  0  0  0  0  0
   -3.0020    2.8893    0.1356 H   0  0  0  0  0  0  0  0  0  0  0  0
   -3.7731    1.3172    0.4504 H   0  0  0  0  0  0  0  0  0  0  0  0
   -2.9217    2.2604    2.1948 C   0  0  0  0  0  0  0  0  0  0  0  0
   -2.8135    1.3212    2.7421 H   0  0  0  0  0  0  0  0  0  0  0  0
   -2.0649    2.9001    2.4195 H   0  0  0  0  0  0  0  0  0  0  0  0
   -4.1662    2.9359    2.6163 N   0  3  0  0  0  0  0  0  0  0  0  0
   -4.8288    3.1549    1.8921 H   0  0  0  0  0  0  0  0  0  0  0  0
   -4.4898    3.2781    3.8521 C   0  0  0  0  0  0  0  0  0  0  0  0
   -3.7042    3.0415    4.8651 N   0  0  0  0  0  0  0  0  0  0  0  0
   -2.8258    2.5830    4.6993 H   0  0  0  0  0  0  0  0  0  0  0  0
   -3.9648    3.3081    5.7967 H   0  0  0  0  0  0  0  0  0  0  0  0
   -5.6226    3.8731    4.0968 N   0  0  0  0  0  0  0  0  0  0  0  0
   -6.2619    4.0765    3.3479 H   0  0  0  0  0  0  0  0  0  0  0  0
   -5.8642    4.1309    5.0358 H   0  0  0  0  0  0  0  0  0  0  0  0
   -0.9523    0.1012    2.4848 C   0  0  0  0  0  0  0  0  0  0  0  0
    0.2133   -0.1319    2.7814 O   0  0  0  0  0  0  0  0  0  0  0  0
   -1.8684    0.5006    3.3725 N   0  0  0  0  0  0  0  0  0  0  0  0
   -2.7946    0.7048    3.0343 H   0  0  0  0  0  0  0  0  0  0  0  0
   -1.5848    0.7472    4.7873 C   0  0  0  0  0  0  0  0  0  0  0  0
   -0.8819    1.5774    4.8838 H   0  0  0  0  0  0  0  0  0  0  0  0
   -2.5030    0.9948    5.3214 H   0  0  0  0  0  0  0  0  0  0  0  0
   -1.1344   -0.1399    5.2381 H   0  0  0  0  0  0  0  0  0  0  0  0
  5  6  2  0  0  0  0
  5  7  1  0  0  0  0
  2  3  1  0  0  0  0
  2  4  1  0  0  0  0
  2  5  1  0  0  0  0
  1  2  1  0  0  0  0
 29 30  2  0  0  0  0
 29 31  1  0  0  0  0
 26 27  1  0  0  0  0
 26 28  1  0  0  0  0
 23 24  1  0  0  0  0
 23 25  1  0  0  0  0
 22 23  1  0  0  0  0
 22 26  1  0  0  0  0
 20 21  1  0  0  0  0
 20 22  2  0  0  0  0
 17 18  1  0  0  0  0
 17 19  1  0  0  0  0
 17 20  1  0  0  0  0
 14 15  1  0  0  0  0
 14 16  1  0  0  0  0
 14 17  1  0  0  0  0
 11 12  1  0  0  0  0
 11 13  1  0  0  0  0
 11 14  1  0  0  0  0
  9 10  1  0  0  0  0
  9 11  1  0  0  0  0
  9 29  1  0  0  0  0
  7  8  1  0  0  0  0
  7  9  1  0  0  0  0
 33 34  1  0  0  0  0
 33 35  1  0  0  0  0
 33 36  1  0  0  0  0
 31 32  1  0  0  0  0
 31 33  1  0  0  0  0
M  CHG  1  20   1
M  END
$$$$
default_name
  -OEChem-02102213163D

 36 35  0     1  0  0  0  0  0999 V2000
   -4.2256   -3.6731    1.8584 H   0  0  0  0  0  0  0  0  0  0  0  0
   -4.2396   -2.6781    1.4144 C   0  0  0  0  0  0  0  0  0  0  0  0
   -4.9506   -2.0521    1.9514 H   0  0  0  0  0  0  0  0  0  0  0  0
   -4.5266   -2.7521    0.3674 H   0  0  0  0  0  0  0  0  0  0  0  0
   -2.8576   -2.0761    1.5184 C   0  0  0  0  0  0  0  0  0  0  0  0
   -1.9456   -2.7051    2.0404 O   0  0  0  0  0  0  0  0  0  0  0  0
   -2.6926   -0.8481    1.0174 N   0  0  0  0  0  0  0  0  0  0  0  0
   -3.4926   -0.3971    0.5954 H   0  0  0  0  0  0  0  0  0  0  0  0
   -1.4216   -0.1071    1.0434 C   0  0  1  0  0  0  0  0  0  0  0  0
   -0.6709   -0.6930    0.5106 H   0  0  0  0  0  0  0  0  0  0  0  0
   -1.6221    1.2315    0.3051 C   0  0  0  0  0  0  0  0  0  0  0  0
   -0.7818    1.8880    0.5397 H   0  0  0  0  0  0  0  0  0  0  0  0
   -1.6194    1.0490   -0.7717 H   0  0  0  0  0  0  0  0  0  0  0  0
   -2.9211    1.9539    0.6910 C   0  0  0  0  0  0  0  0  0  0  0  0
   -3.1383    2.7365   -0.0373 H   0  0  0  0  0  0  0  0  0  0  0  0
   -3.7423    1.2366    0.7048 H   0  0  0  0  0  0  0  0  0  0  0  0
   -2.7735    2.5876    2.0810 C   0  0  0  0  0  0  0  0  0  0  0  0
   -2.5300    1.8009    2.7988 H   0  0  0  0  0  0  0  0  0  0  0  0
   -1.9497    3.3045    2.0505 H   0  0  0  0  0  0  0  0  0  0  0  0
   -4.0108    3.2750    2.5044 N   0  3  0  0  0  0  0  0  0  0  0  0
   -4.7671    3.2927    1.8418 H   0  0  0  0  0  0  0  0  0  0  0  0
   -4.2167    3.8670    3.6689 C   0  0  0  0  0  0  0  0  0  0  0  0
   -3.3041    3.9030    4.5991 N   0  0  0  0  0  0  0  0  0  0  0  0
   -2.4171    3.4649    4.4238 H   0  0  0  0  0  0  0  0  0  0  0  0
   -3.4765    4.3569    5.4773 H   0  0  0  0  0  0  0  0  0  0  0  0
   -5.3573    4.4425    3.9241 N   0  0  0  0  0  0  0  0  0  0  0  0
   -6.0921    4.4407    3.2378 H   0  0  0  0  0  0  0  0  0  0  0  0
   -5.5093    4.8904    4.8089 H   0  0  0  0  0  0  0  0  0  0  0  0
   -0.9523    0.1012    2.4848 C   0  0  0  0  0  0  0  0  0  0  0  0
    0.2133   -0.1319    2.7814 O   0  0  0  0  0  0  0  0  0  0  0  0
   -1.8684    0.5006    3.3725 N   0  0  0  0  0  0  0  0  0  0  0  0
   -2.7946    0.7048    3.0343 H   0  0  0  0  0  0  0  0  0  0  0  0
   -1.5848    0.7472    4.7873 C   0  0  0  0  0  0  0  0  0  0  0  0
   -0.8819    1.5774    4.8838 H   0  0  0  0  0  0  0  0  0  0  0  0
   -2.5030    0.9948    5.3214 H   0  0  0  0  0  0  0  0  0  0  0  0
   -1.1344   -0.1399    5.2381 H   0  0  0  0  0  0  0  0  0  0  0  0
  5  6  2  0  0  0  0
  5  7  1  0  0  0  0
  2  3  1  0  0  0  0
  2  4  1  0  0  0  0
  2  5  1  0  0  0  0
  1  2  1  0  0  0  0
 29 30  2  0  0  0  0
 29 31  1  0  0  0  0
 26 27  1  0  0  0  0
 26 28  1  0  0  0  0
 23 24  1  0  0  0  0
 23 25  1  0  0  0  0
 22 23  1  0  0  0  0
 22 26  1  0  0  0  0
 20 21  1  0  0  0  0
 20 22  2  0  0  0  0
 17 18  1  0  0  0  0
 17 19  1  0  0  0  0
 17 20  1  0  0  0  0
 14 15  1  0  0  0  0
 14 16  1  0  0  0  0
 14 17  1  0  0  0  0
 11 12  1  0  0  0  0
 11 13  1  0  0  0  0
 11 14  1  0  0  0  0
  9 10  1  0  0  0  0
  9 11  1  0  0  0  0
  9 29  1  0  0  0  0
  7  8  1  0  0  0  0
  7  9  1  0  0  0  0
 33 34  1  0  0  0  0
 33 35  1  0  0  0  0
 33 36  1  0  0  0  0
 31 32  1  0  0  0  0
 31 33  1  0  0  0  0
M  CHG  1  20   1
M  END
$$$$
default_name
  -OEChem-02102213163D

 36 35  0     1  0  0  0  0  0999 V2000
   -4.2256   -3.6731    1.8584 H   0  0  0  0  0  0  0  0  0  0  0  0
   -4.2396   -2.6781    1.4144 C   0  0  0  0  0  0  0  0  0  0  0  0
   -4.9506   -2.0521    1.9514 H   0  0  0  0  0  0  0  0  0  0  0  0
   -4.5266   -2.7521    0.3674 H   0  0  0  0  0  0  0  0  0  0  0  0
   -2.8576   -2.0761    1.5184 C   0  0  0  0  0  0  0  0  0  0  0  0
   -1.9456   -2.7051    2.0404 O   0  0  0  0  0  0  0  0  0  0  0  0
   -2.6926   -0.8481    1.0174 N   0  0  0  0  0  0  0  0  0  0  0  0
   -3.4926   -0.3971    0.5954 H   0  0  0  0  0  0  0  0  0  0  0  0
   -1.4216   -0.1071    1.0434 C   0  0  1  0  0  0  0  0  0  0  0  0
   -0.6709   -0.6930    0.5106 H   0  0  0  0  0  0  0  0  0  0  0  0
   -1.6221    1.2315    0.3051 C   0  0  0  0  0  0  0  0  0  0  0  0
   -0.7818    1.8880    0.5397 H   0  0  0  0  0  0  0  0  0  0  0  0
   -1.6194    1.0490   -0.7717 H   0  0  0  0  0  0  0  0  0  0  0  0
   -2.9211    1.9539    0.6910 C   0  0  0  0  0  0  0  0  0  0  0  0
   -3.2811    2.5422   -0.1542 H   0  0  0  0  0  0  0  0  0  0  0  0
   -3.6764    1.2164    0.9644 H   0  0  0  0  0  0  0  0  0  0  0  0
   -2.6656    2.8883    1.8814 C   0  0  0  0  0  0  0  0  0  0  0  0
   -2.2804    2.2951    2.7139 H   0  0  0  0  0  0  0  0  0  0  0  0
   -1.9095    3.6218    1.5916 H   0  0  0  0  0  0  0  0  0  0  0  0
   -3.8965    3.5882    2.3031 N   0  3  0  0  0  0  0  0  0  0  0  0
   -4.7227    3.4187    1.7554 H   0  0  0  0  0  0  0  0  0  0  0  0
   -4.0135    4.4136    3.3298 C   0  0  0  0  0  0  0  0  0  0  0  0
   -3.0061    4.7030    4.1048 N   0  0  0  0  0  0  0  0  0  0  0  0
   -2.1133    4.2831    3.9149 H   0  0  0  0  0  0  0  0  0  0  0  0
   -3.1119    5.3317    4.8797 H   0  0  0  0  0  0  0  0  0  0  0  0
   -5.1590    4.9720    3.6003 N   0  0  0  0  0  0  0  0  0  0  0  0
   -5.9652    4.7793    3.0311 H   0  0  0  0  0  0  0  0  0  0  0  0
   -5.2434    5.5975    4.3802 H   0  0  0  0  0  0  0  0  0  0  0  0
   -0.9523    0.1012    2.4848 C   0  0  0  0  0  0  0  0  0  0  0  0
    0.2133   -0.1319    2.7814 O   0  0  0  0  0  0  0  0  0  0  0  0
   -1.8684    0.5006    3.3725 N   0  0  0  0  0  0  0  0  0  0  0  0
   -2.7946    0.7048    3.0343 H   0  0  0  0  0  0  0  0  0  0  0  0
   -1.5848    0.7472    4.7873 C   0  0  0  0  0  0  0  0  0  0  0  0
   -0.8819    1.5774    4.8838 H   0  0  0  0  0  0  0  0  0  0  0  0
   -2.5030    0.9948    5.3214 H   0  0  0  0  0  0  0  0  0  0  0  0
   -1.1344   -0.1399    5.2381 H   0  0  0  0  0  0  0  0  0  0  0  0
  5  6  2  0  0  0  0
  5  7  1  0  0  0  0
  2  3  1  0  0  0  0
  2  4  1  0  0  0  0
  2  5  1  0  0  0  0
  1  2  1  0  0  0  0
 29 30  2  0  0  0  0
 29 31  1  0  0  0  0
 26 27  1  0  0  0  0
 26 28  1  0  0  0  0
 23 24  1  0  0  0  0
 23 25  1  0  0  0  0
 22 23  1  0  0  0  0
 22 26  1  0  0  0  0
 20 21  1  0  0  0  0
 20 22  2  0  0  0  0
 17 18  1  0  0  0  0
 17 19  1  0  0  0  0
 17 20  1  0  0  0  0
 14 15  1  0  0  0  0
 14 16  1  0  0  0  0
 14 17  1  0  0  0  0
 11 12  1  0  0  0  0
 11 13  1  0  0  0  0
 11 14  1  0  0  0  0
  9 10  1  0  0  0  0
  9 11  1  0  0  0  0
  9 29  1  0  0  0  0
  7  8  1  0  0  0  0
  7  9  1  0  0  0  0
 33 34  1  0  0  0  0
 33 35  1  0  0  0  0
 33 36  1  0  0  0  0
 31 32  1  0  0  0  0
 31 33  1  0  0  0  0
M  CHG  1  20   1
M  END
$$$$
default_name
  -OEChem-02102213163D

 36 35  0     1  0  0  0  0  0999 V2000
   -4.2256   -3.6731    1.8584 H   0  0  0  0  0  0  0  0  0  0  0  0
   -4.2396   -2.6781    1.4144 C   0  0  0  0  0  0  0  0  0  0  0  0
   -4.9506   -2.0521    1.9514 H   0  0  0  0  0  0  0  0  0  0  0  0
   -4.5266   -2.7521    0.3674 H   0  0  0  0  0  0  0  0  0  0  0  0
   -2.8576   -2.0761    1.5184 C   0  0  0  0  0  0  0  0  0  0  0  0
   -1.9456   -2.7051    2.0404 O   0  0  0  0  0  0  0  0  0  0  0  0
   -2.6926   -0.8481    1.0174 N   0  0  0  0  0  0  0  0  0  0  0  0
   -3.4926   -0.3971    0.5954 H   0  0  0  0  0  0  0  0  0  0  0  0
   -1.4216   -0.1071    1.0434 C   0  0  1  0  0  0  0  0  0  0  0  0
   -0.6709   -0.6930    0.5106 H   0  0  0  0  0  0  0  0  0  0  0  0
   -1.6221    1.2315    0.3051 C   0  0  0  0  0  0  0  0  0  0  0  0
   -0.7818    1.8880    0.5397 H   0  0  0  0  0  0  0  0  0  0  0  0
   -1.6194    1.0490   -0.7717 H   0  0  0  0  0  0  0  0  0  0  0  0
   -2.9211    1.9539    0.6910 C   0  0  0  0  0  0  0  0  0  0  0  0
   -3.4206    2.3196   -0.2072 H   0  0  0  0  0  0  0  0  0  0  0  0
   -3.5798    1.2581    1.2116 H   0  0  0  0  0  0  0  0  0  0  0  0
   -2.6052    3.1421    1.6096 C   0  0  0  0  0  0  0  0  0  0  0  0
   -2.0818    2.7700    2.4933 H   0  0  0  0  0  0  0  0  0  0  0  0
   -1.9473    3.8304    1.0739 H   0  0  0  0  0  0  0  0  0  0  0  0
   -3.8308    3.8541    2.0262 N   0  3  0  0  0  0  0  0  0  0  0  0
   -4.6985    3.5245    1.6390 H   0  0  0  0  0  0  0  0  0  0  0  0
   -3.8940    4.8805    2.8578 C   0  0  0  0  0  0  0  0  0  0  0  0
   -2.8304    5.3868    3.4160 N   0  0  0  0  0  0  0  0  0  0  0  0
   -1.9350    4.9817    3.2072 H   0  0  0  0  0  0  0  0  0  0  0  0
   -2.8958    6.1662    4.0446 H   0  0  0  0  0  0  0  0  0  0  0  0
   -5.0414    5.4254    3.1474 N   0  0  0  0  0  0  0  0  0  0  0  0
   -5.8897    5.0694    2.7418 H   0  0  0  0  0  0  0  0  0  0  0  0
   -5.0848    6.2038    3.7789 H   0  0  0  0  0  0  0  0  0  0  0  0
   -0.9523    0.1012    2.4848 C   0  0  0  0  0  0  0  0  0  0  0  0
    0.2133   -0.1319    2.7814 O   0  0  0  0  0  0  0  0  0  0  0  0
   -1.8684    0.5006    3.3725 N   0  0  0  0  0  0  0  0  0  0  0  0
   -2.7946    0.7048    3.0343 H   0  0  0  0  0  0  0  0  0  0  0  0
   -1.5848    0.7472    4.7873 C   0  0  0  0  0  0  0  0  0  0  0  0
   -0.8819    1.5774    4.8838 H   0  0  0  0  0  0  0  0  0  0  0  0
   -2.5030    0.9948    5.3214 H   0  0  0  0  0  0  0  0  0  0  0  0
   -1.1344   -0.1399    5.2381 H   0  0  0  0  0  0  0  0  0  0  0  0
  5  6  2  0  0  0  0
  5  7  1  0  0  0  0
  2  3  1  0  0  0  0
  2  4  1  0  0  0  0
  2  5  1  0  0  0  0
  1  2  1  0  0  0  0
 29 30  2  0  0  0  0
 29 31  1  0  0  0  0
 26 27  1  0  0  0  0
 26 28  1  0  0  0  0
 23 24  1  0  0  0  0
 23 25  1  0  0  0  0
 22 23  1  0  0  0  0
 22 26  1  0  0  0  0
 20 21  1  0  0  0  0
 20 22  2  0  0  0  0
 17 18  1  0  0  0  0
 17 19  1  0  0  0  0
 17 20  1  0  0  0  0
 14 15  1  0  0  0  0
 14 16  1  0  0  0  0
 14 17  1  0  0  0  0
 11 12  1  0  0  0  0
 11 13  1  0  0  0  0
 11 14  1  0  0  0  0
  9 10  1  0  0  0  0
  9 11  1  0  0  0  0
  9 29  1  0  0  0  0
  7  8  1  0  0  0  0
  7  9  1  0  0  0  0
 33 34  1  0  0  0  0
 33 35  1  0  0  0  0
 33 36  1  0  0  0  0
 31 32  1  0  0  0  0
 31 33  1  0  0  0  0
M  CHG  1  20   1
M  END
$$$$
default_name
  -OEChem-02102213163D

 36 35  0     1  0  0  0  0  0999 V2000
   -4.2256   -3.6731    1.8584 H   0  0  0  0  0  0  0  0  0  0  0  0
   -4.2396   -2.6781    1.4144 C   0  0  0  0  0  0  0  0  0  0  0  0
   -4.9506   -2.0521    1.9514 H   0  0  0  0  0  0  0  0  0  0  0  0
   -4.5266   -2.7521    0.3674 H   0  0  0  0  0  0  0  0  0  0  0  0
   -2.8576   -2.0761    1.5184 C   0  0  0  0  0  0  0  0  0  0  0  0
   -1.9456   -2.7051    2.0404 O   0  0  0  0  0  0  0  0  0  0  0  0
   -2.6926   -0.8481    1.0174 N   0  0  0  0  0  0  0  0  0  0  0  0
   -3.4926   -0.3971    0.5954 H   0  0  0  0  0  0  0  0  0  0  0  0
   -1.4216   -0.1071    1.0434 C   0  0  1  0  0  0  0  0  0  0  0  0
   -0.6709   -0.6930    0.5106 H   0  0  0  0  0  0  0  0  0  0  0  0
   -1.6221    1.2315    0.3051 C   0  0  0  0  0  0  0  0  0  0  0  0
   -0.7818    1.8880    0.5397 H   0  0  0  0  0  0  0  0  0  0  0  0
   -1.6194    1.0490   -0.7717 H   0  0  0  0  0  0  0  0  0  0  0  0
   -2.9211    1.9539    0.6910 C   0  0  0  0  0  0  0  0  0  0  0  0
   -3.5474    2.0839   -0.1927 H   0  0  0  0  0  0  0  0  0  0  0  0
   -3.4592    1.3587    1.4295 H   0  0  0  0  0  0  0  0  0  0  0  0
   -2.5965    3.3316    1.2842 C   0  0  0  0  0  0  0  0  0  0  0  0
   -1.9476    3.1935    2.1521 H   0  0  0  0  0  0  0  0  0  0  0  0
   -2.0604    3.9161    0.5327 H   0  0  0  0  0  0  0  0  0  0  0  0
   -3.8185    4.0546    1.6925 N   0  3  0  0  0  0  0  0  0  0  0  0
   -4.6961    3.6027    1.5005 H   0  0  0  0  0  0  0  0  0  0  0  0
   -3.8665    5.2359    2.2852 C   0  0  0  0  0  0  0  0  0  0  0  0
   -2.7890    5.9080    2.5795 N   0  0  0  0  0  0  0  0  0  0  0  0
   -1.8944    5.5131    2.3490 H   0  0  0  0  0  0  0  0  0  0  0  0
   -2.8431    6.8035    3.0290 H   0  0  0  0  0  0  0  0  0  0  0  0
   -5.0124    5.7719    2.5964 N   0  0  0  0  0  0  0  0  0  0  0  0
   -5.8710    5.2912    2.3897 H   0  0  0  0  0  0  0  0  0  0  0  0
   -5.0443    6.6682    3.0460 H   0  0  0  0  0  0  0  0  0  0  0  0
   -0.9523    0.1012    2.4848 C   0  0  0  0  0  0  0  0  0  0  0  0
    0.2133   -0.1319    2.7814 O   0  0  0  0  0  0  0  0  0  0  0  0
   -1.8684    0.5006    3.3725 N   0  0  0  0  0  0  0  0  0  0  0  0
   -2.7946    0.7048    3.0343 H   0  0  0  0  0  0  0  0  0  0  0  0
   -1.5848    0.7472    4.7873 C   0  0  0  0  0  0  0  0  0  0  0  0
   -0.8819    1.5774    4.8838 H   0  0  0  0  0  0  0  0  0  0  0  0
   -2.5030    0.9948    5.3214 H   0  0  0  0  0  0  0  0  0  0  0  0
   -1.1344   -0.1399    5.2381 H   0  0  0  0  0  0  0  0  0  0  0  0
  5  6  2  0  0  0  0
  5  7  1  0  0  0  0
  2  3  1  0  0  0  0
  2  4  1  0  0  0  0
  2  5  1  0  0  0  0
  1  2  1  0  0  0  0
 29 30  2  0  0  0  0
 29 31  1  0  0  0  0
 26 27  1  0  0  0  0
 26 28  1  0  0  0  0
 23 24  1  0  0  0  0
 23 25  1  0  0  0  0
 22 23  1  0  0  0  0
 22 26  1  0  0  0  0
 20 21  1  0  0  0  0
 20 22  2  0  0  0  0
 17 18  1  0  0  0  0
 17 19  1  0  0  0  0
 17 20  1  0  0  0  0
 14 15  1  0  0  0  0
 14 16  1  0  0  0  0
 14 17  1  0  0  0  0
 11 12  1  0  0  0  0
 11 13  1  0  0  0  0
 11 14  1  0  0  0  0
  9 10  1  0  0  0  0
  9 11  1  0  0  0  0
  9 29  1  0  0  0  0
  7  8  1  0  0  0  0
  7  9  1  0  0  0  0
 33 34  1  0  0  0  0
 33 35  1  0  0  0  0
 33 36  1  0  0  0  0
 31 32  1  0  0  0  0
 31 33  1  0  0  0  0
M  CHG  1  20   1
M  END
$$$$
default_name
  -OEChem-02102213163D

 36 35  0     1  0  0  0  0  0999 V2000
   -4.2256   -3.6731    1.8584 H   0  0  0  0  0  0  0  0  0  0  0  0
   -4.2396   -2.6781    1.4144 C   0  0  0  0  0  0  0  0  0  0  0  0
   -4.9506   -2.0521    1.9514 H   0  0  0  0  0  0  0  0  0  0  0  0
   -4.5266   -2.7521    0.3674 H   0  0  0  0  0  0  0  0  0  0  0  0
   -2.8576   -2.0761    1.5184 C   0  0  0  0  0  0  0  0  0  0  0  0
   -1.9456   -2.7051    2.0404 O   0  0  0  0  0  0  0  0  0  0  0  0
   -2.6926   -0.8481    1.0174 N   0  0  0  0  0  0  0  0  0  0  0  0
   -3.4926   -0.3971    0.5954 H   0  0  0  0  0  0  0  0  0  0  0  0
   -1.4216   -0.1071    1.0434 C   0  0  1  0  0  0  0  0  0  0  0  0
   -0.6709   -0.6930    0.5106 H   0  0  0  0  0  0  0  0  0  0  0  0
   -1.6221    1.2315    0.3051 C   0  0  0  0  0  0  0  0  0  0  0  0
   -0.7818    1.8880    0.5397 H   0  0  0  0  0  0  0  0  0  0  0  0
   -1.6194    1.0490   -0.7717 H   0  0  0  0  0  0  0  0  0  0  0  0
   -2.9211    1.9539    0.6910 C   0  0  0  0  0  0  0  0  0  0  0  0
   -3.6527    1.8512   -0.1117 H   0  0  0  0  0  0  0  0  0  0  0  0
   -3.3226    1.5115    1.6032 H   0  0  0  0  0  0  0  0  0  0  0  0
   -2.6400    3.4440    0.9273 C   0  0  0  0  0  0  0  0  0  0  0  0
   -1.8872    3.5365    1.7135 H   0  0  0  0  0  0  0  0  0  0  0  0
   -2.2410    3.8731    0.0050 H   0  0  0  0  0  0  0  0  0  0  0  0
   -3.8602    4.1760    1.3249 N   0  3  0  0  0  0  0  0  0  0  0  0
   -4.7158    3.6481    1.3492 H   0  0  0  0  0  0  0  0  0  0  0  0
   -3.9327    5.4556    1.6509 C   0  0  0  0  0  0  0  0  0  0  0  0
   -2.8848    6.2310    1.6524 N   0  0  0  0  0  0  0  0  0  0  0  0
   -1.9942    5.8412    1.3987 H   0  0  0  0  0  0  0  0  0  0  0  0
   -2.9572    7.2002    1.9021 H   0  0  0  0  0  0  0  0  0  0  0  0
   -5.0740    5.9878    1.9848 N   0  0  0  0  0  0  0  0  0  0  0  0
   -5.9102    5.4296    1.9987 H   0  0  0  0  0  0  0  0  0  0  0  0
   -5.1245    6.9590    2.2316 H   0  0  0  0  0  0  0  0  0  0  0  0
   -0.9523    0.1012    2.4848 C   0  0  0  0  0  0  0  0  0  0  0  0
    0.2133   -0.1319    2.7814 O   0  0  0  0  0  0  0  0  0  0  0  0
   -1.8684    0.5006    3.3725 N   0  0  0  0  0  0  0  0  0  0  0  0
   -2.7946    0.7048    3.0343 H   0  0  0  0  0  0  0  0  0  0  0  0
   -1.5848    0.7472    4.7873 C   0  0  0  0  0  0  0  0  0  0  0  0
   -0.8819    1.5774    4.8838 H   0  0  0  0  0  0  0  0  0  0  0  0
   -2.5030    0.9948    5.3214 H   0  0  0  0  0  0  0  0  0  0  0  0
   -1.1344   -0.1399    5.2381 H   0  0  0  0  0  0  0  0  0  0  0  0
  5  6  2  0  0  0  0
  5  7  1  0  0  0  0
  2  3  1  0  0  0  0
  2  4  1  0  0  0  0
  2  5  1  0  0  0  0
  1  2  1  0  0  0  0
 29 30  2  0  0  0  0
 29 31  1  0  0  0  0
 26 27  1  0  0  0  0
 26 28  1  0  0  0  0
 23 24  1  0  0  0  0
 23 25  1  0  0  0  0
 22 23  1  0  0  0  0
 22 26  1  0  0  0  0
 20 21  1  0  0  0  0
 20 22  2  0  0  0  0
 17 18  1  0  0  0  0
 17 19  1  0  0  0  0
 17 20  1  0  0  0  0
 14 15  1  0  0  0  0
 14 16  1  0  0  0  0
 14 17  1  0  0  0  0
 11 12  1  0  0  0  0
 11 13  1  0  0  0  0
 11 14  1  0  0  0  0
  9 10  1  0  0  0  0
  9 11  1  0  0  0  0
  9 29  1  0  0  0  0
  7  8  1  0  0  0  0
  7  9  1  0  0  0  0
 33 34  1  0  0  0  0
 33 35  1  0  0  0  0
 33 36  1  0  0  0  0
 31 32  1  0  0  0  0
 31 33  1  0  0  0  0
M  CHG  1  20   1
M  END
$$$$
default_name
  -OEChem-02102213163D

 36 35  0     1  0  0  0  0  0999 V2000
   -4.2256   -3.6731    1.8584 H   0  0  0  0  0  0  0  0  0  0  0  0
   -4.2396   -2.6781    1.4144 C   0  0  0  0  0  0  0  0  0  0  0  0
   -4.9506   -2.0521    1.9514 H   0  0  0  0  0  0  0  0  0  0  0  0
   -4.5266   -2.7521    0.3674 H   0  0  0  0  0  0  0  0  0  0  0  0
   -2.8576   -2.0761    1.5184 C   0  0  0  0  0  0  0  0  0  0  0  0
   -1.9456   -2.7051    2.0404 O   0  0  0  0  0  0  0  0  0  0  0  0
   -2.6926   -0.8481    1.0174 N   0  0  0  0  0  0  0  0  0  0  0  0
   -3.4926   -0.3971    0.5954 H   0  0  0  0  0  0  0  0  0  0  0  0
   -1.4216   -0.1071    1.0434 C   0  0  1  0  0  0  0  0  0  0  0  0
   -0.6709   -0.6930    0.5106 H   0  0  0  0  0  0  0  0  0  0  0  0
   -1.6221    1.2315    0.3051 C   0  0  0  0  0  0  0  0  0  0  0  0
   -0.7818    1.8880    0.5397 H   0  0  0  0  0  0  0  0  0  0  0  0
   -1.6194    1.0490   -0.7717 H   0  0  0  0  0  0  0  0  0  0  0  0
   -2.9211    1.9539    0.6910 C   0  0  0  0  0  0  0  0  0  0  0  0
   -3.7295    1.6373    0.0304 H   0  0  0  0  0  0  0  0  0  0  0  0
   -3.1795    1.7060    1.7210 H   0  0  0  0  0  0  0  0  0  0  0  0
   -2.7327    3.4717    0.5632 C   0  0  0  0  0  0  0  0  0  0  0  0
   -1.9045    3.7757    1.2074 H   0  0  0  0  0  0  0  0  0  0  0  0
   -2.4770    3.7042   -0.4732 H   0  0  0  0  0  0  0  0  0  0  0  0
   -3.9531    4.2100    0.9482 N   0  3  0  0  0  0  0  0  0  0  0  0
   -4.7562    3.6575    1.1956 H   0  0  0  0  0  0  0  0  0  0  0  0
   -4.0881    5.5247    0.9982 C   0  0  0  0  0  0  0  0  0  0  0  0
   -3.1112    6.3337    0.6978 N   0  0  0  0  0  0  0  0  0  0  0  0
   -2.2277    5.9436    0.4211 H   0  0  0  0  0  0  0  0  0  0  0  0
   -3.2305    7.3291    0.7406 H   0  0  0  0  0  0  0  0  0  0  0  0
   -5.2220    6.0584    1.3543 N   0  0  0  0  0  0  0  0  0  0  0  0
   -6.0046    5.4751    1.5955 H   0  0  0  0  0  0  0  0  0  0  0  0
   -5.3201    7.0562    1.3909 H   0  0  0  0  0  0  0  0  0  0  0  0
   -0.9523    0.1012    2.4848 C   0  0  0  0  0  0  0  0  0  0  0  0
    0.2133   -0.1319    2.7814 O   0  0  0  0  0  0  0  0  0  0  0  0
   -1.8684    0.5006    3.3725 N   0  0  0  0  0  0  0  0  0  0  0  0
   -2.7946    0.7048    3.0343 H   0  0  0  0  0  0  0  0  0  0  0  0
   -1.5848    0.7472    4.7873 C   0  0  0  0  0  0  0  0  0  0  0  0
   -0.8819    1.5774    4.8838 H   0  0  0  0  0  0  0  0  0  0  0  0
   -2.5030    0.9948    5.3214 H   0  0  0  0  0  0  0  0  0  0  0  0
   -1.1344   -0.1399    5.2381 H   0  0  0  0  0  0  0  0  0  0  0  0
  5  6  2  0  0  0  0
  5  7  1  0  0  0  0
  2  3  1  0  0  0  0
  2  4  1  0  0  0  0
  2  5  1  0  0  0  0
  1  2  1  0  0  0  0
 29 30  2  0  0  0  0
 29 31  1  0  0  0  0
 26 27  1  0  0  0  0
 26 28  1  0  0  0  0
 23 24  1  0  0  0  0
 23 25  1  0  0  0  0
 22 23  1  0  0  0  0
 22 26  1  0  0  0  0
 20 21  1  0  0  0  0
 20 22  2  0  0  0  0
 17 18  1  0  0  0  0
 17 19  1  0  0  0  0
 17 20  1  0  0  0  0
 14 15  1  0  0  0  0
 14 16  1  0  0  0  0
 14 17  1  0  0  0  0
 11 12  1  0  0  0  0
 11 13  1  0  0  0  0
 11 14  1  0  0  0  0
  9 10  1  0  0  0  0
  9 11  1  0  0  0  0
  9 29  1  0  0  0  0
  7  8  1  0  0  0  0
  7  9  1  0  0  0  0
 33 34  1  0  0  0  0
 33 35  1  0  0  0  0
 33 36  1  0  0  0  0
 31 32  1  0  0  0  0
 31 33  1  0  0  0  0
M  CHG  1  20   1
M  END
$$$$
default_name
  -OEChem-02102213163D

 36 35  0     1  0  0  0  0  0999 V2000
   -4.2256   -3.6731    1.8584 H   0  0  0  0  0  0  0  0  0  0  0  0
   -4.2396   -2.6781    1.4144 C   0  0  0  0  0  0  0  0  0  0  0  0
   -4.9506   -2.0521    1.9514 H   0  0  0  0  0  0  0  0  0  0  0  0
   -4.5266   -2.7521    0.3674 H   0  0  0  0  0  0  0  0  0  0  0  0
   -2.8576   -2.0761    1.5184 C   0  0  0  0  0  0  0  0  0  0  0  0
   -1.9456   -2.7051    2.0404 O   0  0  0  0  0  0  0  0  0  0  0  0
   -2.6926   -0.8481    1.0174 N   0  0  0  0  0  0  0  0  0  0  0  0
   -3.4926   -0.3971    0.5954 H   0  0  0  0  0  0  0  0  0  0  0  0
   -1.4216   -0.1071    1.0434 C   0  0  1  0  0  0  0  0  0  0  0  0
   -0.6709   -0.6930    0.5106 H   0  0  0  0  0  0  0  0  0  0  0  0
   -1.6221    1.2315    0.3051 C   0  0  0  0  0  0  0  0  0  0  0  0
   -0.7818    1.8880    0.5397 H   0  0  0  0  0  0  0  0  0  0  0  0
   -1.6194    1.0490   -0.7717 H   0  0  0  0  0  0  0  0  0  0  0  0
   -2.9211    1.9539    0.6910 C   0  0  0  0  0  0  0  0  0  0  0  0
   -3.7724    1.4568    0.2238 H   0  0  0  0  0  0  0  0  0  0  0  0
   -3.0396    1.9289    1.7747 H   0  0  0  0  0  0  0  0  0  0  0  0
   -2.8685    3.4126    0.2168 C   0  0  0  0  0  0  0  0  0  0  0  0
   -1.9984    3.8948    0.6682 H   0  0  0  0  0  0  0  0  0  0  0  0
   -2.7522    3.4210   -0.8695 H   0  0  0  0  0  0  0  0  0  0  0  0
   -4.0910    4.1544    0.5882 N   0  3  0  0  0  0  0  0  0  0  0  0
   -4.8145    3.6304    1.0501 H   0  0  0  0  0  0  0  0  0  0  0  0
   -4.3223    5.4383    0.3715 C   0  0  0  0  0  0  0  0  0  0  0  0
   -3.4528    6.2092   -0.2192 N   0  0  0  0  0  0  0  0  0  0  0  0
   -2.5788    5.8132   -0.5172 H   0  0  0  0  0  0  0  0  0  0  0  0
   -3.6443    7.1816   -0.3763 H   0  0  0  0  0  0  0  0  0  0  0  0
   -5.4463    5.9790    0.7478 N   0  0  0  0  0  0  0  0  0  0  0  0
   -6.1479    5.4247    1.2076 H   0  0  0  0  0  0  0  0  0  0  0  0
   -5.6177    6.9534    0.5815 H   0  0  0  0  0  0  0  0  0  0  0  0
   -0.9523    0.1012    2.4848 C   0  0  0  0  0  0  0  0  0  0  0  0
    0.2133   -0.1319    2.7814 O   0  0  0  0  0  0  0  0  0  0  0  0
   -1.8684    0.5006    3.3725 N   0  0  0  0  0  0  0  0  0  0  0  0
   -2.7946    0.7048    3.0343 H   0  0  0  0  0  0  0  0  0  0  0  0
   -1.5848    0.7472    4.7873 C   0  0  0  0  0  0  0  0  0  0  0  0
   -0.8819    1.5774    4.8838 H   0  0  0  0  0  0  0  0  0  0  0  0
   -2.5030    0.9948    5.3214 H   0  0  0  0  0  0  0  0  0  0  0  0
   -1.1344   -0.1399    5.2381 H   0  0  0  0  0  0  0  0  0  0  0  0
  5  6  2  0  0  0  0
  5  7  1  0  0  0  0
  2  3  1  0  0  0  0
  2  4  1  0  0  0  0
  2  5  1  0  0  0  0
  1  2  1  0  0  0  0
 29 30  2  0  0  0  0
 29 31  1  0  0  0  0
 26 27  1  0  0  0  0
 26 28  1  0  0  0  0
 23 24  1  0  0  0  0
 23 25  1  0  0  0  0
 22 23  1  0  0  0  0
 22 26  1  0  0  0  0
 20 21  1  0  0  0  0
 20 22  2  0  0  0  0
 17 18  1  0  0  0  0
 17 19  1  0  0  0  0
 17 20  1  0  0  0  0
 14 15  1  0  0  0  0
 14 16  1  0  0  0  0
 14 17  1  0  0  0  0
 11 12  1  0  0  0  0
 11 13  1  0  0  0  0
 11 14  1  0  0  0  0
  9 10  1  0  0  0  0
  9 11  1  0  0  0  0
  9 29  1  0  0  0  0
  7  8  1  0  0  0  0
  7  9  1  0  0  0  0
 33 34  1  0  0  0  0
 33 35  1  0  0  0  0
 33 36  1  0  0  0  0
 31 32  1  0  0  0  0
 31 33  1  0  0  0  0
M  CHG  1  20   1
M  END
$$$$
default_name
  -OEChem-02102213163D

 36 35  0     1  0  0  0  0  0999 V2000
   -4.2256   -3.6731    1.8584 H   0  0  0  0  0  0  0  0  0  0  0  0
   -4.2396   -2.6781    1.4144 C   0  0  0  0  0  0  0  0  0  0  0  0
   -4.9506   -2.0521    1.9514 H   0  0  0  0  0  0  0  0  0  0  0  0
   -4.5266   -2.7521    0.3674 H   0  0  0  0  0  0  0  0  0  0  0  0
   -2.8576   -2.0761    1.5184 C   0  0  0  0  0  0  0  0  0  0  0  0
   -1.9456   -2.7051    2.0404 O   0  0  0  0  0  0  0  0  0  0  0  0
   -2.6926   -0.8481    1.0174 N   0  0  0  0  0  0  0  0  0  0  0  0
   -3.4926   -0.3971    0.5954 H   0  0  0  0  0  0  0  0  0  0  0  0
   -1.4216   -0.1071    1.0434 C   0  0  1  0  0  0  0  0  0  0  0  0
   -0.6709   -0.6930    0.5106 H   0  0  0  0  0  0  0  0  0  0  0  0
   -1.6221    1.2315    0.3051 C   0  0  0  0  0  0  0  0  0  0  0  0
   -0.6779    1.7797    0.3151 H   0  0  0  0  0  0  0  0  0  0  0  0
   -1.8857    1.0293   -0.7353 H   0  0  0  0  0  0  0  0  0  0  0  0
   -2.7033    2.1213    0.9354 C   0  0  0  0  0  0  0  0  0  0  0  0
   -3.6614    1.5998    0.9271 H   0  0  0  0  0  0  0  0  0  0  0  0
   -2.4268    2.3505    1.9651 H   0  0  0  0  0  0  0  0  0  0  0  0
   -2.8348    3.4270    0.1396 C   0  0  0  0  0  0  0  0  0  0  0  0
   -1.8647    3.9291    0.1307 H   0  0  0  0  0  0  0  0  0  0  0  0
   -3.1141    3.1813   -0.8877 H   0  0  0  0  0  0  0  0  0  0  0  0
   -3.8499    4.3265    0.7256 N   0  3  0  0  0  0  0  0  0  0  0  0
   -4.3567    3.9781    1.5212 H   0  0  0  0  0  0  0  0  0  0  0  0
   -4.1534    5.5426    0.3037 C   0  0  0  0  0  0  0  0  0  0  0  0
   -3.5581    6.0903   -0.7185 N   0  0  0  0  0  0  0  0  0  0  0  0
   -2.8451    5.5704   -1.1988 H   0  0  0  0  0  0  0  0  0  0  0  0
   -3.8006    7.0142   -1.0260 H   0  0  0  0  0  0  0  0  0  0  0  0
   -5.0731    6.2402    0.9076 N   0  0  0  0  0  0  0  0  0  0  0  0
   -5.5599    5.8602    1.7011 H   0  0  0  0  0  0  0  0  0  0  0  0
   -5.3002    7.1624    0.5844 H   0  0  0  0  0  0  0  0  0  0  0  0
   -0.9523    0.1012    2.4848 C   0  0  0  0  0  0  0  0  0  0  0  0
    0.2133   -0.1319    2.7814 O   0  0  0  0  0  0  0  0  0  0  0  0
   -1.8684    0.5006    3.3725 N   0  0  0  0  0  0  0  0  0  0  0  0
   -2.7946    0.7048    3.0343 H   0  0  0  0  0  0  0  0  0  0  0  0
   -1.5848    0.7472    4.7873 C   0  0  0  0  0  0  0  0  0  0  0  0
   -0.8819    1.5774    4.8838 H   0  0  0  0  0  0  0  0  0  0  0  0
   -2.5030    0.9948    5.3214 H   0  0  0  0  0  0  0  0  0  0  0  0
   -1.1344   -0.1399    5.2381 H   0  0  0  0  0  0  0  0  0  0  0  0
  5  6  2  0  0  0  0
  5  7  1  0  0  0  0
  2  3  1  0  0  0  0
  2  4  1  0  0  0  0
  2  5  1  0  0  0  0
  1  2  1  0  0  0  0
 29 30  2  0  0  0  0
 29 31  1  0  0  0  0
 26 27  1  0  0  0  0
 26 28  1  0  0  0  0
 23 24  1  0  0  0  0
 23 25  1  0  0  0  0
 22 23  1  0  0  0  0
 22 26  1  0  0  0  0
 20 21  1  0  0  0  0
 20 22  2  0  0  0  0
 17 18  1  0  0  0  0
 17 19  1  0  0  0  0
 17 20  1  0  0  0  0
 14 15  1  0  0  0  0
 14 16  1  0  0  0  0
 14 17  1  0  0  0  0
 11 12  1  0  0  0  0
 11 13  1  0  0  0  0
 11 14  1  0  0  0  0
  9 10  1  0  0  0  0
  9 11  1  0  0  0  0
  9 29  1  0  0  0  0
  7  8  1  0  0  0  0
  7  9  1  0  0  0  0
 33 34  1  0  0  0  0
 33 35  1  0  0  0  0
 33 36  1  0  0  0  0
 31 32  1  0  0  0  0
 31 33  1  0  0  0  0
M  CHG  1  20   1
M  END
$$$$
default_name
  -OEChem-02102213163D

 36 35  0     1  0  0  0  0  0999 V2000
   -4.2256   -3.6731    1.8584 H   0  0  0  0  0  0  0  0  0  0  0  0
   -4.2396   -2.6781    1.4144 C   0  0  0  0  0  0  0  0  0  0  0  0
   -4.9506   -2.0521    1.9514 H   0  0  0  0  0  0  0  0  0  0  0  0
   -4.5266   -2.7521    0.3674 H   0  0  0  0  0  0  0  0  0  0  0  0
   -2.8576   -2.0761    1.5184 C   0  0  0  0  0  0  0  0  0  0  0  0
   -1.9456   -2.7051    2.0404 O   0  0  0  0  0  0  0  0  0  0  0  0
   -2.6926   -0.8481    1.0174 N   0  0  0  0  0  0  0  0  0  0  0  0
   -3.4926   -0.3971    0.5954 H   0  0  0  0  0  0  0  0  0  0  0  0
   -1.4216   -0.1071    1.0434 C   0  0  1  0  0  0  0  0  0  0  0  0
   -0.6709   -0.6930    0.5106 H   0  0  0  0  0  0  0  0  0  0  0  0
   -1.6221    1.2315    0.3051 C   0  0  0  0  0  0  0  0  0  0  0  0
   -0.6779    1.7797    0.3151 H   0  0  0  0  0  0  0  0  0  0  0  0
   -1.8857    1.0293   -0.7353 H   0  0  0  0  0  0  0  0  0  0  0  0
   -2.7033    2.1213    0.9354 C   0  0  0  0  0  0  0  0  0  0  0  0
   -3.5835    1.5215    1.1713 H   0  0  0  0  0  0  0  0  0  0  0  0
   -2.3148    2.5669    1.8518 H   0  0  0  0  0  0  0  0  0  0  0  0
   -3.1010    3.2338   -0.0442 C   0  0  0  0  0  0  0  0  0  0  0  0
   -2.2091    3.8125   -0.2953 H   0  0  0  0  0  0  0  0  0  0  0  0
   -3.4899    2.7724   -0.9550 H   0  0  0  0  0  0  0  0  0  0  0  0
   -4.1245    4.1308    0.5308 N   0  3  0  0  0  0  0  0  0  0  0  0
   -4.4693    3.8949    1.4456 H   0  0  0  0  0  0  0  0  0  0  0  0
   -4.6280    5.2110   -0.0424 C   0  0  0  0  0  0  0  0  0  0  0  0
   -4.2520    5.6068   -1.2262 N   0  0  0  0  0  0  0  0  0  0  0  0
   -3.5561    5.0730   -1.7163 H   0  0  0  0  0  0  0  0  0  0  0  0
   -4.6444    6.4288   -1.6470 H   0  0  0  0  0  0  0  0  0  0  0  0
   -5.5311    5.9228    0.5699 N   0  0  0  0  0  0  0  0  0  0  0  0
   -5.8527    5.6576    1.4849 H   0  0  0  0  0  0  0  0  0  0  0  0
   -5.9104    6.7417    0.1315 H   0  0  0  0  0  0  0  0  0  0  0  0
   -0.9523    0.1012    2.4848 C   0  0  0  0  0  0  0  0  0  0  0  0
    0.2133   -0.1319    2.7814 O   0  0  0  0  0  0  0  0  0  0  0  0
   -1.8684    0.5006    3.3725 N   0  0  0  0  0  0  0  0  0  0  0  0
   -2.7946    0.7048    3.0343 H   0  0  0  0  0  0  0  0  0  0  0  0
   -1.5848    0.7472    4.7873 C   0  0  0  0  0  0  0  0  0  0  0  0
   -0.8819    1.5774    4.8838 H   0  0  0  0  0  0  0  0  0  0  0  0
   -2.5030    0.9948    5.3214 H   0  0  0  0  0  0  0  0  0  0  0  0
   -1.1344   -0.1399    5.2381 H   0  0  0  0  0  0  0  0  0  0  0  0
  5  6  2  0  0  0  0
  5  7  1  0  0  0  0
  2  3  1  0  0  0  0
  2  4  1  0  0  0  0
  2  5  1  0  0  0  0
  1  2  1  0  0  0  0
 29 30  2  0  0  0  0
 29 31  1  0  0  0  0
 26 27  1  0  0  0  0
 26 28  1  0  0  0  0
 23 24  1  0  0  0  0
 23 25  1  0  0  0  0
 22 23  1  0  0  0  0
 22 26  1  0  0  0  0
 20 21  1  0  0  0  0
 20 22  2  0  0  0  0
 17 18  1  0  0  0  0
 17 19  1  0  0  0  0
 17 20  1  0  0  0  0
 14 15  1  0  0  0  0
 14 16  1  0  0  0  0
 14 17  1  0  0  0  0
 11 12  1  0  0  0  0
 11 13  1  0  0  0  0
 11 14  1  0  0  0  0
  9 10  1  0  0  0  0
  9 11  1  0  0  0  0
  9 29  1  0  0  0  0
  7  8  1  0  0  0  0
  7  9  1  0  0  0  0
 33 34  1  0  0  0  0
 33 35  1  0  0  0  0
 33 36  1  0  0  0  0
 31 32  1  0  0  0  0
 31 33  1  0  0  0  0
M  CHG  1  20   1
M  END
$$$$
default_name
  -OEChem-02102213163D

 36 35  0     1  0  0  0  0  0999 V2000
   -4.2256   -3.6731    1.8584 H   0  0  0  0  0  0  0  0  0  0  0  0
   -4.2396   -2.6781    1.4144 C   0  0  0  0  0  0  0  0  0  0  0  0
   -4.9506   -2.0521    1.9514 H   0  0  0  0  0  0  0  0  0  0  0  0
   -4.5266   -2.7521    0.3674 H   0  0  0  0  0  0  0  0  0  0  0  0
   -2.8576   -2.0761    1.5184 C   0  0  0  0  0  0  0  0  0  0  0  0
   -1.9456   -2.7051    2.0404 O   0  0  0  0  0  0  0  0  0  0  0  0
   -2.6926   -0.8481    1.0174 N   0  0  0  0  0  0  0  0  0  0  0  0
   -3.4926   -0.3971    0.5954 H   0  0  0  0  0  0  0  0  0  0  0  0
   -1.4216   -0.1071    1.0434 C   0  0  1  0  0  0  0  0  0  0  0  0
   -0.6709   -0.6930    0.5106 H   0  0  0  0  0  0  0  0  0  0  0  0
   -1.6221    1.2315    0.3051 C   0  0  0  0  0  0  0  0  0  0  0  0
   -0.6779    1.7797    0.3151 H   0  0  0  0  0  0  0  0  0  0  0  0
   -1.8857    1.0293   -0.7353 H   0  0  0  0  0  0  0  0  0  0  0  0
   -2.7033    2.1213    0.9354 C   0  0  0  0  0  0  0  0  0  0  0  0
   -3.4632    1.4987    1.4097 H   0  0  0  0  0  0  0  0  0  0  0  0
   -2.2466    2.7671    1.6862 H   0  0  0  0  0  0  0  0  0  0  0  0
   -3.3651    2.9855   -0.1466 C   0  0  0  0  0  0  0  0  0  0  0  0
   -2.5932    3.5856   -0.6340 H   0  0  0  0  0  0  0  0  0  0  0  0
   -3.8195    2.3252   -0.8891 H   0  0  0  0  0  0  0  0  0  0  0  0
   -4.3982    3.8770    0.4195 N   0  3  0  0  0  0  0  0  0  0  0  0
   -4.5805    3.7888    1.4045 H   0  0  0  0  0  0  0  0  0  0  0  0
   -5.1031    4.7773   -0.2451 C   0  0  0  0  0  0  0  0  0  0  0  0
   -4.9470    4.9734   -1.5244 N   0  0  0  0  0  0  0  0  0  0  0  0
   -4.2676    4.4227   -2.0189 H   0  0  0  0  0  0  0  0  0  0  0  0
   -5.4904    5.6605   -2.0137 H   0  0  0  0  0  0  0  0  0  0  0  0
   -5.9904    5.5061    0.3703 N   0  0  0  0  0  0  0  0  0  0  0  0
   -6.1464    5.3913    1.3569 H   0  0  0  0  0  0  0  0  0  0  0  0
   -6.5230    6.1880   -0.1377 H   0  0  0  0  0  0  0  0  0  0  0  0
   -0.9523    0.1012    2.4848 C   0  0  0  0  0  0  0  0  0  0  0  0
    0.2133   -0.1319    2.7814 O   0  0  0  0  0  0  0  0  0  0  0  0
   -1.8684    0.5006    3.3725 N   0  0  0  0  0  0  0  0  0  0  0  0
   -2.7946    0.7048    3.0343 H   0  0  0  0  0  0  0  0  0  0  0  0
   -1.5848    0.7472    4.7873 C   0  0  0  0  0  0  0  0  0  0  0  0
   -0.8819    1.5774    4.8838 H   0  0  0  0  0  0  0  0  0  0  0  0
   -2.5030    0.9948    5.3214 H   0  0  0  0  0  0  0  0  0  0  0  0
   -1.1344   -0.1399    5.2381 H   0  0  0  0  0  0  0  0  0  0  0  0
  5  6  2  0  0  0  0
  5  7  1  0  0  0  0
  2  3  1  0  0  0  0
  2  4  1  0  0  0  0
  2  5  1  0  0  0  0
  1  2  1  0  0  0  0
 29 30  2  0  0  0  0
 29 31  1  0  0  0  0
 26 27  1  0  0  0  0
 26 28  1  0  0  0  0
 23 24  1  0  0  0  0
 23 25  1  0  0  0  0
 22 23  1  0  0  0  0
 22 26  1  0  0  0  0
 20 21  1  0  0  0  0
 20 22  2  0  0  0  0
 17 18  1  0  0  0  0
 17 19  1  0  0  0  0
 17 20  1  0  0  0  0
 14 15  1  0  0  0  0
 14 16  1  0  0  0  0
 14 17  1  0  0  0  0
 11 12  1  0  0  0  0
 11 13  1  0  0  0  0
 11 14  1  0  0  0  0
  9 10  1  0  0  0  0
  9 11  1  0  0  0  0
  9 29  1  0  0  0  0
  7  8  1  0  0  0  0
  7  9  1  0  0  0  0
 33 34  1  0  0  0  0
 33 35  1  0  0  0  0
 33 36  1  0  0  0  0
 31 32  1  0  0  0  0
 31 33  1  0  0  0  0
M  CHG  1  20   1
M  END
$$$$
default_name
  -OEChem-02102213163D

 36 35  0     1  0  0  0  0  0999 V2000
   -4.2256   -3.6731    1.8584 H   0  0  0  0  0  0  0  0  0  0  0  0
   -4.2396   -2.6781    1.4144 C   0  0  0  0  0  0  0  0  0  0  0  0
   -4.9506   -2.0521    1.9514 H   0  0  0  0  0  0  0  0  0  0  0  0
   -4.5266   -2.7521    0.3674 H   0  0  0  0  0  0  0  0  0  0  0  0
   -2.8576   -2.0761    1.5184 C   0  0  0  0  0  0  0  0  0  0  0  0
   -1.9456   -2.7051    2.0404 O   0  0  0  0  0  0  0  0  0  0  0  0
   -2.6926   -0.8481    1.0174 N   0  0  0  0  0  0  0  0  0  0  0  0
   -3.4926   -0.3971    0.5954 H   0  0  0  0  0  0  0  0  0  0  0  0
   -1.4216   -0.1071    1.0434 C   0  0  1  0  0  0  0  0  0  0  0  0
   -0.6709   -0.6930    0.5106 H   0  0  0  0  0  0  0  0  0  0  0  0
   -1.6221    1.2315    0.3051 C   0  0  0  0  0  0  0  0  0  0  0  0
   -0.6779    1.7797    0.3151 H   0  0  0  0  0  0  0  0  0  0  0  0
   -1.8857    1.0293   -0.7353 H   0  0  0  0  0  0  0  0  0  0  0  0
   -2.7033    2.1213    0.9354 C   0  0  0  0  0  0  0  0  0  0  0  0
   -3.3089    1.5329    1.6261 H   0  0  0  0  0  0  0  0  0  0  0  0
   -2.2269    2.9375    1.4795 H   0  0  0  0  0  0  0  0  0  0  0  0
   -3.6091    2.6988   -0.1607 C   0  0  0  0  0  0  0  0  0  0  0  0
   -2.9909    3.2639   -0.8621 H   0  0  0  0  0  0  0  0  0  0  0  0
   -4.0805    1.8703   -0.6945 H   0  0  0  0  0  0  0  0  0  0  0  0
   -4.6523    3.5826    0.3992 N   0  3  0  0  0  0  0  0  0  0  0  0
   -4.6829    3.6670    1.4009 H   0  0  0  0  0  0  0  0  0  0  0  0
   -5.5464    4.2709   -0.2906 C   0  0  0  0  0  0  0  0  0  0  0  0
   -5.5958    4.2335   -1.5927 N   0  0  0  0  0  0  0  0  0  0  0  0
   -4.9312    3.6639   -2.0859 H   0  0  0  0  0  0  0  0  0  0  0  0
   -6.2810    4.7617   -2.1010 H   0  0  0  0  0  0  0  0  0  0  0  0
   -6.4198    5.0185    0.3222 N   0  0  0  0  0  0  0  0  0  0  0  0
   -6.4210    5.0796    1.3258 H   0  0  0  0  0  0  0  0  0  0  0  0
   -7.0963    5.5390   -0.2050 H   0  0  0  0  0  0  0  0  0  0  0  0
   -0.9523    0.1012    2.4848 C   0  0  0  0  0  0  0  0  0  0  0  0
    0.2133   -0.1319    2.7814 O   0  0  0  0  0  0  0  0  0  0  0  0
   -1.8684    0.5006    3.3725 N   0  0  0  0  0  0  0  0  0  0  0  0
   -2.7946    0.7048    3.0343 H   0  0  0  0  0  0  0  0  0  0  0  0
   -1.5848    0.7472    4.7873 C   0  0  0  0  0  0  0  0  0  0  0  0
   -0.8819    1.5774    4.8838 H   0  0  0  0  0  0  0  0  0  0  0  0
   -2.5030    0.9948    5.3214 H   0  0  0  0  0  0  0  0  0  0  0  0
   -1.1344   -0.1399    5.2381 H   0  0  0  0  0  0  0  0  0  0  0  0
  5  6  2  0  0  0  0
  5  7  1  0  0  0  0
  2  3  1  0  0  0  0
  2  4  1  0  0  0  0
  2  5  1  0  0  0  0
  1  2  1  0  0  0  0
 29 30  2  0  0  0  0
 29 31  1  0  0  0  0
 26 27  1  0  0  0  0
 26 28  1  0  0  0  0
 23 24  1  0  0  0  0
 23 25  1  0  0  0  0
 22 23  1  0  0  0  0
 22 26  1  0  0  0  0
 20 21  1  0  0  0  0
 20 22  2  0  0  0  0
 17 18  1  0  0  0  0
 17 19  1  0  0  0  0
 17 20  1  0  0  0  0
 14 15  1  0  0  0  0
 14 16  1  0  0  0  0
 14 17  1  0  0  0  0
 11 12  1  0  0  0  0
 11 13  1  0  0  0  0
 11 14  1  0  0  0  0
  9 10  1  0  0  0  0
  9 11  1  0  0  0  0
  9 29  1  0  0  0  0
  7  8  1  0  0  0  0
  7  9  1  0  0  0  0
 33 34  1  0  0  0  0
 33 35  1  0  0  0  0
 33 36  1  0  0  0  0
 31 32  1  0  0  0  0
 31 33  1  0  0  0  0
M  CHG  1  20   1
M  END
$$$$
default_name
  -OEChem-02102213163D

 36 35  0     1  0  0  0  0  0999 V2000
   -4.2256   -3.6731    1.8584 H   0  0  0  0  0  0  0  0  0  0  0  0
   -4.2396   -2.6781    1.4144 C   0  0  0  0  0  0  0  0  0  0  0  0
   -4.9506   -2.0521    1.9514 H   0  0  0  0  0  0  0  0  0  0  0  0
   -4.5266   -2.7521    0.3674 H   0  0  0  0  0  0  0  0  0  0  0  0
   -2.8576   -2.0761    1.5184 C   0  0  0  0  0  0  0  0  0  0  0  0
   -1.9456   -2.7051    2.0404 O   0  0  0  0  0  0  0  0  0  0  0  0
   -2.6926   -0.8481    1.0174 N   0  0  0  0  0  0  0  0  0  0  0  0
   -3.4926   -0.3971    0.5954 H   0  0  0  0  0  0  0  0  0  0  0  0
   -1.4216   -0.1071    1.0434 C   0  0  1  0  0  0  0  0  0  0  0  0
   -0.6709   -0.6930    0.5106 H   0  0  0  0  0  0  0  0  0  0  0  0
   -1.6221    1.2315    0.3051 C   0  0  0  0  0  0  0  0  0  0  0  0
   -0.6779    1.7797    0.3151 H   0  0  0  0  0  0  0  0  0  0  0  0
   -1.8857    1.0293   -0.7353 H   0  0  0  0  0  0  0  0  0  0  0  0
   -2.7033    2.1213    0.9354 C   0  0  0  0  0  0  0  0  0  0  0  0
   -3.1311    1.6218    1.8058 H   0  0  0  0  0  0  0  0  0  0  0  0
   -2.2569    3.0666    1.2458 H   0  0  0  0  0  0  0  0  0  0  0  0
   -3.8165    2.3935   -0.0854 C   0  0  0  0  0  0  0  0  0  0  0  0
   -3.3751    2.8693   -0.9641 H   0  0  0  0  0  0  0  0  0  0  0  0
   -4.2550    1.4386   -0.3845 H   0  0  0  0  0  0  0  0  0  0  0  0
   -4.8695    3.2675    0.4715 N   0  3  0  0  0  0  0  0  0  0  0  0
   -4.7694    3.5379    1.4349 H   0  0  0  0  0  0  0  0  0  0  0  0
   -5.9276    3.7264   -0.1758 C   0  0  0  0  0  0  0  0  0  0  0  0
   -6.1541    3.4375   -1.4266 N   0  0  0  0  0  0  0  0  0  0  0  0
   -5.5016    2.8482   -1.9129 H   0  0  0  0  0  0  0  0  0  0  0  0
   -6.9622    3.7937   -1.9030 H   0  0  0  0  0  0  0  0  0  0  0  0
   -6.7899    4.4930    0.4291 N   0  0  0  0  0  0  0  0  0  0  0  0
   -6.6579    4.7437    1.3938 H   0  0  0  0  0  0  0  0  0  0  0  0
   -7.5912    4.8390   -0.0657 H   0  0  0  0  0  0  0  0  0  0  0  0
   -0.9523    0.1012    2.4848 C   0  0  0  0  0  0  0  0  0  0  0  0
    0.2133   -0.1319    2.7814 O   0  0  0  0  0  0  0  0  0  0  0  0
   -1.8684    0.5006    3.3725 N   0  0  0  0  0  0  0  0  0  0  0  0
   -2.7946    0.7048    3.0343 H   0  0  0  0  0  0  0  0  0  0  0  0
   -1.5848    0.7472    4.7873 C   0  0  0  0  0  0  0  0  0  0  0  0
   -0.8819    1.5774    4.8838 H   0  0  0  0  0  0  0  0  0  0  0  0
   -2.5030    0.9948    5.3214 H   0  0  0  0  0  0  0  0  0  0  0  0
   -1.1344   -0.1399    5.2381 H   0  0  0  0  0  0  0  0  0  0  0  0
  5  6  2  0  0  0  0
  5  7  1  0  0  0  0
  2  3  1  0  0  0  0
  2  4  1  0  0  0  0
  2  5  1  0  0  0  0
  1  2  1  0  0  0  0
 29 30  2  0  0  0  0
 29 31  1  0  0  0  0
 26 27  1  0  0  0  0
 26 28  1  0  0  0  0
 23 24  1  0  0  0  0
 23 25  1  0  0  0  0
 22 23  1  0  0  0  0
 22 26  1  0  0  0  0
 20 21  1  0  0  0  0
 20 22  2  0  0  0  0
 17 18  1  0  0  0  0
 17 19  1  0  0  0  0
 17 20  1  0  0  0  0
 14 15  1  0  0  0  0
 14 16  1  0  0  0  0
 14 17  1  0  0  0  0
 11 12  1  0  0  0  0
 11 13  1  0  0  0  0
 11 14  1  0  0  0  0
  9 10  1  0  0  0  0
  9 11  1  0  0  0  0
  9 29  1  0  0  0  0
  7  8  1  0  0  0  0
  7  9  1  0  0  0  0
 33 34  1  0  0  0  0
 33 35  1  0  0  0  0
 33 36  1  0  0  0  0
 31 32  1  0  0  0  0
 31 33  1  0  0  0  0
M  CHG  1  20   1
M  END
$$$$
default_name
  -OEChem-02102213163D

 36 35  0     1  0  0  0  0  0999 V2000
   -4.2256   -3.6731    1.8584 H   0  0  0  0  0  0  0  0  0  0  0  0
   -4.2396   -2.6781    1.4144 C   0  0  0  0  0  0  0  0  0  0  0  0
   -4.9506   -2.0521    1.9514 H   0  0  0  0  0  0  0  0  0  0  0  0
   -4.5266   -2.7521    0.3674 H   0  0  0  0  0  0  0  0  0  0  0  0
   -2.8576   -2.0761    1.5184 C   0  0  0  0  0  0  0  0  0  0  0  0
   -1.9456   -2.7051    2.0404 O   0  0  0  0  0  0  0  0  0  0  0  0
   -2.6926   -0.8481    1.0174 N   0  0  0  0  0  0  0  0  0  0  0  0
   -3.4926   -0.3971    0.5954 H   0  0  0  0  0  0  0  0  0  0  0  0
   -1.4216   -0.1071    1.0434 C   0  0  1  0  0  0  0  0  0  0  0  0
   -0.6709   -0.6930    0.5106 H   0  0  0  0  0  0  0  0  0  0  0  0
   -1.6221    1.2315    0.3051 C   0  0  0  0  0  0  0  0  0  0  0  0
   -0.6779    1.7797    0.3151 H   0  0  0  0  0  0  0  0  0  0  0  0
   -1.8857    1.0293   -0.7353 H   0  0  0  0  0  0  0  0  0  0  0  0
   -2.7033    2.1213    0.9354 C   0  0  0  0  0  0  0  0  0  0  0  0
   -2.9417    1.7592    1.9365 H   0  0  0  0  0  0  0  0  0  0  0  0
   -2.3346    3.1455    1.0010 H   0  0  0  0  0  0  0  0  0  0  0  0
   -3.9732    2.0903    0.0740 C   0  0  0  0  0  0  0  0  0  0  0  0
   -3.7196    2.4288   -0.9332 H   0  0  0  0  0  0  0  0  0  0  0  0
   -4.3313    1.0595    0.0198 H   0  0  0  0  0  0  0  0  0  0  0  0
   -5.0350    2.9532    0.6312 N   0  3  0  0  0  0  0  0  0  0  0  0
   -4.8340    3.4101    1.5043 H   0  0  0  0  0  0  0  0  0  0  0  0
   -6.2207    3.1808    0.0915 C   0  0  0  0  0  0  0  0  0  0  0  0
   -6.5839    2.6395   -1.0374 N   0  0  0  0  0  0  0  0  0  0  0  0
   -5.9399    2.0312   -1.5115 H   0  0  0  0  0  0  0  0  0  0  0  0
   -7.4877    2.8224   -1.4331 H   0  0  0  0  0  0  0  0  0  0  0  0
   -7.0756    3.9656    0.6836 N   0  0  0  0  0  0  0  0  0  0  0  0
   -6.8407    4.4065    1.5562 H   0  0  0  0  0  0  0  0  0  0  0  0
   -7.9740    4.1356    0.2706 H   0  0  0  0  0  0  0  0  0  0  0  0
   -0.9523    0.1012    2.4848 C   0  0  0  0  0  0  0  0  0  0  0  0
    0.2133   -0.1319    2.7814 O   0  0  0  0  0  0  0  0  0  0  0  0
   -1.8684    0.5006    3.3725 N   0  0  0  0  0  0  0  0  0  0  0  0
   -2.7946    0.7048    3.0343 H   0  0  0  0  0  0  0  0  0  0  0  0
   -1.5848    0.7472    4.7873 C   0  0  0  0  0  0  0  0  0  0  0  0
   -0.8819    1.5774    4.8838 H   0  0  0  0  0  0  0  0  0  0  0  0
   -2.5030    0.9948    5.3214 H   0  0  0  0  0  0  0  0  0  0  0  0
   -1.1344   -0.1399    5.2381 H   0  0  0  0  0  0  0  0  0  0  0  0
  5  6  2  0  0  0  0
  5  7  1  0  0  0  0
  2  3  1  0  0  0  0
  2  4  1  0  0  0  0
  2  5  1  0  0  0  0
  1  2  1  0  0  0  0
 29 30  2  0  0  0  0
 29 31  1  0  0  0  0
 26 27  1  0  0  0  0
 26 28  1  0  0  0  0
 23 24  1  0  0  0  0
 23 25  1  0  0  0  0
 22 23  1  0  0  0  0
 22 26  1  0  0  0  0
 20 21  1  0  0  0  0
 20 22  2  0  0  0  0
 17 18  1  0  0  0  0
 17 19  1  0  0  0  0
 17 20  1  0  0  0  0
 14 15  1  0  0  0  0
 14 16  1  0  0  0  0
 14 17  1  0  0  0  0
 11 12  1  0  0  0  0
 11 13  1  0  0  0  0
 11 14  1  0  0  0  0
  9 10  1  0  0  0  0
  9 11  1  0  0  0  0
  9 29  1  0  0  0  0
  7  8  1  0  0  0  0
  7  9  1  0  0  0  0
 33 34  1  0  0  0  0
 33 35  1  0  0  0  0
 33 36  1  0  0  0  0
 31 32  1  0  0  0  0
 31 33  1  0  0  0  0
M  CHG  1  20   1
M  END
$$$$
default_name
  -OEChem-02102213163D

 36 35  0     1  0  0  0  0  0999 V2000
   -4.2256   -3.6731    1.8584 H   0  0  0  0  0  0  0  0  0  0  0  0
   -4.2396   -2.6781    1.4144 C   0  0  0  0  0  0  0  0  0  0  0  0
   -4.9506   -2.0521    1.9514 H   0  0  0  0  0  0  0  0  0  0  0  0
   -4.5266   -2.7521    0.3674 H   0  0  0  0  0  0  0  0  0  0  0  0
   -2.8576   -2.0761    1.5184 C   0  0  0  0  0  0  0  0  0  0  0  0
   -1.9456   -2.7051    2.0404 O   0  0  0  0  0  0  0  0  0  0  0  0
   -2.6926   -0.8481    1.0174 N   0  0  0  0  0  0  0  0  0  0  0  0
   -3.4926   -0.3971    0.5954 H   0  0  0  0  0  0  0  0  0  0  0  0
   -1.4216   -0.1071    1.0434 C   0  0  1  0  0  0  0  0  0  0  0  0
   -0.6709   -0.6930    0.5106 H   0  0  0  0  0  0  0  0  0  0  0  0
   -1.6221    1.2315    0.3051 C   0  0  0  0  0  0  0  0  0  0  0  0
   -0.6779    1.7797    0.3151 H   0  0  0  0  0  0  0  0  0  0  0  0
   -1.8857    1.0293   -0.7353 H   0  0  0  0  0  0  0  0  0  0  0  0
   -2.7033    2.1213    0.9354 C   0  0  0  0  0  0  0  0  0  0  0  0
   -2.7539    1.9360    2.0093 H   0  0  0  0  0  0  0  0  0  0  0  0
   -2.4548    3.1688    0.7619 H   0  0  0  0  0  0  0  0  0  0  0  0
   -4.0683    1.8097    0.3068 C   0  0  0  0  0  0  0  0  0  0  0  0
   -4.0009    1.9723   -0.7714 H   0  0  0  0  0  0  0  0  0  0  0  0
   -4.3041    0.7589    0.4908 H   0  0  0  0  0  0  0  0  0  0  0  0
   -5.1375    2.6612    0.8676 N   0  3  0  0  0  0  0  0  0  0  0  0
   -4.8726    3.2925    1.6043 H   0  0  0  0  0  0  0  0  0  0  0  0
   -6.4058    2.6714    0.4931 C   0  0  0  0  0  0  0  0  0  0  0  0
   -6.8559    1.8939   -0.4515 N   0  0  0  0  0  0  0  0  0  0  0  0
   -6.2164    1.2687   -0.9092 H   0  0  0  0  0  0  0  0  0  0  0  0
   -7.8216    1.9139   -0.7234 H   0  0  0  0  0  0  0  0  0  0  0  0
   -7.2573    3.4723    1.0683 N   0  0  0  0  0  0  0  0  0  0  0  0
   -6.9572    4.0909    1.8019 H   0  0  0  0  0  0  0  0  0  0  0  0
   -8.2186    3.4769    0.7811 H   0  0  0  0  0  0  0  0  0  0  0  0
   -0.9523    0.1012    2.4848 C   0  0  0  0  0  0  0  0  0  0  0  0
    0.2133   -0.1319    2.7814 O   0  0  0  0  0  0  0  0  0  0  0  0
   -1.8684    0.5006    3.3725 N   0  0  0  0  0  0  0  0  0  0  0  0
   -2.7946    0.7048    3.0343 H   0  0  0  0  0  0  0  0  0  0  0  0
   -1.5848    0.7472    4.7873 C   0  0  0  0  0  0  0  0  0  0  0  0
   -0.8819    1.5774    4.8838 H   0  0  0  0  0  0  0  0  0  0  0  0
   -2.5030    0.9948    5.3214 H   0  0  0  0  0  0  0  0  0  0  0  0
   -1.1344   -0.1399    5.2381 H   0  0  0  0  0  0  0  0  0  0  0  0
  5  6  2  0  0  0  0
  5  7  1  0  0  0  0
  2  3  1  0  0  0  0
  2  4  1  0  0  0  0
  2  5  1  0  0  0  0
  1  2  1  0  0  0  0
 29 30  2  0  0  0  0
 29 31  1  0  0  0  0
 26 27  1  0  0  0  0
 26 28  1  0  0  0  0
 23 24  1  0  0  0  0
 23 25  1  0  0  0  0
 22 23  1  0  0  0  0
 22 26  1  0  0  0  0
 20 21  1  0  0  0  0
 20 22  2  0  0  0  0
 17 18  1  0  0  0  0
 17 19  1  0  0  0  0
 17 20  1  0  0  0  0
 14 15  1  0  0  0  0
 14 16  1  0  0  0  0
 14 17  1  0  0  0  0
 11 12  1  0  0  0  0
 11 13  1  0  0  0  0
 11 14  1  0  0  0  0
  9 10  1  0  0  0  0
  9 11  1  0  0  0  0
  9 29  1  0  0  0  0
  7  8  1  0  0  0  0
  7  9  1  0  0  0  0
 33 34  1  0  0  0  0
 33 35  1  0  0  0  0
 33 36  1  0  0  0  0
 31 32  1  0  0  0  0
 31 33  1  0  0  0  0
M  CHG  1  20   1
M  END
$$$$
default_name
  -OEChem-02102213163D

 36 35  0     1  0  0  0  0  0999 V2000
   -4.2256   -3.6731    1.8584 H   0  0  0  0  0  0  0  0  0  0  0  0
   -4.2396   -2.6781    1.4144 C   0  0  0  0  0  0  0  0  0  0  0  0
   -4.9506   -2.0521    1.9514 H   0  0  0  0  0  0  0  0  0  0  0  0
   -4.5266   -2.7521    0.3674 H   0  0  0  0  0  0  0  0  0  0  0  0
   -2.8576   -2.0761    1.5184 C   0  0  0  0  0  0  0  0  0  0  0  0
   -1.9456   -2.7051    2.0404 O   0  0  0  0  0  0  0  0  0  0  0  0
   -2.6926   -0.8481    1.0174 N   0  0  0  0  0  0  0  0  0  0  0  0
   -3.4926   -0.3971    0.5954 H   0  0  0  0  0  0  0  0  0  0  0  0
   -1.4216   -0.1071    1.0434 C   0  0  1  0  0  0  0  0  0  0  0  0
   -0.6709   -0.6930    0.5106 H   0  0  0  0  0  0  0  0  0  0  0  0
   -1.6221    1.2315    0.3051 C   0  0  0  0  0  0  0  0  0  0  0  0
   -0.6779    1.7797    0.3151 H   0  0  0  0  0  0  0  0  0  0  0  0
   -1.8857    1.0293   -0.7353 H   0  0  0  0  0  0  0  0  0  0  0  0
   -2.7033    2.1213    0.9354 C   0  0  0  0  0  0  0  0  0  0  0  0
   -2.5803    2.1399    2.0192 H   0  0  0  0  0  0  0  0  0  0  0  0
   -2.6092    3.1350    0.5447 H   0  0  0  0  0  0  0  0  0  0  0  0
   -4.0955    1.5711    0.5970 C   0  0  0  0  0  0  0  0  0  0  0  0
   -4.1999    1.5310   -0.4897 H   0  0  0  0  0  0  0  0  0  0  0  0
   -4.1752    0.5573    0.9965 H   0  0  0  0  0  0  0  0  0  0  0  0
   -5.1701    2.4113    1.1646 N   0  3  0  0  0  0  0  0  0  0  0  0
   -4.8823    3.1930    1.7281 H   0  0  0  0  0  0  0  0  0  0  0  0
   -6.4703    2.2329    1.0015 C   0  0  0  0  0  0  0  0  0  0  0  0
   -6.9516    1.2517    0.2911 N   0  0  0  0  0  0  0  0  0  0  0  0
   -6.3121    0.6125   -0.1470 H   0  0  0  0  0  0  0  0  0  0  0  0
   -7.9412    1.1303    0.1777 H   0  0  0  0  0  0  0  0  0  0  0  0
   -7.3227    3.0465    1.5571 N   0  0  0  0  0  0  0  0  0  0  0  0
   -6.9993    3.8185    2.1143 H   0  0  0  0  0  0  0  0  0  0  0  0
   -8.3083    2.9076    1.4308 H   0  0  0  0  0  0  0  0  0  0  0  0
   -0.9523    0.1012    2.4848 C   0  0  0  0  0  0  0  0  0  0  0  0
    0.2133   -0.1319    2.7814 O   0  0  0  0  0  0  0  0  0  0  0  0
   -1.8684    0.5006    3.3725 N   0  0  0  0  0  0  0  0  0  0  0  0
   -2.7946    0.7048    3.0343 H   0  0  0  0  0  0  0  0  0  0  0  0
   -1.5848    0.7472    4.7873 C   0  0  0  0  0  0  0  0  0  0  0  0
   -0.8819    1.5774    4.8838 H   0  0  0  0  0  0  0  0  0  0  0  0
   -2.5030    0.9948    5.3214 H   0  0  0  0  0  0  0  0  0  0  0  0
   -1.1344   -0.1399    5.2381 H   0  0  0  0  0  0  0  0  0  0  0  0
  5  6  2  0  0  0  0
  5  7  1  0  0  0  0
  2  3  1  0  0  0  0
  2  4  1  0  0  0  0
  2  5  1  0  0  0  0
  1  2  1  0  0  0  0
 29 30  2  0  0  0  0
 29 31  1  0  0  0  0
 26 27  1  0  0  0  0
 26 28  1  0  0  0  0
 23 24  1  0  0  0  0
 23 25  1  0  0  0  0
 22 23  1  0  0  0  0
 22 26  1  0  0  0  0
 20 21  1  0  0  0  0
 20 22  2  0  0  0  0
 17 18  1  0  0  0  0
 17 19  1  0  0  0  0
 17 20  1  0  0  0  0
 14 15  1  0  0  0  0
 14 16  1  0  0  0  0
 14 17  1  0  0  0  0
 11 12  1  0  0  0  0
 11 13  1  0  0  0  0
 11 14  1  0  0  0  0
  9 10  1  0  0  0  0
  9 11  1  0  0  0  0
  9 29  1  0  0  0  0
  7  8  1  0  0  0  0
  7  9  1  0  0  0  0
 33 34  1  0  0  0  0
 33 35  1  0  0  0  0
 33 36  1  0  0  0  0
 31 32  1  0  0  0  0
 31 33  1  0  0  0  0
M  CHG  1  20   1
M  END
$$$$
default_name
  -OEChem-02102213163D

 36 35  0     1  0  0  0  0  0999 V2000
   -4.2256   -3.6731    1.8584 H   0  0  0  0  0  0  0  0  0  0  0  0
   -4.2396   -2.6781    1.4144 C   0  0  0  0  0  0  0  0  0  0  0  0
   -4.9506   -2.0521    1.9514 H   0  0  0  0  0  0  0  0  0  0  0  0
   -4.5266   -2.7521    0.3674 H   0  0  0  0  0  0  0  0  0  0  0  0
   -2.8576   -2.0761    1.5184 C   0  0  0  0  0  0  0  0  0  0  0  0
   -1.9456   -2.7051    2.0404 O   0  0  0  0  0  0  0  0  0  0  0  0
   -2.6926   -0.8481    1.0174 N   0  0  0  0  0  0  0  0  0  0  0  0
   -3.4926   -0.3971    0.5954 H   0  0  0  0  0  0  0  0  0  0  0  0
   -1.4216   -0.1071    1.0434 C   0  0  1  0  0  0  0  0  0  0  0  0
   -0.6709   -0.6930    0.5106 H   0  0  0  0  0  0  0  0  0  0  0  0
   -1.6221    1.2315    0.3051 C   0  0  0  0  0  0  0  0  0  0  0  0
   -0.6779    1.7797    0.3151 H   0  0  0  0  0  0  0  0  0  0  0  0
   -1.8857    1.0293   -0.7353 H   0  0  0  0  0  0  0  0  0  0  0  0
   -2.7033    2.1213    0.9354 C   0  0  0  0  0  0  0  0  0  0  0  0
   -2.4327    2.3571    1.9656 H   0  0  0  0  0  0  0  0  0  0  0  0
   -2.7874    3.0464    0.3642 H   0  0  0  0  0  0  0  0  0  0  0  0
   -4.0529    1.3906    0.9249 C   0  0  0  0  0  0  0  0  0  0  0  0
   -4.3030    1.1350   -0.1073 H   0  0  0  0  0  0  0  0  0  0  0  0
   -3.9535    0.4684    1.5023 H   0  0  0  0  0  0  0  0  0  0  0  0
   -5.1304    2.2206    1.5018 N   0  3  0  0  0  0  0  0  0  0  0  0
   -4.8625    3.1184    1.8673 H   0  0  0  0  0  0  0  0  0  0  0  0
   -6.4097    1.8952    1.5823 C   0  0  0  0  0  0  0  0  0  0  0  0
   -6.8644    0.7565    1.1397 N   0  0  0  0  0  0  0  0  0  0  0  0
   -6.2205    0.1074    0.7232 H   0  0  0  0  0  0  0  0  0  0  0  0
   -7.8383    0.5249    1.2089 H   0  0  0  0  0  0  0  0  0  0  0  0
   -7.2674    2.7174    2.1167 N   0  0  0  0  0  0  0  0  0  0  0  0
   -6.9642    3.6078    2.4719 H   0  0  0  0  0  0  0  0  0  0  0  0
   -8.2370    2.4666    2.1757 H   0  0  0  0  0  0  0  0  0  0  0  0
   -0.9523    0.1012    2.4848 C   0  0  0  0  0  0  0  0  0  0  0  0
    0.2133   -0.1319    2.7814 O   0  0  0  0  0  0  0  0  0  0  0  0
   -1.8684    0.5006    3.3725 N   0  0  0  0  0  0  0  0  0  0  0  0
   -2.7946    0.7048    3.0343 H   0  0  0  0  0  0  0  0  0  0  0  0
   -1.5848    0.7472    4.7873 C   0  0  0  0  0  0  0  0  0  0  0  0
   -0.8819    1.5774    4.8838 H   0  0  0  0  0  0  0  0  0  0  0  0
   -2.5030    0.9948    5.3214 H   0  0  0  0  0  0  0  0  0  0  0  0
   -1.1344   -0.1399    5.2381 H   0  0  0  0  0  0  0  0  0  0  0  0
  5  6  2  0  0  0  0
  5  7  1  0  0  0  0
  2  3  1  0  0  0  0
  2  4  1  0  0  0  0
  2  5  1  0  0  0  0
  1  2  1  0  0  0  0
 29 30  2  0  0  0  0
 29 31  1  0  0  0  0
 26 27  1  0  0  0  0
 26 28  1  0  0  0  0
 23 24  1  0  0  0  0
 23 25  1  0  0  0  0
 22 23  1  0  0  0  0
 22 26  1  0  0  0  0
 20 21  1  0  0  0  0
 20 22  2  0  0  0  0
 17 18  1  0  0  0  0
 17 19  1  0  0  0  0
 17 20  1  0  0  0  0
 14 15  1  0  0  0  0
 14 16  1  0  0  0  0
 14 17  1  0  0  0  0
 11 12  1  0  0  0  0
 11 13  1  0  0  0  0
 11 14  1  0  0  0  0
  9 10  1  0  0  0  0
  9 11  1  0  0  0  0
  9 29  1  0  0  0  0
  7  8  1  0  0  0  0
  7  9  1  0  0  0  0
 33 34  1  0  0  0  0
 33 35  1  0  0  0  0
 33 36  1  0  0  0  0
 31 32  1  0  0  0  0
 31 33  1  0  0  0  0
M  CHG  1  20   1
M  END
$$$$
default_name
  -OEChem-02102213163D

 36 35  0     1  0  0  0  0  0999 V2000
   -4.2256   -3.6731    1.8584 H   0  0  0  0  0  0  0  0  0  0  0  0
   -4.2396   -2.6781    1.4144 C   0  0  0  0  0  0  0  0  0  0  0  0
   -4.9506   -2.0521    1.9514 H   0  0  0  0  0  0  0  0  0  0  0  0
   -4.5266   -2.7521    0.3674 H   0  0  0  0  0  0  0  0  0  0  0  0
   -2.8576   -2.0761    1.5184 C   0  0  0  0  0  0  0  0  0  0  0  0
   -1.9456   -2.7051    2.0404 O   0  0  0  0  0  0  0  0  0  0  0  0
   -2.6926   -0.8481    1.0174 N   0  0  0  0  0  0  0  0  0  0  0  0
   -3.4926   -0.3971    0.5954 H   0  0  0  0  0  0  0  0  0  0  0  0
   -1.4216   -0.1071    1.0434 C   0  0  1  0  0  0  0  0  0  0  0  0
   -0.6709   -0.6930    0.5106 H   0  0  0  0  0  0  0  0  0  0  0  0
   -1.6221    1.2315    0.3051 C   0  0  0  0  0  0  0  0  0  0  0  0
   -0.6779    1.7797    0.3151 H   0  0  0  0  0  0  0  0  0  0  0  0
   -1.8857    1.0293   -0.7353 H   0  0  0  0  0  0  0  0  0  0  0  0
   -2.7033    2.1213    0.9354 C   0  0  0  0  0  0  0  0  0  0  0  0
   -2.3214    2.5728    1.8521 H   0  0  0  0  0  0  0  0  0  0  0  0
   -2.9771    2.9090    0.2328 H   0  0  0  0  0  0  0  0  0  0  0  0
   -3.9434    1.2805    1.2681 C   0  0  0  0  0  0  0  0  0  0  0  0
   -4.3031    0.8111    0.3496 H   0  0  0  0  0  0  0  0  0  0  0  0
   -3.6540    0.4983    1.9739 H   0  0  0  0  0  0  0  0  0  0  0  0
   -5.0213    2.1021    1.8564 N   0  3  0  0  0  0  0  0  0  0  0  0
   -4.8146    3.0739    2.0123 H   0  0  0  0  0  0  0  0  0  0  0  0
   -6.2282    1.6812    2.1957 C   0  0  0  0  0  0  0  0  0  0  0  0
   -6.6003    0.4420    2.0366 N   0  0  0  0  0  0  0  0  0  0  0  0
   -5.9479   -0.2122    1.6420 H   0  0  0  0  0  0  0  0  0  0  0  0
   -7.5200    0.1389    2.2998 H   0  0  0  0  0  0  0  0  0  0  0  0
   -7.0951    2.5073    2.7089 N   0  0  0  0  0  0  0  0  0  0  0  0
   -6.8543    3.4732    2.8505 H   0  0  0  0  0  0  0  0  0  0  0  0
   -8.0096    2.1839    2.9648 H   0  0  0  0  0  0  0  0  0  0  0  0
   -0.9523    0.1012    2.4848 C   0  0  0  0  0  0  0  0  0  0  0  0
    0.2133   -0.1319    2.7814 O   0  0  0  0  0  0  0  0  0  0  0  0
   -1.8684    0.5006    3.3725 N   0  0  0  0  0  0  0  0  0  0  0  0
   -2.7946    0.7048    3.0343 H   0  0  0  0  0  0  0  0  0  0  0  0
   -1.5848    0.7472    4.7873 C   0  0  0  0  0  0  0  0  0  0  0  0
   -0.8819    1.5774    4.8838 H   0  0  0  0  0  0  0  0  0  0  0  0
   -2.5030    0.9948    5.3214 H   0  0  0  0  0  0  0  0  0  0  0  0
   -1.1344   -0.1399    5.2381 H   0  0  0  0  0  0  0  0  0  0  0  0
  5  6  2  0  0  0  0
  5  7  1  0  0  0  0
  2  3  1  0  0  0  0
  2  4  1  0  0  0  0
  2  5  1  0  0  0  0
  1  2  1  0  0  0  0
 29 30  2  0  0  0  0
 29 31  1  0  0  0  0
 26 27  1  0  0  0  0
 26 28  1  0  0  0  0
 23 24  1  0  0  0  0
 23 25  1  0  0  0  0
 22 23  1  0  0  0  0
 22 26  1  0  0  0  0
 20 21  1  0  0  0  0
 20 22  2  0  0  0  0
 17 18  1  0  0  0  0
 17 19  1  0  0  0  0
 17 20  1  0  0  0  0
 14 15  1  0  0  0  0
 14 16  1  0  0  0  0
 14 17  1  0  0  0  0
 11 12  1  0  0  0  0
 11 13  1  0  0  0  0
 11 14  1  0  0  0  0
  9 10  1  0  0  0  0
  9 11  1  0  0  0  0
  9 29  1  0  0  0  0
  7  8  1  0  0  0  0
  7  9  1  0  0  0  0
 33 34  1  0  0  0  0
 33 35  1  0  0  0  0
 33 36  1  0  0  0  0
 31 32  1  0  0  0  0
 31 33  1  0  0  0  0
M  CHG  1  20   1
M  END
$$$$
default_name
  -OEChem-02102213163D

 36 35  0     1  0  0  0  0  0999 V2000
   -4.2256   -3.6731    1.8584 H   0  0  0  0  0  0  0  0  0  0  0  0
   -4.2396   -2.6781    1.4144 C   0  0  0  0  0  0  0  0  0  0  0  0
   -4.9506   -2.0521    1.9514 H   0  0  0  0  0  0  0  0  0  0  0  0
   -4.5266   -2.7521    0.3674 H   0  0  0  0  0  0  0  0  0  0  0  0
   -2.8576   -2.0761    1.5184 C   0  0  0  0  0  0  0  0  0  0  0  0
   -1.9456   -2.7051    2.0404 O   0  0  0  0  0  0  0  0  0  0  0  0
   -2.6926   -0.8481    1.0174 N   0  0  0  0  0  0  0  0  0  0  0  0
   -3.4926   -0.3971    0.5954 H   0  0  0  0  0  0  0  0  0  0  0  0
   -1.4216   -0.1071    1.0434 C   0  0  1  0  0  0  0  0  0  0  0  0
   -0.6709   -0.6930    0.5106 H   0  0  0  0  0  0  0  0  0  0  0  0
   -1.6221    1.2315    0.3051 C   0  0  0  0  0  0  0  0  0  0  0  0
   -0.6779    1.7797    0.3151 H   0  0  0  0  0  0  0  0  0  0  0  0
   -1.8857    1.0293   -0.7353 H   0  0  0  0  0  0  0  0  0  0  0  0
   -2.7033    2.1213    0.9354 C   0  0  0  0  0  0  0  0  0  0  0  0
   -2.2537    2.7724    1.6865 H   0  0  0  0  0  0  0  0  0  0  0  0
   -3.1655    2.7321    0.1593 H   0  0  0  0  0  0  0  0  0  0  0  0
   -3.7745    1.2484    1.6033 C   0  0  0  0  0  0  0  0  0  0  0  0
   -4.2003    0.5816    0.8501 H   0  0  0  0  0  0  0  0  0  0  0  0
   -3.2972    0.6449    2.3790 H   0  0  0  0  0  0  0  0  0  0  0  0
   -4.8501    2.0638    2.2041 N   0  3  0  0  0  0  0  0  0  0  0  0
   -4.7419    3.0623    2.1534 H   0  0  0  0  0  0  0  0  0  0  0  0
   -5.9382    1.6056    2.8000 C   0  0  0  0  0  0  0  0  0  0  0  0
   -6.1773    0.3298    2.9207 N   0  0  0  0  0  0  0  0  0  0  0  0
   -5.5128   -0.3244    2.5468 H   0  0  0  0  0  0  0  0  0  0  0  0
   -7.0079   -0.0012    3.3761 H   0  0  0  0  0  0  0  0  0  0  0  0
   -6.8175    2.4307    3.2933 N   0  0  0  0  0  0  0  0  0  0  0  0
   -6.6770    3.4239    3.2243 H   0  0  0  0  0  0  0  0  0  0  0  0
   -7.6416    2.0788    3.7445 H   0  0  0  0  0  0  0  0  0  0  0  0
   -0.9523    0.1012    2.4848 C   0  0  0  0  0  0  0  0  0  0  0  0
    0.2133   -0.1319    2.7814 O   0  0  0  0  0  0  0  0  0  0  0  0
   -1.8684    0.5006    3.3725 N   0  0  0  0  0  0  0  0  0  0  0  0
   -2.7946    0.7048    3.0343 H   0  0  0  0  0  0  0  0  0  0  0  0
   -1.5848    0.7472    4.7873 C   0  0  0  0  0  0  0  0  0  0  0  0
   -0.8819    1.5774    4.8838 H   0  0  0  0  0  0  0  0  0  0  0  0
   -2.5030    0.9948    5.3214 H   0  0  0  0  0  0  0  0  0  0  0  0
   -1.1344   -0.1399    5.2381 H   0  0  0  0  0  0  0  0  0  0  0  0
  5  6  2  0  0  0  0
  5  7  1  0  0  0  0
  2  3  1  0  0  0  0
  2  4  1  0  0  0  0
  2  5  1  0  0  0  0
  1  2  1  0  0  0  0
 29 30  2  0  0  0  0
 29 31  1  0  0  0  0
 26 27  1  0  0  0  0
 26 28  1  0  0  0  0
 23 24  1  0  0  0  0
 23 25  1  0  0  0  0
 22 23  1  0  0  0  0
 22 26  1  0  0  0  0
 20 21  1  0  0  0  0
 20 22  2  0  0  0  0
 17 18  1  0  0  0  0
 17 19  1  0  0  0  0
 17 20  1  0  0  0  0
 14 15  1  0  0  0  0
 14 16  1  0  0  0  0
 14 17  1  0  0  0  0
 11 12  1  0  0  0  0
 11 13  1  0  0  0  0
 11 14  1  0  0  0  0
  9 10  1  0  0  0  0
  9 11  1  0  0  0  0
  9 29  1  0  0  0  0
  7  8  1  0  0  0  0
  7  9  1  0  0  0  0
 33 34  1  0  0  0  0
 33 35  1  0  0  0  0
 33 36  1  0  0  0  0
 31 32  1  0  0  0  0
 31 33  1  0  0  0  0
M  CHG  1  20   1
M  END
$$$$
default_name
  -OEChem-02102213163D

 36 35  0     1  0  0  0  0  0999 V2000
   -4.2256   -3.6731    1.8584 H   0  0  0  0  0  0  0  0  0  0  0  0
   -4.2396   -2.6781    1.4144 C   0  0  0  0  0  0  0  0  0  0  0  0
   -4.9506   -2.0521    1.9514 H   0  0  0  0  0  0  0  0  0  0  0  0
   -4.5266   -2.7521    0.3674 H   0  0  0  0  0  0  0  0  0  0  0  0
   -2.8576   -2.0761    1.5184 C   0  0  0  0  0  0  0  0  0  0  0  0
   -1.9456   -2.7051    2.0404 O   0  0  0  0  0  0  0  0  0  0  0  0
   -2.6926   -0.8481    1.0174 N   0  0  0  0  0  0  0  0  0  0  0  0
   -3.4926   -0.3971    0.5954 H   0  0  0  0  0  0  0  0  0  0  0  0
   -1.4216   -0.1071    1.0434 C   0  0  1  0  0  0  0  0  0  0  0  0
   -0.6709   -0.6930    0.5106 H   0  0  0  0  0  0  0  0  0  0  0  0
   -1.6221    1.2315    0.3051 C   0  0  0  0  0  0  0  0  0  0  0  0
   -0.6779    1.7797    0.3151 H   0  0  0  0  0  0  0  0  0  0  0  0
   -1.8857    1.0293   -0.7353 H   0  0  0  0  0  0  0  0  0  0  0  0
   -2.7033    2.1213    0.9354 C   0  0  0  0  0  0  0  0  0  0  0  0
   -2.2344    2.9421    1.4800 H   0  0  0  0  0  0  0  0  0  0  0  0
   -3.3397    2.5279    0.1488 H   0  0  0  0  0  0  0  0  0  0  0  0
   -3.5576    1.2964    1.9076 C   0  0  0  0  0  0  0  0  0  0  0  0
   -4.0016    0.4619    1.3599 H   0  0  0  0  0  0  0  0  0  0  0  0
   -2.9073    0.8983    2.6901 H   0  0  0  0  0  0  0  0  0  0  0  0
   -4.6285    2.1084    2.5213 N   0  3  0  0  0  0  0  0  0  0  0  0
   -4.6492    3.0846    2.2808 H   0  0  0  0  0  0  0  0  0  0  0  0
   -5.5594    1.6735    3.3540 C   0  0  0  0  0  0  0  0  0  0  0  0
   -5.6242    0.4275    3.7316 N   0  0  0  0  0  0  0  0  0  0  0  0
   -4.9449   -0.2218    3.3761 H   0  0  0  0  0  0  0  0  0  0  0  0
   -6.3369    0.1139    4.3645 H   0  0  0  0  0  0  0  0  0  0  0  0
   -6.4536    2.4926    3.8302 N   0  0  0  0  0  0  0  0  0  0  0  0
   -6.4445    3.4632    3.5677 H   0  0  0  0  0  0  0  0  0  0  0  0
   -7.1580    2.1585    4.4615 H   0  0  0  0  0  0  0  0  0  0  0  0
   -0.9523    0.1012    2.4848 C   0  0  0  0  0  0  0  0  0  0  0  0
    0.2133   -0.1319    2.7814 O   0  0  0  0  0  0  0  0  0  0  0  0
   -1.8684    0.5006    3.3725 N   0  0  0  0  0  0  0  0  0  0  0  0
   -2.7946    0.7048    3.0343 H   0  0  0  0  0  0  0  0  0  0  0  0
   -1.5848    0.7472    4.7873 C   0  0  0  0  0  0  0  0  0  0  0  0
   -0.8819    1.5774    4.8838 H   0  0  0  0  0  0  0  0  0  0  0  0
   -2.5030    0.9948    5.3214 H   0  0  0  0  0  0  0  0  0  0  0  0
   -1.1344   -0.1399    5.2381 H   0  0  0  0  0  0  0  0  0  0  0  0
  5  6  2  0  0  0  0
  5  7  1  0  0  0  0
  2  3  1  0  0  0  0
  2  4  1  0  0  0  0
  2  5  1  0  0  0  0
  1  2  1  0  0  0  0
 29 30  2  0  0  0  0
 29 31  1  0  0  0  0
 26 27  1  0  0  0  0
 26 28  1  0  0  0  0
 23 24  1  0  0  0  0
 23 25  1  0  0  0  0
 22 23  1  0  0  0  0
 22 26  1  0  0  0  0
 20 21  1  0  0  0  0
 20 22  2  0  0  0  0
 17 18  1  0  0  0  0
 17 19  1  0  0  0  0
 17 20  1  0  0  0  0
 14 15  1  0  0  0  0
 14 16  1  0  0  0  0
 14 17  1  0  0  0  0
 11 12  1  0  0  0  0
 11 13  1  0  0  0  0
 11 14  1  0  0  0  0
  9 10  1  0  0  0  0
  9 11  1  0  0  0  0
  9 29  1  0  0  0  0
  7  8  1  0  0  0  0
  7  9  1  0  0  0  0
 33 34  1  0  0  0  0
 33 35  1  0  0  0  0
 33 36  1  0  0  0  0
 31 32  1  0  0  0  0
 31 33  1  0  0  0  0
M  CHG  1  20   1
M  END
$$$$
default_name
  -OEChem-02102213163D

 36 35  0     1  0  0  0  0  0999 V2000
   -4.2256   -3.6731    1.8584 H   0  0  0  0  0  0  0  0  0  0  0  0
   -4.2396   -2.6781    1.4144 C   0  0  0  0  0  0  0  0  0  0  0  0
   -4.9506   -2.0521    1.9514 H   0  0  0  0  0  0  0  0  0  0  0  0
   -4.5266   -2.7521    0.3674 H   0  0  0  0  0  0  0  0  0  0  0  0
   -2.8576   -2.0761    1.5184 C   0  0  0  0  0  0  0  0  0  0  0  0
   -1.9456   -2.7051    2.0404 O   0  0  0  0  0  0  0  0  0  0  0  0
   -2.6926   -0.8481    1.0174 N   0  0  0  0  0  0  0  0  0  0  0  0
   -3.4926   -0.3971    0.5954 H   0  0  0  0  0  0  0  0  0  0  0  0
   -1.4216   -0.1071    1.0434 C   0  0  1  0  0  0  0  0  0  0  0  0
   -0.6709   -0.6930    0.5106 H   0  0  0  0  0  0  0  0  0  0  0  0
   -1.6221    1.2315    0.3051 C   0  0  0  0  0  0  0  0  0  0  0  0
   -0.6779    1.7797    0.3151 H   0  0  0  0  0  0  0  0  0  0  0  0
   -1.8857    1.0293   -0.7353 H   0  0  0  0  0  0  0  0  0  0  0  0
   -2.7033    2.1213    0.9354 C   0  0  0  0  0  0  0  0  0  0  0  0
   -2.2648    3.0705    1.2467 H   0  0  0  0  0  0  0  0  0  0  0  0
   -3.4878    2.3102    0.2020 H   0  0  0  0  0  0  0  0  0  0  0  0
   -3.3076    1.4212    2.1602 C   0  0  0  0  0  0  0  0  0  0  0  0
   -3.7204    0.4604    1.8443 H   0  0  0  0  0  0  0  0  0  0  0  0
   -2.5110    1.2411    2.8860 H   0  0  0  0  0  0  0  0  0  0  0  0
   -4.3717    2.2328    2.7863 N   0  3  0  0  0  0  0  0  0  0  0  0
   -4.5430    3.1392    2.3859 H   0  0  0  0  0  0  0  0  0  0  0  0
   -5.1176    1.8802    3.8199 C   0  0  0  0  0  0  0  0  0  0  0  0
   -4.9788    0.7284    4.4141 N   0  0  0  0  0  0  0  0  0  0  0  0
   -4.2829    0.0889    4.0732 H   0  0  0  0  0  0  0  0  0  0  0  0
   -5.5528    0.4766    5.1977 H   0  0  0  0  0  0  0  0  0  0  0  0
   -6.0281    2.6889    4.2829 N   0  0  0  0  0  0  0  0  0  0  0  0
   -6.1726    3.5884    3.8573 H   0  0  0  0  0  0  0  0  0  0  0  0
   -6.5919    2.4175    5.0671 H   0  0  0  0  0  0  0  0  0  0  0  0
   -0.9523    0.1012    2.4848 C   0  0  0  0  0  0  0  0  0  0  0  0
    0.2133   -0.1319    2.7814 O   0  0  0  0  0  0  0  0  0  0  0  0
   -1.8684    0.5006    3.3725 N   0  0  0  0  0  0  0  0  0  0  0  0
   -2.7946    0.7048    3.0343 H   0  0  0  0  0  0  0  0  0  0  0  0
   -1.5848    0.7472    4.7873 C   0  0  0  0  0  0  0  0  0  0  0  0
   -0.8819    1.5774    4.8838 H   0  0  0  0  0  0  0  0  0  0  0  0
   -2.5030    0.9948    5.3214 H   0  0  0  0  0  0  0  0  0  0  0  0
   -1.1344   -0.1399    5.2381 H   0  0  0  0  0  0  0  0  0  0  0  0
  5  6  2  0  0  0  0
  5  7  1  0  0  0  0
  2  3  1  0  0  0  0
  2  4  1  0  0  0  0
  2  5  1  0  0  0  0
  1  2  1  0  0  0  0
 29 30  2  0  0  0  0
 29 31  1  0  0  0  0
 26 27  1  0  0  0  0
 26 28  1  0  0  0  0
 23 24  1  0  0  0  0
 23 25  1  0  0  0  0
 22 23  1  0  0  0  0
 22 26  1  0  0  0  0
 20 21  1  0  0  0  0
 20 22  2  0  0  0  0
 17 18  1  0  0  0  0
 17 19  1  0  0  0  0
 17 20  1  0  0  0  0
 14 15  1  0  0  0  0
 14 16  1  0  0  0  0
 14 17  1  0  0  0  0
 11 12  1  0  0  0  0
 11 13  1  0  0  0  0
 11 14  1  0  0  0  0
  9 10  1  0  0  0  0
  9 11  1  0  0  0  0
  9 29  1  0  0  0  0
  7  8  1  0  0  0  0
  7  9  1  0  0  0  0
 33 34  1  0  0  0  0
 33 35  1  0  0  0  0
 33 36  1  0  0  0  0
 31 32  1  0  0  0  0
 31 33  1  0  0  0  0
M  CHG  1  20   1
M  END
$$$$
default_name
  -OEChem-02102213163D

 36 35  0     1  0  0  0  0  0999 V2000
   -4.2256   -3.6731    1.8584 H   0  0  0  0  0  0  0  0  0  0  0  0
   -4.2396   -2.6781    1.4144 C   0  0  0  0  0  0  0  0  0  0  0  0
   -4.9506   -2.0521    1.9514 H   0  0  0  0  0  0  0  0  0  0  0  0
   -4.5266   -2.7521    0.3674 H   0  0  0  0  0  0  0  0  0  0  0  0
   -2.8576   -2.0761    1.5184 C   0  0  0  0  0  0  0  0  0  0  0  0
   -1.9456   -2.7051    2.0404 O   0  0  0  0  0  0  0  0  0  0  0  0
   -2.6926   -0.8481    1.0174 N   0  0  0  0  0  0  0  0  0  0  0  0
   -3.4926   -0.3971    0.5954 H   0  0  0  0  0  0  0  0  0  0  0  0
   -1.4216   -0.1071    1.0434 C   0  0  1  0  0  0  0  0  0  0  0  0
   -0.6709   -0.6930    0.5106 H   0  0  0  0  0  0  0  0  0  0  0  0
   -1.6221    1.2315    0.3051 C   0  0  0  0  0  0  0  0  0  0  0  0
   -0.6779    1.7797    0.3151 H   0  0  0  0  0  0  0  0  0  0  0  0
   -1.8857    1.0293   -0.7353 H   0  0  0  0  0  0  0  0  0  0  0  0
   -2.7033    2.1213    0.9354 C   0  0  0  0  0  0  0  0  0  0  0  0
   -2.3427    3.1487    1.0025 H   0  0  0  0  0  0  0  0  0  0  0  0
   -3.5998    2.0939    0.3152 H   0  0  0  0  0  0  0  0  0  0  0  0
   -3.0415    1.6144    2.3440 C   0  0  0  0  0  0  0  0  0  0  0  0
   -3.3761    0.5771    2.2703 H   0  0  0  0  0  0  0  0  0  0  0  0
   -2.1353    1.6501    2.9532 H   0  0  0  0  0  0  0  0  0  0  0  0
   -4.0970    2.4285    2.9811 N   0  3  0  0  0  0  0  0  0  0  0  0
   -4.4304    3.2224    2.4616 H   0  0  0  0  0  0  0  0  0  0  0  0
   -4.6430    2.2118    4.1660 C   0  0  0  0  0  0  0  0  0  0  0  0
   -4.2849    1.2119    4.9218 N   0  0  0  0  0  0  0  0  0  0  0  0
   -3.5719    0.5863    4.5907 H   0  0  0  0  0  0  0  0  0  0  0  0
   -4.7090    1.0620    5.8187 H   0  0  0  0  0  0  0  0  0  0  0  0
   -5.5701    3.0062    4.6205 N   0  0  0  0  0  0  0  0  0  0  0  0
   -5.8798    3.7910    4.0736 H   0  0  0  0  0  0  0  0  0  0  0  0
   -5.9817    2.8382    5.5200 H   0  0  0  0  0  0  0  0  0  0  0  0
   -0.9523    0.1012    2.4848 C   0  0  0  0  0  0  0  0  0  0  0  0
    0.2133   -0.1319    2.7814 O   0  0  0  0  0  0  0  0  0  0  0  0
   -1.8684    0.5006    3.3725 N   0  0  0  0  0  0  0  0  0  0  0  0
   -2.7946    0.7048    3.0343 H   0  0  0  0  0  0  0  0  0  0  0  0
   -1.5848    0.7472    4.7873 C   0  0  0  0  0  0  0  0  0  0  0  0
   -0.8819    1.5774    4.8838 H   0  0  0  0  0  0  0  0  0  0  0  0
   -2.5030    0.9948    5.3214 H   0  0  0  0  0  0  0  0  0  0  0  0
   -1.1344   -0.1399    5.2381 H   0  0  0  0  0  0  0  0  0  0  0  0
  5  6  2  0  0  0  0
  5  7  1  0  0  0  0
  2  3  1  0  0  0  0
  2  4  1  0  0  0  0
  2  5  1  0  0  0  0
  1  2  1  0  0  0  0
 29 30  2  0  0  0  0
 29 31  1  0  0  0  0
 26 27  1  0  0  0  0
 26 28  1  0  0  0  0
 23 24  1  0  0  0  0
 23 25  1  0  0  0  0
 22 23  1  0  0  0  0
 22 26  1  0  0  0  0
 20 21  1  0  0  0  0
 20 22  2  0  0  0  0
 17 18  1  0  0  0  0
 17 19  1  0  0  0  0
 17 20  1  0  0  0  0
 14 15  1  0  0  0  0
 14 16  1  0  0  0  0
 14 17  1  0  0  0  0
 11 12  1  0  0  0  0
 11 13  1  0  0  0  0
 11 14  1  0  0  0  0
  9 10  1  0  0  0  0
  9 11  1  0  0  0  0
  9 29  1  0  0  0  0
  7  8  1  0  0  0  0
  7  9  1  0  0  0  0
 33 34  1  0  0  0  0
 33 35  1  0  0  0  0
 33 36  1  0  0  0  0
 31 32  1  0  0  0  0
 31 33  1  0  0  0  0
M  CHG  1  20   1
M  END
$$$$
default_name
  -OEChem-02102213163D

 36 35  0     1  0  0  0  0  0999 V2000
   -4.2256   -3.6731    1.8584 H   0  0  0  0  0  0  0  0  0  0  0  0
   -4.2396   -2.6781    1.4144 C   0  0  0  0  0  0  0  0  0  0  0  0
   -4.9506   -2.0521    1.9514 H   0  0  0  0  0  0  0  0  0  0  0  0
   -4.5266   -2.7521    0.3674 H   0  0  0  0  0  0  0  0  0  0  0  0
   -2.8576   -2.0761    1.5184 C   0  0  0  0  0  0  0  0  0  0  0  0
   -1.9456   -2.7051    2.0404 O   0  0  0  0  0  0  0  0  0  0  0  0
   -2.6926   -0.8481    1.0174 N   0  0  0  0  0  0  0  0  0  0  0  0
   -3.4926   -0.3971    0.5954 H   0  0  0  0  0  0  0  0  0  0  0  0
   -1.4216   -0.1071    1.0434 C   0  0  1  0  0  0  0  0  0  0  0  0
   -0.6709   -0.6930    0.5106 H   0  0  0  0  0  0  0  0  0  0  0  0
   -1.6221    1.2315    0.3051 C   0  0  0  0  0  0  0  0  0  0  0  0
   -0.6779    1.7797    0.3151 H   0  0  0  0  0  0  0  0  0  0  0  0
   -1.8857    1.0293   -0.7353 H   0  0  0  0  0  0  0  0  0  0  0  0
   -2.7033    2.1213    0.9354 C   0  0  0  0  0  0  0  0  0  0  0  0
   -2.4629    3.1715    0.7641 H   0  0  0  0  0  0  0  0  0  0  0  0
   -3.6680    1.8937    0.4809 H   0  0  0  0  0  0  0  0  0  0  0  0
   -2.7774    1.8627    2.4464 C   0  0  0  0  0  0  0  0  0  0  0  0
   -2.9919    0.8040    2.6089 H   0  0  0  0  0  0  0  0  0  0  0  0
   -1.8057    2.0972    2.8873 H   0  0  0  0  0  0  0  0  0  0  0  0
   -3.8234    2.6822    3.0924 N   0  3  0  0  0  0  0  0  0  0  0  0
   -4.3192    3.3285    2.5027 H   0  0  0  0  0  0  0  0  0  0  0  0
   -4.1678    2.6456    4.3687 C   0  0  0  0  0  0  0  0  0  0  0  0
   -3.5898    1.8453    5.2200 N   0  0  0  0  0  0  0  0  0  0  0  0
   -2.8604    1.2365    4.8932 H   0  0  0  0  0  0  0  0  0  0  0  0
   -3.8630    1.8302    6.1854 H   0  0  0  0  0  0  0  0  0  0  0  0
   -5.1108    3.4229    4.8202 N   0  0  0  0  0  0  0  0  0  0  0  0
   -5.5860    4.0572    4.2016 H   0  0  0  0  0  0  0  0  0  0  0  0
   -5.3691    3.3919    5.7892 H   0  0  0  0  0  0  0  0  0  0  0  0
   -0.9523    0.1012    2.4848 C   0  0  0  0  0  0  0  0  0  0  0  0
    0.2133   -0.1319    2.7814 O   0  0  0  0  0  0  0  0  0  0  0  0
   -1.8684    0.5006    3.3725 N   0  0  0  0  0  0  0  0  0  0  0  0
   -2.7946    0.7048    3.0343 H   0  0  0  0  0  0  0  0  0  0  0  0
   -1.5848    0.7472    4.7873 C   0  0  0  0  0  0  0  0  0  0  0  0
   -0.8819    1.5774    4.8838 H   0  0  0  0  0  0  0  0  0  0  0  0
   -2.5030    0.9948    5.3214 H   0  0  0  0  0  0  0  0  0  0  0  0
   -1.1344   -0.1399    5.2381 H   0  0  0  0  0  0  0  0  0  0  0  0
  5  6  2  0  0  0  0
  5  7  1  0  0  0  0
  2  3  1  0  0  0  0
  2  4  1  0  0  0  0
  2  5  1  0  0  0  0
  1  2  1  0  0  0  0
 29 30  2  0  0  0  0
 29 31  1  0  0  0  0
 26 27  1  0  0  0  0
 26 28  1  0  0  0  0
 23 24  1  0  0  0  0
 23 25  1  0  0  0  0
 22 23  1  0  0  0  0
 22 26  1  0  0  0  0
 20 21  1  0  0  0  0
 20 22  2  0  0  0  0
 17 18  1  0  0  0  0
 17 19  1  0  0  0  0
 17 20  1  0  0  0  0
 14 15  1  0  0  0  0
 14 16  1  0  0  0  0
 14 17  1  0  0  0  0
 11 12  1  0  0  0  0
 11 13  1  0  0  0  0
 11 14  1  0  0  0  0
  9 10  1  0  0  0  0
  9 11  1  0  0  0  0
  9 29  1  0  0  0  0
  7  8  1  0  0  0  0
  7  9  1  0  0  0  0
 33 34  1  0  0  0  0
 33 35  1  0  0  0  0
 33 36  1  0  0  0  0
 31 32  1  0  0  0  0
 31 33  1  0  0  0  0
M  CHG  1  20   1
M  END
$$$$
default_name
  -OEChem-02102213163D

 36 35  0     1  0  0  0  0  0999 V2000
   -4.2256   -3.6731    1.8584 H   0  0  0  0  0  0  0  0  0  0  0  0
   -4.2396   -2.6781    1.4144 C   0  0  0  0  0  0  0  0  0  0  0  0
   -4.9506   -2.0521    1.9514 H   0  0  0  0  0  0  0  0  0  0  0  0
   -4.5266   -2.7521    0.3674 H   0  0  0  0  0  0  0  0  0  0  0  0
   -2.8576   -2.0761    1.5184 C   0  0  0  0  0  0  0  0  0  0  0  0
   -1.9456   -2.7051    2.0404 O   0  0  0  0  0  0  0  0  0  0  0  0
   -2.6926   -0.8481    1.0174 N   0  0  0  0  0  0  0  0  0  0  0  0
   -3.4926   -0.3971    0.5954 H   0  0  0  0  0  0  0  0  0  0  0  0
   -1.4216   -0.1071    1.0434 C   0  0  1  0  0  0  0  0  0  0  0  0
   -0.6709   -0.6930    0.5106 H   0  0  0  0  0  0  0  0  0  0  0  0
   -1.6221    1.2315    0.3051 C   0  0  0  0  0  0  0  0  0  0  0  0
   -0.6779    1.7797    0.3151 H   0  0  0  0  0  0  0  0  0  0  0  0
   -1.8857    1.0293   -0.7353 H   0  0  0  0  0  0  0  0  0  0  0  0
   -2.7033    2.1213    0.9354 C   0  0  0  0  0  0  0  0  0  0  0  0
   -2.6173    3.1373    0.5476 H   0  0  0  0  0  0  0  0  0  0  0  0
   -3.6878    1.7232    0.6876 H   0  0  0  0  0  0  0  0  0  0  0  0
   -2.5333    2.1494    2.4605 C   0  0  0  0  0  0  0  0  0  0  0  0
   -2.5942    1.1257    2.8370 H   0  0  0  0  0  0  0  0  0  0  0  0
   -1.5447    2.5522    2.6928 H   0  0  0  0  0  0  0  0  0  0  0  0
   -3.5693    2.9767    3.1126 N   0  3  0  0  0  0  0  0  0  0  0  0
   -4.2169    3.4503    2.5063 H   0  0  0  0  0  0  0  0  0  0  0  0
   -3.7246    3.1520    4.4142 C   0  0  0  0  0  0  0  0  0  0  0  0
   -2.9411    2.5852    5.2883 N   0  0  0  0  0  0  0  0  0  0  0  0
   -2.1968    1.9954    4.9603 H   0  0  0  0  0  0  0  0  0  0  0  0
   -3.0725    2.7290    6.2727 H   0  0  0  0  0  0  0  0  0  0  0  0
   -4.6814    3.9106    4.8683 N   0  0  0  0  0  0  0  0  0  0  0  0
   -5.3114    4.3689    4.2326 H   0  0  0  0  0  0  0  0  0  0  0  0
   -4.7958    4.0409    5.8564 H   0  0  0  0  0  0  0  0  0  0  0  0
   -0.9523    0.1012    2.4848 C   0  0  0  0  0  0  0  0  0  0  0  0
    0.2133   -0.1319    2.7814 O   0  0  0  0  0  0  0  0  0  0  0  0
   -1.8684    0.5006    3.3725 N   0  0  0  0  0  0  0  0  0  0  0  0
   -2.7946    0.7048    3.0343 H   0  0  0  0  0  0  0  0  0  0  0  0
   -1.5848    0.7472    4.7873 C   0  0  0  0  0  0  0  0  0  0  0  0
   -0.8819    1.5774    4.8838 H   0  0  0  0  0  0  0  0  0  0  0  0
   -2.5030    0.9948    5.3214 H   0  0  0  0  0  0  0  0  0  0  0  0
   -1.1344   -0.1399    5.2381 H   0  0  0  0  0  0  0  0  0  0  0  0
  5  6  2  0  0  0  0
  5  7  1  0  0  0  0
  2  3  1  0  0  0  0
  2  4  1  0  0  0  0
  2  5  1  0  0  0  0
  1  2  1  0  0  0  0
 29 30  2  0  0  0  0
 29 31  1  0  0  0  0
 26 27  1  0  0  0  0
 26 28  1  0  0  0  0
 23 24  1  0  0  0  0
 23 25  1  0  0  0  0
 22 23  1  0  0  0  0
 22 26  1  0  0  0  0
 20 21  1  0  0  0  0
 20 22  2  0  0  0  0
 17 18  1  0  0  0  0
 17 19  1  0  0  0  0
 17 20  1  0  0  0  0
 14 15  1  0  0  0  0
 14 16  1  0  0  0  0
 14 17  1  0  0  0  0
 11 12  1  0  0  0  0
 11 13  1  0  0  0  0
 11 14  1  0  0  0  0
  9 10  1  0  0  0  0
  9 11  1  0  0  0  0
  9 29  1  0  0  0  0
  7  8  1  0  0  0  0
  7  9  1  0  0  0  0
 33 34  1  0  0  0  0
 33 35  1  0  0  0  0
 33 36  1  0  0  0  0
 31 32  1  0  0  0  0
 31 33  1  0  0  0  0
M  CHG  1  20   1
M  END
$$$$
default_name
  -OEChem-02102213163D

 36 35  0     1  0  0  0  0  0999 V2000
   -4.2256   -3.6731    1.8584 H   0  0  0  0  0  0  0  0  0  0  0  0
   -4.2396   -2.6781    1.4144 C   0  0  0  0  0  0  0  0  0  0  0  0
   -4.9506   -2.0521    1.9514 H   0  0  0  0  0  0  0  0  0  0  0  0
   -4.5266   -2.7521    0.3674 H   0  0  0  0  0  0  0  0  0  0  0  0
   -2.8576   -2.0761    1.5184 C   0  0  0  0  0  0  0  0  0  0  0  0
   -1.9456   -2.7051    2.0404 O   0  0  0  0  0  0  0  0  0  0  0  0
   -2.6926   -0.8481    1.0174 N   0  0  0  0  0  0  0  0  0  0  0  0
   -3.4926   -0.3971    0.5954 H   0  0  0  0  0  0  0  0  0  0  0  0
   -1.4216   -0.1071    1.0434 C   0  0  1  0  0  0  0  0  0  0  0  0
   -0.6709   -0.6930    0.5106 H   0  0  0  0  0  0  0  0  0  0  0  0
   -1.6221    1.2315    0.3051 C   0  0  0  0  0  0  0  0  0  0  0  0
   -0.6779    1.7797    0.3151 H   0  0  0  0  0  0  0  0  0  0  0  0
   -1.8857    1.0293   -0.7353 H   0  0  0  0  0  0  0  0  0  0  0  0
   -2.7033    2.1213    0.9354 C   0  0  0  0  0  0  0  0  0  0  0  0
   -2.7951    3.0485    0.3679 H   0  0  0  0  0  0  0  0  0  0  0  0
   -3.6578    1.5942    0.9212 H   0  0  0  0  0  0  0  0  0  0  0  0
   -2.3259    2.4547    2.3852 C   0  0  0  0  0  0  0  0  0  0  0  0
   -2.2100    1.5202    2.9391 H   0  0  0  0  0  0  0  0  0  0  0  0
   -1.3701    2.9839    2.3828 H   0  0  0  0  0  0  0  0  0  0  0  0
   -3.3521    3.2917    3.0404 N   0  3  0  0  0  0  0  0  0  0  0  0
   -4.1304    3.5795    2.4723 H   0  0  0  0  0  0  0  0  0  0  0  0
   -3.3434    3.6965    4.2994 C   0  0  0  0  0  0  0  0  0  0  0  0
   -2.3828    3.3812    5.1222 N   0  0  0  0  0  0  0  0  0  0  0  0
   -1.6264    2.8111    4.7872 H   0  0  0  0  0  0  0  0  0  0  0  0
   -2.3913    3.6971    6.0746 H   0  0  0  0  0  0  0  0  0  0  0  0
   -4.3113    4.4361    4.7614 N   0  0  0  0  0  0  0  0  0  0  0  0
   -5.0746    4.7048    4.1647 H   0  0  0  0  0  0  0  0  0  0  0  0
   -4.3009    4.7409    5.7172 H   0  0  0  0  0  0  0  0  0  0  0  0
   -0.9523    0.1012    2.4848 C   0  0  0  0  0  0  0  0  0  0  0  0
    0.2133   -0.1319    2.7814 O   0  0  0  0  0  0  0  0  0  0  0  0
   -1.8684    0.5006    3.3725 N   0  0  0  0  0  0  0  0  0  0  0  0
   -2.7946    0.7048    3.0343 H   0  0  0  0  0  0  0  0  0  0  0  0
   -1.5848    0.7472    4.7873 C   0  0  0  0  0  0  0  0  0  0  0  0
   -0.8819    1.5774    4.8838 H   0  0  0  0  0  0  0  0  0  0  0  0
   -2.5030    0.9948    5.3214 H   0  0  0  0  0  0  0  0  0  0  0  0
   -1.1344   -0.1399    5.2381 H   0  0  0  0  0  0  0  0  0  0  0  0
  5  6  2  0  0  0  0
  5  7  1  0  0  0  0
  2  3  1  0  0  0  0
  2  4  1  0  0  0  0
  2  5  1  0  0  0  0
  1  2  1  0  0  0  0
 29 30  2  0  0  0  0
 29 31  1  0  0  0  0
 26 27  1  0  0  0  0
 26 28  1  0  0  0  0
 23 24  1  0  0  0  0
 23 25  1  0  0  0  0
 22 23  1  0  0  0  0
 22 26  1  0  0  0  0
 20 21  1  0  0  0  0
 20 22  2  0  0  0  0
 17 18  1  0  0  0  0
 17 19  1  0  0  0  0
 17 20  1  0  0  0  0
 14 15  1  0  0  0  0
 14 16  1  0  0  0  0
 14 17  1  0  0  0  0
 11 12  1  0  0  0  0
 11 13  1  0  0  0  0
 11 14  1  0  0  0  0
  9 10  1  0  0  0  0
  9 11  1  0  0  0  0
  9 29  1  0  0  0  0
  7  8  1  0  0  0  0
  7  9  1  0  0  0  0
 33 34  1  0  0  0  0
 33 35  1  0  0  0  0
 33 36  1  0  0  0  0
 31 32  1  0  0  0  0
 31 33  1  0  0  0  0
M  CHG  1  20   1
M  END
$$$$
default_name
  -OEChem-02102213163D

 36 35  0     1  0  0  0  0  0999 V2000
   -4.2256   -3.6731    1.8584 H   0  0  0  0  0  0  0  0  0  0  0  0
   -4.2396   -2.6781    1.4144 C   0  0  0  0  0  0  0  0  0  0  0  0
   -4.9506   -2.0521    1.9514 H   0  0  0  0  0  0  0  0  0  0  0  0
   -4.5266   -2.7521    0.3674 H   0  0  0  0  0  0  0  0  0  0  0  0
   -2.8576   -2.0761    1.5184 C   0  0  0  0  0  0  0  0  0  0  0  0
   -1.9456   -2.7051    2.0404 O   0  0  0  0  0  0  0  0  0  0  0  0
   -2.6926   -0.8481    1.0174 N   0  0  0  0  0  0  0  0  0  0  0  0
   -3.4926   -0.3971    0.5954 H   0  0  0  0  0  0  0  0  0  0  0  0
   -1.4216   -0.1071    1.0434 C   0  0  1  0  0  0  0  0  0  0  0  0
   -0.6709   -0.6930    0.5106 H   0  0  0  0  0  0  0  0  0  0  0  0
   -1.6221    1.2315    0.3051 C   0  0  0  0  0  0  0  0  0  0  0  0
   -0.6779    1.7797    0.3151 H   0  0  0  0  0  0  0  0  0  0  0  0
   -1.8857    1.0293   -0.7353 H   0  0  0  0  0  0  0  0  0  0  0  0
   -2.7033    2.1213    0.9354 C   0  0  0  0  0  0  0  0  0  0  0  0
   -2.9845    2.9110    0.2373 H   0  0  0  0  0  0  0  0  0  0  0  0
   -3.5800    1.5153    1.1660 H   0  0  0  0  0  0  0  0  0  0  0  0
   -2.1693    2.7580    2.2258 C   0  0  0  0  0  0  0  0  0  0  0  0
   -1.8655    1.9607    2.9081 H   0  0  0  0  0  0  0  0  0  0  0  0
   -1.2938    3.3630    1.9785 H   0  0  0  0  0  0  0  0  0  0  0  0
   -3.1866    3.6060    2.8806 N   0  3  0  0  0  0  0  0  0  0  0  0
   -4.0657    3.7072    2.4029 H   0  0  0  0  0  0  0  0  0  0  0  0
   -3.0502    4.2420    4.0321 C   0  0  0  0  0  0  0  0  0  0  0  0
   -1.9530    4.1792    4.7330 N   0  0  0  0  0  0  0  0  0  0  0  0
   -1.1880    3.6280    4.3858 H   0  0  0  0  0  0  0  0  0  0  0  0
   -1.8658    4.6684    5.6048 H   0  0  0  0  0  0  0  0  0  0  0  0
   -4.0257    4.9634    4.5069 N   0  0  0  0  0  0  0  0  0  0  0  0
   -4.8917    5.0421    4.0023 H   0  0  0  0  0  0  0  0  0  0  0  0
   -3.9181    5.4443    5.3809 H   0  0  0  0  0  0  0  0  0  0  0  0
   -0.9523    0.1012    2.4848 C   0  0  0  0  0  0  0  0  0  0  0  0
    0.2133   -0.1319    2.7814 O   0  0  0  0  0  0  0  0  0  0  0  0
   -1.8684    0.5006    3.3725 N   0  0  0  0  0  0  0  0  0  0  0  0
   -2.7946    0.7048    3.0343 H   0  0  0  0  0  0  0  0  0  0  0  0
   -1.5848    0.7472    4.7873 C   0  0  0  0  0  0  0  0  0  0  0  0
   -0.8819    1.5774    4.8838 H   0  0  0  0  0  0  0  0  0  0  0  0
   -2.5030    0.9948    5.3214 H   0  0  0  0  0  0  0  0  0  0  0  0
   -1.1344   -0.1399    5.2381 H   0  0  0  0  0  0  0  0  0  0  0  0
  5  6  2  0  0  0  0
  5  7  1  0  0  0  0
  2  3  1  0  0  0  0
  2  4  1  0  0  0  0
  2  5  1  0  0  0  0
  1  2  1  0  0  0  0
 29 30  2  0  0  0  0
 29 31  1  0  0  0  0
 26 27  1  0  0  0  0
 26 28  1  0  0  0  0
 23 24  1  0  0  0  0
 23 25  1  0  0  0  0
 22 23  1  0  0  0  0
 22 26  1  0  0  0  0
 20 21  1  0  0  0  0
 20 22  2  0  0  0  0
 17 18  1  0  0  0  0
 17 19  1  0  0  0  0
 17 20  1  0  0  0  0
 14 15  1  0  0  0  0
 14 16  1  0  0  0  0
 14 17  1  0  0  0  0
 11 12  1  0  0  0  0
 11 13  1  0  0  0  0
 11 14  1  0  0  0  0
  9 10  1  0  0  0  0
  9 11  1  0  0  0  0
  9 29  1  0  0  0  0
  7  8  1  0  0  0  0
  7  9  1  0  0  0  0
 33 34  1  0  0  0  0
 33 35  1  0  0  0  0
 33 36  1  0  0  0  0
 31 32  1  0  0  0  0
 31 33  1  0  0  0  0
M  CHG  1  20   1
M  END
$$$$
default_name
  -OEChem-02102213163D

 36 35  0     1  0  0  0  0  0999 V2000
   -4.2256   -3.6731    1.8584 H   0  0  0  0  0  0  0  0  0  0  0  0
   -4.2396   -2.6781    1.4144 C   0  0  0  0  0  0  0  0  0  0  0  0
   -4.9506   -2.0521    1.9514 H   0  0  0  0  0  0  0  0  0  0  0  0
   -4.5266   -2.7521    0.3674 H   0  0  0  0  0  0  0  0  0  0  0  0
   -2.8576   -2.0761    1.5184 C   0  0  0  0  0  0  0  0  0  0  0  0
   -1.9456   -2.7051    2.0404 O   0  0  0  0  0  0  0  0  0  0  0  0
   -2.6926   -0.8481    1.0174 N   0  0  0  0  0  0  0  0  0  0  0  0
   -3.4926   -0.3971    0.5954 H   0  0  0  0  0  0  0  0  0  0  0  0
   -1.4216   -0.1071    1.0434 C   0  0  1  0  0  0  0  0  0  0  0  0
   -0.6709   -0.6930    0.5106 H   0  0  0  0  0  0  0  0  0  0  0  0
   -1.6221    1.2315    0.3051 C   0  0  0  0  0  0  0  0  0  0  0  0
   -0.6779    1.7797    0.3151 H   0  0  0  0  0  0  0  0  0  0  0  0
   -1.8857    1.0293   -0.7353 H   0  0  0  0  0  0  0  0  0  0  0  0
   -2.7033    2.1213    0.9354 C   0  0  0  0  0  0  0  0  0  0  0  0
   -3.1723    2.7343    0.1645 H   0  0  0  0  0  0  0  0  0  0  0  0
   -3.4599    1.4919    1.4051 H   0  0  0  0  0  0  0  0  0  0  0  0
   -2.0741    3.0385    1.9930 C   0  0  0  0  0  0  0  0  0  0  0  0
   -1.5842    2.4172    2.7463 H   0  0  0  0  0  0  0  0  0  0  0  0
   -1.3210    3.6635    1.5075 H   0  0  0  0  0  0  0  0  0  0  0  0
   -3.0841    3.8980    2.6442 N   0  3  0  0  0  0  0  0  0  0  0  0
   -4.0272    3.8249    2.3029 H   0  0  0  0  0  0  0  0  0  0  0  0
   -2.8651    4.7514    3.6305 C   0  0  0  0  0  0  0  0  0  0  0  0
   -1.6809    4.9248    4.1471 N   0  0  0  0  0  0  0  0  0  0  0  0
   -0.9116    4.3906    3.7835 H   0  0  0  0  0  0  0  0  0  0  0  0
   -1.5319    5.5768    4.8951 H   0  0  0  0  0  0  0  0  0  0  0  0
   -3.8439    5.4568    4.1222 N   0  0  0  0  0  0  0  0  0  0  0  0
   -4.7753    5.3577    3.7565 H   0  0  0  0  0  0  0  0  0  0  0  0
   -3.6735    6.1030    4.8704 H   0  0  0  0  0  0  0  0  0  0  0  0
   -0.9523    0.1012    2.4848 C   0  0  0  0  0  0  0  0  0  0  0  0
    0.2133   -0.1319    2.7814 O   0  0  0  0  0  0  0  0  0  0  0  0
   -1.8684    0.5006    3.3725 N   0  0  0  0  0  0  0  0  0  0  0  0
   -2.7946    0.7048    3.0343 H   0  0  0  0  0  0  0  0  0  0  0  0
   -1.5848    0.7472    4.7873 C   0  0  0  0  0  0  0  0  0  0  0  0
   -0.8819    1.5774    4.8838 H   0  0  0  0  0  0  0  0  0  0  0  0
   -2.5030    0.9948    5.3214 H   0  0  0  0  0  0  0  0  0  0  0  0
   -1.1344   -0.1399    5.2381 H   0  0  0  0  0  0  0  0  0  0  0  0
  5  6  2  0  0  0  0
  5  7  1  0  0  0  0
  2  3  1  0  0  0  0
  2  4  1  0  0  0  0
  2  5  1  0  0  0  0
  1  2  1  0  0  0  0
 29 30  2  0  0  0  0
 29 31  1  0  0  0  0
 26 27  1  0  0  0  0
 26 28  1  0  0  0  0
 23 24  1  0  0  0  0
 23 25  1  0  0  0  0
 22 23  1  0  0  0  0
 22 26  1  0  0  0  0
 20 21  1  0  0  0  0
 20 22  2  0  0  0  0
 17 18  1  0  0  0  0
 17 19  1  0  0  0  0
 17 20  1  0  0  0  0
 14 15  1  0  0  0  0
 14 16  1  0  0  0  0
 14 17  1  0  0  0  0
 11 12  1  0  0  0  0
 11 13  1  0  0  0  0
 11 14  1  0  0  0  0
  9 10  1  0  0  0  0
  9 11  1  0  0  0  0
  9 29  1  0  0  0  0
  7  8  1  0  0  0  0
  7  9  1  0  0  0  0
 33 34  1  0  0  0  0
 33 35  1  0  0  0  0
 33 36  1  0  0  0  0
 31 32  1  0  0  0  0
 31 33  1  0  0  0  0
M  CHG  1  20   1
M  END
$$$$
default_name
  -OEChem-02102213163D

 36 35  0     1  0  0  0  0  0999 V2000
   -4.2256   -3.6731    1.8584 H   0  0  0  0  0  0  0  0  0  0  0  0
   -4.2396   -2.6781    1.4144 C   0  0  0  0  0  0  0  0  0  0  0  0
   -4.9506   -2.0521    1.9514 H   0  0  0  0  0  0  0  0  0  0  0  0
   -4.5266   -2.7521    0.3674 H   0  0  0  0  0  0  0  0  0  0  0  0
   -2.8576   -2.0761    1.5184 C   0  0  0  0  0  0  0  0  0  0  0  0
   -1.9456   -2.7051    2.0404 O   0  0  0  0  0  0  0  0  0  0  0  0
   -2.6926   -0.8481    1.0174 N   0  0  0  0  0  0  0  0  0  0  0  0
   -3.4926   -0.3971    0.5954 H   0  0  0  0  0  0  0  0  0  0  0  0
   -1.4216   -0.1071    1.0434 C   0  0  1  0  0  0  0  0  0  0  0  0
   -0.6709   -0.6930    0.5106 H   0  0  0  0  0  0  0  0  0  0  0  0
   -1.6221    1.2315    0.3051 C   0  0  0  0  0  0  0  0  0  0  0  0
   -0.6779    1.7797    0.3151 H   0  0  0  0  0  0  0  0  0  0  0  0
   -1.8857    1.0293   -0.7353 H   0  0  0  0  0  0  0  0  0  0  0  0
   -2.7033    2.1213    0.9354 C   0  0  0  0  0  0  0  0  0  0  0  0
   -3.3459    2.5303    0.1545 H   0  0  0  0  0  0  0  0  0  0  0  0
   -3.3054    1.5257    1.6223 H   0  0  0  0  0  0  0  0  0  0  0  0
   -2.0469    3.2771    1.7028 C   0  0  0  0  0  0  0  0  0  0  0  0
   -1.3852    2.8585    2.4646 H   0  0  0  0  0  0  0  0  0  0  0  0
   -1.4499    3.8651    1.0018 H   0  0  0  0  0  0  0  0  0  0  0  0
   -3.0515    4.1479    2.3472 N   0  3  0  0  0  0  0  0  0  0  0  0
   -4.0175    3.9244    2.1791 H   0  0  0  0  0  0  0  0  0  0  0  0
   -2.8007    5.1899    3.1220 C   0  0  0  0  0  0  0  0  0  0  0  0
   -1.5853    5.5670    3.4045 N   0  0  0  0  0  0  0  0  0  0  0  0
   -0.8159    5.0468    3.0213 H   0  0  0  0  0  0  0  0  0  0  0  0
   -1.4123    6.3605    3.9940 H   0  0  0  0  0  0  0  0  0  0  0  0
   -3.7785    5.8826    3.6333 N   0  0  0  0  0  0  0  0  0  0  0  0
   -4.7332    5.6301    3.4442 H   0  0  0  0  0  0  0  0  0  0  0  0
   -3.5838    6.6723    4.2206 H   0  0  0  0  0  0  0  0  0  0  0  0
   -0.9523    0.1012    2.4848 C   0  0  0  0  0  0  0  0  0  0  0  0
    0.2133   -0.1319    2.7814 O   0  0  0  0  0  0  0  0  0  0  0  0
   -1.8684    0.5006    3.3725 N   0  0  0  0  0  0  0  0  0  0  0  0
   -2.7946    0.7048    3.0343 H   0  0  0  0  0  0  0  0  0  0  0  0
   -1.5848    0.7472    4.7873 C   0  0  0  0  0  0  0  0  0  0  0  0
   -0.8819    1.5774    4.8838 H   0  0  0  0  0  0  0  0  0  0  0  0
   -2.5030    0.9948    5.3214 H   0  0  0  0  0  0  0  0  0  0  0  0
   -1.1344   -0.1399    5.2381 H   0  0  0  0  0  0  0  0  0  0  0  0
  5  6  2  0  0  0  0
  5  7  1  0  0  0  0
  2  3  1  0  0  0  0
  2  4  1  0  0  0  0
  2  5  1  0  0  0  0
  1  2  1  0  0  0  0
 29 30  2  0  0  0  0
 29 31  1  0  0  0  0
 26 27  1  0  0  0  0
 26 28  1  0  0  0  0
 23 24  1  0  0  0  0
 23 25  1  0  0  0  0
 22 23  1  0  0  0  0
 22 26  1  0  0  0  0
 20 21  1  0  0  0  0
 20 22  2  0  0  0  0
 17 18  1  0  0  0  0
 17 19  1  0  0  0  0
 17 20  1  0  0  0  0
 14 15  1  0  0  0  0
 14 16  1  0  0  0  0
 14 17  1  0  0  0  0
 11 12  1  0  0  0  0
 11 13  1  0  0  0  0
 11 14  1  0  0  0  0
  9 10  1  0  0  0  0
  9 11  1  0  0  0  0
  9 29  1  0  0  0  0
  7  8  1  0  0  0  0
  7  9  1  0  0  0  0
 33 34  1  0  0  0  0
 33 35  1  0  0  0  0
 33 36  1  0  0  0  0
 31 32  1  0  0  0  0
 31 33  1  0  0  0  0
M  CHG  1  20   1
M  END
$$$$
default_name
  -OEChem-02102213163D

 36 35  0     1  0  0  0  0  0999 V2000
   -4.2256   -3.6731    1.8584 H   0  0  0  0  0  0  0  0  0  0  0  0
   -4.2396   -2.6781    1.4144 C   0  0  0  0  0  0  0  0  0  0  0  0
   -4.9506   -2.0521    1.9514 H   0  0  0  0  0  0  0  0  0  0  0  0
   -4.5266   -2.7521    0.3674 H   0  0  0  0  0  0  0  0  0  0  0  0
   -2.8576   -2.0761    1.5184 C   0  0  0  0  0  0  0  0  0  0  0  0
   -1.9456   -2.7051    2.0404 O   0  0  0  0  0  0  0  0  0  0  0  0
   -2.6926   -0.8481    1.0174 N   0  0  0  0  0  0  0  0  0  0  0  0
   -3.4926   -0.3971    0.5954 H   0  0  0  0  0  0  0  0  0  0  0  0
   -1.4216   -0.1071    1.0434 C   0  0  1  0  0  0  0  0  0  0  0  0
   -0.6709   -0.6930    0.5106 H   0  0  0  0  0  0  0  0  0  0  0  0
   -1.6221    1.2315    0.3051 C   0  0  0  0  0  0  0  0  0  0  0  0
   -0.6779    1.7797    0.3151 H   0  0  0  0  0  0  0  0  0  0  0  0
   -1.8857    1.0293   -0.7353 H   0  0  0  0  0  0  0  0  0  0  0  0
   -2.7033    2.1213    0.9354 C   0  0  0  0  0  0  0  0  0  0  0  0
   -3.4935    2.3131    0.2081 H   0  0  0  0  0  0  0  0  0  0  0  0
   -3.1273    1.6143    1.8028 H   0  0  0  0  0  0  0  0  0  0  0  0
   -2.0895    3.4576    1.3749 C   0  0  0  0  0  0  0  0  0  0  0  0
   -1.2822    3.2546    2.0823 H   0  0  0  0  0  0  0  0  0  0  0  0
   -1.6716    3.9540    0.4959 H   0  0  0  0  0  0  0  0  0  0  0  0
   -3.0912    4.3386    2.0100 N   0  3  0  0  0  0  0  0  0  0  0  0
   -4.0372    3.9989    2.0399 H   0  0  0  0  0  0  0  0  0  0  0  0
   -2.8613    5.5277    2.5413 C   0  0  0  0  0  0  0  0  0  0  0  0
   -1.6724    6.0622    2.5559 N   0  0  0  0  0  0  0  0  0  0  0  0
   -0.9075    5.5519    2.1512 H   0  0  0  0  0  0  0  0  0  0  0  0
   -1.5152    6.9659    2.9628 H   0  0  0  0  0  0  0  0  0  0  0  0
   -3.8338    6.2117    3.0738 N   0  0  0  0  0  0  0  0  0  0  0  0
   -4.7683    5.8408    3.0865 H   0  0  0  0  0  0  0  0  0  0  0  0
   -3.6550    7.1133    3.4758 H   0  0  0  0  0  0  0  0  0  0  0  0
   -0.9523    0.1012    2.4848 C   0  0  0  0  0  0  0  0  0  0  0  0
    0.2133   -0.1319    2.7814 O   0  0  0  0  0  0  0  0  0  0  0  0
   -1.8684    0.5006    3.3725 N   0  0  0  0  0  0  0  0  0  0  0  0
   -2.7946    0.7048    3.0343 H   0  0  0  0  0  0  0  0  0  0  0  0
   -1.5848    0.7472    4.7873 C   0  0  0  0  0  0  0  0  0  0  0  0
   -0.8819    1.5774    4.8838 H   0  0  0  0  0  0  0  0  0  0  0  0
   -2.5030    0.9948    5.3214 H   0  0  0  0  0  0  0  0  0  0  0  0
   -1.1344   -0.1399    5.2381 H   0  0  0  0  0  0  0  0  0  0  0  0
  5  6  2  0  0  0  0
  5  7  1  0  0  0  0
  2  3  1  0  0  0  0
  2  4  1  0  0  0  0
  2  5  1  0  0  0  0
  1  2  1  0  0  0  0
 29 30  2  0  0  0  0
 29 31  1  0  0  0  0
 26 27  1  0  0  0  0
 26 28  1  0  0  0  0
 23 24  1  0  0  0  0
 23 25  1  0  0  0  0
 22 23  1  0  0  0  0
 22 26  1  0  0  0  0
 20 21  1  0  0  0  0
 20 22  2  0  0  0  0
 17 18  1  0  0  0  0
 17 19  1  0  0  0  0
 17 20  1  0  0  0  0
 14 15  1  0  0  0  0
 14 16  1  0  0  0  0
 14 17  1  0  0  0  0
 11 12  1  0  0  0  0
 11 13  1  0  0  0  0
 11 14  1  0  0  0  0
  9 10  1  0  0  0  0
  9 11  1  0  0  0  0
  9 29  1  0  0  0  0
  7  8  1  0  0  0  0
  7  9  1  0  0  0  0
 33 34  1  0  0  0  0
 33 35  1  0  0  0  0
 33 36  1  0  0  0  0
 31 32  1  0  0  0  0
 31 33  1  0  0  0  0
M  CHG  1  20   1
M  END
$$$$
default_name
  -OEChem-02102213163D

 36 35  0     1  0  0  0  0  0999 V2000
   -4.2256   -3.6731    1.8584 H   0  0  0  0  0  0  0  0  0  0  0  0
   -4.2396   -2.6781    1.4144 C   0  0  0  0  0  0  0  0  0  0  0  0
   -4.9506   -2.0521    1.9514 H   0  0  0  0  0  0  0  0  0  0  0  0
   -4.5266   -2.7521    0.3674 H   0  0  0  0  0  0  0  0  0  0  0  0
   -2.8576   -2.0761    1.5184 C   0  0  0  0  0  0  0  0  0  0  0  0
   -1.9456   -2.7051    2.0404 O   0  0  0  0  0  0  0  0  0  0  0  0
   -2.6926   -0.8481    1.0174 N   0  0  0  0  0  0  0  0  0  0  0  0
   -3.4926   -0.3971    0.5954 H   0  0  0  0  0  0  0  0  0  0  0  0
   -1.4216   -0.1071    1.0434 C   0  0  1  0  0  0  0  0  0  0  0  0
   -0.6709   -0.6930    0.5106 H   0  0  0  0  0  0  0  0  0  0  0  0
   -1.6221    1.2315    0.3051 C   0  0  0  0  0  0  0  0  0  0  0  0
   -0.6779    1.7797    0.3151 H   0  0  0  0  0  0  0  0  0  0  0  0
   -1.8857    1.0293   -0.7353 H   0  0  0  0  0  0  0  0  0  0  0  0
   -2.7033    2.1213    0.9354 C   0  0  0  0  0  0  0  0  0  0  0  0
   -3.6048    2.0974    0.3216 H   0  0  0  0  0  0  0  0  0  0  0  0
   -2.9376    1.7518    1.9343 H   0  0  0  0  0  0  0  0  0  0  0  0
   -2.1990    3.5677    1.0317 C   0  0  0  0  0  0  0  0  0  0  0  0
   -1.2820    3.5784    1.6253 H   0  0  0  0  0  0  0  0  0  0  0  0
   -1.9711    3.9241    0.0244 H   0  0  0  0  0  0  0  0  0  0  0  0
   -3.2003    4.4571    1.6554 N   0  3  0  0  0  0  0  0  0  0  0  0
   -4.0851    4.0435    1.8949 H   0  0  0  0  0  0  0  0  0  0  0  0
   -3.0427    5.7417    1.9279 C   0  0  0  0  0  0  0  0  0  0  0  0
   -1.9365    6.3767    1.6590 N   0  0  0  0  0  0  0  0  0  0  0  0
   -1.1801    5.8714    1.2324 H   0  0  0  0  0  0  0  0  0  0  0  0
   -1.8335    7.3518    1.8719 H   0  0  0  0  0  0  0  0  0  0  0  0
   -4.0062    6.4217    2.4816 N   0  0  0  0  0  0  0  0  0  0  0  0
   -4.8782    5.9754    2.7079 H   0  0  0  0  0  0  0  0  0  0  0  0
   -3.8824    7.3960    2.6867 H   0  0  0  0  0  0  0  0  0  0  0  0
   -0.9523    0.1012    2.4848 C   0  0  0  0  0  0  0  0  0  0  0  0
    0.2133   -0.1319    2.7814 O   0  0  0  0  0  0  0  0  0  0  0  0
   -1.8684    0.5006    3.3725 N   0  0  0  0  0  0  0  0  0  0  0  0
   -2.7946    0.7048    3.0343 H   0  0  0  0  0  0  0  0  0  0  0  0
   -1.5848    0.7472    4.7873 C   0  0  0  0  0  0  0  0  0  0  0  0
   -0.8819    1.5774    4.8838 H   0  0  0  0  0  0  0  0  0  0  0  0
   -2.5030    0.9948    5.3214 H   0  0  0  0  0  0  0  0  0  0  0  0
   -1.1344   -0.1399    5.2381 H   0  0  0  0  0  0  0  0  0  0  0  0
  5  6  2  0  0  0  0
  5  7  1  0  0  0  0
  2  3  1  0  0  0  0
  2  4  1  0  0  0  0
  2  5  1  0  0  0  0
  1  2  1  0  0  0  0
 29 30  2  0  0  0  0
 29 31  1  0  0  0  0
 26 27  1  0  0  0  0
 26 28  1  0  0  0  0
 23 24  1  0  0  0  0
 23 25  1  0  0  0  0
 22 23  1  0  0  0  0
 22 26  1  0  0  0  0
 20 21  1  0  0  0  0
 20 22  2  0  0  0  0
 17 18  1  0  0  0  0
 17 19  1  0  0  0  0
 17 20  1  0  0  0  0
 14 15  1  0  0  0  0
 14 16  1  0  0  0  0
 14 17  1  0  0  0  0
 11 12  1  0  0  0  0
 11 13  1  0  0  0  0
 11 14  1  0  0  0  0
  9 10  1  0  0  0  0
  9 11  1  0  0  0  0
  9 29  1  0  0  0  0
  7  8  1  0  0  0  0
  7  9  1  0  0  0  0
 33 34  1  0  0  0  0
 33 35  1  0  0  0  0
 33 36  1  0  0  0  0
 31 32  1  0  0  0  0
 31 33  1  0  0  0  0
M  CHG  1  20   1
M  END
$$$$
default_name
  -OEChem-02102213163D

 36 35  0     1  0  0  0  0  0999 V2000
   -4.2256   -3.6731    1.8584 H   0  0  0  0  0  0  0  0  0  0  0  0
   -4.2396   -2.6781    1.4144 C   0  0  0  0  0  0  0  0  0  0  0  0
   -4.9506   -2.0521    1.9514 H   0  0  0  0  0  0  0  0  0  0  0  0
   -4.5266   -2.7521    0.3674 H   0  0  0  0  0  0  0  0  0  0  0  0
   -2.8576   -2.0761    1.5184 C   0  0  0  0  0  0  0  0  0  0  0  0
   -1.9456   -2.7051    2.0404 O   0  0  0  0  0  0  0  0  0  0  0  0
   -2.6926   -0.8481    1.0174 N   0  0  0  0  0  0  0  0  0  0  0  0
   -3.4926   -0.3971    0.5954 H   0  0  0  0  0  0  0  0  0  0  0  0
   -1.4216   -0.1071    1.0434 C   0  0  1  0  0  0  0  0  0  0  0  0
   -0.6709   -0.6930    0.5106 H   0  0  0  0  0  0  0  0  0  0  0  0
   -1.6221    1.2315    0.3051 C   0  0  0  0  0  0  0  0  0  0  0  0
   -0.6779    1.7797    0.3151 H   0  0  0  0  0  0  0  0  0  0  0  0
   -1.8857    1.0293   -0.7353 H   0  0  0  0  0  0  0  0  0  0  0  0
   -2.7033    2.1213    0.9354 C   0  0  0  0  0  0  0  0  0  0  0  0
   -3.6725    1.8979    0.4873 H   0  0  0  0  0  0  0  0  0  0  0  0
   -2.7492    1.9286    2.0078 H   0  0  0  0  0  0  0  0  0  0  0  0
   -2.3680    3.5998    0.6965 C   0  0  0  0  0  0  0  0  0  0  0  0
   -1.3848    3.8080    1.1249 H   0  0  0  0  0  0  0  0  0  0  0  0
   -2.3280    3.7775   -0.3808 H   0  0  0  0  0  0  0  0  0  0  0  0
   -3.3715    4.4954    1.3077 N   0  3  0  0  0  0  0  0  0  0  0  0
   -4.1579    4.0550    1.7538 H   0  0  0  0  0  0  0  0  0  0  0  0
   -3.3328    5.8173    1.3236 C   0  0  0  0  0  0  0  0  0  0  0  0
   -2.3595    6.4889    0.7749 N   0  0  0  0  0  0  0  0  0  0  0  0
   -1.6152    5.9837    0.3275 H   0  0  0  0  0  0  0  0  0  0  0  0
   -2.3456    7.4920    0.7955 H   0  0  0  0  0  0  0  0  0  0  0  0
   -4.2837    6.4984    1.8972 N   0  0  0  0  0  0  0  0  0  0  0  0
   -5.0555    6.0247    2.3342 H   0  0  0  0  0  0  0  0  0  0  0  0
   -4.2504    7.5011    1.9070 H   0  0  0  0  0  0  0  0  0  0  0  0
   -0.9523    0.1012    2.4848 C   0  0  0  0  0  0  0  0  0  0  0  0
    0.2133   -0.1319    2.7814 O   0  0  0  0  0  0  0  0  0  0  0  0
   -1.8684    0.5006    3.3725 N   0  0  0  0  0  0  0  0  0  0  0  0
   -2.7946    0.7048    3.0343 H   0  0  0  0  0  0  0  0  0  0  0  0
   -1.5848    0.7472    4.7873 C   0  0  0  0  0  0  0  0  0  0  0  0
   -0.8819    1.5774    4.8838 H   0  0  0  0  0  0  0  0  0  0  0  0
   -2.5030    0.9948    5.3214 H   0  0  0  0  0  0  0  0  0  0  0  0
   -1.1344   -0.1399    5.2381 H   0  0  0  0  0  0  0  0  0  0  0  0
  5  6  2  0  0  0  0
  5  7  1  0  0  0  0
  2  3  1  0  0  0  0
  2  4  1  0  0  0  0
  2  5  1  0  0  0  0
  1  2  1  0  0  0  0
 29 30  2  0  0  0  0
 29 31  1  0  0  0  0
 26 27  1  0  0  0  0
 26 28  1  0  0  0  0
 23 24  1  0  0  0  0
 23 25  1  0  0  0  0
 22 23  1  0  0  0  0
 22 26  1  0  0  0  0
 20 21  1  0  0  0  0
 20 22  2  0  0  0  0
 17 18  1  0  0  0  0
 17 19  1  0  0  0  0
 17 20  1  0  0  0  0
 14 15  1  0  0  0  0
 14 16  1  0  0  0  0
 14 17  1  0  0  0  0
 11 12  1  0  0  0  0
 11 13  1  0  0  0  0
 11 14  1  0  0  0  0
  9 10  1  0  0  0  0
  9 11  1  0  0  0  0
  9 29  1  0  0  0  0
  7  8  1  0  0  0  0
  7  9  1  0  0  0  0
 33 34  1  0  0  0  0
 33 35  1  0  0  0  0
 33 36  1  0  0  0  0
 31 32  1  0  0  0  0
 31 33  1  0  0  0  0
M  CHG  1  20   1
M  END
$$$$
default_name
  -OEChem-02102213163D

 36 35  0     1  0  0  0  0  0999 V2000
   -4.2256   -3.6731    1.8584 H   0  0  0  0  0  0  0  0  0  0  0  0
   -4.2396   -2.6781    1.4144 C   0  0  0  0  0  0  0  0  0  0  0  0
   -4.9506   -2.0521    1.9514 H   0  0  0  0  0  0  0  0  0  0  0  0
   -4.5266   -2.7521    0.3674 H   0  0  0  0  0  0  0  0  0  0  0  0
   -2.8576   -2.0761    1.5184 C   0  0  0  0  0  0  0  0  0  0  0  0
   -1.9456   -2.7051    2.0404 O   0  0  0  0  0  0  0  0  0  0  0  0
   -2.6926   -0.8481    1.0174 N   0  0  0  0  0  0  0  0  0  0  0  0
   -3.4926   -0.3971    0.5954 H   0  0  0  0  0  0  0  0  0  0  0  0
   -1.4216   -0.1071    1.0434 C   0  0  1  0  0  0  0  0  0  0  0  0
   -0.6709   -0.6930    0.5106 H   0  0  0  0  0  0  0  0  0  0  0  0
   -1.6221    1.2315    0.3051 C   0  0  0  0  0  0  0  0  0  0  0  0
   -0.6779    1.7797    0.3151 H   0  0  0  0  0  0  0  0  0  0  0  0
   -1.8857    1.0293   -0.7353 H   0  0  0  0  0  0  0  0  0  0  0  0
   -2.7033    2.1213    0.9354 C   0  0  0  0  0  0  0  0  0  0  0  0
   -3.6918    1.7281    0.6938 H   0  0  0  0  0  0  0  0  0  0  0  0
   -2.5750    2.1328    2.0183 H   0  0  0  0  0  0  0  0  0  0  0  0
   -2.5848    3.5518    0.3922 C   0  0  0  0  0  0  0  0  0  0  0  0
   -1.5836    3.9276    0.6151 H   0  0  0  0  0  0  0  0  0  0  0  0
   -2.7178    3.5242   -0.6919 H   0  0  0  0  0  0  0  0  0  0  0  0
   -3.5931    4.4509    0.9906 N   0  3  0  0  0  0  0  0  0  0  0  0
   -4.2505    4.0327    1.6264 H   0  0  0  0  0  0  0  0  0  0  0  0
   -3.7116    5.7494    0.7696 C   0  0  0  0  0  0  0  0  0  0  0  0
   -2.9126    6.3912   -0.0360 N   0  0  0  0  0  0  0  0  0  0  0  0
   -2.1831    5.8810   -0.5017 H   0  0  0  0  0  0  0  0  0  0  0  0
   -3.0166    7.3768   -0.1929 H   0  0  0  0  0  0  0  0  0  0  0  0
   -4.6477    6.4365    1.3603 N   0  0  0  0  0  0  0  0  0  0  0  0
   -5.2880    5.9854    1.9908 H   0  0  0  0  0  0  0  0  0  0  0  0
   -4.7340    7.4214    1.1899 H   0  0  0  0  0  0  0  0  0  0  0  0
   -0.9523    0.1012    2.4848 C   0  0  0  0  0  0  0  0  0  0  0  0
    0.2133   -0.1319    2.7814 O   0  0  0  0  0  0  0  0  0  0  0  0
   -1.8684    0.5006    3.3725 N   0  0  0  0  0  0  0  0  0  0  0  0
   -2.7946    0.7048    3.0343 H   0  0  0  0  0  0  0  0  0  0  0  0
   -1.5848    0.7472    4.7873 C   0  0  0  0  0  0  0  0  0  0  0  0
   -0.8819    1.5774    4.8838 H   0  0  0  0  0  0  0  0  0  0  0  0
   -2.5030    0.9948    5.3214 H   0  0  0  0  0  0  0  0  0  0  0  0
   -1.1344   -0.1399    5.2381 H   0  0  0  0  0  0  0  0  0  0  0  0
  5  6  2  0  0  0  0
  5  7  1  0  0  0  0
  2  3  1  0  0  0  0
  2  4  1  0  0  0  0
  2  5  1  0  0  0  0
  1  2  1  0  0  0  0
 29 30  2  0  0  0  0
 29 31  1  0  0  0  0
 26 27  1  0  0  0  0
 26 28  1  0  0  0  0
 23 24  1  0  0  0  0
 23 25  1  0  0  0  0
 22 23  1  0  0  0  0
 22 26  1  0  0  0  0
 20 21  1  0  0  0  0
 20 22  2  0  0  0  0
 17 18  1  0  0  0  0
 17 19  1  0  0  0  0
 17 20  1  0  0  0  0
 14 15  1  0  0  0  0
 14 16  1  0  0  0  0
 14 17  1  0  0  0  0
 11 12  1  0  0  0  0
 11 13  1  0  0  0  0
 11 14  1  0  0  0  0
  9 10  1  0  0  0  0
  9 11  1  0  0  0  0
  9 29  1  0  0  0  0
  7  8  1  0  0  0  0
  7  9  1  0  0  0  0
 33 34  1  0  0  0  0
 33 35  1  0  0  0  0
 33 36  1  0  0  0  0
 31 32  1  0  0  0  0
 31 33  1  0  0  0  0
M  CHG  1  20   1
M  END
$$$$
default_name
  -OEChem-02102213163D

 36 35  0     1  0  0  0  0  0999 V2000
   -4.2256   -3.6731    1.8584 H   0  0  0  0  0  0  0  0  0  0  0  0
   -4.2396   -2.6781    1.4144 C   0  0  0  0  0  0  0  0  0  0  0  0
   -4.9506   -2.0521    1.9514 H   0  0  0  0  0  0  0  0  0  0  0  0
   -4.5266   -2.7521    0.3674 H   0  0  0  0  0  0  0  0  0  0  0  0
   -2.8576   -2.0761    1.5184 C   0  0  0  0  0  0  0  0  0  0  0  0
   -1.9456   -2.7051    2.0404 O   0  0  0  0  0  0  0  0  0  0  0  0
   -2.6926   -0.8481    1.0174 N   0  0  0  0  0  0  0  0  0  0  0  0
   -3.4926   -0.3971    0.5954 H   0  0  0  0  0  0  0  0  0  0  0  0
   -1.4216   -0.1071    1.0434 C   0  0  1  0  0  0  0  0  0  0  0  0
   -0.6709   -0.6930    0.5106 H   0  0  0  0  0  0  0  0  0  0  0  0
   -1.6221    1.2315    0.3051 C   0  0  0  0  0  0  0  0  0  0  0  0
   -0.6414    1.6547    0.0785 H   0  0  0  0  0  0  0  0  0  0  0  0
   -2.1372    1.0444   -0.6396 H   0  0  0  0  0  0  0  0  0  0  0  0
   -2.4173    2.2643    1.1170 C   0  0  0  0  0  0  0  0  0  0  0  0
   -3.4078    1.8694    1.3471 H   0  0  0  0  0  0  0  0  0  0  0  0
   -1.8890    2.4763    2.0471 H   0  0  0  0  0  0  0  0  0  0  0  0
   -2.5681    3.5603    0.3089 C   0  0  0  0  0  0  0  0  0  0  0  0
   -1.5722    3.9341    0.0603 H   0  0  0  0  0  0  0  0  0  0  0  0
   -3.1006    3.3324   -0.6175 H   0  0  0  0  0  0  0  0  0  0  0  0
   -3.3082    4.5934    1.0624 N   0  3  0  0  0  0  0  0  0  0  0  0
   -3.6594    4.3282    1.9666 H   0  0  0  0  0  0  0  0  0  0  0  0
   -3.5512    5.8299    0.6610 C   0  0  0  0  0  0  0  0  0  0  0  0
   -3.1419    6.2770   -0.4931 N   0  0  0  0  0  0  0  0  0  0  0  0
   -2.6242    5.6610   -1.0946 H   0  0  0  0  0  0  0  0  0  0  0  0
   -3.3352    7.2181   -0.7827 H   0  0  0  0  0  0  0  0  0  0  0  0
   -4.2194    6.6509    1.4204 N   0  0  0  0  0  0  0  0  0  0  0  0
   -4.5555    6.3518    2.3196 H   0  0  0  0  0  0  0  0  0  0  0  0
   -4.4014    7.5881    1.1121 H   0  0  0  0  0  0  0  0  0  0  0  0
   -0.9523    0.1012    2.4848 C   0  0  0  0  0  0  0  0  0  0  0  0
    0.2133   -0.1319    2.7814 O   0  0  0  0  0  0  0  0  0  0  0  0
   -1.8684    0.5006    3.3725 N   0  0  0  0  0  0  0  0  0  0  0  0
   -2.7946    0.7048    3.0343 H   0  0  0  0  0  0  0  0  0  0  0  0
   -1.5848    0.7472    4.7873 C   0  0  0  0  0  0  0  0  0  0  0  0
   -0.8819    1.5774    4.8838 H   0  0  0  0  0  0  0  0  0  0  0  0
   -2.5030    0.9948    5.3214 H   0  0  0  0  0  0  0  0  0  0  0  0
   -1.1344   -0.1399    5.2381 H   0  0  0  0  0  0  0  0  0  0  0  0
  5  6  2  0  0  0  0
  5  7  1  0  0  0  0
  2  3  1  0  0  0  0
  2  4  1  0  0  0  0
  2  5  1  0  0  0  0
  1  2  1  0  0  0  0
 29 30  2  0  0  0  0
 29 31  1  0  0  0  0
 26 27  1  0  0  0  0
 26 28  1  0  0  0  0
 23 24  1  0  0  0  0
 23 25  1  0  0  0  0
 22 23  1  0  0  0  0
 22 26  1  0  0  0  0
 20 21  1  0  0  0  0
 20 22  2  0  0  0  0
 17 18  1  0  0  0  0
 17 19  1  0  0  0  0
 17 20  1  0  0  0  0
 14 15  1  0  0  0  0
 14 16  1  0  0  0  0
 14 17  1  0  0  0  0
 11 12  1  0  0  0  0
 11 13  1  0  0  0  0
 11 14  1  0  0  0  0
  9 10  1  0  0  0  0
  9 11  1  0  0  0  0
  9 29  1  0  0  0  0
  7  8  1  0  0  0  0
  7  9  1  0  0  0  0
 33 34  1  0  0  0  0
 33 35  1  0  0  0  0
 33 36  1  0  0  0  0
 31 32  1  0  0  0  0
 31 33  1  0  0  0  0
M  CHG  1  20   1
M  END
$$$$
default_name
  -OEChem-02102213163D

 36 35  0     1  0  0  0  0  0999 V2000
   -4.2256   -3.6731    1.8584 H   0  0  0  0  0  0  0  0  0  0  0  0
   -4.2396   -2.6781    1.4144 C   0  0  0  0  0  0  0  0  0  0  0  0
   -4.9506   -2.0521    1.9514 H   0  0  0  0  0  0  0  0  0  0  0  0
   -4.5266   -2.7521    0.3674 H   0  0  0  0  0  0  0  0  0  0  0  0
   -2.8576   -2.0761    1.5184 C   0  0  0  0  0  0  0  0  0  0  0  0
   -1.9456   -2.7051    2.0404 O   0  0  0  0  0  0  0  0  0  0  0  0
   -2.6926   -0.8481    1.0174 N   0  0  0  0  0  0  0  0  0  0  0  0
   -3.4926   -0.3971    0.5954 H   0  0  0  0  0  0  0  0  0  0  0  0
   -1.4216   -0.1071    1.0434 C   0  0  1  0  0  0  0  0  0  0  0  0
   -0.6709   -0.6930    0.5106 H   0  0  0  0  0  0  0  0  0  0  0  0
   -1.6221    1.2315    0.3051 C   0  0  0  0  0  0  0  0  0  0  0  0
   -0.6414    1.6547    0.0785 H   0  0  0  0  0  0  0  0  0  0  0  0
   -2.1372    1.0444   -0.6396 H   0  0  0  0  0  0  0  0  0  0  0  0
   -2.4173    2.2643    1.1170 C   0  0  0  0  0  0  0  0  0  0  0  0
   -3.2865    1.7866    1.5712 H   0  0  0  0  0  0  0  0  0  0  0  0
   -1.7804    2.6743    1.9015 H   0  0  0  0  0  0  0  0  0  0  0  0
   -2.8902    3.3992    0.1984 C   0  0  0  0  0  0  0  0  0  0  0  0
   -2.0157    3.8541   -0.2723 H   0  0  0  0  0  0  0  0  0  0  0  0
   -3.5281    2.9736   -0.5798 H   0  0  0  0  0  0  0  0  0  0  0  0
   -3.6413    4.4306    0.9432 N   0  3  0  0  0  0  0  0  0  0  0  0
   -3.7954    4.2586    1.9220 H   0  0  0  0  0  0  0  0  0  0  0  0
   -4.1282    5.5550    0.4455 C   0  0  0  0  0  0  0  0  0  0  0  0
   -3.9858    5.8763   -0.8098 N   0  0  0  0  0  0  0  0  0  0  0  0
   -3.4885    5.2485   -1.4165 H   0  0  0  0  0  0  0  0  0  0  0  0
   -4.3619    6.7334   -1.1716 H   0  0  0  0  0  0  0  0  0  0  0  0
   -4.7767    6.3882    1.2087 N   0  0  0  0  0  0  0  0  0  0  0  0
   -4.9119    6.1840    2.1840 H   0  0  0  0  0  0  0  0  0  0  0  0
   -5.1444    7.2401    0.8271 H   0  0  0  0  0  0  0  0  0  0  0  0
   -0.9523    0.1012    2.4848 C   0  0  0  0  0  0  0  0  0  0  0  0
    0.2133   -0.1319    2.7814 O   0  0  0  0  0  0  0  0  0  0  0  0
   -1.8684    0.5006    3.3725 N   0  0  0  0  0  0  0  0  0  0  0  0
   -2.7946    0.7048    3.0343 H   0  0  0  0  0  0  0  0  0  0  0  0
   -1.5848    0.7472    4.7873 C   0  0  0  0  0  0  0  0  0  0  0  0
   -0.8819    1.5774    4.8838 H   0  0  0  0  0  0  0  0  0  0  0  0
   -2.5030    0.9948    5.3214 H   0  0  0  0  0  0  0  0  0  0  0  0
   -1.1344   -0.1399    5.2381 H   0  0  0  0  0  0  0  0  0  0  0  0
  5  6  2  0  0  0  0
  5  7  1  0  0  0  0
  2  3  1  0  0  0  0
  2  4  1  0  0  0  0
  2  5  1  0  0  0  0
  1  2  1  0  0  0  0
 29 30  2  0  0  0  0
 29 31  1  0  0  0  0
 26 27  1  0  0  0  0
 26 28  1  0  0  0  0
 23 24  1  0  0  0  0
 23 25  1  0  0  0  0
 22 23  1  0  0  0  0
 22 26  1  0  0  0  0
 20 21  1  0  0  0  0
 20 22  2  0  0  0  0
 17 18  1  0  0  0  0
 17 19  1  0  0  0  0
 17 20  1  0  0  0  0
 14 15  1  0  0  0  0
 14 16  1  0  0  0  0
 14 17  1  0  0  0  0
 11 12  1  0  0  0  0
 11 13  1  0  0  0  0
 11 14  1  0  0  0  0
  9 10  1  0  0  0  0
  9 11  1  0  0  0  0
  9 29  1  0  0  0  0
  7  8  1  0  0  0  0
  7  9  1  0  0  0  0
 33 34  1  0  0  0  0
 33 35  1  0  0  0  0
 33 36  1  0  0  0  0
 31 32  1  0  0  0  0
 31 33  1  0  0  0  0
M  CHG  1  20   1
M  END
$$$$
default_name
  -OEChem-02102213163D

 36 35  0     1  0  0  0  0  0999 V2000
   -4.2256   -3.6731    1.8584 H   0  0  0  0  0  0  0  0  0  0  0  0
   -4.2396   -2.6781    1.4144 C   0  0  0  0  0  0  0  0  0  0  0  0
   -4.9506   -2.0521    1.9514 H   0  0  0  0  0  0  0  0  0  0  0  0
   -4.5266   -2.7521    0.3674 H   0  0  0  0  0  0  0  0  0  0  0  0
   -2.8576   -2.0761    1.5184 C   0  0  0  0  0  0  0  0  0  0  0  0
   -1.9456   -2.7051    2.0404 O   0  0  0  0  0  0  0  0  0  0  0  0
   -2.6926   -0.8481    1.0174 N   0  0  0  0  0  0  0  0  0  0  0  0
   -3.4926   -0.3971    0.5954 H   0  0  0  0  0  0  0  0  0  0  0  0
   -1.4216   -0.1071    1.0434 C   0  0  1  0  0  0  0  0  0  0  0  0
   -0.6709   -0.6930    0.5106 H   0  0  0  0  0  0  0  0  0  0  0  0
   -1.6221    1.2315    0.3051 C   0  0  0  0  0  0  0  0  0  0  0  0
   -0.6414    1.6547    0.0785 H   0  0  0  0  0  0  0  0  0  0  0  0
   -2.1372    1.0444   -0.6396 H   0  0  0  0  0  0  0  0  0  0  0  0
   -2.4173    2.2643    1.1170 C   0  0  0  0  0  0  0  0  0  0  0  0
   -3.1189    1.7533    1.7777 H   0  0  0  0  0  0  0  0  0  0  0  0
   -1.7281    2.8609    1.7155 H   0  0  0  0  0  0  0  0  0  0  0  0
   -3.1985    3.1847    0.1693 C   0  0  0  0  0  0  0  0  0  0  0  0
   -2.4910    3.6716   -0.5057 H   0  0  0  0  0  0  0  0  0  0  0  0
   -3.8854    2.5736   -0.4209 H   0  0  0  0  0  0  0  0  0  0  0  0
   -3.9616    4.2118    0.9079 N   0  3  0  0  0  0  0  0  0  0  0  0
   -3.9250    4.1668    1.9119 H   0  0  0  0  0  0  0  0  0  0  0  0
   -4.6855    5.1816    0.3746 C   0  0  0  0  0  0  0  0  0  0  0  0
   -4.8012    5.3313   -0.9152 N   0  0  0  0  0  0  0  0  0  0  0  0
   -4.3229    4.6887   -1.5216 H   0  0  0  0  0  0  0  0  0  0  0  0
   -5.3550    6.0725   -1.3036 H   0  0  0  0  0  0  0  0  0  0  0  0
   -5.3160    6.0298    1.1365 N   0  0  0  0  0  0  0  0  0  0  0  0
   -5.2567    5.9551    2.1374 H   0  0  0  0  0  0  0  0  0  0  0  0
   -5.8640    6.7640    0.7278 H   0  0  0  0  0  0  0  0  0  0  0  0
   -0.9523    0.1012    2.4848 C   0  0  0  0  0  0  0  0  0  0  0  0
    0.2133   -0.1319    2.7814 O   0  0  0  0  0  0  0  0  0  0  0  0
   -1.8684    0.5006    3.3725 N   0  0  0  0  0  0  0  0  0  0  0  0
   -2.7946    0.7048    3.0343 H   0  0  0  0  0  0  0  0  0  0  0  0
   -1.5848    0.7472    4.7873 C   0  0  0  0  0  0  0  0  0  0  0  0
   -0.8819    1.5774    4.8838 H   0  0  0  0  0  0  0  0  0  0  0  0
   -2.5030    0.9948    5.3214 H   0  0  0  0  0  0  0  0  0  0  0  0
   -1.1344   -0.1399    5.2381 H   0  0  0  0  0  0  0  0  0  0  0  0
  5  6  2  0  0  0  0
  5  7  1  0  0  0  0
  2  3  1  0  0  0  0
  2  4  1  0  0  0  0
  2  5  1  0  0  0  0
  1  2  1  0  0  0  0
 29 30  2  0  0  0  0
 29 31  1  0  0  0  0
 26 27  1  0  0  0  0
 26 28  1  0  0  0  0
 23 24  1  0  0  0  0
 23 25  1  0  0  0  0
 22 23  1  0  0  0  0
 22 26  1  0  0  0  0
 20 21  1  0  0  0  0
 20 22  2  0  0  0  0
 17 18  1  0  0  0  0
 17 19  1  0  0  0  0
 17 20  1  0  0  0  0
 14 15  1  0  0  0  0
 14 16  1  0  0  0  0
 14 17  1  0  0  0  0
 11 12  1  0  0  0  0
 11 13  1  0  0  0  0
 11 14  1  0  0  0  0
  9 10  1  0  0  0  0
  9 11  1  0  0  0  0
  9 29  1  0  0  0  0
  7  8  1  0  0  0  0
  7  9  1  0  0  0  0
 33 34  1  0  0  0  0
 33 35  1  0  0  0  0
 33 36  1  0  0  0  0
 31 32  1  0  0  0  0
 31 33  1  0  0  0  0
M  CHG  1  20   1
M  END
$$$$
default_name
  -OEChem-02102213163D

 36 35  0     1  0  0  0  0  0999 V2000
   -4.2256   -3.6731    1.8584 H   0  0  0  0  0  0  0  0  0  0  0  0
   -4.2396   -2.6781    1.4144 C   0  0  0  0  0  0  0  0  0  0  0  0
   -4.9506   -2.0521    1.9514 H   0  0  0  0  0  0  0  0  0  0  0  0
   -4.5266   -2.7521    0.3674 H   0  0  0  0  0  0  0  0  0  0  0  0
   -2.8576   -2.0761    1.5184 C   0  0  0  0  0  0  0  0  0  0  0  0
   -1.9456   -2.7051    2.0404 O   0  0  0  0  0  0  0  0  0  0  0  0
   -2.6926   -0.8481    1.0174 N   0  0  0  0  0  0  0  0  0  0  0  0
   -3.4926   -0.3971    0.5954 H   0  0  0  0  0  0  0  0  0  0  0  0
   -1.4216   -0.1071    1.0434 C   0  0  1  0  0  0  0  0  0  0  0  0
   -0.6709   -0.6930    0.5106 H   0  0  0  0  0  0  0  0  0  0  0  0
   -1.6221    1.2315    0.3051 C   0  0  0  0  0  0  0  0  0  0  0  0
   -0.6414    1.6547    0.0785 H   0  0  0  0  0  0  0  0  0  0  0  0
   -2.1372    1.0444   -0.6396 H   0  0  0  0  0  0  0  0  0  0  0  0
   -2.4173    2.2643    1.1170 C   0  0  0  0  0  0  0  0  0  0  0  0
   -2.9166    1.7717    1.9525 H   0  0  0  0  0  0  0  0  0  0  0  0
   -1.7354    3.0234    1.5017 H   0  0  0  0  0  0  0  0  0  0  0  0
   -3.4720    2.9314    0.2237 C   0  0  0  0  0  0  0  0  0  0  0  0
   -2.9657    3.3990   -0.6239 H   0  0  0  0  0  0  0  0  0  0  0  0
   -4.1481    2.1596   -0.1516 H   0  0  0  0  0  0  0  0  0  0  0  0
   -4.2471    3.9519    0.9588 N   0  3  0  0  0  0  0  0  0  0  0  0
   -4.0393    4.0591    1.9369 H   0  0  0  0  0  0  0  0  0  0  0  0
   -5.1851    4.7352    0.4532 C   0  0  0  0  0  0  0  0  0  0  0  0
   -5.5326    4.6791   -0.8019 N   0  0  0  0  0  0  0  0  0  0  0  0
   -5.0706    4.0197   -1.4029 H   0  0  0  0  0  0  0  0  0  0  0  0
   -6.2468    5.2806   -1.1696 H   0  0  0  0  0  0  0  0  0  0  0  0
   -5.8004    5.6001    1.2086 N   0  0  0  0  0  0  0  0  0  0  0  0
   -5.5666    5.6805    2.1832 H   0  0  0  0  0  0  0  0  0  0  0  0
   -6.5113    6.1925    0.8209 H   0  0  0  0  0  0  0  0  0  0  0  0
   -0.9523    0.1012    2.4848 C   0  0  0  0  0  0  0  0  0  0  0  0
    0.2133   -0.1319    2.7814 O   0  0  0  0  0  0  0  0  0  0  0  0
   -1.8684    0.5006    3.3725 N   0  0  0  0  0  0  0  0  0  0  0  0
   -2.7946    0.7048    3.0343 H   0  0  0  0  0  0  0  0  0  0  0  0
   -1.5848    0.7472    4.7873 C   0  0  0  0  0  0  0  0  0  0  0  0
   -0.8819    1.5774    4.8838 H   0  0  0  0  0  0  0  0  0  0  0  0
   -2.5030    0.9948    5.3214 H   0  0  0  0  0  0  0  0  0  0  0  0
   -1.1344   -0.1399    5.2381 H   0  0  0  0  0  0  0  0  0  0  0  0
  5  6  2  0  0  0  0
  5  7  1  0  0  0  0
  2  3  1  0  0  0  0
  2  4  1  0  0  0  0
  2  5  1  0  0  0  0
  1  2  1  0  0  0  0
 29 30  2  0  0  0  0
 29 31  1  0  0  0  0
 26 27  1  0  0  0  0
 26 28  1  0  0  0  0
 23 24  1  0  0  0  0
 23 25  1  0  0  0  0
 22 23  1  0  0  0  0
 22 26  1  0  0  0  0
 20 21  1  0  0  0  0
 20 22  2  0  0  0  0
 17 18  1  0  0  0  0
 17 19  1  0  0  0  0
 17 20  1  0  0  0  0
 14 15  1  0  0  0  0
 14 16  1  0  0  0  0
 14 17  1  0  0  0  0
 11 12  1  0  0  0  0
 11 13  1  0  0  0  0
 11 14  1  0  0  0  0
  9 10  1  0  0  0  0
  9 11  1  0  0  0  0
  9 29  1  0  0  0  0
  7  8  1  0  0  0  0
  7  9  1  0  0  0  0
 33 34  1  0  0  0  0
 33 35  1  0  0  0  0
 33 36  1  0  0  0  0
 31 32  1  0  0  0  0
 31 33  1  0  0  0  0
M  CHG  1  20   1
M  END
$$$$
default_name
  -OEChem-02102213163D

 36 35  0     1  0  0  0  0  0999 V2000
   -4.2256   -3.6731    1.8584 H   0  0  0  0  0  0  0  0  0  0  0  0
   -4.2396   -2.6781    1.4144 C   0  0  0  0  0  0  0  0  0  0  0  0
   -4.9506   -2.0521    1.9514 H   0  0  0  0  0  0  0  0  0  0  0  0
   -4.5266   -2.7521    0.3674 H   0  0  0  0  0  0  0  0  0  0  0  0
   -2.8576   -2.0761    1.5184 C   0  0  0  0  0  0  0  0  0  0  0  0
   -1.9456   -2.7051    2.0404 O   0  0  0  0  0  0  0  0  0  0  0  0
   -2.6926   -0.8481    1.0174 N   0  0  0  0  0  0  0  0  0  0  0  0
   -3.4926   -0.3971    0.5954 H   0  0  0  0  0  0  0  0  0  0  0  0
   -1.4216   -0.1071    1.0434 C   0  0  1  0  0  0  0  0  0  0  0  0
   -0.6709   -0.6930    0.5106 H   0  0  0  0  0  0  0  0  0  0  0  0
   -1.6221    1.2315    0.3051 C   0  0  0  0  0  0  0  0  0  0  0  0
   -0.6414    1.6547    0.0785 H   0  0  0  0  0  0  0  0  0  0  0  0
   -2.1372    1.0444   -0.6396 H   0  0  0  0  0  0  0  0  0  0  0  0
   -2.4173    2.2643    1.1170 C   0  0  0  0  0  0  0  0  0  0  0  0
   -2.6932    1.8406    2.0836 H   0  0  0  0  0  0  0  0  0  0  0  0
   -1.8019    3.1506    1.2746 H   0  0  0  0  0  0  0  0  0  0  0  0
   -3.6921    2.6566    0.3577 C   0  0  0  0  0  0  0  0  0  0  0  0
   -3.4076    3.0549   -0.6189 H   0  0  0  0  0  0  0  0  0  0  0  0
   -4.2984    1.7598    0.2098 H   0  0  0  0  0  0  0  0  0  0  0  0
   -4.4785    3.6686    1.0926 N   0  3  0  0  0  0  0  0  0  0  0  0
   -4.1307    3.9427    1.9955 H   0  0  0  0  0  0  0  0  0  0  0  0
   -5.5928    4.2462    0.6759 C   0  0  0  0  0  0  0  0  0  0  0  0
   -6.1302    3.9643   -0.4779 N   0  0  0  0  0  0  0  0  0  0  0  0
   -5.6806    3.2871   -1.0684 H   0  0  0  0  0  0  0  0  0  0  0  0
   -6.9765    4.4115   -0.7789 H   0  0  0  0  0  0  0  0  0  0  0  0
   -6.1970    5.1284    1.4202 N   0  0  0  0  0  0  0  0  0  0  0  0
   -5.8204    5.3790    2.3182 H   0  0  0  0  0  0  0  0  0  0  0  0
   -7.0421    5.5643    1.1002 H   0  0  0  0  0  0  0  0  0  0  0  0
   -0.9523    0.1012    2.4848 C   0  0  0  0  0  0  0  0  0  0  0  0
    0.2133   -0.1319    2.7814 O   0  0  0  0  0  0  0  0  0  0  0  0
   -1.8684    0.5006    3.3725 N   0  0  0  0  0  0  0  0  0  0  0  0
   -2.7946    0.7048    3.0343 H   0  0  0  0  0  0  0  0  0  0  0  0
   -1.5848    0.7472    4.7873 C   0  0  0  0  0  0  0  0  0  0  0  0
   -0.8819    1.5774    4.8838 H   0  0  0  0  0  0  0  0  0  0  0  0
   -2.5030    0.9948    5.3214 H   0  0  0  0  0  0  0  0  0  0  0  0
   -1.1344   -0.1399    5.2381 H   0  0  0  0  0  0  0  0  0  0  0  0
  5  6  2  0  0  0  0
  5  7  1  0  0  0  0
  2  3  1  0  0  0  0
  2  4  1  0  0  0  0
  2  5  1  0  0  0  0
  1  2  1  0  0  0  0
 29 30  2  0  0  0  0
 29 31  1  0  0  0  0
 26 27  1  0  0  0  0
 26 28  1  0  0  0  0
 23 24  1  0  0  0  0
 23 25  1  0  0  0  0
 22 23  1  0  0  0  0
 22 26  1  0  0  0  0
 20 21  1  0  0  0  0
 20 22  2  0  0  0  0
 17 18  1  0  0  0  0
 17 19  1  0  0  0  0
 17 20  1  0  0  0  0
 14 15  1  0  0  0  0
 14 16  1  0  0  0  0
 14 17  1  0  0  0  0
 11 12  1  0  0  0  0
 11 13  1  0  0  0  0
 11 14  1  0  0  0  0
  9 10  1  0  0  0  0
  9 11  1  0  0  0  0
  9 29  1  0  0  0  0
  7  8  1  0  0  0  0
  7  9  1  0  0  0  0
 33 34  1  0  0  0  0
 33 35  1  0  0  0  0
 33 36  1  0  0  0  0
 31 32  1  0  0  0  0
 31 33  1  0  0  0  0
M  CHG  1  20   1
M  END
$$$$
default_name
  -OEChem-02102213163D

 36 35  0     1  0  0  0  0  0999 V2000
   -4.2256   -3.6731    1.8584 H   0  0  0  0  0  0  0  0  0  0  0  0
   -4.2396   -2.6781    1.4144 C   0  0  0  0  0  0  0  0  0  0  0  0
   -4.9506   -2.0521    1.9514 H   0  0  0  0  0  0  0  0  0  0  0  0
   -4.5266   -2.7521    0.3674 H   0  0  0  0  0  0  0  0  0  0  0  0
   -2.8576   -2.0761    1.5184 C   0  0  0  0  0  0  0  0  0  0  0  0
   -1.9456   -2.7051    2.0404 O   0  0  0  0  0  0  0  0  0  0  0  0
   -2.6926   -0.8481    1.0174 N   0  0  0  0  0  0  0  0  0  0  0  0
   -3.4926   -0.3971    0.5954 H   0  0  0  0  0  0  0  0  0  0  0  0
   -1.4216   -0.1071    1.0434 C   0  0  1  0  0  0  0  0  0  0  0  0
   -0.6709   -0.6930    0.5106 H   0  0  0  0  0  0  0  0  0  0  0  0
   -1.6221    1.2315    0.3051 C   0  0  0  0  0  0  0  0  0  0  0  0
   -0.6414    1.6547    0.0785 H   0  0  0  0  0  0  0  0  0  0  0  0
   -2.1372    1.0444   -0.6396 H   0  0  0  0  0  0  0  0  0  0  0  0
   -2.4173    2.2643    1.1170 C   0  0  0  0  0  0  0  0  0  0  0  0
   -2.4641    1.9552    2.1622 H   0  0  0  0  0  0  0  0  0  0  0  0
   -1.9230    3.2340    1.0498 H   0  0  0  0  0  0  0  0  0  0  0  0
   -3.8437    2.3790    0.5624 C   0  0  0  0  0  0  0  0  0  0  0  0
   -3.7864    2.6627   -0.4910 H   0  0  0  0  0  0  0  0  0  0  0  0
   -4.3259    1.4016    0.6385 H   0  0  0  0  0  0  0  0  0  0  0  0
   -4.6399    3.3813    1.3000 N   0  3  0  0  0  0  0  0  0  0  0  0
   -4.1928    3.8256    2.0836 H   0  0  0  0  0  0  0  0  0  0  0  0
   -5.8810    3.7479    1.0275 C   0  0  0  0  0  0  0  0  0  0  0  0
   -6.5531    3.2355    0.0350 N   0  0  0  0  0  0  0  0  0  0  0  0
   -6.1113    2.5409   -0.5409 H   0  0  0  0  0  0  0  0  0  0  0  0
   -7.4944    3.5247   -0.1579 H   0  0  0  0  0  0  0  0  0  0  0  0
   -6.4787    4.6470    1.7568 N   0  0  0  0  0  0  0  0  0  0  0  0
   -6.0008    5.0711    2.5331 H   0  0  0  0  0  0  0  0  0  0  0  0
   -7.4203    4.9223    1.5465 H   0  0  0  0  0  0  0  0  0  0  0  0
   -0.9523    0.1012    2.4848 C   0  0  0  0  0  0  0  0  0  0  0  0
    0.2133   -0.1319    2.7814 O   0  0  0  0  0  0  0  0  0  0  0  0
   -1.8684    0.5006    3.3725 N   0  0  0  0  0  0  0  0  0  0  0  0
   -2.7946    0.7048    3.0343 H   0  0  0  0  0  0  0  0  0  0  0  0
   -1.5848    0.7472    4.7873 C   0  0  0  0  0  0  0  0  0  0  0  0
   -0.8819    1.5774    4.8838 H   0  0  0  0  0  0  0  0  0  0  0  0
   -2.5030    0.9948    5.3214 H   0  0  0  0  0  0  0  0  0  0  0  0
   -1.1344   -0.1399    5.2381 H   0  0  0  0  0  0  0  0  0  0  0  0
  5  6  2  0  0  0  0
  5  7  1  0  0  0  0
  2  3  1  0  0  0  0
  2  4  1  0  0  0  0
  2  5  1  0  0  0  0
  1  2  1  0  0  0  0
 29 30  2  0  0  0  0
 29 31  1  0  0  0  0
 26 27  1  0  0  0  0
 26 28  1  0  0  0  0
 23 24  1  0  0  0  0
 23 25  1  0  0  0  0
 22 23  1  0  0  0  0
 22 26  1  0  0  0  0
 20 21  1  0  0  0  0
 20 22  2  0  0  0  0
 17 18  1  0  0  0  0
 17 19  1  0  0  0  0
 17 20  1  0  0  0  0
 14 15  1  0  0  0  0
 14 16  1  0  0  0  0
 14 17  1  0  0  0  0
 11 12  1  0  0  0  0
 11 13  1  0  0  0  0
 11 14  1  0  0  0  0
  9 10  1  0  0  0  0
  9 11  1  0  0  0  0
  9 29  1  0  0  0  0
  7  8  1  0  0  0  0
  7  9  1  0  0  0  0
 33 34  1  0  0  0  0
 33 35  1  0  0  0  0
 33 36  1  0  0  0  0
 31 32  1  0  0  0  0
 31 33  1  0  0  0  0
M  CHG  1  20   1
M  END
$$$$
default_name
  -OEChem-02102213163D

 36 35  0     1  0  0  0  0  0999 V2000
   -4.2256   -3.6731    1.8584 H   0  0  0  0  0  0  0  0  0  0  0  0
   -4.2396   -2.6781    1.4144 C   0  0  0  0  0  0  0  0  0  0  0  0
   -4.9506   -2.0521    1.9514 H   0  0  0  0  0  0  0  0  0  0  0  0
   -4.5266   -2.7521    0.3674 H   0  0  0  0  0  0  0  0  0  0  0  0
   -2.8576   -2.0761    1.5184 C   0  0  0  0  0  0  0  0  0  0  0  0
   -1.9456   -2.7051    2.0404 O   0  0  0  0  0  0  0  0  0  0  0  0
   -2.6926   -0.8481    1.0174 N   0  0  0  0  0  0  0  0  0  0  0  0
   -3.4926   -0.3971    0.5954 H   0  0  0  0  0  0  0  0  0  0  0  0
   -1.4216   -0.1071    1.0434 C   0  0  1  0  0  0  0  0  0  0  0  0
   -0.6709   -0.6930    0.5106 H   0  0  0  0  0  0  0  0  0  0  0  0
   -1.6221    1.2315    0.3051 C   0  0  0  0  0  0  0  0  0  0  0  0
   -0.6414    1.6547    0.0785 H   0  0  0  0  0  0  0  0  0  0  0  0
   -2.1372    1.0444   -0.6396 H   0  0  0  0  0  0  0  0  0  0  0  0
   -2.4173    2.2643    1.1170 C   0  0  0  0  0  0  0  0  0  0  0  0
   -2.2448    2.1079    2.1828 H   0  0  0  0  0  0  0  0  0  0  0  0
   -2.0906    3.2679    0.8426 H   0  0  0  0  0  0  0  0  0  0  0  0
   -3.9165    2.1175    0.8236 C   0  0  0  0  0  0  0  0  0  0  0  0
   -4.0764    2.2491   -0.2490 H   0  0  0  0  0  0  0  0  0  0  0  0
   -4.2289    1.1092    1.1055 H   0  0  0  0  0  0  0  0  0  0  0  0
   -4.7205    3.1094    1.5670 N   0  3  0  0  0  0  0  0  0  0  0  0
   -4.2215    3.7159    2.1951 H   0  0  0  0  0  0  0  0  0  0  0  0
   -6.0300    3.2743    1.4841 C   0  0  0  0  0  0  0  0  0  0  0  0
   -6.7727    2.5424    0.7017 N   0  0  0  0  0  0  0  0  0  0  0  0
   -6.3335    1.8318    0.1435 H   0  0  0  0  0  0  0  0  0  0  0  0
   -7.7653    2.6803    0.6509 H   0  0  0  0  0  0  0  0  0  0  0  0
   -6.6263    4.1884    2.1955 N   0  0  0  0  0  0  0  0  0  0  0  0
   -6.0956    4.7778    2.8134 H   0  0  0  0  0  0  0  0  0  0  0  0
   -7.6200    4.3102    2.1295 H   0  0  0  0  0  0  0  0  0  0  0  0
   -0.9523    0.1012    2.4848 C   0  0  0  0  0  0  0  0  0  0  0  0
    0.2133   -0.1319    2.7814 O   0  0  0  0  0  0  0  0  0  0  0  0
   -1.8684    0.5006    3.3725 N   0  0  0  0  0  0  0  0  0  0  0  0
   -2.7946    0.7048    3.0343 H   0  0  0  0  0  0  0  0  0  0  0  0
   -1.5848    0.7472    4.7873 C   0  0  0  0  0  0  0  0  0  0  0  0
   -0.8819    1.5774    4.8838 H   0  0  0  0  0  0  0  0  0  0  0  0
   -2.5030    0.9948    5.3214 H   0  0  0  0  0  0  0  0  0  0  0  0
   -1.1344   -0.1399    5.2381 H   0  0  0  0  0  0  0  0  0  0  0  0
  5  6  2  0  0  0  0
  5  7  1  0  0  0  0
  2  3  1  0  0  0  0
  2  4  1  0  0  0  0
  2  5  1  0  0  0  0
  1  2  1  0  0  0  0
 29 30  2  0  0  0  0
 29 31  1  0  0  0  0
 26 27  1  0  0  0  0
 26 28  1  0  0  0  0
 23 24  1  0  0  0  0
 23 25  1  0  0  0  0
 22 23  1  0  0  0  0
 22 26  1  0  0  0  0
 20 21  1  0  0  0  0
 20 22  2  0  0  0  0
 17 18  1  0  0  0  0
 17 19  1  0  0  0  0
 17 20  1  0  0  0  0
 14 15  1  0  0  0  0
 14 16  1  0  0  0  0
 14 17  1  0  0  0  0
 11 12  1  0  0  0  0
 11 13  1  0  0  0  0
 11 14  1  0  0  0  0
  9 10  1  0  0  0  0
  9 11  1  0  0  0  0
  9 29  1  0  0  0  0
  7  8  1  0  0  0  0
  7  9  1  0  0  0  0
 33 34  1  0  0  0  0
 33 35  1  0  0  0  0
 33 36  1  0  0  0  0
 31 32  1  0  0  0  0
 31 33  1  0  0  0  0
M  CHG  1  20   1
M  END
$$$$
default_name
  -OEChem-02102213163D

 36 35  0     1  0  0  0  0  0999 V2000
   -4.2256   -3.6731    1.8584 H   0  0  0  0  0  0  0  0  0  0  0  0
   -4.2396   -2.6781    1.4144 C   0  0  0  0  0  0  0  0  0  0  0  0
   -4.9506   -2.0521    1.9514 H   0  0  0  0  0  0  0  0  0  0  0  0
   -4.5266   -2.7521    0.3674 H   0  0  0  0  0  0  0  0  0  0  0  0
   -2.8576   -2.0761    1.5184 C   0  0  0  0  0  0  0  0  0  0  0  0
   -1.9456   -2.7051    2.0404 O   0  0  0  0  0  0  0  0  0  0  0  0
   -2.6926   -0.8481    1.0174 N   0  0  0  0  0  0  0  0  0  0  0  0
   -3.4926   -0.3971    0.5954 H   0  0  0  0  0  0  0  0  0  0  0  0
   -1.4216   -0.1071    1.0434 C   0  0  1  0  0  0  0  0  0  0  0  0
   -0.6709   -0.6930    0.5106 H   0  0  0  0  0  0  0  0  0  0  0  0
   -1.6221    1.2315    0.3051 C   0  0  0  0  0  0  0  0  0  0  0  0
   -0.6414    1.6547    0.0785 H   0  0  0  0  0  0  0  0  0  0  0  0
   -2.1372    1.0444   -0.6396 H   0  0  0  0  0  0  0  0  0  0  0  0
   -2.4173    2.2643    1.1170 C   0  0  0  0  0  0  0  0  0  0  0  0
   -2.0503    2.2881    2.1440 H   0  0  0  0  0  0  0  0  0  0  0  0
   -2.2932    3.2499    0.6671 H   0  0  0  0  0  0  0  0  0  0  0  0
   -3.9057    1.8900    1.1237 C   0  0  0  0  0  0  0  0  0  0  0  0
   -4.2578    1.8424    0.0907 H   0  0  0  0  0  0  0  0  0  0  0  0
   -4.0138    0.9027    1.5789 H   0  0  0  0  0  0  0  0  0  0  0  0
   -4.7146    2.8716    1.8753 N   0  3  0  0  0  0  0  0  0  0  0  0
   -4.2147    3.6209    2.3226 H   0  0  0  0  0  0  0  0  0  0  0  0
   -6.0296    2.8576    2.0145 C   0  0  0  0  0  0  0  0  0  0  0  0
   -6.7738    1.9323    1.4768 N   0  0  0  0  0  0  0  0  0  0  0  0
   -6.3319    1.2082    0.9384 H   0  0  0  0  0  0  0  0  0  0  0  0
   -7.7706    1.9361    1.5924 H   0  0  0  0  0  0  0  0  0  0  0  0
   -6.6298    3.7841    2.7064 N   0  0  0  0  0  0  0  0  0  0  0  0
   -6.0981    4.5192    3.1399 H   0  0  0  0  0  0  0  0  0  0  0  0
   -7.6277    3.7698    2.8094 H   0  0  0  0  0  0  0  0  0  0  0  0
   -0.9523    0.1012    2.4848 C   0  0  0  0  0  0  0  0  0  0  0  0
    0.2133   -0.1319    2.7814 O   0  0  0  0  0  0  0  0  0  0  0  0
   -1.8684    0.5006    3.3725 N   0  0  0  0  0  0  0  0  0  0  0  0
   -2.7946    0.7048    3.0343 H   0  0  0  0  0  0  0  0  0  0  0  0
   -1.5848    0.7472    4.7873 C   0  0  0  0  0  0  0  0  0  0  0  0
   -0.8819    1.5774    4.8838 H   0  0  0  0  0  0  0  0  0  0  0  0
   -2.5030    0.9948    5.3214 H   0  0  0  0  0  0  0  0  0  0  0  0
   -1.1344   -0.1399    5.2381 H   0  0  0  0  0  0  0  0  0  0  0  0
  5  6  2  0  0  0  0
  5  7  1  0  0  0  0
  2  3  1  0  0  0  0
  2  4  1  0  0  0  0
  2  5  1  0  0  0  0
  1  2  1  0  0  0  0
 29 30  2  0  0  0  0
 29 31  1  0  0  0  0
 26 27  1  0  0  0  0
 26 28  1  0  0  0  0
 23 24  1  0  0  0  0
 23 25  1  0  0  0  0
 22 23  1  0  0  0  0
 22 26  1  0  0  0  0
 20 21  1  0  0  0  0
 20 22  2  0  0  0  0
 17 18  1  0  0  0  0
 17 19  1  0  0  0  0
 17 20  1  0  0  0  0
 14 15  1  0  0  0  0
 14 16  1  0  0  0  0
 14 17  1  0  0  0  0
 11 12  1  0  0  0  0
 11 13  1  0  0  0  0
 11 14  1  0  0  0  0
  9 10  1  0  0  0  0
  9 11  1  0  0  0  0
  9 29  1  0  0  0  0
  7  8  1  0  0  0  0
  7  9  1  0  0  0  0
 33 34  1  0  0  0  0
 33 35  1  0  0  0  0
 33 36  1  0  0  0  0
 31 32  1  0  0  0  0
 31 33  1  0  0  0  0
M  CHG  1  20   1
M  END
$$$$
default_name
  -OEChem-02102213163D

 36 35  0     1  0  0  0  0  0999 V2000
   -4.2256   -3.6731    1.8584 H   0  0  0  0  0  0  0  0  0  0  0  0
   -4.2396   -2.6781    1.4144 C   0  0  0  0  0  0  0  0  0  0  0  0
   -4.9506   -2.0521    1.9514 H   0  0  0  0  0  0  0  0  0  0  0  0
   -4.5266   -2.7521    0.3674 H   0  0  0  0  0  0  0  0  0  0  0  0
   -2.8576   -2.0761    1.5184 C   0  0  0  0  0  0  0  0  0  0  0  0
   -1.9456   -2.7051    2.0404 O   0  0  0  0  0  0  0  0  0  0  0  0
   -2.6926   -0.8481    1.0174 N   0  0  0  0  0  0  0  0  0  0  0  0
   -3.4926   -0.3971    0.5954 H   0  0  0  0  0  0  0  0  0  0  0  0
   -1.4216   -0.1071    1.0434 C   0  0  1  0  0  0  0  0  0  0  0  0
   -0.6709   -0.6930    0.5106 H   0  0  0  0  0  0  0  0  0  0  0  0
   -1.6221    1.2315    0.3051 C   0  0  0  0  0  0  0  0  0  0  0  0
   -0.6414    1.6547    0.0785 H   0  0  0  0  0  0  0  0  0  0  0  0
   -2.1372    1.0444   -0.6396 H   0  0  0  0  0  0  0  0  0  0  0  0
   -2.4173    2.2643    1.1170 C   0  0  0  0  0  0  0  0  0  0  0  0
   -1.8938    2.4836    2.0486 H   0  0  0  0  0  0  0  0  0  0  0  0
   -2.5170    3.1812    0.5353 H   0  0  0  0  0  0  0  0  0  0  0  0
   -3.8118    1.7120    1.4421 C   0  0  0  0  0  0  0  0  0  0  0  0
   -4.3183    1.4703    0.5049 H   0  0  0  0  0  0  0  0  0  0  0  0
   -3.6955    0.7961    2.0263 H   0  0  0  0  0  0  0  0  0  0  0  0
   -4.6226    2.6840    2.2040 N   0  3  0  0  0  0  0  0  0  0  0  0
   -4.1730    3.5471    2.4573 H   0  0  0  0  0  0  0  0  0  0  0  0
   -5.8799    2.5263    2.5827 C   0  0  0  0  0  0  0  0  0  0  0  0
   -6.5565    1.4466    2.3074 N   0  0  0  0  0  0  0  0  0  0  0  0
   -6.1066    0.7126    1.7895 H   0  0  0  0  0  0  0  0  0  0  0  0
   -7.5099    1.3428    2.6026 H   0  0  0  0  0  0  0  0  0  0  0  0
   -6.4889    3.4616    3.2546 N   0  0  0  0  0  0  0  0  0  0  0  0
   -6.0084    4.3127    3.4905 H   0  0  0  0  0  0  0  0  0  0  0  0
   -7.4428    3.3379    3.5399 H   0  0  0  0  0  0  0  0  0  0  0  0
   -0.9523    0.1012    2.4848 C   0  0  0  0  0  0  0  0  0  0  0  0
    0.2133   -0.1319    2.7814 O   0  0  0  0  0  0  0  0  0  0  0  0
   -1.8684    0.5006    3.3725 N   0  0  0  0  0  0  0  0  0  0  0  0
   -2.7946    0.7048    3.0343 H   0  0  0  0  0  0  0  0  0  0  0  0
   -1.5848    0.7472    4.7873 C   0  0  0  0  0  0  0  0  0  0  0  0
   -0.8819    1.5774    4.8838 H   0  0  0  0  0  0  0  0  0  0  0  0
   -2.5030    0.9948    5.3214 H   0  0  0  0  0  0  0  0  0  0  0  0
   -1.1344   -0.1399    5.2381 H   0  0  0  0  0  0  0  0  0  0  0  0
  5  6  2  0  0  0  0
  5  7  1  0  0  0  0
  2  3  1  0  0  0  0
  2  4  1  0  0  0  0
  2  5  1  0  0  0  0
  1  2  1  0  0  0  0
 29 30  2  0  0  0  0
 29 31  1  0  0  0  0
 26 27  1  0  0  0  0
 26 28  1  0  0  0  0
 23 24  1  0  0  0  0
 23 25  1  0  0  0  0
 22 23  1  0  0  0  0
 22 26  1  0  0  0  0
 20 21  1  0  0  0  0
 20 22  2  0  0  0  0
 17 18  1  0  0  0  0
 17 19  1  0  0  0  0
 17 20  1  0  0  0  0
 14 15  1  0  0  0  0
 14 16  1  0  0  0  0
 14 17  1  0  0  0  0
 11 12  1  0  0  0  0
 11 13  1  0  0  0  0
 11 14  1  0  0  0  0
  9 10  1  0  0  0  0
  9 11  1  0  0  0  0
  9 29  1  0  0  0  0
  7  8  1  0  0  0  0
  7  9  1  0  0  0  0
 33 34  1  0  0  0  0
 33 35  1  0  0  0  0
 33 36  1  0  0  0  0
 31 32  1  0  0  0  0
 31 33  1  0  0  0  0
M  CHG  1  20   1
M  END
$$$$
default_name
  -OEChem-02102213163D

 36 35  0     1  0  0  0  0  0999 V2000
   -4.2256   -3.6731    1.8584 H   0  0  0  0  0  0  0  0  0  0  0  0
   -4.2396   -2.6781    1.4144 C   0  0  0  0  0  0  0  0  0  0  0  0
   -4.9506   -2.0521    1.9514 H   0  0  0  0  0  0  0  0  0  0  0  0
   -4.5266   -2.7521    0.3674 H   0  0  0  0  0  0  0  0  0  0  0  0
   -2.8576   -2.0761    1.5184 C   0  0  0  0  0  0  0  0  0  0  0  0
   -1.9456   -2.7051    2.0404 O   0  0  0  0  0  0  0  0  0  0  0  0
   -2.6926   -0.8481    1.0174 N   0  0  0  0  0  0  0  0  0  0  0  0
   -3.4926   -0.3971    0.5954 H   0  0  0  0  0  0  0  0  0  0  0  0
   -1.4216   -0.1071    1.0434 C   0  0  1  0  0  0  0  0  0  0  0  0
   -0.6709   -0.6930    0.5106 H   0  0  0  0  0  0  0  0  0  0  0  0
   -1.6221    1.2315    0.3051 C   0  0  0  0  0  0  0  0  0  0  0  0
   -0.6414    1.6547    0.0785 H   0  0  0  0  0  0  0  0  0  0  0  0
   -2.1372    1.0444   -0.6396 H   0  0  0  0  0  0  0  0  0  0  0  0
   -2.4173    2.2643    1.1170 C   0  0  0  0  0  0  0  0  0  0  0  0
   -1.7859    2.6811    1.9030 H   0  0  0  0  0  0  0  0  0  0  0  0
   -2.7467    3.0667    0.4561 H   0  0  0  0  0  0  0  0  0  0  0  0
   -3.6413    1.5955    1.7572 C   0  0  0  0  0  0  0  0  0  0  0  0
   -4.2537    1.1581    0.9653 H   0  0  0  0  0  0  0  0  0  0  0  0
   -3.2955    0.7967    2.4174 H   0  0  0  0  0  0  0  0  0  0  0  0
   -4.4510    2.5594    2.5306 N   0  3  0  0  0  0  0  0  0  0  0  0
   -4.0992    3.4996    2.5900 H   0  0  0  0  0  0  0  0  0  0  0  0
   -5.5911    2.3029    3.1498 C   0  0  0  0  0  0  0  0  0  0  0  0
   -6.1356    1.1186    3.1370 N   0  0  0  0  0  0  0  0  0  0  0  0
   -5.6731    0.3788    2.6388 H   0  0  0  0  0  0  0  0  0  0  0  0
   -7.0012    0.9406    3.6125 H   0  0  0  0  0  0  0  0  0  0  0  0
   -6.2133    3.2428    3.8030 N   0  0  0  0  0  0  0  0  0  0  0  0
   -5.8324    4.1726    3.8411 H   0  0  0  0  0  0  0  0  0  0  0  0
   -7.0780    3.0440    4.2712 H   0  0  0  0  0  0  0  0  0  0  0  0
   -0.9523    0.1012    2.4848 C   0  0  0  0  0  0  0  0  0  0  0  0
    0.2133   -0.1319    2.7814 O   0  0  0  0  0  0  0  0  0  0  0  0
   -1.8684    0.5006    3.3725 N   0  0  0  0  0  0  0  0  0  0  0  0
   -2.7946    0.7048    3.0343 H   0  0  0  0  0  0  0  0  0  0  0  0
   -1.5848    0.7472    4.7873 C   0  0  0  0  0  0  0  0  0  0  0  0
   -0.8819    1.5774    4.8838 H   0  0  0  0  0  0  0  0  0  0  0  0
   -2.5030    0.9948    5.3214 H   0  0  0  0  0  0  0  0  0  0  0  0
   -1.1344   -0.1399    5.2381 H   0  0  0  0  0  0  0  0  0  0  0  0
  5  6  2  0  0  0  0
  5  7  1  0  0  0  0
  2  3  1  0  0  0  0
  2  4  1  0  0  0  0
  2  5  1  0  0  0  0
  1  2  1  0  0  0  0
 29 30  2  0  0  0  0
 29 31  1  0  0  0  0
 26 27  1  0  0  0  0
 26 28  1  0  0  0  0
 23 24  1  0  0  0  0
 23 25  1  0  0  0  0
 22 23  1  0  0  0  0
 22 26  1  0  0  0  0
 20 21  1  0  0  0  0
 20 22  2  0  0  0  0
 17 18  1  0  0  0  0
 17 19  1  0  0  0  0
 17 20  1  0  0  0  0
 14 15  1  0  0  0  0
 14 16  1  0  0  0  0
 14 17  1  0  0  0  0
 11 12  1  0  0  0  0
 11 13  1  0  0  0  0
 11 14  1  0  0  0  0
  9 10  1  0  0  0  0
  9 11  1  0  0  0  0
  9 29  1  0  0  0  0
  7  8  1  0  0  0  0
  7  9  1  0  0  0  0
 33 34  1  0  0  0  0
 33 35  1  0  0  0  0
 33 36  1  0  0  0  0
 31 32  1  0  0  0  0
 31 33  1  0  0  0  0
M  CHG  1  20   1
M  END
$$$$
default_name
  -OEChem-02102213163D

 36 35  0     1  0  0  0  0  0999 V2000
   -4.2256   -3.6731    1.8584 H   0  0  0  0  0  0  0  0  0  0  0  0
   -4.2396   -2.6781    1.4144 C   0  0  0  0  0  0  0  0  0  0  0  0
   -4.9506   -2.0521    1.9514 H   0  0  0  0  0  0  0  0  0  0  0  0
   -4.5266   -2.7521    0.3674 H   0  0  0  0  0  0  0  0  0  0  0  0
   -2.8576   -2.0761    1.5184 C   0  0  0  0  0  0  0  0  0  0  0  0
   -1.9456   -2.7051    2.0404 O   0  0  0  0  0  0  0  0  0  0  0  0
   -2.6926   -0.8481    1.0174 N   0  0  0  0  0  0  0  0  0  0  0  0
   -3.4926   -0.3971    0.5954 H   0  0  0  0  0  0  0  0  0  0  0  0
   -1.4216   -0.1071    1.0434 C   0  0  1  0  0  0  0  0  0  0  0  0
   -0.6709   -0.6930    0.5106 H   0  0  0  0  0  0  0  0  0  0  0  0
   -1.6221    1.2315    0.3051 C   0  0  0  0  0  0  0  0  0  0  0  0
   -0.6414    1.6547    0.0785 H   0  0  0  0  0  0  0  0  0  0  0  0
   -2.1372    1.0444   -0.6396 H   0  0  0  0  0  0  0  0  0  0  0  0
   -2.4173    2.2643    1.1170 C   0  0  0  0  0  0  0  0  0  0  0  0
   -1.7342    2.8671    1.7171 H   0  0  0  0  0  0  0  0  0  0  0  0
   -2.9666    2.9139    0.4349 H   0  0  0  0  0  0  0  0  0  0  0  0
   -3.4059    1.5486    2.0475 C   0  0  0  0  0  0  0  0  0  0  0  0
   -4.0684    0.9271    1.4407 H   0  0  0  0  0  0  0  0  0  0  0  0
   -2.8411    0.9043    2.7255 H   0  0  0  0  0  0  0  0  0  0  0  0
   -4.2113    2.5063    2.8329 N   0  3  0  0  0  0  0  0  0  0  0  0
   -3.9983    3.4817    2.7117 H   0  0  0  0  0  0  0  0  0  0  0  0
   -5.1828    2.2026    3.6773 C   0  0  0  0  0  0  0  0  0  0  0  0
   -5.5397    0.9705    3.9090 N   0  0  0  0  0  0  0  0  0  0  0  0
   -5.0608    0.2295    3.4284 H   0  0  0  0  0  0  0  0  0  0  0  0
   -6.2789    0.7572    4.5532 H   0  0  0  0  0  0  0  0  0  0  0  0
   -5.8216    3.1427    4.3139 N   0  0  0  0  0  0  0  0  0  0  0  0
   -5.5822    4.1083    4.1679 H   0  0  0  0  0  0  0  0  0  0  0  0
   -6.5581    2.9079    4.9535 H   0  0  0  0  0  0  0  0  0  0  0  0
   -0.9523    0.1012    2.4848 C   0  0  0  0  0  0  0  0  0  0  0  0
    0.2133   -0.1319    2.7814 O   0  0  0  0  0  0  0  0  0  0  0  0
   -1.8684    0.5006    3.3725 N   0  0  0  0  0  0  0  0  0  0  0  0
   -2.7946    0.7048    3.0343 H   0  0  0  0  0  0  0  0  0  0  0  0
   -1.5848    0.7472    4.7873 C   0  0  0  0  0  0  0  0  0  0  0  0
   -0.8819    1.5774    4.8838 H   0  0  0  0  0  0  0  0  0  0  0  0
   -2.5030    0.9948    5.3214 H   0  0  0  0  0  0  0  0  0  0  0  0
   -1.1344   -0.1399    5.2381 H   0  0  0  0  0  0  0  0  0  0  0  0
  5  6  2  0  0  0  0
  5  7  1  0  0  0  0
  2  3  1  0  0  0  0
  2  4  1  0  0  0  0
  2  5  1  0  0  0  0
  1  2  1  0  0  0  0
 29 30  2  0  0  0  0
 29 31  1  0  0  0  0
 26 27  1  0  0  0  0
 26 28  1  0  0  0  0
 23 24  1  0  0  0  0
 23 25  1  0  0  0  0
 22 23  1  0  0  0  0
 22 26  1  0  0  0  0
 20 21  1  0  0  0  0
 20 22  2  0  0  0  0
 17 18  1  0  0  0  0
 17 19  1  0  0  0  0
 17 20  1  0  0  0  0
 14 15  1  0  0  0  0
 14 16  1  0  0  0  0
 14 17  1  0  0  0  0
 11 12  1  0  0  0  0
 11 13  1  0  0  0  0
 11 14  1  0  0  0  0
  9 10  1  0  0  0  0
  9 11  1  0  0  0  0
  9 29  1  0  0  0  0
  7  8  1  0  0  0  0
  7  9  1  0  0  0  0
 33 34  1  0  0  0  0
 33 35  1  0  0  0  0
 33 36  1  0  0  0  0
 31 32  1  0  0  0  0
 31 33  1  0  0  0  0
M  CHG  1  20   1
M  END
$$$$
default_name
  -OEChem-02102213163D

 36 35  0     1  0  0  0  0  0999 V2000
   -4.2256   -3.6731    1.8584 H   0  0  0  0  0  0  0  0  0  0  0  0
   -4.2396   -2.6781    1.4144 C   0  0  0  0  0  0  0  0  0  0  0  0
   -4.9506   -2.0521    1.9514 H   0  0  0  0  0  0  0  0  0  0  0  0
   -4.5266   -2.7521    0.3674 H   0  0  0  0  0  0  0  0  0  0  0  0
   -2.8576   -2.0761    1.5184 C   0  0  0  0  0  0  0  0  0  0  0  0
   -1.9456   -2.7051    2.0404 O   0  0  0  0  0  0  0  0  0  0  0  0
   -2.6926   -0.8481    1.0174 N   0  0  0  0  0  0  0  0  0  0  0  0
   -3.4926   -0.3971    0.5954 H   0  0  0  0  0  0  0  0  0  0  0  0
   -1.4216   -0.1071    1.0434 C   0  0  1  0  0  0  0  0  0  0  0  0
   -0.6709   -0.6930    0.5106 H   0  0  0  0  0  0  0  0  0  0  0  0
   -1.6221    1.2315    0.3051 C   0  0  0  0  0  0  0  0  0  0  0  0
   -0.6414    1.6547    0.0785 H   0  0  0  0  0  0  0  0  0  0  0  0
   -2.1372    1.0444   -0.6396 H   0  0  0  0  0  0  0  0  0  0  0  0
   -2.4173    2.2643    1.1170 C   0  0  0  0  0  0  0  0  0  0  0  0
   -1.7420    3.0289    1.5036 H   0  0  0  0  0  0  0  0  0  0  0  0
   -3.1619    2.7335    0.4732 H   0  0  0  0  0  0  0  0  0  0  0  0
   -3.1215    1.5744    2.2933 C   0  0  0  0  0  0  0  0  0  0  0  0
   -3.7750    0.7930    1.8986 H   0  0  0  0  0  0  0  0  0  0  0  0
   -2.3633    1.1118    2.9295 H   0  0  0  0  0  0  0  0  0  0  0  0
   -3.9198    2.5284    3.0903 N   0  3  0  0  0  0  0  0  0  0  0  0
   -3.8772    3.4944    2.8141 H   0  0  0  0  0  0  0  0  0  0  0  0
   -4.6828    2.2323    4.1291 C   0  0  0  0  0  0  0  0  0  0  0  0
   -4.8095    1.0124    4.5709 N   0  0  0  0  0  0  0  0  0  0  0  0
   -4.3115    0.2749    4.1046 H   0  0  0  0  0  0  0  0  0  0  0  0
   -5.3924    0.8049    5.3608 H   0  0  0  0  0  0  0  0  0  0  0  0
   -5.3407    3.1681    4.7527 N   0  0  0  0  0  0  0  0  0  0  0  0
   -5.2749    4.1242    4.4487 H   0  0  0  0  0  0  0  0  0  0  0  0
   -5.9185    2.9391    5.5403 H   0  0  0  0  0  0  0  0  0  0  0  0
   -0.9523    0.1012    2.4848 C   0  0  0  0  0  0  0  0  0  0  0  0
    0.2133   -0.1319    2.7814 O   0  0  0  0  0  0  0  0  0  0  0  0
   -1.8684    0.5006    3.3725 N   0  0  0  0  0  0  0  0  0  0  0  0
   -2.7946    0.7048    3.0343 H   0  0  0  0  0  0  0  0  0  0  0  0
   -1.5848    0.7472    4.7873 C   0  0  0  0  0  0  0  0  0  0  0  0
   -0.8819    1.5774    4.8838 H   0  0  0  0  0  0  0  0  0  0  0  0
   -2.5030    0.9948    5.3214 H   0  0  0  0  0  0  0  0  0  0  0  0
   -1.1344   -0.1399    5.2381 H   0  0  0  0  0  0  0  0  0  0  0  0
  5  6  2  0  0  0  0
  5  7  1  0  0  0  0
  2  3  1  0  0  0  0
  2  4  1  0  0  0  0
  2  5  1  0  0  0  0
  1  2  1  0  0  0  0
 29 30  2  0  0  0  0
 29 31  1  0  0  0  0
 26 27  1  0  0  0  0
 26 28  1  0  0  0  0
 23 24  1  0  0  0  0
 23 25  1  0  0  0  0
 22 23  1  0  0  0  0
 22 26  1  0  0  0  0
 20 21  1  0  0  0  0
 20 22  2  0  0  0  0
 17 18  1  0  0  0  0
 17 19  1  0  0  0  0
 17 20  1  0  0  0  0
 14 15  1  0  0  0  0
 14 16  1  0  0  0  0
 14 17  1  0  0  0  0
 11 12  1  0  0  0  0
 11 13  1  0  0  0  0
 11 14  1  0  0  0  0
  9 10  1  0  0  0  0
  9 11  1  0  0  0  0
  9 29  1  0  0  0  0
  7  8  1  0  0  0  0
  7  9  1  0  0  0  0
 33 34  1  0  0  0  0
 33 35  1  0  0  0  0
 33 36  1  0  0  0  0
 31 32  1  0  0  0  0
 31 33  1  0  0  0  0
M  CHG  1  20   1
M  END
$$$$
default_name
  -OEChem-02102213163D

 36 35  0     1  0  0  0  0  0999 V2000
   -4.2256   -3.6731    1.8584 H   0  0  0  0  0  0  0  0  0  0  0  0
   -4.2396   -2.6781    1.4144 C   0  0  0  0  0  0  0  0  0  0  0  0
   -4.9506   -2.0521    1.9514 H   0  0  0  0  0  0  0  0  0  0  0  0
   -4.5266   -2.7521    0.3674 H   0  0  0  0  0  0  0  0  0  0  0  0
   -2.8576   -2.0761    1.5184 C   0  0  0  0  0  0  0  0  0  0  0  0
   -1.9456   -2.7051    2.0404 O   0  0  0  0  0  0  0  0  0  0  0  0
   -2.6926   -0.8481    1.0174 N   0  0  0  0  0  0  0  0  0  0  0  0
   -3.4926   -0.3971    0.5954 H   0  0  0  0  0  0  0  0  0  0  0  0
   -1.4216   -0.1071    1.0434 C   0  0  1  0  0  0  0  0  0  0  0  0
   -0.6709   -0.6930    0.5106 H   0  0  0  0  0  0  0  0  0  0  0  0
   -1.6221    1.2315    0.3051 C   0  0  0  0  0  0  0  0  0  0  0  0
   -0.6414    1.6547    0.0785 H   0  0  0  0  0  0  0  0  0  0  0  0
   -2.1372    1.0444   -0.6396 H   0  0  0  0  0  0  0  0  0  0  0  0
   -2.4173    2.2643    1.1170 C   0  0  0  0  0  0  0  0  0  0  0  0
   -1.8088    3.1555    1.2771 H   0  0  0  0  0  0  0  0  0  0  0  0
   -3.3192    2.5376    0.5684 H   0  0  0  0  0  0  0  0  0  0  0  0
   -2.8076    1.6712    2.4776 C   0  0  0  0  0  0  0  0  0  0  0  0
   -3.3936    0.7650    2.3078 H   0  0  0  0  0  0  0  0  0  0  0  0
   -1.8947    1.4049    3.0156 H   0  0  0  0  0  0  0  0  0  0  0  0
   -3.5965    2.6241    3.2853 N   0  3  0  0  0  0  0  0  0  0  0  0
   -3.7441    3.5370    2.8902 H   0  0  0  0  0  0  0  0  0  0  0  0
   -4.1254    2.3900    4.4746 C   0  0  0  0  0  0  0  0  0  0  0  0
   -3.9947    1.2416    5.0775 N   0  0  0  0  0  0  0  0  0  0  0  0
   -3.4763    0.5119    4.6212 H   0  0  0  0  0  0  0  0  0  0  0  0
   -4.4021    1.0805    5.9802 H   0  0  0  0  0  0  0  0  0  0  0  0
   -4.8032    3.3172    5.0894 N   0  0  0  0  0  0  0  0  0  0  0  0
   -4.9313    4.2193    4.6642 H   0  0  0  0  0  0  0  0  0  0  0  0
   -5.2028    3.1354    5.9916 H   0  0  0  0  0  0  0  0  0  0  0  0
   -0.9523    0.1012    2.4848 C   0  0  0  0  0  0  0  0  0  0  0  0
    0.2133   -0.1319    2.7814 O   0  0  0  0  0  0  0  0  0  0  0  0
   -1.8684    0.5006    3.3725 N   0  0  0  0  0  0  0  0  0  0  0  0
   -2.7946    0.7048    3.0343 H   0  0  0  0  0  0  0  0  0  0  0  0
   -1.5848    0.7472    4.7873 C   0  0  0  0  0  0  0  0  0  0  0  0
   -0.8819    1.5774    4.8838 H   0  0  0  0  0  0  0  0  0  0  0  0
   -2.5030    0.9948    5.3214 H   0  0  0  0  0  0  0  0  0  0  0  0
   -1.1344   -0.1399    5.2381 H   0  0  0  0  0  0  0  0  0  0  0  0
  5  6  2  0  0  0  0
  5  7  1  0  0  0  0
  2  3  1  0  0  0  0
  2  4  1  0  0  0  0
  2  5  1  0  0  0  0
  1  2  1  0  0  0  0
 29 30  2  0  0  0  0
 29 31  1  0  0  0  0
 26 27  1  0  0  0  0
 26 28  1  0  0  0  0
 23 24  1  0  0  0  0
 23 25  1  0  0  0  0
 22 23  1  0  0  0  0
 22 26  1  0  0  0  0
 20 21  1  0  0  0  0
 20 22  2  0  0  0  0
 17 18  1  0  0  0  0
 17 19  1  0  0  0  0
 17 20  1  0  0  0  0
 14 15  1  0  0  0  0
 14 16  1  0  0  0  0
 14 17  1  0  0  0  0
 11 12  1  0  0  0  0
 11 13  1  0  0  0  0
 11 14  1  0  0  0  0
  9 10  1  0  0  0  0
  9 11  1  0  0  0  0
  9 29  1  0  0  0  0
  7  8  1  0  0  0  0
  7  9  1  0  0  0  0
 33 34  1  0  0  0  0
 33 35  1  0  0  0  0
 33 36  1  0  0  0  0
 31 32  1  0  0  0  0
 31 33  1  0  0  0  0
M  CHG  1  20   1
M  END
$$$$
default_name
  -OEChem-02102213163D

 36 35  0     1  0  0  0  0  0999 V2000
   -4.2256   -3.6731    1.8584 H   0  0  0  0  0  0  0  0  0  0  0  0
   -4.2396   -2.6781    1.4144 C   0  0  0  0  0  0  0  0  0  0  0  0
   -4.9506   -2.0521    1.9514 H   0  0  0  0  0  0  0  0  0  0  0  0
   -4.5266   -2.7521    0.3674 H   0  0  0  0  0  0  0  0  0  0  0  0
   -2.8576   -2.0761    1.5184 C   0  0  0  0  0  0  0  0  0  0  0  0
   -1.9456   -2.7051    2.0404 O   0  0  0  0  0  0  0  0  0  0  0  0
   -2.6926   -0.8481    1.0174 N   0  0  0  0  0  0  0  0  0  0  0  0
   -3.4926   -0.3971    0.5954 H   0  0  0  0  0  0  0  0  0  0  0  0
   -1.4216   -0.1071    1.0434 C   0  0  1  0  0  0  0  0  0  0  0  0
   -0.6709   -0.6930    0.5106 H   0  0  0  0  0  0  0  0  0  0  0  0
   -1.6221    1.2315    0.3051 C   0  0  0  0  0  0  0  0  0  0  0  0
   -0.6414    1.6547    0.0785 H   0  0  0  0  0  0  0  0  0  0  0  0
   -2.1372    1.0444   -0.6396 H   0  0  0  0  0  0  0  0  0  0  0  0
   -2.4173    2.2643    1.1170 C   0  0  0  0  0  0  0  0  0  0  0  0
   -1.9302    3.2383    1.0529 H   0  0  0  0  0  0  0  0  0  0  0  0
   -3.4277    2.3396    0.7140 H   0  0  0  0  0  0  0  0  0  0  0  0
   -2.4855    1.8323    2.5881 C   0  0  0  0  0  0  0  0  0  0  0  0
   -2.9501    0.8450    2.6404 H   0  0  0  0  0  0  0  0  0  0  0  0
   -1.4671    1.7637    2.9779 H   0  0  0  0  0  0  0  0  0  0  0  0
   -3.2634    2.7869    3.4045 N   0  3  0  0  0  0  0  0  0  0  0  0
   -3.6081    3.6066    2.9349 H   0  0  0  0  0  0  0  0  0  0  0  0
   -3.5483    2.6649    4.6901 C   0  0  0  0  0  0  0  0  0  0  0  0
   -3.1508    1.6423    5.3942 N   0  0  0  0  0  0  0  0  0  0  0  0
   -2.6120    0.9244    4.9430 H   0  0  0  0  0  0  0  0  0  0  0  0
   -3.3753    1.5653    6.3692 H   0  0  0  0  0  0  0  0  0  0  0  0
   -4.2459    3.5799    5.3011 N   0  0  0  0  0  0  0  0  0  0  0  0
   -4.5750    4.3871    4.7999 H   0  0  0  0  0  0  0  0  0  0  0  0
   -4.4598    3.4834    6.2766 H   0  0  0  0  0  0  0  0  0  0  0  0
   -0.9523    0.1012    2.4848 C   0  0  0  0  0  0  0  0  0  0  0  0
    0.2133   -0.1319    2.7814 O   0  0  0  0  0  0  0  0  0  0  0  0
   -1.8684    0.5006    3.3725 N   0  0  0  0  0  0  0  0  0  0  0  0
   -2.7946    0.7048    3.0343 H   0  0  0  0  0  0  0  0  0  0  0  0
   -1.5848    0.7472    4.7873 C   0  0  0  0  0  0  0  0  0  0  0  0
   -0.8819    1.5774    4.8838 H   0  0  0  0  0  0  0  0  0  0  0  0
   -2.5030    0.9948    5.3214 H   0  0  0  0  0  0  0  0  0  0  0  0
   -1.1344   -0.1399    5.2381 H   0  0  0  0  0  0  0  0  0  0  0  0
  5  6  2  0  0  0  0
  5  7  1  0  0  0  0
  2  3  1  0  0  0  0
  2  4  1  0  0  0  0
  2  5  1  0  0  0  0
  1  2  1  0  0  0  0
 29 30  2  0  0  0  0
 29 31  1  0  0  0  0
 26 27  1  0  0  0  0
 26 28  1  0  0  0  0
 23 24  1  0  0  0  0
 23 25  1  0  0  0  0
 22 23  1  0  0  0  0
 22 26  1  0  0  0  0
 20 21  1  0  0  0  0
 20 22  2  0  0  0  0
 17 18  1  0  0  0  0
 17 19  1  0  0  0  0
 17 20  1  0  0  0  0
 14 15  1  0  0  0  0
 14 16  1  0  0  0  0
 14 17  1  0  0  0  0
 11 12  1  0  0  0  0
 11 13  1  0  0  0  0
 11 14  1  0  0  0  0
  9 10  1  0  0  0  0
  9 11  1  0  0  0  0
  9 29  1  0  0  0  0
  7  8  1  0  0  0  0
  7  9  1  0  0  0  0
 33 34  1  0  0  0  0
 33 35  1  0  0  0  0
 33 36  1  0  0  0  0
 31 32  1  0  0  0  0
 31 33  1  0  0  0  0
M  CHG  1  20   1
M  END
$$$$
default_name
  -OEChem-02102213163D

 36 35  0     1  0  0  0  0  0999 V2000
   -4.2256   -3.6731    1.8584 H   0  0  0  0  0  0  0  0  0  0  0  0
   -4.2396   -2.6781    1.4144 C   0  0  0  0  0  0  0  0  0  0  0  0
   -4.9506   -2.0521    1.9514 H   0  0  0  0  0  0  0  0  0  0  0  0
   -4.5266   -2.7521    0.3674 H   0  0  0  0  0  0  0  0  0  0  0  0
   -2.8576   -2.0761    1.5184 C   0  0  0  0  0  0  0  0  0  0  0  0
   -1.9456   -2.7051    2.0404 O   0  0  0  0  0  0  0  0  0  0  0  0
   -2.6926   -0.8481    1.0174 N   0  0  0  0  0  0  0  0  0  0  0  0
   -3.4926   -0.3971    0.5954 H   0  0  0  0  0  0  0  0  0  0  0  0
   -1.4216   -0.1071    1.0434 C   0  0  1  0  0  0  0  0  0  0  0  0
   -0.6709   -0.6930    0.5106 H   0  0  0  0  0  0  0  0  0  0  0  0
   -1.6221    1.2315    0.3051 C   0  0  0  0  0  0  0  0  0  0  0  0
   -0.6414    1.6547    0.0785 H   0  0  0  0  0  0  0  0  0  0  0  0
   -2.1372    1.0444   -0.6396 H   0  0  0  0  0  0  0  0  0  0  0  0
   -2.4173    2.2643    1.1170 C   0  0  0  0  0  0  0  0  0  0  0  0
   -2.0977    3.2716    0.8464 H   0  0  0  0  0  0  0  0  0  0  0  0
   -3.4801    2.1530    0.9000 H   0  0  0  0  0  0  0  0  0  0  0  0
   -2.1772    2.0468    2.6172 C   0  0  0  0  0  0  0  0  0  0  0  0
   -2.4748    1.0275    2.8738 H   0  0  0  0  0  0  0  0  0  0  0  0
   -1.1098    2.1638    2.8190 H   0  0  0  0  0  0  0  0  0  0  0  0
   -2.9432    3.0057    3.4398 N   0  3  0  0  0  0  0  0  0  0  0  0
   -3.4786    3.6984    2.9450 H   0  0  0  0  0  0  0  0  0  0  0  0
   -2.9910    3.0382    4.7610 C   0  0  0  0  0  0  0  0  0  0  0  0
   -2.3354    2.1873    5.4996 N   0  0  0  0  0  0  0  0  0  0  0  0
   -1.7776    1.4841    5.0481 H   0  0  0  0  0  0  0  0  0  0  0  0
   -2.3823    2.2262    6.5011 H   0  0  0  0  0  0  0  0  0  0  0  0
   -3.7066    3.9384    5.3734 N   0  0  0  0  0  0  0  0  0  0  0  0
   -4.2301    4.6160    4.8464 H   0  0  0  0  0  0  0  0  0  0  0  0
   -3.7402    3.9595    6.3759 H   0  0  0  0  0  0  0  0  0  0  0  0
   -0.9523    0.1012    2.4848 C   0  0  0  0  0  0  0  0  0  0  0  0
    0.2133   -0.1319    2.7814 O   0  0  0  0  0  0  0  0  0  0  0  0
   -1.8684    0.5006    3.3725 N   0  0  0  0  0  0  0  0  0  0  0  0
   -2.7946    0.7048    3.0343 H   0  0  0  0  0  0  0  0  0  0  0  0
   -1.5848    0.7472    4.7873 C   0  0  0  0  0  0  0  0  0  0  0  0
   -0.8819    1.5774    4.8838 H   0  0  0  0  0  0  0  0  0  0  0  0
   -2.5030    0.9948    5.3214 H   0  0  0  0  0  0  0  0  0  0  0  0
   -1.1344   -0.1399    5.2381 H   0  0  0  0  0  0  0  0  0  0  0  0
  5  6  2  0  0  0  0
  5  7  1  0  0  0  0
  2  3  1  0  0  0  0
  2  4  1  0  0  0  0
  2  5  1  0  0  0  0
  1  2  1  0  0  0  0
 29 30  2  0  0  0  0
 29 31  1  0  0  0  0
 26 27  1  0  0  0  0
 26 28  1  0  0  0  0
 23 24  1  0  0  0  0
 23 25  1  0  0  0  0
 22 23  1  0  0  0  0
 22 26  1  0  0  0  0
 20 21  1  0  0  0  0
 20 22  2  0  0  0  0
 17 18  1  0  0  0  0
 17 19  1  0  0  0  0
 17 20  1  0  0  0  0
 14 15  1  0  0  0  0
 14 16  1  0  0  0  0
 14 17  1  0  0  0  0
 11 12  1  0  0  0  0
 11 13  1  0  0  0  0
 11 14  1  0  0  0  0
  9 10  1  0  0  0  0
  9 11  1  0  0  0  0
  9 29  1  0  0  0  0
  7  8  1  0  0  0  0
  7  9  1  0  0  0  0
 33 34  1  0  0  0  0
 33 35  1  0  0  0  0
 33 36  1  0  0  0  0
 31 32  1  0  0  0  0
 31 33  1  0  0  0  0
M  CHG  1  20   1
M  END
$$$$
default_name
  -OEChem-02102213163D

 36 35  0     1  0  0  0  0  0999 V2000
   -4.2256   -3.6731    1.8584 H   0  0  0  0  0  0  0  0  0  0  0  0
   -4.2396   -2.6781    1.4144 C   0  0  0  0  0  0  0  0  0  0  0  0
   -4.9506   -2.0521    1.9514 H   0  0  0  0  0  0  0  0  0  0  0  0
   -4.5266   -2.7521    0.3674 H   0  0  0  0  0  0  0  0  0  0  0  0
   -2.8576   -2.0761    1.5184 C   0  0  0  0  0  0  0  0  0  0  0  0
   -1.9456   -2.7051    2.0404 O   0  0  0  0  0  0  0  0  0  0  0  0
   -2.6926   -0.8481    1.0174 N   0  0  0  0  0  0  0  0  0  0  0  0
   -3.4926   -0.3971    0.5954 H   0  0  0  0  0  0  0  0  0  0  0  0
   -1.4216   -0.1071    1.0434 C   0  0  1  0  0  0  0  0  0  0  0  0
   -0.6709   -0.6930    0.5106 H   0  0  0  0  0  0  0  0  0  0  0  0
   -1.6221    1.2315    0.3051 C   0  0  0  0  0  0  0  0  0  0  0  0
   -0.6414    1.6547    0.0785 H   0  0  0  0  0  0  0  0  0  0  0  0
   -2.1372    1.0444   -0.6396 H   0  0  0  0  0  0  0  0  0  0  0  0
   -2.4173    2.2643    1.1170 C   0  0  0  0  0  0  0  0  0  0  0  0
   -2.3000    3.2532    0.6716 H   0  0  0  0  0  0  0  0  0  0  0  0
   -3.4728    1.9905    1.1138 H   0  0  0  0  0  0  0  0  0  0  0  0
   -1.9037    2.3001    2.5628 C   0  0  0  0  0  0  0  0  0  0  0  0
   -2.0001    1.3001    2.9920 H   0  0  0  0  0  0  0  0  0  0  0  0
   -0.8471    2.5778    2.5497 H   0  0  0  0  0  0  0  0  0  0  0  0
   -2.6576    3.2656    3.3888 N   0  3  0  0  0  0  0  0  0  0  0  0
   -3.3642    3.8062    2.9199 H   0  0  0  0  0  0  0  0  0  0  0  0
   -2.4915    3.4846    4.6824 C   0  0  0  0  0  0  0  0  0  0  0  0
   -1.6040    2.8395    5.3863 N   0  0  0  0  0  0  0  0  0  0  0  0
   -1.0299    2.1531    4.9294 H   0  0  0  0  0  0  0  0  0  0  0  0
   -1.4905    3.0181    6.3672 H   0  0  0  0  0  0  0  0  0  0  0  0
   -3.2222    4.3680    5.3013 N   0  0  0  0  0  0  0  0  0  0  0  0
   -3.9202    4.8906    4.8007 H   0  0  0  0  0  0  0  0  0  0  0  0
   -3.0929    4.5310    6.2827 H   0  0  0  0  0  0  0  0  0  0  0  0
   -0.9523    0.1012    2.4848 C   0  0  0  0  0  0  0  0  0  0  0  0
    0.2133   -0.1319    2.7814 O   0  0  0  0  0  0  0  0  0  0  0  0
   -1.8684    0.5006    3.3725 N   0  0  0  0  0  0  0  0  0  0  0  0
   -2.7946    0.7048    3.0343 H   0  0  0  0  0  0  0  0  0  0  0  0
   -1.5848    0.7472    4.7873 C   0  0  0  0  0  0  0  0  0  0  0  0
   -0.8819    1.5774    4.8838 H   0  0  0  0  0  0  0  0  0  0  0  0
   -2.5030    0.9948    5.3214 H   0  0  0  0  0  0  0  0  0  0  0  0
   -1.1344   -0.1399    5.2381 H   0  0  0  0  0  0  0  0  0  0  0  0
  5  6  2  0  0  0  0
  5  7  1  0  0  0  0
  2  3  1  0  0  0  0
  2  4  1  0  0  0  0
  2  5  1  0  0  0  0
  1  2  1  0  0  0  0
 29 30  2  0  0  0  0
 29 31  1  0  0  0  0
 26 27  1  0  0  0  0
 26 28  1  0  0  0  0
 23 24  1  0  0  0  0
 23 25  1  0  0  0  0
 22 23  1  0  0  0  0
 22 26  1  0  0  0  0
 20 21  1  0  0  0  0
 20 22  2  0  0  0  0
 17 18  1  0  0  0  0
 17 19  1  0  0  0  0
 17 20  1  0  0  0  0
 14 15  1  0  0  0  0
 14 16  1  0  0  0  0
 14 17  1  0  0  0  0
 11 12  1  0  0  0  0
 11 13  1  0  0  0  0
 11 14  1  0  0  0  0
  9 10  1  0  0  0  0
  9 11  1  0  0  0  0
  9 29  1  0  0  0  0
  7  8  1  0  0  0  0
  7  9  1  0  0  0  0
 33 34  1  0  0  0  0
 33 35  1  0  0  0  0
 33 36  1  0  0  0  0
 31 32  1  0  0  0  0
 31 33  1  0  0  0  0
M  CHG  1  20   1
M  END
$$$$
default_name
  -OEChem-02102213163D

 36 35  0     1  0  0  0  0  0999 V2000
   -4.2256   -3.6731    1.8584 H   0  0  0  0  0  0  0  0  0  0  0  0
   -4.2396   -2.6781    1.4144 C   0  0  0  0  0  0  0  0  0  0  0  0
   -4.9506   -2.0521    1.9514 H   0  0  0  0  0  0  0  0  0  0  0  0
   -4.5266   -2.7521    0.3674 H   0  0  0  0  0  0  0  0  0  0  0  0
   -2.8576   -2.0761    1.5184 C   0  0  0  0  0  0  0  0  0  0  0  0
   -1.9456   -2.7051    2.0404 O   0  0  0  0  0  0  0  0  0  0  0  0
   -2.6926   -0.8481    1.0174 N   0  0  0  0  0  0  0  0  0  0  0  0
   -3.4926   -0.3971    0.5954 H   0  0  0  0  0  0  0  0  0  0  0  0
   -1.4216   -0.1071    1.0434 C   0  0  1  0  0  0  0  0  0  0  0  0
   -0.6709   -0.6930    0.5106 H   0  0  0  0  0  0  0  0  0  0  0  0
   -1.6221    1.2315    0.3051 C   0  0  0  0  0  0  0  0  0  0  0  0
   -0.6414    1.6547    0.0785 H   0  0  0  0  0  0  0  0  0  0  0  0
   -2.1372    1.0444   -0.6396 H   0  0  0  0  0  0  0  0  0  0  0  0
   -2.4173    2.2643    1.1170 C   0  0  0  0  0  0  0  0  0  0  0  0
   -2.5234    3.1843    0.5405 H   0  0  0  0  0  0  0  0  0  0  0  0
   -3.4063    1.8633    1.3409 H   0  0  0  0  0  0  0  0  0  0  0  0
   -1.6836    2.5749    2.4288 C   0  0  0  0  0  0  0  0  0  0  0  0
   -1.5582    1.6443    2.9870 H   0  0  0  0  0  0  0  0  0  0  0  0
   -0.6968    2.9775    2.1883 H   0  0  0  0  0  0  0  0  0  0  0  0
   -2.4263    3.5488    3.2551 N   0  3  0  0  0  0  0  0  0  0  0  0
   -3.2728    3.9225    2.8614 H   0  0  0  0  0  0  0  0  0  0  0  0
   -2.0837    3.9736    4.4597 C   0  0  0  0  0  0  0  0  0  0  0  0
   -1.0065    3.5543    5.0622 N   0  0  0  0  0  0  0  0  0  0  0  0
   -0.4199    2.8857    4.5949 H   0  0  0  0  0  0  0  0  0  0  0  0
   -0.7607    3.8871    5.9764 H   0  0  0  0  0  0  0  0  0  0  0  0
   -2.8256    4.8397    5.0897 N   0  0  0  0  0  0  0  0  0  0  0  0
   -3.6664    5.1921    4.6657 H   0  0  0  0  0  0  0  0  0  0  0  0
   -2.5621    5.1592    6.0035 H   0  0  0  0  0  0  0  0  0  0  0  0
   -0.9523    0.1012    2.4848 C   0  0  0  0  0  0  0  0  0  0  0  0
    0.2133   -0.1319    2.7814 O   0  0  0  0  0  0  0  0  0  0  0  0
   -1.8684    0.5006    3.3725 N   0  0  0  0  0  0  0  0  0  0  0  0
   -2.7946    0.7048    3.0343 H   0  0  0  0  0  0  0  0  0  0  0  0
   -1.5848    0.7472    4.7873 C   0  0  0  0  0  0  0  0  0  0  0  0
   -0.8819    1.5774    4.8838 H   0  0  0  0  0  0  0  0  0  0  0  0
   -2.5030    0.9948    5.3214 H   0  0  0  0  0  0  0  0  0  0  0  0
   -1.1344   -0.1399    5.2381 H   0  0  0  0  0  0  0  0  0  0  0  0
  5  6  2  0  0  0  0
  5  7  1  0  0  0  0
  2  3  1  0  0  0  0
  2  4  1  0  0  0  0
  2  5  1  0  0  0  0
  1  2  1  0  0  0  0
 29 30  2  0  0  0  0
 29 31  1  0  0  0  0
 26 27  1  0  0  0  0
 26 28  1  0  0  0  0
 23 24  1  0  0  0  0
 23 25  1  0  0  0  0
 22 23  1  0  0  0  0
 22 26  1  0  0  0  0
 20 21  1  0  0  0  0
 20 22  2  0  0  0  0
 17 18  1  0  0  0  0
 17 19  1  0  0  0  0
 17 20  1  0  0  0  0
 14 15  1  0  0  0  0
 14 16  1  0  0  0  0
 14 17  1  0  0  0  0
 11 12  1  0  0  0  0
 11 13  1  0  0  0  0
 11 14  1  0  0  0  0
  9 10  1  0  0  0  0
  9 11  1  0  0  0  0
  9 29  1  0  0  0  0
  7  8  1  0  0  0  0
  7  9  1  0  0  0  0
 33 34  1  0  0  0  0
 33 35  1  0  0  0  0
 33 36  1  0  0  0  0
 31 32  1  0  0  0  0
 31 33  1  0  0  0  0
M  CHG  1  20   1
M  END
$$$$
default_name
  -OEChem-02102213163D

 36 35  0     1  0  0  0  0  0999 V2000
   -4.2256   -3.6731    1.8584 H   0  0  0  0  0  0  0  0  0  0  0  0
   -4.2396   -2.6781    1.4144 C   0  0  0  0  0  0  0  0  0  0  0  0
   -4.9506   -2.0521    1.9514 H   0  0  0  0  0  0  0  0  0  0  0  0
   -4.5266   -2.7521    0.3674 H   0  0  0  0  0  0  0  0  0  0  0  0
   -2.8576   -2.0761    1.5184 C   0  0  0  0  0  0  0  0  0  0  0  0
   -1.9456   -2.7051    2.0404 O   0  0  0  0  0  0  0  0  0  0  0  0
   -2.6926   -0.8481    1.0174 N   0  0  0  0  0  0  0  0  0  0  0  0
   -3.4926   -0.3971    0.5954 H   0  0  0  0  0  0  0  0  0  0  0  0
   -1.4216   -0.1071    1.0434 C   0  0  1  0  0  0  0  0  0  0  0  0
   -0.6709   -0.6930    0.5106 H   0  0  0  0  0  0  0  0  0  0  0  0
   -1.6221    1.2315    0.3051 C   0  0  0  0  0  0  0  0  0  0  0  0
   -0.6414    1.6547    0.0785 H   0  0  0  0  0  0  0  0  0  0  0  0
   -2.1372    1.0444   -0.6396 H   0  0  0  0  0  0  0  0  0  0  0  0
   -2.4173    2.2643    1.1170 C   0  0  0  0  0  0  0  0  0  0  0  0
   -2.7525    3.0697    0.4620 H   0  0  0  0  0  0  0  0  0  0  0  0
   -3.2851    1.7799    1.5656 H   0  0  0  0  0  0  0  0  0  0  0  0
   -1.5320    2.8525    2.2242 C   0  0  0  0  0  0  0  0  0  0  0  0
   -1.1794    2.0365    2.8591 H   0  0  0  0  0  0  0  0  0  0  0  0
   -0.6693    3.3358    1.7595 H   0  0  0  0  0  0  0  0  0  0  0  0
   -2.2648    3.8362    3.0476 N   0  3  0  0  0  0  0  0  0  0  0  0
   -3.2107    4.0396    2.7733 H   0  0  0  0  0  0  0  0  0  0  0  0
   -1.7955    4.4719    4.1081 C   0  0  0  0  0  0  0  0  0  0  0  0
   -0.5835    4.2831    4.5494 N   0  0  0  0  0  0  0  0  0  0  0  0
    0.0108    3.6320    4.0675 H   0  0  0  0  0  0  0  0  0  0  0  0
   -0.2428    4.7740    5.3555 H   0  0  0  0  0  0  0  0  0  0  0  0
   -2.5439    5.3212    4.7531 N   0  0  0  0  0  0  0  0  0  0  0  0
   -3.4860    5.5000    4.4507 H   0  0  0  0  0  0  0  0  0  0  0  0
   -2.1839    5.8012    5.5572 H   0  0  0  0  0  0  0  0  0  0  0  0
   -0.9523    0.1012    2.4848 C   0  0  0  0  0  0  0  0  0  0  0  0
    0.2133   -0.1319    2.7814 O   0  0  0  0  0  0  0  0  0  0  0  0
   -1.8684    0.5006    3.3725 N   0  0  0  0  0  0  0  0  0  0  0  0
   -2.7946    0.7048    3.0343 H   0  0  0  0  0  0  0  0  0  0  0  0
   -1.5848    0.7472    4.7873 C   0  0  0  0  0  0  0  0  0  0  0  0
   -0.8819    1.5774    4.8838 H   0  0  0  0  0  0  0  0  0  0  0  0
   -2.5030    0.9948    5.3214 H   0  0  0  0  0  0  0  0  0  0  0  0
   -1.1344   -0.1399    5.2381 H   0  0  0  0  0  0  0  0  0  0  0  0
  5  6  2  0  0  0  0
  5  7  1  0  0  0  0
  2  3  1  0  0  0  0
  2  4  1  0  0  0  0
  2  5  1  0  0  0  0
  1  2  1  0  0  0  0
 29 30  2  0  0  0  0
 29 31  1  0  0  0  0
 26 27  1  0  0  0  0
 26 28  1  0  0  0  0
 23 24  1  0  0  0  0
 23 25  1  0  0  0  0
 22 23  1  0  0  0  0
 22 26  1  0  0  0  0
 20 21  1  0  0  0  0
 20 22  2  0  0  0  0
 17 18  1  0  0  0  0
 17 19  1  0  0  0  0
 17 20  1  0  0  0  0
 14 15  1  0  0  0  0
 14 16  1  0  0  0  0
 14 17  1  0  0  0  0
 11 12  1  0  0  0  0
 11 13  1  0  0  0  0
 11 14  1  0  0  0  0
  9 10  1  0  0  0  0
  9 11  1  0  0  0  0
  9 29  1  0  0  0  0
  7  8  1  0  0  0  0
  7  9  1  0  0  0  0
 33 34  1  0  0  0  0
 33 35  1  0  0  0  0
 33 36  1  0  0  0  0
 31 32  1  0  0  0  0
 31 33  1  0  0  0  0
M  CHG  1  20   1
M  END
$$$$
default_name
  -OEChem-02102213163D

 36 35  0     1  0  0  0  0  0999 V2000
   -4.2256   -3.6731    1.8584 H   0  0  0  0  0  0  0  0  0  0  0  0
   -4.2396   -2.6781    1.4144 C   0  0  0  0  0  0  0  0  0  0  0  0
   -4.9506   -2.0521    1.9514 H   0  0  0  0  0  0  0  0  0  0  0  0
   -4.5266   -2.7521    0.3674 H   0  0  0  0  0  0  0  0  0  0  0  0
   -2.8576   -2.0761    1.5184 C   0  0  0  0  0  0  0  0  0  0  0  0
   -1.9456   -2.7051    2.0404 O   0  0  0  0  0  0  0  0  0  0  0  0
   -2.6926   -0.8481    1.0174 N   0  0  0  0  0  0  0  0  0  0  0  0
   -3.4926   -0.3971    0.5954 H   0  0  0  0  0  0  0  0  0  0  0  0
   -1.4216   -0.1071    1.0434 C   0  0  1  0  0  0  0  0  0  0  0  0
   -0.6709   -0.6930    0.5106 H   0  0  0  0  0  0  0  0  0  0  0  0
   -1.6221    1.2315    0.3051 C   0  0  0  0  0  0  0  0  0  0  0  0
   -0.6414    1.6547    0.0785 H   0  0  0  0  0  0  0  0  0  0  0  0
   -2.1372    1.0444   -0.6396 H   0  0  0  0  0  0  0  0  0  0  0  0
   -2.4173    2.2643    1.1170 C   0  0  0  0  0  0  0  0  0  0  0  0
   -2.9718    2.9170    0.4414 H   0  0  0  0  0  0  0  0  0  0  0  0
   -3.1175    1.7460    1.7728 H   0  0  0  0  0  0  0  0  0  0  0  0
   -1.4591    3.1140    1.9629 C   0  0  0  0  0  0  0  0  0  0  0  0
   -0.8894    2.4500    2.6171 H   0  0  0  0  0  0  0  0  0  0  0  0
   -0.7663    3.6281    1.2926 H   0  0  0  0  0  0  0  0  0  0  0  0
   -2.1843    4.1081    2.7807 N   0  3  0  0  0  0  0  0  0  0  0  0
   -3.1820    4.1494    2.6618 H   0  0  0  0  0  0  0  0  0  0  0  0
   -1.6465    4.9455    3.6515 C   0  0  0  0  0  0  0  0  0  0  0  0
   -0.3640    4.9762    3.8827 N   0  0  0  0  0  0  0  0  0  0  0  0
    0.2330    4.3411    3.3830 H   0  0  0  0  0  0  0  0  0  0  0  0
    0.0280    5.6183    4.5467 H   0  0  0  0  0  0  0  0  0  0  0  0
   -2.3963    5.7797    4.3144 N   0  0  0  0  0  0  0  0  0  0  0  0
   -3.3913    5.7932    4.1704 H   0  0  0  0  0  0  0  0  0  0  0  0
   -1.9842    6.4133    4.9742 H   0  0  0  0  0  0  0  0  0  0  0  0
   -0.9523    0.1012    2.4848 C   0  0  0  0  0  0  0  0  0  0  0  0
    0.2133   -0.1319    2.7814 O   0  0  0  0  0  0  0  0  0  0  0  0
   -1.8684    0.5006    3.3725 N   0  0  0  0  0  0  0  0  0  0  0  0
   -2.7946    0.7048    3.0343 H   0  0  0  0  0  0  0  0  0  0  0  0
   -1.5848    0.7472    4.7873 C   0  0  0  0  0  0  0  0  0  0  0  0
   -0.8819    1.5774    4.8838 H   0  0  0  0  0  0  0  0  0  0  0  0
   -2.5030    0.9948    5.3214 H   0  0  0  0  0  0  0  0  0  0  0  0
   -1.1344   -0.1399    5.2381 H   0  0  0  0  0  0  0  0  0  0  0  0
  5  6  2  0  0  0  0
  5  7  1  0  0  0  0
  2  3  1  0  0  0  0
  2  4  1  0  0  0  0
  2  5  1  0  0  0  0
  1  2  1  0  0  0  0
 29 30  2  0  0  0  0
 29 31  1  0  0  0  0
 26 27  1  0  0  0  0
 26 28  1  0  0  0  0
 23 24  1  0  0  0  0
 23 25  1  0  0  0  0
 22 23  1  0  0  0  0
 22 26  1  0  0  0  0
 20 21  1  0  0  0  0
 20 22  2  0  0  0  0
 17 18  1  0  0  0  0
 17 19  1  0  0  0  0
 17 20  1  0  0  0  0
 14 15  1  0  0  0  0
 14 16  1  0  0  0  0
 14 17  1  0  0  0  0
 11 12  1  0  0  0  0
 11 13  1  0  0  0  0
 11 14  1  0  0  0  0
  9 10  1  0  0  0  0
  9 11  1  0  0  0  0
  9 29  1  0  0  0  0
  7  8  1  0  0  0  0
  7  9  1  0  0  0  0
 33 34  1  0  0  0  0
 33 35  1  0  0  0  0
 33 36  1  0  0  0  0
 31 32  1  0  0  0  0
 31 33  1  0  0  0  0
M  CHG  1  20   1
M  END
$$$$
default_name
  -OEChem-02102213163D

 36 35  0     1  0  0  0  0  0999 V2000
   -4.2256   -3.6731    1.8584 H   0  0  0  0  0  0  0  0  0  0  0  0
   -4.2396   -2.6781    1.4144 C   0  0  0  0  0  0  0  0  0  0  0  0
   -4.9506   -2.0521    1.9514 H   0  0  0  0  0  0  0  0  0  0  0  0
   -4.5266   -2.7521    0.3674 H   0  0  0  0  0  0  0  0  0  0  0  0
   -2.8576   -2.0761    1.5184 C   0  0  0  0  0  0  0  0  0  0  0  0
   -1.9456   -2.7051    2.0404 O   0  0  0  0  0  0  0  0  0  0  0  0
   -2.6926   -0.8481    1.0174 N   0  0  0  0  0  0  0  0  0  0  0  0
   -3.4926   -0.3971    0.5954 H   0  0  0  0  0  0  0  0  0  0  0  0
   -1.4216   -0.1071    1.0434 C   0  0  1  0  0  0  0  0  0  0  0  0
   -0.6709   -0.6930    0.5106 H   0  0  0  0  0  0  0  0  0  0  0  0
   -1.6221    1.2315    0.3051 C   0  0  0  0  0  0  0  0  0  0  0  0
   -0.6414    1.6547    0.0785 H   0  0  0  0  0  0  0  0  0  0  0  0
   -2.1372    1.0444   -0.6396 H   0  0  0  0  0  0  0  0  0  0  0  0
   -2.4173    2.2643    1.1170 C   0  0  0  0  0  0  0  0  0  0  0  0
   -3.1664    2.7368    0.4801 H   0  0  0  0  0  0  0  0  0  0  0  0
   -2.9149    1.7640    1.9484 H   0  0  0  0  0  0  0  0  0  0  0  0
   -1.4700    3.3415    1.6629 C   0  0  0  0  0  0  0  0  0  0  0  0
   -0.7080    2.8567    2.2774 H   0  0  0  0  0  0  0  0  0  0  0  0
   -0.9814    3.8346    0.8192 H   0  0  0  0  0  0  0  0  0  0  0  0
   -2.1902    4.3459    2.4723 N   0  3  0  0  0  0  0  0  0  0  0  0
   -3.1888    4.2444    2.5343 H   0  0  0  0  0  0  0  0  0  0  0  0
   -1.6469    5.3622    3.1211 C   0  0  0  0  0  0  0  0  0  0  0  0
   -0.3628    5.5864    3.1076 N   0  0  0  0  0  0  0  0  0  0  0  0
    0.2314    4.9647    2.5881 H   0  0  0  0  0  0  0  0  0  0  0  0
    0.0333    6.3625    3.6051 H   0  0  0  0  0  0  0  0  0  0  0  0
   -2.3928    6.1840    3.8035 N   0  0  0  0  0  0  0  0  0  0  0  0
   -3.3887    6.0519    3.8439 H   0  0  0  0  0  0  0  0  0  0  0  0
   -1.9765    6.9537    4.2943 H   0  0  0  0  0  0  0  0  0  0  0  0
   -0.9523    0.1012    2.4848 C   0  0  0  0  0  0  0  0  0  0  0  0
    0.2133   -0.1319    2.7814 O   0  0  0  0  0  0  0  0  0  0  0  0
   -1.8684    0.5006    3.3725 N   0  0  0  0  0  0  0  0  0  0  0  0
   -2.7946    0.7048    3.0343 H   0  0  0  0  0  0  0  0  0  0  0  0
   -1.5848    0.7472    4.7873 C   0  0  0  0  0  0  0  0  0  0  0  0
   -0.8819    1.5774    4.8838 H   0  0  0  0  0  0  0  0  0  0  0  0
   -2.5030    0.9948    5.3214 H   0  0  0  0  0  0  0  0  0  0  0  0
   -1.1344   -0.1399    5.2381 H   0  0  0  0  0  0  0  0  0  0  0  0
  5  6  2  0  0  0  0
  5  7  1  0  0  0  0
  2  3  1  0  0  0  0
  2  4  1  0  0  0  0
  2  5  1  0  0  0  0
  1  2  1  0  0  0  0
 29 30  2  0  0  0  0
 29 31  1  0  0  0  0
 26 27  1  0  0  0  0
 26 28  1  0  0  0  0
 23 24  1  0  0  0  0
 23 25  1  0  0  0  0
 22 23  1  0  0  0  0
 22 26  1  0  0  0  0
 20 21  1  0  0  0  0
 20 22  2  0  0  0  0
 17 18  1  0  0  0  0
 17 19  1  0  0  0  0
 17 20  1  0  0  0  0
 14 15  1  0  0  0  0
 14 16  1  0  0  0  0
 14 17  1  0  0  0  0
 11 12  1  0  0  0  0
 11 13  1  0  0  0  0
 11 14  1  0  0  0  0
  9 10  1  0  0  0  0
  9 11  1  0  0  0  0
  9 29  1  0  0  0  0
  7  8  1  0  0  0  0
  7  9  1  0  0  0  0
 33 34  1  0  0  0  0
 33 35  1  0  0  0  0
 33 36  1  0  0  0  0
 31 32  1  0  0  0  0
 31 33  1  0  0  0  0
M  CHG  1  20   1
M  END
$$$$
default_name
  -OEChem-02102213163D

 36 35  0     1  0  0  0  0  0999 V2000
   -4.2256   -3.6731    1.8584 H   0  0  0  0  0  0  0  0  0  0  0  0
   -4.2396   -2.6781    1.4144 C   0  0  0  0  0  0  0  0  0  0  0  0
   -4.9506   -2.0521    1.9514 H   0  0  0  0  0  0  0  0  0  0  0  0
   -4.5266   -2.7521    0.3674 H   0  0  0  0  0  0  0  0  0  0  0  0
   -2.8576   -2.0761    1.5184 C   0  0  0  0  0  0  0  0  0  0  0  0
   -1.9456   -2.7051    2.0404 O   0  0  0  0  0  0  0  0  0  0  0  0
   -2.6926   -0.8481    1.0174 N   0  0  0  0  0  0  0  0  0  0  0  0
   -3.4926   -0.3971    0.5954 H   0  0  0  0  0  0  0  0  0  0  0  0
   -1.4216   -0.1071    1.0434 C   0  0  1  0  0  0  0  0  0  0  0  0
   -0.6709   -0.6930    0.5106 H   0  0  0  0  0  0  0  0  0  0  0  0
   -1.6221    1.2315    0.3051 C   0  0  0  0  0  0  0  0  0  0  0  0
   -0.6414    1.6547    0.0785 H   0  0  0  0  0  0  0  0  0  0  0  0
   -2.1372    1.0444   -0.6396 H   0  0  0  0  0  0  0  0  0  0  0  0
   -2.4173    2.2643    1.1170 C   0  0  0  0  0  0  0  0  0  0  0  0
   -3.3229    2.5413    0.5755 H   0  0  0  0  0  0  0  0  0  0  0  0
   -2.6912    1.8327    2.0802 H   0  0  0  0  0  0  0  0  0  0  0  0
   -1.5639    3.5195    1.3444 C   0  0  0  0  0  0  0  0  0  0  0  0
   -0.6475    3.2288    1.8632 H   0  0  0  0  0  0  0  0  0  0  0  0
   -1.2998    3.9412    0.3718 H   0  0  0  0  0  0  0  0  0  0  0  0
   -2.2821    4.5335    2.1436 N   0  3  0  0  0  0  0  0  0  0  0  0
   -3.2305    4.3181    2.3996 H   0  0  0  0  0  0  0  0  0  0  0  0
   -1.7966    5.6936    2.5529 C   0  0  0  0  0  0  0  0  0  0  0  0
   -0.5801    6.0720    2.2770 N   0  0  0  0  0  0  0  0  0  0  0  0
    0.0061    5.4603    1.7370 H   0  0  0  0  0  0  0  0  0  0  0  0
   -0.2273    6.9559    2.5950 H   0  0  0  0  0  0  0  0  0  0  0  0
   -2.5336    6.5065    3.2552 N   0  0  0  0  0  0  0  0  0  0  0  0
   -3.4785    6.2583    3.4934 H   0  0  0  0  0  0  0  0  0  0  0  0
   -2.1614    7.3856    3.5638 H   0  0  0  0  0  0  0  0  0  0  0  0
   -0.9523    0.1012    2.4848 C   0  0  0  0  0  0  0  0  0  0  0  0
    0.2133   -0.1319    2.7814 O   0  0  0  0  0  0  0  0  0  0  0  0
   -1.8684    0.5006    3.3725 N   0  0  0  0  0  0  0  0  0  0  0  0
   -2.7946    0.7048    3.0343 H   0  0  0  0  0  0  0  0  0  0  0  0
   -1.5848    0.7472    4.7873 C   0  0  0  0  0  0  0  0  0  0  0  0
   -0.8819    1.5774    4.8838 H   0  0  0  0  0  0  0  0  0  0  0  0
   -2.5030    0.9948    5.3214 H   0  0  0  0  0  0  0  0  0  0  0  0
   -1.1344   -0.1399    5.2381 H   0  0  0  0  0  0  0  0  0  0  0  0
  5  6  2  0  0  0  0
  5  7  1  0  0  0  0
  2  3  1  0  0  0  0
  2  4  1  0  0  0  0
  2  5  1  0  0  0  0
  1  2  1  0  0  0  0
 29 30  2  0  0  0  0
 29 31  1  0  0  0  0
 26 27  1  0  0  0  0
 26 28  1  0  0  0  0
 23 24  1  0  0  0  0
 23 25  1  0  0  0  0
 22 23  1  0  0  0  0
 22 26  1  0  0  0  0
 20 21  1  0  0  0  0
 20 22  2  0  0  0  0
 17 18  1  0  0  0  0
 17 19  1  0  0  0  0
 17 20  1  0  0  0  0
 14 15  1  0  0  0  0
 14 16  1  0  0  0  0
 14 17  1  0  0  0  0
 11 12  1  0  0  0  0
 11 13  1  0  0  0  0
 11 14  1  0  0  0  0
  9 10  1  0  0  0  0
  9 11  1  0  0  0  0
  9 29  1  0  0  0  0
  7  8  1  0  0  0  0
  7  9  1  0  0  0  0
 33 34  1  0  0  0  0
 33 35  1  0  0  0  0
 33 36  1  0  0  0  0
 31 32  1  0  0  0  0
 31 33  1  0  0  0  0
M  CHG  1  20   1
M  END
$$$$
default_name
  -OEChem-02102213163D

 36 35  0     1  0  0  0  0  0999 V2000
   -4.2256   -3.6731    1.8584 H   0  0  0  0  0  0  0  0  0  0  0  0
   -4.2396   -2.6781    1.4144 C   0  0  0  0  0  0  0  0  0  0  0  0
   -4.9506   -2.0521    1.9514 H   0  0  0  0  0  0  0  0  0  0  0  0
   -4.5266   -2.7521    0.3674 H   0  0  0  0  0  0  0  0  0  0  0  0
   -2.8576   -2.0761    1.5184 C   0  0  0  0  0  0  0  0  0  0  0  0
   -1.9456   -2.7051    2.0404 O   0  0  0  0  0  0  0  0  0  0  0  0
   -2.6926   -0.8481    1.0174 N   0  0  0  0  0  0  0  0  0  0  0  0
   -3.4926   -0.3971    0.5954 H   0  0  0  0  0  0  0  0  0  0  0  0
   -1.4216   -0.1071    1.0434 C   0  0  1  0  0  0  0  0  0  0  0  0
   -0.6709   -0.6930    0.5106 H   0  0  0  0  0  0  0  0  0  0  0  0
   -1.6221    1.2315    0.3051 C   0  0  0  0  0  0  0  0  0  0  0  0
   -0.6414    1.6547    0.0785 H   0  0  0  0  0  0  0  0  0  0  0  0
   -2.1372    1.0444   -0.6396 H   0  0  0  0  0  0  0  0  0  0  0  0
   -2.4173    2.2643    1.1170 C   0  0  0  0  0  0  0  0  0  0  0  0
   -3.4307    2.3438    0.7211 H   0  0  0  0  0  0  0  0  0  0  0  0
   -2.4615    1.9472    2.1594 H   0  0  0  0  0  0  0  0  0  0  0  0
   -1.7344    3.6360    1.0293 C   0  0  0  0  0  0  0  0  0  0  0  0
   -0.7121    3.5410    1.4027 H   0  0  0  0  0  0  0  0  0  0  0  0
   -1.6998    3.9407   -0.0193 H   0  0  0  0  0  0  0  0  0  0  0  0
   -2.4538    4.6581    1.8170 N   0  3  0  0  0  0  0  0  0  0  0  0
   -3.3043    4.3656    2.2669 H   0  0  0  0  0  0  0  0  0  0  0  0
   -2.0854    5.9170    1.9858 C   0  0  0  0  0  0  0  0  0  0  0  0
   -1.0010    6.4001    1.4474 N   0  0  0  0  0  0  0  0  0  0  0  0
   -0.4274    5.7941    0.8878 H   0  0  0  0  0  0  0  0  0  0  0  0
   -0.7361    7.3580    1.5851 H   0  0  0  0  0  0  0  0  0  0  0  0
   -2.8093    6.7253    2.7069 N   0  0  0  0  0  0  0  0  0  0  0  0
   -3.6544    6.3985    3.1428 H   0  0  0  0  0  0  0  0  0  0  0  0
   -2.5262    7.6795    2.8324 H   0  0  0  0  0  0  0  0  0  0  0  0
   -0.9523    0.1012    2.4848 C   0  0  0  0  0  0  0  0  0  0  0  0
    0.2133   -0.1319    2.7814 O   0  0  0  0  0  0  0  0  0  0  0  0
   -1.8684    0.5006    3.3725 N   0  0  0  0  0  0  0  0  0  0  0  0
   -2.7946    0.7048    3.0343 H   0  0  0  0  0  0  0  0  0  0  0  0
   -1.5848    0.7472    4.7873 C   0  0  0  0  0  0  0  0  0  0  0  0
   -0.8819    1.5774    4.8838 H   0  0  0  0  0  0  0  0  0  0  0  0
   -2.5030    0.9948    5.3214 H   0  0  0  0  0  0  0  0  0  0  0  0
   -1.1344   -0.1399    5.2381 H   0  0  0  0  0  0  0  0  0  0  0  0
  5  6  2  0  0  0  0
  5  7  1  0  0  0  0
  2  3  1  0  0  0  0
  2  4  1  0  0  0  0
  2  5  1  0  0  0  0
  1  2  1  0  0  0  0
 29 30  2  0  0  0  0
 29 31  1  0  0  0  0
 26 27  1  0  0  0  0
 26 28  1  0  0  0  0
 23 24  1  0  0  0  0
 23 25  1  0  0  0  0
 22 23  1  0  0  0  0
 22 26  1  0  0  0  0
 20 21  1  0  0  0  0
 20 22  2  0  0  0  0
 17 18  1  0  0  0  0
 17 19  1  0  0  0  0
 17 20  1  0  0  0  0
 14 15  1  0  0  0  0
 14 16  1  0  0  0  0
 14 17  1  0  0  0  0
 11 12  1  0  0  0  0
 11 13  1  0  0  0  0
 11 14  1  0  0  0  0
  9 10  1  0  0  0  0
  9 11  1  0  0  0  0
  9 29  1  0  0  0  0
  7  8  1  0  0  0  0
  7  9  1  0  0  0  0
 33 34  1  0  0  0  0
 33 35  1  0  0  0  0
 33 36  1  0  0  0  0
 31 32  1  0  0  0  0
 31 33  1  0  0  0  0
M  CHG  1  20   1
M  END
$$$$
default_name
  -OEChem-02102213163D

 36 35  0     1  0  0  0  0  0999 V2000
   -4.2256   -3.6731    1.8584 H   0  0  0  0  0  0  0  0  0  0  0  0
   -4.2396   -2.6781    1.4144 C   0  0  0  0  0  0  0  0  0  0  0  0
   -4.9506   -2.0521    1.9514 H   0  0  0  0  0  0  0  0  0  0  0  0
   -4.5266   -2.7521    0.3674 H   0  0  0  0  0  0  0  0  0  0  0  0
   -2.8576   -2.0761    1.5184 C   0  0  0  0  0  0  0  0  0  0  0  0
   -1.9456   -2.7051    2.0404 O   0  0  0  0  0  0  0  0  0  0  0  0
   -2.6926   -0.8481    1.0174 N   0  0  0  0  0  0  0  0  0  0  0  0
   -3.4926   -0.3971    0.5954 H   0  0  0  0  0  0  0  0  0  0  0  0
   -1.4216   -0.1071    1.0434 C   0  0  1  0  0  0  0  0  0  0  0  0
   -0.6709   -0.6930    0.5106 H   0  0  0  0  0  0  0  0  0  0  0  0
   -1.6221    1.2315    0.3051 C   0  0  0  0  0  0  0  0  0  0  0  0
   -0.6414    1.6547    0.0785 H   0  0  0  0  0  0  0  0  0  0  0  0
   -2.1372    1.0444   -0.6396 H   0  0  0  0  0  0  0  0  0  0  0  0
   -2.4173    2.2643    1.1170 C   0  0  0  0  0  0  0  0  0  0  0  0
   -3.4824    2.1578    0.9070 H   0  0  0  0  0  0  0  0  0  0  0  0
   -2.2415    2.1000    2.1806 H   0  0  0  0  0  0  0  0  0  0  0  0
   -1.9698    3.6829    0.7390 C   0  0  0  0  0  0  0  0  0  0  0  0
   -0.8974    3.7721    0.9273 H   0  0  0  0  0  0  0  0  0  0  0  0
   -2.1541    3.8330   -0.3274 H   0  0  0  0  0  0  0  0  0  0  0  0
   -2.6935    4.7111    1.5147 N   0  3  0  0  0  0  0  0  0  0  0  0
   -3.4052    4.3836    2.1452 H   0  0  0  0  0  0  0  0  0  0  0  0
   -2.4937    6.0172    1.4583 C   0  0  0  0  0  0  0  0  0  0  0  0
   -1.5969    6.5481    0.6753 N   0  0  0  0  0  0  0  0  0  0  0  0
   -1.0397    5.9434    0.0981 H   0  0  0  0  0  0  0  0  0  0  0  0
   -1.4583    7.5415    0.6443 H   0  0  0  0  0  0  0  0  0  0  0  0
   -3.2010    6.8254    2.1960 N   0  0  0  0  0  0  0  0  0  0  0  0
   -3.9046    6.4628    2.8159 H   0  0  0  0  0  0  0  0  0  0  0  0
   -3.0461    7.8156    2.1502 H   0  0  0  0  0  0  0  0  0  0  0  0
   -0.9523    0.1012    2.4848 C   0  0  0  0  0  0  0  0  0  0  0  0
    0.2133   -0.1319    2.7814 O   0  0  0  0  0  0  0  0  0  0  0  0
   -1.8684    0.5006    3.3725 N   0  0  0  0  0  0  0  0  0  0  0  0
   -2.7946    0.7048    3.0343 H   0  0  0  0  0  0  0  0  0  0  0  0
   -1.5848    0.7472    4.7873 C   0  0  0  0  0  0  0  0  0  0  0  0
   -0.8819    1.5774    4.8838 H   0  0  0  0  0  0  0  0  0  0  0  0
   -2.5030    0.9948    5.3214 H   0  0  0  0  0  0  0  0  0  0  0  0
   -1.1344   -0.1399    5.2381 H   0  0  0  0  0  0  0  0  0  0  0  0
  5  6  2  0  0  0  0
  5  7  1  0  0  0  0
  2  3  1  0  0  0  0
  2  4  1  0  0  0  0
  2  5  1  0  0  0  0
  1  2  1  0  0  0  0
 29 30  2  0  0  0  0
 29 31  1  0  0  0  0
 26 27  1  0  0  0  0
 26 28  1  0  0  0  0
 23 24  1  0  0  0  0
 23 25  1  0  0  0  0
 22 23  1  0  0  0  0
 22 26  1  0  0  0  0
 20 21  1  0  0  0  0
 20 22  2  0  0  0  0
 17 18  1  0  0  0  0
 17 19  1  0  0  0  0
 17 20  1  0  0  0  0
 14 15  1  0  0  0  0
 14 16  1  0  0  0  0
 14 17  1  0  0  0  0
 11 12  1  0  0  0  0
 11 13  1  0  0  0  0
 11 14  1  0  0  0  0
  9 10  1  0  0  0  0
  9 11  1  0  0  0  0
  9 29  1  0  0  0  0
  7  8  1  0  0  0  0
  7  9  1  0  0  0  0
 33 34  1  0  0  0  0
 33 35  1  0  0  0  0
 33 36  1  0  0  0  0
 31 32  1  0  0  0  0
 31 33  1  0  0  0  0
M  CHG  1  20   1
M  END
$$$$
default_name
  -OEChem-02102213163D

 36 35  0     1  0  0  0  0  0999 V2000
   -4.2256   -3.6731    1.8584 H   0  0  0  0  0  0  0  0  0  0  0  0
   -4.2396   -2.6781    1.4144 C   0  0  0  0  0  0  0  0  0  0  0  0
   -4.9506   -2.0521    1.9514 H   0  0  0  0  0  0  0  0  0  0  0  0
   -4.5266   -2.7521    0.3674 H   0  0  0  0  0  0  0  0  0  0  0  0
   -2.8576   -2.0761    1.5184 C   0  0  0  0  0  0  0  0  0  0  0  0
   -1.9456   -2.7051    2.0404 O   0  0  0  0  0  0  0  0  0  0  0  0
   -2.6926   -0.8481    1.0174 N   0  0  0  0  0  0  0  0  0  0  0  0
   -3.4926   -0.3971    0.5954 H   0  0  0  0  0  0  0  0  0  0  0  0
   -1.4216   -0.1071    1.0434 C   0  0  1  0  0  0  0  0  0  0  0  0
   -0.6709   -0.6930    0.5106 H   0  0  0  0  0  0  0  0  0  0  0  0
   -1.6221    1.2315    0.3051 C   0  0  0  0  0  0  0  0  0  0  0  0
   -0.6414    1.6547    0.0785 H   0  0  0  0  0  0  0  0  0  0  0  0
   -2.1372    1.0444   -0.6396 H   0  0  0  0  0  0  0  0  0  0  0  0
   -2.4173    2.2643    1.1170 C   0  0  0  0  0  0  0  0  0  0  0  0
   -3.4746    1.9960    1.1205 H   0  0  0  0  0  0  0  0  0  0  0  0
   -2.0462    2.2804    2.1423 H   0  0  0  0  0  0  0  0  0  0  0  0
   -2.2542    3.6571    0.4933 C   0  0  0  0  0  0  0  0  0  0  0  0
   -1.1908    3.9061    0.4695 H   0  0  0  0  0  0  0  0  0  0  0  0
   -2.6319    3.6255   -0.5314 H   0  0  0  0  0  0  0  0  0  0  0  0
   -2.9849    4.6891    1.2573 N   0  3  0  0  0  0  0  0  0  0  0  0
   -3.5264    4.3708    2.0428 H   0  0  0  0  0  0  0  0  0  0  0  0
   -2.9937    5.9875    1.0065 C   0  0  0  0  0  0  0  0  0  0  0  0
   -2.3271    6.5062    0.0135 N   0  0  0  0  0  0  0  0  0  0  0  0
   -1.7890    5.8980   -0.5780 H   0  0  0  0  0  0  0  0  0  0  0  0
   -2.3448    7.4938   -0.1633 H   0  0  0  0  0  0  0  0  0  0  0  0
   -3.6819    6.8000    1.7572 N   0  0  0  0  0  0  0  0  0  0  0  0
   -4.2119    6.4468    2.5352 H   0  0  0  0  0  0  0  0  0  0  0  0
   -3.6857    7.7844    1.5634 H   0  0  0  0  0  0  0  0  0  0  0  0
   -0.9523    0.1012    2.4848 C   0  0  0  0  0  0  0  0  0  0  0  0
    0.2133   -0.1319    2.7814 O   0  0  0  0  0  0  0  0  0  0  0  0
   -1.8684    0.5006    3.3725 N   0  0  0  0  0  0  0  0  0  0  0  0
   -2.7946    0.7048    3.0343 H   0  0  0  0  0  0  0  0  0  0  0  0
   -1.5848    0.7472    4.7873 C   0  0  0  0  0  0  0  0  0  0  0  0
   -0.8819    1.5774    4.8838 H   0  0  0  0  0  0  0  0  0  0  0  0
   -2.5030    0.9948    5.3214 H   0  0  0  0  0  0  0  0  0  0  0  0
   -1.1344   -0.1399    5.2381 H   0  0  0  0  0  0  0  0  0  0  0  0
  5  6  2  0  0  0  0
  5  7  1  0  0  0  0
  2  3  1  0  0  0  0
  2  4  1  0  0  0  0
  2  5  1  0  0  0  0
  1  2  1  0  0  0  0
 29 30  2  0  0  0  0
 29 31  1  0  0  0  0
 26 27  1  0  0  0  0
 26 28  1  0  0  0  0
 23 24  1  0  0  0  0
 23 25  1  0  0  0  0
 22 23  1  0  0  0  0
 22 26  1  0  0  0  0
 20 21  1  0  0  0  0
 20 22  2  0  0  0  0
 17 18  1  0  0  0  0
 17 19  1  0  0  0  0
 17 20  1  0  0  0  0
 14 15  1  0  0  0  0
 14 16  1  0  0  0  0
 14 17  1  0  0  0  0
 11 12  1  0  0  0  0
 11 13  1  0  0  0  0
 11 14  1  0  0  0  0
  9 10  1  0  0  0  0
  9 11  1  0  0  0  0
  9 29  1  0  0  0  0
  7  8  1  0  0  0  0
  7  9  1  0  0  0  0
 33 34  1  0  0  0  0
 33 35  1  0  0  0  0
 33 36  1  0  0  0  0
 31 32  1  0  0  0  0
 31 33  1  0  0  0  0
M  CHG  1  20   1
M  END
$$$$
default_name
  -OEChem-02102213163D

 36 35  0     1  0  0  0  0  0999 V2000
   -4.2256   -3.6731    1.8584 H   0  0  0  0  0  0  0  0  0  0  0  0
   -4.2396   -2.6781    1.4144 C   0  0  0  0  0  0  0  0  0  0  0  0
   -4.9506   -2.0521    1.9514 H   0  0  0  0  0  0  0  0  0  0  0  0
   -4.5266   -2.7521    0.3674 H   0  0  0  0  0  0  0  0  0  0  0  0
   -2.8576   -2.0761    1.5184 C   0  0  0  0  0  0  0  0  0  0  0  0
   -1.9456   -2.7051    2.0404 O   0  0  0  0  0  0  0  0  0  0  0  0
   -2.6926   -0.8481    1.0174 N   0  0  0  0  0  0  0  0  0  0  0  0
   -3.4926   -0.3971    0.5954 H   0  0  0  0  0  0  0  0  0  0  0  0
   -1.4216   -0.1071    1.0434 C   0  0  1  0  0  0  0  0  0  0  0  0
   -0.6709   -0.6930    0.5106 H   0  0  0  0  0  0  0  0  0  0  0  0
   -1.6221    1.2315    0.3051 C   0  0  0  0  0  0  0  0  0  0  0  0
   -0.6748    1.5214   -0.1541 H   0  0  0  0  0  0  0  0  0  0  0  0
   -2.3567    1.0933   -0.4912 H   0  0  0  0  0  0  0  0  0  0  0  0
   -2.0824    2.3731    1.2233 C   0  0  0  0  0  0  0  0  0  0  0  0
   -3.0350    2.1125    1.6867 H   0  0  0  0  0  0  0  0  0  0  0  0
   -1.3354    2.5340    2.0012 H   0  0  0  0  0  0  0  0  0  0  0  0
   -2.2559    3.6618    0.4080 C   0  0  0  0  0  0  0  0  0  0  0  0
   -1.3048    3.9003   -0.0737 H   0  0  0  0  0  0  0  0  0  0  0  0
   -3.0080    3.4857   -0.3647 H   0  0  0  0  0  0  0  0  0  0  0  0
   -2.6763    4.7954    1.2571 N   0  3  0  0  0  0  0  0  0  0  0  0
   -2.8424    4.5950    2.2284 H   0  0  0  0  0  0  0  0  0  0  0  0
   -2.8536    6.0447    0.8611 C   0  0  0  0  0  0  0  0  0  0  0  0
   -2.6662    6.4133   -0.3751 N   0  0  0  0  0  0  0  0  0  0  0  0
   -2.3762    5.7246   -1.0466 H   0  0  0  0  0  0  0  0  0  0  0  0
   -2.8056    7.3656   -0.6591 H   0  0  0  0  0  0  0  0  0  0  0  0
   -3.2286    6.9590    1.7101 N   0  0  0  0  0  0  0  0  0  0  0  0
   -3.3854    6.7229    2.6748 H   0  0  0  0  0  0  0  0  0  0  0  0
   -3.3619    7.9056    1.4056 H   0  0  0  0  0  0  0  0  0  0  0  0
   -0.9523    0.1012    2.4848 C   0  0  0  0  0  0  0  0  0  0  0  0
    0.2133   -0.1319    2.7814 O   0  0  0  0  0  0  0  0  0  0  0  0
   -1.8684    0.5006    3.3725 N   0  0  0  0  0  0  0  0  0  0  0  0
   -2.7946    0.7048    3.0343 H   0  0  0  0  0  0  0  0  0  0  0  0
   -1.5848    0.7472    4.7873 C   0  0  0  0  0  0  0  0  0  0  0  0
   -0.8819    1.5774    4.8838 H   0  0  0  0  0  0  0  0  0  0  0  0
   -2.5030    0.9948    5.3214 H   0  0  0  0  0  0  0  0  0  0  0  0
   -1.1344   -0.1399    5.2381 H   0  0  0  0  0  0  0  0  0  0  0  0
  5  6  2  0  0  0  0
  5  7  1  0  0  0  0
  2  3  1  0  0  0  0
  2  4  1  0  0  0  0
  2  5  1  0  0  0  0
  1  2  1  0  0  0  0
 29 30  2  0  0  0  0
 29 31  1  0  0  0  0
 26 27  1  0  0  0  0
 26 28  1  0  0  0  0
 23 24  1  0  0  0  0
 23 25  1  0  0  0  0
 22 23  1  0  0  0  0
 22 26  1  0  0  0  0
 20 21  1  0  0  0  0
 20 22  2  0  0  0  0
 17 18  1  0  0  0  0
 17 19  1  0  0  0  0
 17 20  1  0  0  0  0
 14 15  1  0  0  0  0
 14 16  1  0  0  0  0
 14 17  1  0  0  0  0
 11 12  1  0  0  0  0
 11 13  1  0  0  0  0
 11 14  1  0  0  0  0
  9 10  1  0  0  0  0
  9 11  1  0  0  0  0
  9 29  1  0  0  0  0
  7  8  1  0  0  0  0
  7  9  1  0  0  0  0
 33 34  1  0  0  0  0
 33 35  1  0  0  0  0
 33 36  1  0  0  0  0
 31 32  1  0  0  0  0
 31 33  1  0  0  0  0
M  CHG  1  20   1
M  END
$$$$
default_name
  -OEChem-02102213163D

 36 35  0     1  0  0  0  0  0999 V2000
   -4.2256   -3.6731    1.8584 H   0  0  0  0  0  0  0  0  0  0  0  0
   -4.2396   -2.6781    1.4144 C   0  0  0  0  0  0  0  0  0  0  0  0
   -4.9506   -2.0521    1.9514 H   0  0  0  0  0  0  0  0  0  0  0  0
   -4.5266   -2.7521    0.3674 H   0  0  0  0  0  0  0  0  0  0  0  0
   -2.8576   -2.0761    1.5184 C   0  0  0  0  0  0  0  0  0  0  0  0
   -1.9456   -2.7051    2.0404 O   0  0  0  0  0  0  0  0  0  0  0  0
   -2.6926   -0.8481    1.0174 N   0  0  0  0  0  0  0  0  0  0  0  0
   -3.4926   -0.3971    0.5954 H   0  0  0  0  0  0  0  0  0  0  0  0
   -1.4216   -0.1071    1.0434 C   0  0  1  0  0  0  0  0  0  0  0  0
   -0.6709   -0.6930    0.5106 H   0  0  0  0  0  0  0  0  0  0  0  0
   -1.6221    1.2315    0.3051 C   0  0  0  0  0  0  0  0  0  0  0  0
   -0.6748    1.5214   -0.1541 H   0  0  0  0  0  0  0  0  0  0  0  0
   -2.3567    1.0933   -0.4912 H   0  0  0  0  0  0  0  0  0  0  0  0
   -2.0824    2.3731    1.2233 C   0  0  0  0  0  0  0  0  0  0  0  0
   -2.8769    2.0193    1.8819 H   0  0  0  0  0  0  0  0  0  0  0  0
   -1.2398    2.7136    1.8259 H   0  0  0  0  0  0  0  0  0  0  0  0
   -2.6116    3.5410    0.3798 C   0  0  0  0  0  0  0  0  0  0  0  0
   -1.8185    3.8712   -0.2950 H   0  0  0  0  0  0  0  0  0  0  0  0
   -3.4558    3.1853   -0.2156 H   0  0  0  0  0  0  0  0  0  0  0  0
   -3.0448    4.6742    1.2229 N   0  3  0  0  0  0  0  0  0  0  0  0
   -2.9923    4.5425    2.2185 H   0  0  0  0  0  0  0  0  0  0  0  0
   -3.4932    5.8417    0.7929 C   0  0  0  0  0  0  0  0  0  0  0  0
   -3.6018    6.1176   -0.4765 N   0  0  0  0  0  0  0  0  0  0  0  0
   -3.3341    5.4198   -1.1479 H   0  0  0  0  0  0  0  0  0  0  0  0
   -3.9443    7.0085   -0.7861 H   0  0  0  0  0  0  0  0  0  0  0  0
   -3.8468    6.7656    1.6406 N   0  0  0  0  0  0  0  0  0  0  0  0
   -3.7807    6.5995    2.6300 H   0  0  0  0  0  0  0  0  0  0  0  0
   -4.1864    7.6499    1.3101 H   0  0  0  0  0  0  0  0  0  0  0  0
   -0.9523    0.1012    2.4848 C   0  0  0  0  0  0  0  0  0  0  0  0
    0.2133   -0.1319    2.7814 O   0  0  0  0  0  0  0  0  0  0  0  0
   -1.8684    0.5006    3.3725 N   0  0  0  0  0  0  0  0  0  0  0  0
   -2.7946    0.7048    3.0343 H   0  0  0  0  0  0  0  0  0  0  0  0
   -1.5848    0.7472    4.7873 C   0  0  0  0  0  0  0  0  0  0  0  0
   -0.8819    1.5774    4.8838 H   0  0  0  0  0  0  0  0  0  0  0  0
   -2.5030    0.9948    5.3214 H   0  0  0  0  0  0  0  0  0  0  0  0
   -1.1344   -0.1399    5.2381 H   0  0  0  0  0  0  0  0  0  0  0  0
  5  6  2  0  0  0  0
  5  7  1  0  0  0  0
  2  3  1  0  0  0  0
  2  4  1  0  0  0  0
  2  5  1  0  0  0  0
  1  2  1  0  0  0  0
 29 30  2  0  0  0  0
 29 31  1  0  0  0  0
 26 27  1  0  0  0  0
 26 28  1  0  0  0  0
 23 24  1  0  0  0  0
 23 25  1  0  0  0  0
 22 23  1  0  0  0  0
 22 26  1  0  0  0  0
 20 21  1  0  0  0  0
 20 22  2  0  0  0  0
 17 18  1  0  0  0  0
 17 19  1  0  0  0  0
 17 20  1  0  0  0  0
 14 15  1  0  0  0  0
 14 16  1  0  0  0  0
 14 17  1  0  0  0  0
 11 12  1  0  0  0  0
 11 13  1  0  0  0  0
 11 14  1  0  0  0  0
  9 10  1  0  0  0  0
  9 11  1  0  0  0  0
  9 29  1  0  0  0  0
  7  8  1  0  0  0  0
  7  9  1  0  0  0  0
 33 34  1  0  0  0  0
 33 35  1  0  0  0  0
 33 36  1  0  0  0  0
 31 32  1  0  0  0  0
 31 33  1  0  0  0  0
M  CHG  1  20   1
M  END
$$$$
default_name
  -OEChem-02102213163D

 36 35  0     1  0  0  0  0  0999 V2000
   -4.2256   -3.6731    1.8584 H   0  0  0  0  0  0  0  0  0  0  0  0
   -4.2396   -2.6781    1.4144 C   0  0  0  0  0  0  0  0  0  0  0  0
   -4.9506   -2.0521    1.9514 H   0  0  0  0  0  0  0  0  0  0  0  0
   -4.5266   -2.7521    0.3674 H   0  0  0  0  0  0  0  0  0  0  0  0
   -2.8576   -2.0761    1.5184 C   0  0  0  0  0  0  0  0  0  0  0  0
   -1.9456   -2.7051    2.0404 O   0  0  0  0  0  0  0  0  0  0  0  0
   -2.6926   -0.8481    1.0174 N   0  0  0  0  0  0  0  0  0  0  0  0
   -3.4926   -0.3971    0.5954 H   0  0  0  0  0  0  0  0  0  0  0  0
   -1.4216   -0.1071    1.0434 C   0  0  1  0  0  0  0  0  0  0  0  0
   -0.6709   -0.6930    0.5106 H   0  0  0  0  0  0  0  0  0  0  0  0
   -1.6221    1.2315    0.3051 C   0  0  0  0  0  0  0  0  0  0  0  0
   -0.6748    1.5214   -0.1541 H   0  0  0  0  0  0  0  0  0  0  0  0
   -2.3567    1.0933   -0.4912 H   0  0  0  0  0  0  0  0  0  0  0  0
   -2.0824    2.3731    1.2233 C   0  0  0  0  0  0  0  0  0  0  0  0
   -2.6721    1.9689    2.0473 H   0  0  0  0  0  0  0  0  0  0  0  0
   -1.2089    2.8883    1.6241 H   0  0  0  0  0  0  0  0  0  0  0  0
   -2.9419    3.3671    0.4304 C   0  0  0  0  0  0  0  0  0  0  0  0
   -2.3528    3.7464   -0.4077 H   0  0  0  0  0  0  0  0  0  0  0  0
   -3.8131    2.8374    0.0378 H   0  0  0  0  0  0  0  0  0  0  0  0
   -3.3886    4.4975    1.2703 N   0  3  0  0  0  0  0  0  0  0  0  0
   -3.1309    4.4678    2.2419 H   0  0  0  0  0  0  0  0  0  0  0  0
   -4.0928    5.5413    0.8657 C   0  0  0  0  0  0  0  0  0  0  0  0
   -4.4792    5.6793   -0.3715 N   0  0  0  0  0  0  0  0  0  0  0  0
   -4.2316    4.9692   -1.0378 H   0  0  0  0  0  0  0  0  0  0  0  0
   -5.0135    6.4775   -0.6619 H   0  0  0  0  0  0  0  0  0  0  0  0
   -4.4275    6.4777    1.7074 N   0  0  0  0  0  0  0  0  0  0  0  0
   -4.1521    6.4156    2.6724 H   0  0  0  0  0  0  0  0  0  0  0  0
   -4.9617    7.2679    1.3963 H   0  0  0  0  0  0  0  0  0  0  0  0
   -0.9523    0.1012    2.4848 C   0  0  0  0  0  0  0  0  0  0  0  0
    0.2133   -0.1319    2.7814 O   0  0  0  0  0  0  0  0  0  0  0  0
   -1.8684    0.5006    3.3725 N   0  0  0  0  0  0  0  0  0  0  0  0
   -2.7946    0.7048    3.0343 H   0  0  0  0  0  0  0  0  0  0  0  0
   -1.5848    0.7472    4.7873 C   0  0  0  0  0  0  0  0  0  0  0  0
   -0.8819    1.5774    4.8838 H   0  0  0  0  0  0  0  0  0  0  0  0
   -2.5030    0.9948    5.3214 H   0  0  0  0  0  0  0  0  0  0  0  0
   -1.1344   -0.1399    5.2381 H   0  0  0  0  0  0  0  0  0  0  0  0
  5  6  2  0  0  0  0
  5  7  1  0  0  0  0
  2  3  1  0  0  0  0
  2  4  1  0  0  0  0
  2  5  1  0  0  0  0
  1  2  1  0  0  0  0
 29 30  2  0  0  0  0
 29 31  1  0  0  0  0
 26 27  1  0  0  0  0
 26 28  1  0  0  0  0
 23 24  1  0  0  0  0
 23 25  1  0  0  0  0
 22 23  1  0  0  0  0
 22 26  1  0  0  0  0
 20 21  1  0  0  0  0
 20 22  2  0  0  0  0
 17 18  1  0  0  0  0
 17 19  1  0  0  0  0
 17 20  1  0  0  0  0
 14 15  1  0  0  0  0
 14 16  1  0  0  0  0
 14 17  1  0  0  0  0
 11 12  1  0  0  0  0
 11 13  1  0  0  0  0
 11 14  1  0  0  0  0
  9 10  1  0  0  0  0
  9 11  1  0  0  0  0
  9 29  1  0  0  0  0
  7  8  1  0  0  0  0
  7  9  1  0  0  0  0
 33 34  1  0  0  0  0
 33 35  1  0  0  0  0
 33 36  1  0  0  0  0
 31 32  1  0  0  0  0
 31 33  1  0  0  0  0
M  CHG  1  20   1
M  END
$$$$
default_name
  -OEChem-02102213163D

 36 35  0     1  0  0  0  0  0999 V2000
   -4.2256   -3.6731    1.8584 H   0  0  0  0  0  0  0  0  0  0  0  0
   -4.2396   -2.6781    1.4144 C   0  0  0  0  0  0  0  0  0  0  0  0
   -4.9506   -2.0521    1.9514 H   0  0  0  0  0  0  0  0  0  0  0  0
   -4.5266   -2.7521    0.3674 H   0  0  0  0  0  0  0  0  0  0  0  0
   -2.8576   -2.0761    1.5184 C   0  0  0  0  0  0  0  0  0  0  0  0
   -1.9456   -2.7051    2.0404 O   0  0  0  0  0  0  0  0  0  0  0  0
   -2.6926   -0.8481    1.0174 N   0  0  0  0  0  0  0  0  0  0  0  0
   -3.4926   -0.3971    0.5954 H   0  0  0  0  0  0  0  0  0  0  0  0
   -1.4216   -0.1071    1.0434 C   0  0  1  0  0  0  0  0  0  0  0  0
   -0.6709   -0.6930    0.5106 H   0  0  0  0  0  0  0  0  0  0  0  0
   -1.6221    1.2315    0.3051 C   0  0  0  0  0  0  0  0  0  0  0  0
   -0.6748    1.5214   -0.1541 H   0  0  0  0  0  0  0  0  0  0  0  0
   -2.3567    1.0933   -0.4912 H   0  0  0  0  0  0  0  0  0  0  0  0
   -2.0824    2.3731    1.2233 C   0  0  0  0  0  0  0  0  0  0  0  0
   -2.4347    1.9647    2.1715 H   0  0  0  0  0  0  0  0  0  0  0  0
   -1.2450    3.0461    1.4098 H   0  0  0  0  0  0  0  0  0  0  0  0
   -3.2244    3.1519    0.5563 C   0  0  0  0  0  0  0  0  0  0  0  0
   -2.8712    3.5344   -0.4041 H   0  0  0  0  0  0  0  0  0  0  0  0
   -4.0557    2.4657    0.3783 H   0  0  0  0  0  0  0  0  0  0  0  0
   -3.6842    4.2773    1.3959 N   0  3  0  0  0  0  0  0  0  0  0  0
   -3.2487    4.3761    2.2969 H   0  0  0  0  0  0  0  0  0  0  0  0
   -4.6114    5.1640    1.0748 C   0  0  0  0  0  0  0  0  0  0  0  0
   -5.2387    5.1283   -0.0673 N   0  0  0  0  0  0  0  0  0  0  0  0
   -5.0077    4.4037   -0.7238 H   0  0  0  0  0  0  0  0  0  0  0  0
   -5.9401    5.8088   -0.2951 H   0  0  0  0  0  0  0  0  0  0  0  0
   -4.9309    6.1150    1.9060 N   0  0  0  0  0  0  0  0  0  0  0  0
   -4.4742    6.1838    2.7991 H   0  0  0  0  0  0  0  0  0  0  0  0
   -5.6348    6.7857    1.6584 H   0  0  0  0  0  0  0  0  0  0  0  0
   -0.9523    0.1012    2.4848 C   0  0  0  0  0  0  0  0  0  0  0  0
    0.2133   -0.1319    2.7814 O   0  0  0  0  0  0  0  0  0  0  0  0
   -1.8684    0.5006    3.3725 N   0  0  0  0  0  0  0  0  0  0  0  0
   -2.7946    0.7048    3.0343 H   0  0  0  0  0  0  0  0  0  0  0  0
   -1.5848    0.7472    4.7873 C   0  0  0  0  0  0  0  0  0  0  0  0
   -0.8819    1.5774    4.8838 H   0  0  0  0  0  0  0  0  0  0  0  0
   -2.5030    0.9948    5.3214 H   0  0  0  0  0  0  0  0  0  0  0  0
   -1.1344   -0.1399    5.2381 H   0  0  0  0  0  0  0  0  0  0  0  0
  5  6  2  0  0  0  0
  5  7  1  0  0  0  0
  2  3  1  0  0  0  0
  2  4  1  0  0  0  0
  2  5  1  0  0  0  0
  1  2  1  0  0  0  0
 29 30  2  0  0  0  0
 29 31  1  0  0  0  0
 26 27  1  0  0  0  0
 26 28  1  0  0  0  0
 23 24  1  0  0  0  0
 23 25  1  0  0  0  0
 22 23  1  0  0  0  0
 22 26  1  0  0  0  0
 20 21  1  0  0  0  0
 20 22  2  0  0  0  0
 17 18  1  0  0  0  0
 17 19  1  0  0  0  0
 17 20  1  0  0  0  0
 14 15  1  0  0  0  0
 14 16  1  0  0  0  0
 14 17  1  0  0  0  0
 11 12  1  0  0  0  0
 11 13  1  0  0  0  0
 11 14  1  0  0  0  0
  9 10  1  0  0  0  0
  9 11  1  0  0  0  0
  9 29  1  0  0  0  0
  7  8  1  0  0  0  0
  7  9  1  0  0  0  0
 33 34  1  0  0  0  0
 33 35  1  0  0  0  0
 33 36  1  0  0  0  0
 31 32  1  0  0  0  0
 31 33  1  0  0  0  0
M  CHG  1  20   1
M  END
$$$$
default_name
  -OEChem-02102213163D

 36 35  0     1  0  0  0  0  0999 V2000
   -4.2256   -3.6731    1.8584 H   0  0  0  0  0  0  0  0  0  0  0  0
   -4.2396   -2.6781    1.4144 C   0  0  0  0  0  0  0  0  0  0  0  0
   -4.9506   -2.0521    1.9514 H   0  0  0  0  0  0  0  0  0  0  0  0
   -4.5266   -2.7521    0.3674 H   0  0  0  0  0  0  0  0  0  0  0  0
   -2.8576   -2.0761    1.5184 C   0  0  0  0  0  0  0  0  0  0  0  0
   -1.9456   -2.7051    2.0404 O   0  0  0  0  0  0  0  0  0  0  0  0
   -2.6926   -0.8481    1.0174 N   0  0  0  0  0  0  0  0  0  0  0  0
   -3.4926   -0.3971    0.5954 H   0  0  0  0  0  0  0  0  0  0  0  0
   -1.4216   -0.1071    1.0434 C   0  0  1  0  0  0  0  0  0  0  0  0
   -0.6709   -0.6930    0.5106 H   0  0  0  0  0  0  0  0  0  0  0  0
   -1.6221    1.2315    0.3051 C   0  0  0  0  0  0  0  0  0  0  0  0
   -0.6748    1.5214   -0.1541 H   0  0  0  0  0  0  0  0  0  0  0  0
   -2.3567    1.0933   -0.4912 H   0  0  0  0  0  0  0  0  0  0  0  0
   -2.0824    2.3731    1.2233 C   0  0  0  0  0  0  0  0  0  0  0  0
   -2.1808    2.0070    2.2462 H   0  0  0  0  0  0  0  0  0  0  0  0
   -1.3455    3.1764    1.1974 H   0  0  0  0  0  0  0  0  0  0  0  0
   -3.4397    2.9101    0.7490 C   0  0  0  0  0  0  0  0  0  0  0  0
   -3.3384    3.2497   -0.2844 H   0  0  0  0  0  0  0  0  0  0  0  0
   -4.1669    2.0955    0.7827 H   0  0  0  0  0  0  0  0  0  0  0  0
   -3.9115    4.0285    1.5912 N   0  3  0  0  0  0  0  0  0  0  0  0
   -3.3376    4.2735    2.3798 H   0  0  0  0  0  0  0  0  0  0  0  0
   -5.0137    4.7356    1.4058 C   0  0  0  0  0  0  0  0  0  0  0  0
   -5.8286    4.5022    0.4155 N   0  0  0  0  0  0  0  0  0  0  0  0
   -5.6093    3.7617   -0.2273 H   0  0  0  0  0  0  0  0  0  0  0  0
   -6.6611    5.0479    0.2894 H   0  0  0  0  0  0  0  0  0  0  0  0
   -5.3228    5.7021    2.2228 N   0  0  0  0  0  0  0  0  0  0  0  0
   -4.7251    5.9199    3.0015 H   0  0  0  0  0  0  0  0  0  0  0  0
   -6.1599    6.2360    2.0785 H   0  0  0  0  0  0  0  0  0  0  0  0
   -0.9523    0.1012    2.4848 C   0  0  0  0  0  0  0  0  0  0  0  0
    0.2133   -0.1319    2.7814 O   0  0  0  0  0  0  0  0  0  0  0  0
   -1.8684    0.5006    3.3725 N   0  0  0  0  0  0  0  0  0  0  0  0
   -2.7946    0.7048    3.0343 H   0  0  0  0  0  0  0  0  0  0  0  0
   -1.5848    0.7472    4.7873 C   0  0  0  0  0  0  0  0  0  0  0  0
   -0.8819    1.5774    4.8838 H   0  0  0  0  0  0  0  0  0  0  0  0
   -2.5030    0.9948    5.3214 H   0  0  0  0  0  0  0  0  0  0  0  0
   -1.1344   -0.1399    5.2381 H   0  0  0  0  0  0  0  0  0  0  0  0
  5  6  2  0  0  0  0
  5  7  1  0  0  0  0
  2  3  1  0  0  0  0
  2  4  1  0  0  0  0
  2  5  1  0  0  0  0
  1  2  1  0  0  0  0
 29 30  2  0  0  0  0
 29 31  1  0  0  0  0
 26 27  1  0  0  0  0
 26 28  1  0  0  0  0
 23 24  1  0  0  0  0
 23 25  1  0  0  0  0
 22 23  1  0  0  0  0
 22 26  1  0  0  0  0
 20 21  1  0  0  0  0
 20 22  2  0  0  0  0
 17 18  1  0  0  0  0
 17 19  1  0  0  0  0
 17 20  1  0  0  0  0
 14 15  1  0  0  0  0
 14 16  1  0  0  0  0
 14 17  1  0  0  0  0
 11 12  1  0  0  0  0
 11 13  1  0  0  0  0
 11 14  1  0  0  0  0
  9 10  1  0  0  0  0
  9 11  1  0  0  0  0
  9 29  1  0  0  0  0
  7  8  1  0  0  0  0
  7  9  1  0  0  0  0
 33 34  1  0  0  0  0
 33 35  1  0  0  0  0
 33 36  1  0  0  0  0
 31 32  1  0  0  0  0
 31 33  1  0  0  0  0
M  CHG  1  20   1
M  END
$$$$
default_name
  -OEChem-02102213163D

 36 35  0     1  0  0  0  0  0999 V2000
   -4.2256   -3.6731    1.8584 H   0  0  0  0  0  0  0  0  0  0  0  0
   -4.2396   -2.6781    1.4144 C   0  0  0  0  0  0  0  0  0  0  0  0
   -4.9506   -2.0521    1.9514 H   0  0  0  0  0  0  0  0  0  0  0  0
   -4.5266   -2.7521    0.3674 H   0  0  0  0  0  0  0  0  0  0  0  0
   -2.8576   -2.0761    1.5184 C   0  0  0  0  0  0  0  0  0  0  0  0
   -1.9456   -2.7051    2.0404 O   0  0  0  0  0  0  0  0  0  0  0  0
   -2.6926   -0.8481    1.0174 N   0  0  0  0  0  0  0  0  0  0  0  0
   -3.4926   -0.3971    0.5954 H   0  0  0  0  0  0  0  0  0  0  0  0
   -1.4216   -0.1071    1.0434 C   0  0  1  0  0  0  0  0  0  0  0  0
   -0.6709   -0.6930    0.5106 H   0  0  0  0  0  0  0  0  0  0  0  0
   -1.6221    1.2315    0.3051 C   0  0  0  0  0  0  0  0  0  0  0  0
   -0.6748    1.5214   -0.1541 H   0  0  0  0  0  0  0  0  0  0  0  0
   -2.3567    1.0933   -0.4912 H   0  0  0  0  0  0  0  0  0  0  0  0
   -2.0824    2.3731    1.2233 C   0  0  0  0  0  0  0  0  0  0  0  0
   -1.9278    2.0930    2.2662 H   0  0  0  0  0  0  0  0  0  0  0  0
   -1.5035    3.2702    1.0015 H   0  0  0  0  0  0  0  0  0  0  0  0
   -3.5731    2.6583    0.9952 C   0  0  0  0  0  0  0  0  0  0  0  0
   -3.7227    2.9117   -0.0568 H   0  0  0  0  0  0  0  0  0  0  0  0
   -4.1393    1.7522    1.2235 H   0  0  0  0  0  0  0  0  0  0  0  0
   -4.0550    3.7683    1.8428 N   0  3  0  0  0  0  0  0  0  0  0  0
   -3.3918    4.1670    2.4850 H   0  0  0  0  0  0  0  0  0  0  0  0
   -5.2723    4.2851    1.8362 C   0  0  0  0  0  0  0  0  0  0  0  0
   -6.2086    3.8436    1.0438 N   0  0  0  0  0  0  0  0  0  0  0  0
   -5.9956    3.0871    0.4179 H   0  0  0  0  0  0  0  0  0  0  0  0
   -7.1274    4.2468    1.0517 H   0  0  0  0  0  0  0  0  0  0  0  0
   -5.5766    5.2672    2.6363 N   0  0  0  0  0  0  0  0  0  0  0  0
   -4.8877    5.6418    3.2657 H   0  0  0  0  0  0  0  0  0  0  0  0
   -6.5012    5.6564    2.6280 H   0  0  0  0  0  0  0  0  0  0  0  0
   -0.9523    0.1012    2.4848 C   0  0  0  0  0  0  0  0  0  0  0  0
    0.2133   -0.1319    2.7814 O   0  0  0  0  0  0  0  0  0  0  0  0
   -1.8684    0.5006    3.3725 N   0  0  0  0  0  0  0  0  0  0  0  0
   -2.7946    0.7048    3.0343 H   0  0  0  0  0  0  0  0  0  0  0  0
   -1.5848    0.7472    4.7873 C   0  0  0  0  0  0  0  0  0  0  0  0
   -0.8819    1.5774    4.8838 H   0  0  0  0  0  0  0  0  0  0  0  0
   -2.5030    0.9948    5.3214 H   0  0  0  0  0  0  0  0  0  0  0  0
   -1.1344   -0.1399    5.2381 H   0  0  0  0  0  0  0  0  0  0  0  0
  5  6  2  0  0  0  0
  5  7  1  0  0  0  0
  2  3  1  0  0  0  0
  2  4  1  0  0  0  0
  2  5  1  0  0  0  0
  1  2  1  0  0  0  0
 29 30  2  0  0  0  0
 29 31  1  0  0  0  0
 26 27  1  0  0  0  0
 26 28  1  0  0  0  0
 23 24  1  0  0  0  0
 23 25  1  0  0  0  0
 22 23  1  0  0  0  0
 22 26  1  0  0  0  0
 20 21  1  0  0  0  0
 20 22  2  0  0  0  0
 17 18  1  0  0  0  0
 17 19  1  0  0  0  0
 17 20  1  0  0  0  0
 14 15  1  0  0  0  0
 14 16  1  0  0  0  0
 14 17  1  0  0  0  0
 11 12  1  0  0  0  0
 11 13  1  0  0  0  0
 11 14  1  0  0  0  0
  9 10  1  0  0  0  0
  9 11  1  0  0  0  0
  9 29  1  0  0  0  0
  7  8  1  0  0  0  0
  7  9  1  0  0  0  0
 33 34  1  0  0  0  0
 33 35  1  0  0  0  0
 33 36  1  0  0  0  0
 31 32  1  0  0  0  0
 31 33  1  0  0  0  0
M  CHG  1  20   1
M  END
$$$$
default_name
  -OEChem-02102213163D

 36 35  0     1  0  0  0  0  0999 V2000
   -4.2256   -3.6731    1.8584 H   0  0  0  0  0  0  0  0  0  0  0  0
   -4.2396   -2.6781    1.4144 C   0  0  0  0  0  0  0  0  0  0  0  0
   -4.9506   -2.0521    1.9514 H   0  0  0  0  0  0  0  0  0  0  0  0
   -4.5266   -2.7521    0.3674 H   0  0  0  0  0  0  0  0  0  0  0  0
   -2.8576   -2.0761    1.5184 C   0  0  0  0  0  0  0  0  0  0  0  0
   -1.9456   -2.7051    2.0404 O   0  0  0  0  0  0  0  0  0  0  0  0
   -2.6926   -0.8481    1.0174 N   0  0  0  0  0  0  0  0  0  0  0  0
   -3.4926   -0.3971    0.5954 H   0  0  0  0  0  0  0  0  0  0  0  0
   -1.4216   -0.1071    1.0434 C   0  0  1  0  0  0  0  0  0  0  0  0
   -0.6709   -0.6930    0.5106 H   0  0  0  0  0  0  0  0  0  0  0  0
   -1.6221    1.2315    0.3051 C   0  0  0  0  0  0  0  0  0  0  0  0
   -0.6748    1.5214   -0.1541 H   0  0  0  0  0  0  0  0  0  0  0  0
   -2.3567    1.0933   -0.4912 H   0  0  0  0  0  0  0  0  0  0  0  0
   -2.0824    2.3731    1.2233 C   0  0  0  0  0  0  0  0  0  0  0  0
   -1.6928    2.2167    2.2302 H   0  0  0  0  0  0  0  0  0  0  0  0
   -1.7085    3.3211    0.8354 H   0  0  0  0  0  0  0  0  0  0  0  0
   -3.6157    2.4134    1.2783 C   0  0  0  0  0  0  0  0  0  0  0  0
   -3.9977    2.5434    0.2632 H   0  0  0  0  0  0  0  0  0  0  0  0
   -3.9747    1.4590    1.6706 H   0  0  0  0  0  0  0  0  0  0  0  0
   -4.1049    3.5142    2.1337 N   0  3  0  0  0  0  0  0  0  0  0  0
   -3.4074    4.0640    2.6053 H   0  0  0  0  0  0  0  0  0  0  0  0
   -5.3696    3.8434    2.3366 C   0  0  0  0  0  0  0  0  0  0  0  0
   -6.3527    3.1973    1.7750 N   0  0  0  0  0  0  0  0  0  0  0  0
   -6.1402    2.4256    1.1678 H   0  0  0  0  0  0  0  0  0  0  0  0
   -7.3071    3.4599    1.9399 H   0  0  0  0  0  0  0  0  0  0  0  0
   -5.6748    4.8399    3.1183 N   0  0  0  0  0  0  0  0  0  0  0  0
   -4.9509    5.3686    3.5737 H   0  0  0  0  0  0  0  0  0  0  0  0
   -6.6355    5.0864    3.2694 H   0  0  0  0  0  0  0  0  0  0  0  0
   -0.9523    0.1012    2.4848 C   0  0  0  0  0  0  0  0  0  0  0  0
    0.2133   -0.1319    2.7814 O   0  0  0  0  0  0  0  0  0  0  0  0
   -1.8684    0.5006    3.3725 N   0  0  0  0  0  0  0  0  0  0  0  0
   -2.7946    0.7048    3.0343 H   0  0  0  0  0  0  0  0  0  0  0  0
   -1.5848    0.7472    4.7873 C   0  0  0  0  0  0  0  0  0  0  0  0
   -0.8819    1.5774    4.8838 H   0  0  0  0  0  0  0  0  0  0  0  0
   -2.5030    0.9948    5.3214 H   0  0  0  0  0  0  0  0  0  0  0  0
   -1.1344   -0.1399    5.2381 H   0  0  0  0  0  0  0  0  0  0  0  0
  5  6  2  0  0  0  0
  5  7  1  0  0  0  0
  2  3  1  0  0  0  0
  2  4  1  0  0  0  0
  2  5  1  0  0  0  0
  1  2  1  0  0  0  0
 29 30  2  0  0  0  0
 29 31  1  0  0  0  0
 26 27  1  0  0  0  0
 26 28  1  0  0  0  0
 23 24  1  0  0  0  0
 23 25  1  0  0  0  0
 22 23  1  0  0  0  0
 22 26  1  0  0  0  0
 20 21  1  0  0  0  0
 20 22  2  0  0  0  0
 17 18  1  0  0  0  0
 17 19  1  0  0  0  0
 17 20  1  0  0  0  0
 14 15  1  0  0  0  0
 14 16  1  0  0  0  0
 14 17  1  0  0  0  0
 11 12  1  0  0  0  0
 11 13  1  0  0  0  0
 11 14  1  0  0  0  0
  9 10  1  0  0  0  0
  9 11  1  0  0  0  0
  9 29  1  0  0  0  0
  7  8  1  0  0  0  0
  7  9  1  0  0  0  0
 33 34  1  0  0  0  0
 33 35  1  0  0  0  0
 33 36  1  0  0  0  0
 31 32  1  0  0  0  0
 31 33  1  0  0  0  0
M  CHG  1  20   1
M  END
$$$$
default_name
  -OEChem-02102213163D

 36 35  0     1  0  0  0  0  0999 V2000
   -4.2256   -3.6731    1.8584 H   0  0  0  0  0  0  0  0  0  0  0  0
   -4.2396   -2.6781    1.4144 C   0  0  0  0  0  0  0  0  0  0  0  0
   -4.9506   -2.0521    1.9514 H   0  0  0  0  0  0  0  0  0  0  0  0
   -4.5266   -2.7521    0.3674 H   0  0  0  0  0  0  0  0  0  0  0  0
   -2.8576   -2.0761    1.5184 C   0  0  0  0  0  0  0  0  0  0  0  0
   -1.9456   -2.7051    2.0404 O   0  0  0  0  0  0  0  0  0  0  0  0
   -2.6926   -0.8481    1.0174 N   0  0  0  0  0  0  0  0  0  0  0  0
   -3.4926   -0.3971    0.5954 H   0  0  0  0  0  0  0  0  0  0  0  0
   -1.4216   -0.1071    1.0434 C   0  0  1  0  0  0  0  0  0  0  0  0
   -0.6709   -0.6930    0.5106 H   0  0  0  0  0  0  0  0  0  0  0  0
   -1.6221    1.2315    0.3051 C   0  0  0  0  0  0  0  0  0  0  0  0
   -0.6748    1.5214   -0.1541 H   0  0  0  0  0  0  0  0  0  0  0  0
   -2.3567    1.0933   -0.4912 H   0  0  0  0  0  0  0  0  0  0  0  0
   -2.0824    2.3731    1.2233 C   0  0  0  0  0  0  0  0  0  0  0  0
   -1.4919    2.3698    2.1405 H   0  0  0  0  0  0  0  0  0  0  0  0
   -1.9462    3.3258    0.7105 H   0  0  0  0  0  0  0  0  0  0  0  0
   -3.5644    2.1923    1.5790 C   0  0  0  0  0  0  0  0  0  0  0  0
   -4.1448    2.1699    0.6538 H   0  0  0  0  0  0  0  0  0  0  0  0
   -3.6843    1.2359    2.0935 H   0  0  0  0  0  0  0  0  0  0  0  0
   -4.0578    3.2836    2.4440 N   0  3  0  0  0  0  0  0  0  0  0  0
   -3.3833    3.9715    2.7324 H   0  0  0  0  0  0  0  0  0  0  0  0
   -5.2990    3.4405    2.8729 C   0  0  0  0  0  0  0  0  0  0  0  0
   -6.2513    2.6075    2.5592 N   0  0  0  0  0  0  0  0  0  0  0  0
   -6.0333    1.8226    1.9712 H   0  0  0  0  0  0  0  0  0  0  0  0
   -7.1880    2.7410    2.8935 H   0  0  0  0  0  0  0  0  0  0  0  0
   -5.6108    4.4494    3.6359 N   0  0  0  0  0  0  0  0  0  0  0  0
   -4.9103    5.1188    3.9046 H   0  0  0  0  0  0  0  0  0  0  0  0
   -6.5536    4.5648    3.9590 H   0  0  0  0  0  0  0  0  0  0  0  0
   -0.9523    0.1012    2.4848 C   0  0  0  0  0  0  0  0  0  0  0  0
    0.2133   -0.1319    2.7814 O   0  0  0  0  0  0  0  0  0  0  0  0
   -1.8684    0.5006    3.3725 N   0  0  0  0  0  0  0  0  0  0  0  0
   -2.7946    0.7048    3.0343 H   0  0  0  0  0  0  0  0  0  0  0  0
   -1.5848    0.7472    4.7873 C   0  0  0  0  0  0  0  0  0  0  0  0
   -0.8819    1.5774    4.8838 H   0  0  0  0  0  0  0  0  0  0  0  0
   -2.5030    0.9948    5.3214 H   0  0  0  0  0  0  0  0  0  0  0  0
   -1.1344   -0.1399    5.2381 H   0  0  0  0  0  0  0  0  0  0  0  0
  5  6  2  0  0  0  0
  5  7  1  0  0  0  0
  2  3  1  0  0  0  0
  2  4  1  0  0  0  0
  2  5  1  0  0  0  0
  1  2  1  0  0  0  0
 29 30  2  0  0  0  0
 29 31  1  0  0  0  0
 26 27  1  0  0  0  0
 26 28  1  0  0  0  0
 23 24  1  0  0  0  0
 23 25  1  0  0  0  0
 22 23  1  0  0  0  0
 22 26  1  0  0  0  0
 20 21  1  0  0  0  0
 20 22  2  0  0  0  0
 17 18  1  0  0  0  0
 17 19  1  0  0  0  0
 17 20  1  0  0  0  0
 14 15  1  0  0  0  0
 14 16  1  0  0  0  0
 14 17  1  0  0  0  0
 11 12  1  0  0  0  0
 11 13  1  0  0  0  0
 11 14  1  0  0  0  0
  9 10  1  0  0  0  0
  9 11  1  0  0  0  0
  9 29  1  0  0  0  0
  7  8  1  0  0  0  0
  7  9  1  0  0  0  0
 33 34  1  0  0  0  0
 33 35  1  0  0  0  0
 33 36  1  0  0  0  0
 31 32  1  0  0  0  0
 31 33  1  0  0  0  0
M  CHG  1  20   1
M  END
$$$$
default_name
  -OEChem-02102213163D

 36 35  0     1  0  0  0  0  0999 V2000
   -4.2256   -3.6731    1.8584 H   0  0  0  0  0  0  0  0  0  0  0  0
   -4.2396   -2.6781    1.4144 C   0  0  0  0  0  0  0  0  0  0  0  0
   -4.9506   -2.0521    1.9514 H   0  0  0  0  0  0  0  0  0  0  0  0
   -4.5266   -2.7521    0.3674 H   0  0  0  0  0  0  0  0  0  0  0  0
   -2.8576   -2.0761    1.5184 C   0  0  0  0  0  0  0  0  0  0  0  0
   -1.9456   -2.7051    2.0404 O   0  0  0  0  0  0  0  0  0  0  0  0
   -2.6926   -0.8481    1.0174 N   0  0  0  0  0  0  0  0  0  0  0  0
   -3.4926   -0.3971    0.5954 H   0  0  0  0  0  0  0  0  0  0  0  0
   -1.4216   -0.1071    1.0434 C   0  0  1  0  0  0  0  0  0  0  0  0
   -0.6709   -0.6930    0.5106 H   0  0  0  0  0  0  0  0  0  0  0  0
   -1.6221    1.2315    0.3051 C   0  0  0  0  0  0  0  0  0  0  0  0
   -0.6748    1.5214   -0.1541 H   0  0  0  0  0  0  0  0  0  0  0  0
   -2.3567    1.0933   -0.4912 H   0  0  0  0  0  0  0  0  0  0  0  0
   -2.0824    2.3731    1.2233 C   0  0  0  0  0  0  0  0  0  0  0  0
   -1.3388    2.5418    2.0034 H   0  0  0  0  0  0  0  0  0  0  0  0
   -2.2006    3.2837    0.6352 H   0  0  0  0  0  0  0  0  0  0  0  0
   -3.4228    2.0099    1.8767 C   0  0  0  0  0  0  0  0  0  0  0  0
   -4.1540    1.8167    1.0883 H   0  0  0  0  0  0  0  0  0  0  0  0
   -3.2879    1.0982    2.4635 H   0  0  0  0  0  0  0  0  0  0  0  0
   -3.9170    3.0922    2.7526 N   0  3  0  0  0  0  0  0  0  0  0  0
   -3.3213    3.8956    2.8578 H   0  0  0  0  0  0  0  0  0  0  0  0
   -5.0652    3.1039    3.4087 C   0  0  0  0  0  0  0  0  0  0  0  0
   -5.9112    2.1144    3.3429 N   0  0  0  0  0  0  0  0  0  0  0  0
   -5.6820    1.3189    2.7735 H   0  0  0  0  0  0  0  0  0  0  0  0
   -6.7782    2.1390    3.8475 H   0  0  0  0  0  0  0  0  0  0  0  0
   -5.3890    4.1223    4.1538 N   0  0  0  0  0  0  0  0  0  0  0  0
   -4.7689    4.9095    4.2358 H   0  0  0  0  0  0  0  0  0  0  0  0
   -6.2611    4.1271    4.6499 H   0  0  0  0  0  0  0  0  0  0  0  0
   -0.9523    0.1012    2.4848 C   0  0  0  0  0  0  0  0  0  0  0  0
    0.2133   -0.1319    2.7814 O   0  0  0  0  0  0  0  0  0  0  0  0
   -1.8684    0.5006    3.3725 N   0  0  0  0  0  0  0  0  0  0  0  0
   -2.7946    0.7048    3.0343 H   0  0  0  0  0  0  0  0  0  0  0  0
   -1.5848    0.7472    4.7873 C   0  0  0  0  0  0  0  0  0  0  0  0
   -0.8819    1.5774    4.8838 H   0  0  0  0  0  0  0  0  0  0  0  0
   -2.5030    0.9948    5.3214 H   0  0  0  0  0  0  0  0  0  0  0  0
   -1.1344   -0.1399    5.2381 H   0  0  0  0  0  0  0  0  0  0  0  0
  5  6  2  0  0  0  0
  5  7  1  0  0  0  0
  2  3  1  0  0  0  0
  2  4  1  0  0  0  0
  2  5  1  0  0  0  0
  1  2  1  0  0  0  0
 29 30  2  0  0  0  0
 29 31  1  0  0  0  0
 26 27  1  0  0  0  0
 26 28  1  0  0  0  0
 23 24  1  0  0  0  0
 23 25  1  0  0  0  0
 22 23  1  0  0  0  0
 22 26  1  0  0  0  0
 20 21  1  0  0  0  0
 20 22  2  0  0  0  0
 17 18  1  0  0  0  0
 17 19  1  0  0  0  0
 17 20  1  0  0  0  0
 14 15  1  0  0  0  0
 14 16  1  0  0  0  0
 14 17  1  0  0  0  0
 11 12  1  0  0  0  0
 11 13  1  0  0  0  0
 11 14  1  0  0  0  0
  9 10  1  0  0  0  0
  9 11  1  0  0  0  0
  9 29  1  0  0  0  0
  7  8  1  0  0  0  0
  7  9  1  0  0  0  0
 33 34  1  0  0  0  0
 33 35  1  0  0  0  0
 33 36  1  0  0  0  0
 31 32  1  0  0  0  0
 31 33  1  0  0  0  0
M  CHG  1  20   1
M  END
$$$$
default_name
  -OEChem-02102213163D

 36 35  0     1  0  0  0  0  0999 V2000
   -4.2256   -3.6731    1.8584 H   0  0  0  0  0  0  0  0  0  0  0  0
   -4.2396   -2.6781    1.4144 C   0  0  0  0  0  0  0  0  0  0  0  0
   -4.9506   -2.0521    1.9514 H   0  0  0  0  0  0  0  0  0  0  0  0
   -4.5266   -2.7521    0.3674 H   0  0  0  0  0  0  0  0  0  0  0  0
   -2.8576   -2.0761    1.5184 C   0  0  0  0  0  0  0  0  0  0  0  0
   -1.9456   -2.7051    2.0404 O   0  0  0  0  0  0  0  0  0  0  0  0
   -2.6926   -0.8481    1.0174 N   0  0  0  0  0  0  0  0  0  0  0  0
   -3.4926   -0.3971    0.5954 H   0  0  0  0  0  0  0  0  0  0  0  0
   -1.4216   -0.1071    1.0434 C   0  0  1  0  0  0  0  0  0  0  0  0
   -0.6709   -0.6930    0.5106 H   0  0  0  0  0  0  0  0  0  0  0  0
   -1.6221    1.2315    0.3051 C   0  0  0  0  0  0  0  0  0  0  0  0
   -0.6748    1.5214   -0.1541 H   0  0  0  0  0  0  0  0  0  0  0  0
   -2.3567    1.0933   -0.4912 H   0  0  0  0  0  0  0  0  0  0  0  0
   -2.0824    2.3731    1.2233 C   0  0  0  0  0  0  0  0  0  0  0  0
   -1.2439    2.7210    1.8282 H   0  0  0  0  0  0  0  0  0  0  0  0
   -2.4544    3.1979    0.6147 H   0  0  0  0  0  0  0  0  0  0  0  0
   -3.2006    1.8788    2.1511 C   0  0  0  0  0  0  0  0  0  0  0  0
   -4.0246    1.5079    1.5373 H   0  0  0  0  0  0  0  0  0  0  0  0
   -2.8125    1.0553    2.7552 H   0  0  0  0  0  0  0  0  0  0  0  0
   -3.6919    2.9531    3.0384 N   0  3  0  0  0  0  0  0  0  0  0  0
   -3.2256    3.8417    2.9729 H   0  0  0  0  0  0  0  0  0  0  0  0
   -4.6842    2.8565    3.9073 C   0  0  0  0  0  0  0  0  0  0  0  0
   -5.3556    1.7515    4.0727 N   0  0  0  0  0  0  0  0  0  0  0  0
   -5.1105    0.9491    3.5200 H   0  0  0  0  0  0  0  0  0  0  0  0
   -6.1057    1.6949    4.7368 H   0  0  0  0  0  0  0  0  0  0  0  0
   -5.0245    3.8808    4.6369 N   0  0  0  0  0  0  0  0  0  0  0  0
   -4.5361    4.7549    4.5448 H   0  0  0  0  0  0  0  0  0  0  0  0
   -5.7779    3.8032    5.2948 H   0  0  0  0  0  0  0  0  0  0  0  0
   -0.9523    0.1012    2.4848 C   0  0  0  0  0  0  0  0  0  0  0  0
    0.2133   -0.1319    2.7814 O   0  0  0  0  0  0  0  0  0  0  0  0
   -1.8684    0.5006    3.3725 N   0  0  0  0  0  0  0  0  0  0  0  0
   -2.7946    0.7048    3.0343 H   0  0  0  0  0  0  0  0  0  0  0  0
   -1.5848    0.7472    4.7873 C   0  0  0  0  0  0  0  0  0  0  0  0
   -0.8819    1.5774    4.8838 H   0  0  0  0  0  0  0  0  0  0  0  0
   -2.5030    0.9948    5.3214 H   0  0  0  0  0  0  0  0  0  0  0  0
   -1.1344   -0.1399    5.2381 H   0  0  0  0  0  0  0  0  0  0  0  0
  5  6  2  0  0  0  0
  5  7  1  0  0  0  0
  2  3  1  0  0  0  0
  2  4  1  0  0  0  0
  2  5  1  0  0  0  0
  1  2  1  0  0  0  0
 29 30  2  0  0  0  0
 29 31  1  0  0  0  0
 26 27  1  0  0  0  0
 26 28  1  0  0  0  0
 23 24  1  0  0  0  0
 23 25  1  0  0  0  0
 22 23  1  0  0  0  0
 22 26  1  0  0  0  0
 20 21  1  0  0  0  0
 20 22  2  0  0  0  0
 17 18  1  0  0  0  0
 17 19  1  0  0  0  0
 17 20  1  0  0  0  0
 14 15  1  0  0  0  0
 14 16  1  0  0  0  0
 14 17  1  0  0  0  0
 11 12  1  0  0  0  0
 11 13  1  0  0  0  0
 11 14  1  0  0  0  0
  9 10  1  0  0  0  0
  9 11  1  0  0  0  0
  9 29  1  0  0  0  0
  7  8  1  0  0  0  0
  7  9  1  0  0  0  0
 33 34  1  0  0  0  0
 33 35  1  0  0  0  0
 33 36  1  0  0  0  0
 31 32  1  0  0  0  0
 31 33  1  0  0  0  0
M  CHG  1  20   1
M  END
$$$$
default_name
  -OEChem-02102213163D

 36 35  0     1  0  0  0  0  0999 V2000
   -4.2256   -3.6731    1.8584 H   0  0  0  0  0  0  0  0  0  0  0  0
   -4.2396   -2.6781    1.4144 C   0  0  0  0  0  0  0  0  0  0  0  0
   -4.9506   -2.0521    1.9514 H   0  0  0  0  0  0  0  0  0  0  0  0
   -4.5266   -2.7521    0.3674 H   0  0  0  0  0  0  0  0  0  0  0  0
   -2.8576   -2.0761    1.5184 C   0  0  0  0  0  0  0  0  0  0  0  0
   -1.9456   -2.7051    2.0404 O   0  0  0  0  0  0  0  0  0  0  0  0
   -2.6926   -0.8481    1.0174 N   0  0  0  0  0  0  0  0  0  0  0  0
   -3.4926   -0.3971    0.5954 H   0  0  0  0  0  0  0  0  0  0  0  0
   -1.4216   -0.1071    1.0434 C   0  0  1  0  0  0  0  0  0  0  0  0
   -0.6709   -0.6930    0.5106 H   0  0  0  0  0  0  0  0  0  0  0  0
   -1.6221    1.2315    0.3051 C   0  0  0  0  0  0  0  0  0  0  0  0
   -0.6748    1.5214   -0.1541 H   0  0  0  0  0  0  0  0  0  0  0  0
   -2.3567    1.0933   -0.4912 H   0  0  0  0  0  0  0  0  0  0  0  0
   -2.0824    2.3731    1.2233 C   0  0  0  0  0  0  0  0  0  0  0  0
   -1.2137    2.8952    1.6268 H   0  0  0  0  0  0  0  0  0  0  0  0
   -2.6901    3.0742    0.6503 H   0  0  0  0  0  0  0  0  0  0  0  0
   -2.9128    1.8078    2.3837 C   0  0  0  0  0  0  0  0  0  0  0  0
   -3.7654    1.2644    1.9700 H   0  0  0  0  0  0  0  0  0  0  0  0
   -2.2905    1.1100    2.9489 H   0  0  0  0  0  0  0  0  0  0  0  0
   -3.3980    2.8758    3.2819 N   0  3  0  0  0  0  0  0  0  0  0  0
   -3.1026    3.8133    3.0698 H   0  0  0  0  0  0  0  0  0  0  0  0
   -4.1820    2.7152    4.3349 C   0  0  0  0  0  0  0  0  0  0  0  0
   -4.6224    1.5435    4.6989 N   0  0  0  0  0  0  0  0  0  0  0  0
   -4.3575    0.7382    4.1597 H   0  0  0  0  0  0  0  0  0  0  0  0
   -5.2163    1.4390    5.5009 H   0  0  0  0  0  0  0  0  0  0  0  0
   -4.5421    3.7415    5.0520 N   0  0  0  0  0  0  0  0  0  0  0  0
   -4.2279    4.6655    4.8104 H   0  0  0  0  0  0  0  0  0  0  0  0
   -5.1370    3.6152    5.8500 H   0  0  0  0  0  0  0  0  0  0  0  0
   -0.9523    0.1012    2.4848 C   0  0  0  0  0  0  0  0  0  0  0  0
    0.2133   -0.1319    2.7814 O   0  0  0  0  0  0  0  0  0  0  0  0
   -1.8684    0.5006    3.3725 N   0  0  0  0  0  0  0  0  0  0  0  0
   -2.7946    0.7048    3.0343 H   0  0  0  0  0  0  0  0  0  0  0  0
   -1.5848    0.7472    4.7873 C   0  0  0  0  0  0  0  0  0  0  0  0
   -0.8819    1.5774    4.8838 H   0  0  0  0  0  0  0  0  0  0  0  0
   -2.5030    0.9948    5.3214 H   0  0  0  0  0  0  0  0  0  0  0  0
   -1.1344   -0.1399    5.2381 H   0  0  0  0  0  0  0  0  0  0  0  0
  5  6  2  0  0  0  0
  5  7  1  0  0  0  0
  2  3  1  0  0  0  0
  2  4  1  0  0  0  0
  2  5  1  0  0  0  0
  1  2  1  0  0  0  0
 29 30  2  0  0  0  0
 29 31  1  0  0  0  0
 26 27  1  0  0  0  0
 26 28  1  0  0  0  0
 23 24  1  0  0  0  0
 23 25  1  0  0  0  0
 22 23  1  0  0  0  0
 22 26  1  0  0  0  0
 20 21  1  0  0  0  0
 20 22  2  0  0  0  0
 17 18  1  0  0  0  0
 17 19  1  0  0  0  0
 17 20  1  0  0  0  0
 14 15  1  0  0  0  0
 14 16  1  0  0  0  0
 14 17  1  0  0  0  0
 11 12  1  0  0  0  0
 11 13  1  0  0  0  0
 11 14  1  0  0  0  0
  9 10  1  0  0  0  0
  9 11  1  0  0  0  0
  9 29  1  0  0  0  0
  7  8  1  0  0  0  0
  7  9  1  0  0  0  0
 33 34  1  0  0  0  0
 33 35  1  0  0  0  0
 33 36  1  0  0  0  0
 31 32  1  0  0  0  0
 31 33  1  0  0  0  0
M  CHG  1  20   1
M  END
$$$$
default_name
  -OEChem-02102213163D

 36 35  0     1  0  0  0  0  0999 V2000
   -4.2256   -3.6731    1.8584 H   0  0  0  0  0  0  0  0  0  0  0  0
   -4.2396   -2.6781    1.4144 C   0  0  0  0  0  0  0  0  0  0  0  0
   -4.9506   -2.0521    1.9514 H   0  0  0  0  0  0  0  0  0  0  0  0
   -4.5266   -2.7521    0.3674 H   0  0  0  0  0  0  0  0  0  0  0  0
   -2.8576   -2.0761    1.5184 C   0  0  0  0  0  0  0  0  0  0  0  0
   -1.9456   -2.7051    2.0404 O   0  0  0  0  0  0  0  0  0  0  0  0
   -2.6926   -0.8481    1.0174 N   0  0  0  0  0  0  0  0  0  0  0  0
   -3.4926   -0.3971    0.5954 H   0  0  0  0  0  0  0  0  0  0  0  0
   -1.4216   -0.1071    1.0434 C   0  0  1  0  0  0  0  0  0  0  0  0
   -0.6709   -0.6930    0.5106 H   0  0  0  0  0  0  0  0  0  0  0  0
   -1.6221    1.2315    0.3051 C   0  0  0  0  0  0  0  0  0  0  0  0
   -0.6748    1.5214   -0.1541 H   0  0  0  0  0  0  0  0  0  0  0  0
   -2.3567    1.0933   -0.4912 H   0  0  0  0  0  0  0  0  0  0  0  0
   -2.0824    2.3731    1.2233 C   0  0  0  0  0  0  0  0  0  0  0  0
   -1.2503    3.0525    1.4129 H   0  0  0  0  0  0  0  0  0  0  0  0
   -2.8918    2.9209    0.7397 H   0  0  0  0  0  0  0  0  0  0  0  0
   -2.5791    1.8019    2.5584 C   0  0  0  0  0  0  0  0  0  0  0  0
   -3.3941    1.1029    2.3569 H   0  0  0  0  0  0  0  0  0  0  0  0
   -1.7576    1.2587    3.0313 H   0  0  0  0  0  0  0  0  0  0  0  0
   -3.0553    2.8654    3.4666 N   0  3  0  0  0  0  0  0  0  0  0  0
   -2.9608    3.8125    3.1420 H   0  0  0  0  0  0  0  0  0  0  0  0
   -3.5927    2.6896    4.6622 C   0  0  0  0  0  0  0  0  0  0  0  0
   -3.7614    1.5047    5.1788 N   0  0  0  0  0  0  0  0  0  0  0  0
   -3.4745    0.7006    4.6492 H   0  0  0  0  0  0  0  0  0  0  0  0
   -4.1705    1.3888    6.0877 H   0  0  0  0  0  0  0  0  0  0  0  0
   -3.9747    3.7137    5.3710 N   0  0  0  0  0  0  0  0  0  0  0  0
   -3.8653    4.6475    5.0146 H   0  0  0  0  0  0  0  0  0  0  0  0
   -4.3820    3.5759    6.2775 H   0  0  0  0  0  0  0  0  0  0  0  0
   -0.9523    0.1012    2.4848 C   0  0  0  0  0  0  0  0  0  0  0  0
    0.2133   -0.1319    2.7814 O   0  0  0  0  0  0  0  0  0  0  0  0
   -1.8684    0.5006    3.3725 N   0  0  0  0  0  0  0  0  0  0  0  0
   -2.7946    0.7048    3.0343 H   0  0  0  0  0  0  0  0  0  0  0  0
   -1.5848    0.7472    4.7873 C   0  0  0  0  0  0  0  0  0  0  0  0
   -0.8819    1.5774    4.8838 H   0  0  0  0  0  0  0  0  0  0  0  0
   -2.5030    0.9948    5.3214 H   0  0  0  0  0  0  0  0  0  0  0  0
   -1.1344   -0.1399    5.2381 H   0  0  0  0  0  0  0  0  0  0  0  0
  5  6  2  0  0  0  0
  5  7  1  0  0  0  0
  2  3  1  0  0  0  0
  2  4  1  0  0  0  0
  2  5  1  0  0  0  0
  1  2  1  0  0  0  0
 29 30  2  0  0  0  0
 29 31  1  0  0  0  0
 26 27  1  0  0  0  0
 26 28  1  0  0  0  0
 23 24  1  0  0  0  0
 23 25  1  0  0  0  0
 22 23  1  0  0  0  0
 22 26  1  0  0  0  0
 20 21  1  0  0  0  0
 20 22  2  0  0  0  0
 17 18  1  0  0  0  0
 17 19  1  0  0  0  0
 17 20  1  0  0  0  0
 14 15  1  0  0  0  0
 14 16  1  0  0  0  0
 14 17  1  0  0  0  0
 11 12  1  0  0  0  0
 11 13  1  0  0  0  0
 11 14  1  0  0  0  0
  9 10  1  0  0  0  0
  9 11  1  0  0  0  0
  9 29  1  0  0  0  0
  7  8  1  0  0  0  0
  7  9  1  0  0  0  0
 33 34  1  0  0  0  0
 33 35  1  0  0  0  0
 33 36  1  0  0  0  0
 31 32  1  0  0  0  0
 31 33  1  0  0  0  0
M  CHG  1  20   1
M  END
$$$$
default_name
  -OEChem-02102213163D

 36 35  0     1  0  0  0  0  0999 V2000
   -4.2256   -3.6731    1.8584 H   0  0  0  0  0  0  0  0  0  0  0  0
   -4.2396   -2.6781    1.4144 C   0  0  0  0  0  0  0  0  0  0  0  0
   -4.9506   -2.0521    1.9514 H   0  0  0  0  0  0  0  0  0  0  0  0
   -4.5266   -2.7521    0.3674 H   0  0  0  0  0  0  0  0  0  0  0  0
   -2.8576   -2.0761    1.5184 C   0  0  0  0  0  0  0  0  0  0  0  0
   -1.9456   -2.7051    2.0404 O   0  0  0  0  0  0  0  0  0  0  0  0
   -2.6926   -0.8481    1.0174 N   0  0  0  0  0  0  0  0  0  0  0  0
   -3.4926   -0.3971    0.5954 H   0  0  0  0  0  0  0  0  0  0  0  0
   -1.4216   -0.1071    1.0434 C   0  0  1  0  0  0  0  0  0  0  0  0
   -0.6709   -0.6930    0.5106 H   0  0  0  0  0  0  0  0  0  0  0  0
   -1.6221    1.2315    0.3051 C   0  0  0  0  0  0  0  0  0  0  0  0
   -0.6748    1.5214   -0.1541 H   0  0  0  0  0  0  0  0  0  0  0  0
   -2.3567    1.0933   -0.4912 H   0  0  0  0  0  0  0  0  0  0  0  0
   -2.0824    2.3731    1.2233 C   0  0  0  0  0  0  0  0  0  0  0  0
   -1.3511    3.1822    1.2011 H   0  0  0  0  0  0  0  0  0  0  0  0
   -3.0458    2.7486    0.8768 H   0  0  0  0  0  0  0  0  0  0  0  0
   -2.2223    1.8613    2.6634 C   0  0  0  0  0  0  0  0  0  0  0  0
   -2.9360    1.0343    2.6718 H   0  0  0  0  0  0  0  0  0  0  0  0
   -1.2499    1.4911    2.9968 H   0  0  0  0  0  0  0  0  0  0  0  0
   -2.6872    2.9228    3.5799 N   0  3  0  0  0  0  0  0  0  0  0  0
   -2.8098    3.8392    3.1844 H   0  0  0  0  0  0  0  0  0  0  0  0
   -2.9566    2.7814    4.8669 C   0  0  0  0  0  0  0  0  0  0  0  0
   -2.8315    1.6377    5.4798 N   0  0  0  0  0  0  0  0  0  0  0  0
   -2.5216    0.8390    4.9550 H   0  0  0  0  0  0  0  0  0  0  0  0
   -3.0398    1.5477    6.4572 H   0  0  0  0  0  0  0  0  0  0  0  0
   -3.3610    3.7995    5.5721 N   0  0  0  0  0  0  0  0  0  0  0  0
   -3.4729    4.7021    5.1435 H   0  0  0  0  0  0  0  0  0  0  0  0
   -3.5643    3.6878    6.5482 H   0  0  0  0  0  0  0  0  0  0  0  0
   -0.9523    0.1012    2.4848 C   0  0  0  0  0  0  0  0  0  0  0  0
    0.2133   -0.1319    2.7814 O   0  0  0  0  0  0  0  0  0  0  0  0
   -1.8684    0.5006    3.3725 N   0  0  0  0  0  0  0  0  0  0  0  0
   -2.7946    0.7048    3.0343 H   0  0  0  0  0  0  0  0  0  0  0  0
   -1.5848    0.7472    4.7873 C   0  0  0  0  0  0  0  0  0  0  0  0
   -0.8819    1.5774    4.8838 H   0  0  0  0  0  0  0  0  0  0  0  0
   -2.5030    0.9948    5.3214 H   0  0  0  0  0  0  0  0  0  0  0  0
   -1.1344   -0.1399    5.2381 H   0  0  0  0  0  0  0  0  0  0  0  0
  5  6  2  0  0  0  0
  5  7  1  0  0  0  0
  2  3  1  0  0  0  0
  2  4  1  0  0  0  0
  2  5  1  0  0  0  0
  1  2  1  0  0  0  0
 29 30  2  0  0  0  0
 29 31  1  0  0  0  0
 26 27  1  0  0  0  0
 26 28  1  0  0  0  0
 23 24  1  0  0  0  0
 23 25  1  0  0  0  0
 22 23  1  0  0  0  0
 22 26  1  0  0  0  0
 20 21  1  0  0  0  0
 20 22  2  0  0  0  0
 17 18  1  0  0  0  0
 17 19  1  0  0  0  0
 17 20  1  0  0  0  0
 14 15  1  0  0  0  0
 14 16  1  0  0  0  0
 14 17  1  0  0  0  0
 11 12  1  0  0  0  0
 11 13  1  0  0  0  0
 11 14  1  0  0  0  0
  9 10  1  0  0  0  0
  9 11  1  0  0  0  0
  9 29  1  0  0  0  0
  7  8  1  0  0  0  0
  7  9  1  0  0  0  0
 33 34  1  0  0  0  0
 33 35  1  0  0  0  0
 33 36  1  0  0  0  0
 31 32  1  0  0  0  0
 31 33  1  0  0  0  0
M  CHG  1  20   1
M  END
$$$$
default_name
  -OEChem-02102213163D

 36 35  0     1  0  0  0  0  0999 V2000
   -4.2256   -3.6731    1.8584 H   0  0  0  0  0  0  0  0  0  0  0  0
   -4.2396   -2.6781    1.4144 C   0  0  0  0  0  0  0  0  0  0  0  0
   -4.9506   -2.0521    1.9514 H   0  0  0  0  0  0  0  0  0  0  0  0
   -4.5266   -2.7521    0.3674 H   0  0  0  0  0  0  0  0  0  0  0  0
   -2.8576   -2.0761    1.5184 C   0  0  0  0  0  0  0  0  0  0  0  0
   -1.9456   -2.7051    2.0404 O   0  0  0  0  0  0  0  0  0  0  0  0
   -2.6926   -0.8481    1.0174 N   0  0  0  0  0  0  0  0  0  0  0  0
   -3.4926   -0.3971    0.5954 H   0  0  0  0  0  0  0  0  0  0  0  0
   -1.4216   -0.1071    1.0434 C   0  0  1  0  0  0  0  0  0  0  0  0
   -0.6709   -0.6930    0.5106 H   0  0  0  0  0  0  0  0  0  0  0  0
   -1.6221    1.2315    0.3051 C   0  0  0  0  0  0  0  0  0  0  0  0
   -0.6748    1.5214   -0.1541 H   0  0  0  0  0  0  0  0  0  0  0  0
   -2.3567    1.0933   -0.4912 H   0  0  0  0  0  0  0  0  0  0  0  0
   -2.0824    2.3731    1.2233 C   0  0  0  0  0  0  0  0  0  0  0  0
   -1.5092    3.2754    1.0059 H   0  0  0  0  0  0  0  0  0  0  0  0
   -3.1414    2.5690    1.0521 H   0  0  0  0  0  0  0  0  0  0  0  0
   -1.8666    1.9821    2.6916 C   0  0  0  0  0  0  0  0  0  0  0  0
   -2.4224    1.0635    2.8932 H   0  0  0  0  0  0  0  0  0  0  0  0
   -0.8021    1.7916    2.8478 H   0  0  0  0  0  0  0  0  0  0  0  0
   -2.3186    3.0440    3.6140 N   0  3  0  0  0  0  0  0  0  0  0  0
   -2.6599    3.8917    3.1943 H   0  0  0  0  0  0  0  0  0  0  0  0
   -2.3170    2.9844    4.9352 C   0  0  0  0  0  0  0  0  0  0  0  0
   -1.8959    1.9334    5.5812 N   0  0  0  0  0  0  0  0  0  0  0  0
   -1.5637    1.1438    5.0562 H   0  0  0  0  0  0  0  0  0  0  0  0
   -1.9010    1.9047    6.5842 H   0  0  0  0  0  0  0  0  0  0  0  0
   -2.7427    3.9929    5.6416 N   0  0  0  0  0  0  0  0  0  0  0  0
   -3.0776    4.8255    5.1882 H   0  0  0  0  0  0  0  0  0  0  0  0
   -2.7398    3.9436    6.6437 H   0  0  0  0  0  0  0  0  0  0  0  0
   -0.9523    0.1012    2.4848 C   0  0  0  0  0  0  0  0  0  0  0  0
    0.2133   -0.1319    2.7814 O   0  0  0  0  0  0  0  0  0  0  0  0
   -1.8684    0.5006    3.3725 N   0  0  0  0  0  0  0  0  0  0  0  0
   -2.7946    0.7048    3.0343 H   0  0  0  0  0  0  0  0  0  0  0  0
   -1.5848    0.7472    4.7873 C   0  0  0  0  0  0  0  0  0  0  0  0
   -0.8819    1.5774    4.8838 H   0  0  0  0  0  0  0  0  0  0  0  0
   -2.5030    0.9948    5.3214 H   0  0  0  0  0  0  0  0  0  0  0  0
   -1.1344   -0.1399    5.2381 H   0  0  0  0  0  0  0  0  0  0  0  0
  5  6  2  0  0  0  0
  5  7  1  0  0  0  0
  2  3  1  0  0  0  0
  2  4  1  0  0  0  0
  2  5  1  0  0  0  0
  1  2  1  0  0  0  0
 29 30  2  0  0  0  0
 29 31  1  0  0  0  0
 26 27  1  0  0  0  0
 26 28  1  0  0  0  0
 23 24  1  0  0  0  0
 23 25  1  0  0  0  0
 22 23  1  0  0  0  0
 22 26  1  0  0  0  0
 20 21  1  0  0  0  0
 20 22  2  0  0  0  0
 17 18  1  0  0  0  0
 17 19  1  0  0  0  0
 17 20  1  0  0  0  0
 14 15  1  0  0  0  0
 14 16  1  0  0  0  0
 14 17  1  0  0  0  0
 11 12  1  0  0  0  0
 11 13  1  0  0  0  0
 11 14  1  0  0  0  0
  9 10  1  0  0  0  0
  9 11  1  0  0  0  0
  9 29  1  0  0  0  0
  7  8  1  0  0  0  0
  7  9  1  0  0  0  0
 33 34  1  0  0  0  0
 33 35  1  0  0  0  0
 33 36  1  0  0  0  0
 31 32  1  0  0  0  0
 31 33  1  0  0  0  0
M  CHG  1  20   1
M  END
$$$$
default_name
  -OEChem-02102213163D

 36 35  0     1  0  0  0  0  0999 V2000
   -4.2256   -3.6731    1.8584 H   0  0  0  0  0  0  0  0  0  0  0  0
   -4.2396   -2.6781    1.4144 C   0  0  0  0  0  0  0  0  0  0  0  0
   -4.9506   -2.0521    1.9514 H   0  0  0  0  0  0  0  0  0  0  0  0
   -4.5266   -2.7521    0.3674 H   0  0  0  0  0  0  0  0  0  0  0  0
   -2.8576   -2.0761    1.5184 C   0  0  0  0  0  0  0  0  0  0  0  0
   -1.9456   -2.7051    2.0404 O   0  0  0  0  0  0  0  0  0  0  0  0
   -2.6926   -0.8481    1.0174 N   0  0  0  0  0  0  0  0  0  0  0  0
   -3.4926   -0.3971    0.5954 H   0  0  0  0  0  0  0  0  0  0  0  0
   -1.4216   -0.1071    1.0434 C   0  0  1  0  0  0  0  0  0  0  0  0
   -0.6709   -0.6930    0.5106 H   0  0  0  0  0  0  0  0  0  0  0  0
   -1.6221    1.2315    0.3051 C   0  0  0  0  0  0  0  0  0  0  0  0
   -0.6748    1.5214   -0.1541 H   0  0  0  0  0  0  0  0  0  0  0  0
   -2.3567    1.0933   -0.4912 H   0  0  0  0  0  0  0  0  0  0  0  0
   -2.0824    2.3731    1.2233 C   0  0  0  0  0  0  0  0  0  0  0  0
   -1.7140    3.3259    0.8405 H   0  0  0  0  0  0  0  0  0  0  0  0
   -3.1723    2.3943    1.2539 H   0  0  0  0  0  0  0  0  0  0  0  0
   -1.5362    2.1560    2.6411 C   0  0  0  0  0  0  0  0  0  0  0  0
   -1.8881    1.1883    3.0059 H   0  0  0  0  0  0  0  0  0  0  0  0
   -0.4448    2.1395    2.5944 H   0  0  0  0  0  0  0  0  0  0  0  0
   -1.9748    3.2207    3.5667 N   0  3  0  0  0  0  0  0  0  0  0  0
   -2.5213    3.9664    3.1709 H   0  0  0  0  0  0  0  0  0  0  0  0
   -1.7175    3.2848    4.8623 C   0  0  0  0  0  0  0  0  0  0  0  0
   -1.0184    2.3717    5.4762 N   0  0  0  0  0  0  0  0  0  0  0  0
   -0.6662    1.5943    4.9461 H   0  0  0  0  0  0  0  0  0  0  0  0
   -0.8319    2.4357    6.4601 H   0  0  0  0  0  0  0  0  0  0  0  0
   -2.1621    4.2808    5.5748 N   0  0  0  0  0  0  0  0  0  0  0  0
   -2.7062    5.0094    5.1458 H   0  0  0  0  0  0  0  0  0  0  0  0
   -1.9646    4.3256    6.5575 H   0  0  0  0  0  0  0  0  0  0  0  0
   -0.9523    0.1012    2.4848 C   0  0  0  0  0  0  0  0  0  0  0  0
    0.2133   -0.1319    2.7814 O   0  0  0  0  0  0  0  0  0  0  0  0
   -1.8684    0.5006    3.3725 N   0  0  0  0  0  0  0  0  0  0  0  0
   -2.7946    0.7048    3.0343 H   0  0  0  0  0  0  0  0  0  0  0  0
   -1.5848    0.7472    4.7873 C   0  0  0  0  0  0  0  0  0  0  0  0
   -0.8819    1.5774    4.8838 H   0  0  0  0  0  0  0  0  0  0  0  0
   -2.5030    0.9948    5.3214 H   0  0  0  0  0  0  0  0  0  0  0  0
   -1.1344   -0.1399    5.2381 H   0  0  0  0  0  0  0  0  0  0  0  0
  5  6  2  0  0  0  0
  5  7  1  0  0  0  0
  2  3  1  0  0  0  0
  2  4  1  0  0  0  0
  2  5  1  0  0  0  0
  1  2  1  0  0  0  0
 29 30  2  0  0  0  0
 29 31  1  0  0  0  0
 26 27  1  0  0  0  0
 26 28  1  0  0  0  0
 23 24  1  0  0  0  0
 23 25  1  0  0  0  0
 22 23  1  0  0  0  0
 22 26  1  0  0  0  0
 20 21  1  0  0  0  0
 20 22  2  0  0  0  0
 17 18  1  0  0  0  0
 17 19  1  0  0  0  0
 17 20  1  0  0  0  0
 14 15  1  0  0  0  0
 14 16  1  0  0  0  0
 14 17  1  0  0  0  0
 11 12  1  0  0  0  0
 11 13  1  0  0  0  0
 11 14  1  0  0  0  0
  9 10  1  0  0  0  0
  9 11  1  0  0  0  0
  9 29  1  0  0  0  0
  7  8  1  0  0  0  0
  7  9  1  0  0  0  0
 33 34  1  0  0  0  0
 33 35  1  0  0  0  0
 33 36  1  0  0  0  0
 31 32  1  0  0  0  0
 31 33  1  0  0  0  0
M  CHG  1  20   1
M  END
$$$$
default_name
  -OEChem-02102213163D

 36 35  0     1  0  0  0  0  0999 V2000
   -4.2256   -3.6731    1.8584 H   0  0  0  0  0  0  0  0  0  0  0  0
   -4.2396   -2.6781    1.4144 C   0  0  0  0  0  0  0  0  0  0  0  0
   -4.9506   -2.0521    1.9514 H   0  0  0  0  0  0  0  0  0  0  0  0
   -4.5266   -2.7521    0.3674 H   0  0  0  0  0  0  0  0  0  0  0  0
   -2.8576   -2.0761    1.5184 C   0  0  0  0  0  0  0  0  0  0  0  0
   -1.9456   -2.7051    2.0404 O   0  0  0  0  0  0  0  0  0  0  0  0
   -2.6926   -0.8481    1.0174 N   0  0  0  0  0  0  0  0  0  0  0  0
   -3.4926   -0.3971    0.5954 H   0  0  0  0  0  0  0  0  0  0  0  0
   -1.4216   -0.1071    1.0434 C   0  0  1  0  0  0  0  0  0  0  0  0
   -0.6709   -0.6930    0.5106 H   0  0  0  0  0  0  0  0  0  0  0  0
   -1.6221    1.2315    0.3051 C   0  0  0  0  0  0  0  0  0  0  0  0
   -0.6748    1.5214   -0.1541 H   0  0  0  0  0  0  0  0  0  0  0  0
   -2.3567    1.0933   -0.4912 H   0  0  0  0  0  0  0  0  0  0  0  0
   -2.0824    2.3731    1.2233 C   0  0  0  0  0  0  0  0  0  0  0  0
   -1.9514    3.3301    0.7162 H   0  0  0  0  0  0  0  0  0  0  0  0
   -3.1362    2.2364    1.4682 H   0  0  0  0  0  0  0  0  0  0  0  0
   -1.2538    2.3711    2.5151 C   0  0  0  0  0  0  0  0  0  0  0  0
   -1.3697    1.4002    3.0023 H   0  0  0  0  0  0  0  0  0  0  0  0
   -0.2022    2.5112    2.2539 H   0  0  0  0  0  0  0  0  0  0  0  0
   -1.6792    3.4409    3.4411 N   0  3  0  0  0  0  0  0  0  0  0  0
   -2.4035    4.0582    3.1159 H   0  0  0  0  0  0  0  0  0  0  0  0
   -1.1989    3.6621    4.6532 C   0  0  0  0  0  0  0  0  0  0  0  0
   -0.2589    2.9227    5.1720 N   0  0  0  0  0  0  0  0  0  0  0  0
    0.1099    2.1599    4.6321 H   0  0  0  0  0  0  0  0  0  0  0  0
    0.0947    3.1045    6.0933 H   0  0  0  0  0  0  0  0  0  0  0  0
   -1.6586    4.6435    5.3762 N   0  0  0  0  0  0  0  0  0  0  0  0
   -2.3841    5.2412    5.0191 H   0  0  0  0  0  0  0  0  0  0  0  0
   -1.2915    4.8078    6.2954 H   0  0  0  0  0  0  0  0  0  0  0  0
   -0.9523    0.1012    2.4848 C   0  0  0  0  0  0  0  0  0  0  0  0
    0.2133   -0.1319    2.7814 O   0  0  0  0  0  0  0  0  0  0  0  0
   -1.8684    0.5006    3.3725 N   0  0  0  0  0  0  0  0  0  0  0  0
   -2.7946    0.7048    3.0343 H   0  0  0  0  0  0  0  0  0  0  0  0
   -1.5848    0.7472    4.7873 C   0  0  0  0  0  0  0  0  0  0  0  0
   -0.8819    1.5774    4.8838 H   0  0  0  0  0  0  0  0  0  0  0  0
   -2.5030    0.9948    5.3214 H   0  0  0  0  0  0  0  0  0  0  0  0
   -1.1344   -0.1399    5.2381 H   0  0  0  0  0  0  0  0  0  0  0  0
  5  6  2  0  0  0  0
  5  7  1  0  0  0  0
  2  3  1  0  0  0  0
  2  4  1  0  0  0  0
  2  5  1  0  0  0  0
  1  2  1  0  0  0  0
 29 30  2  0  0  0  0
 29 31  1  0  0  0  0
 26 27  1  0  0  0  0
 26 28  1  0  0  0  0
 23 24  1  0  0  0  0
 23 25  1  0  0  0  0
 22 23  1  0  0  0  0
 22 26  1  0  0  0  0
 20 21  1  0  0  0  0
 20 22  2  0  0  0  0
 17 18  1  0  0  0  0
 17 19  1  0  0  0  0
 17 20  1  0  0  0  0
 14 15  1  0  0  0  0
 14 16  1  0  0  0  0
 14 17  1  0  0  0  0
 11 12  1  0  0  0  0
 11 13  1  0  0  0  0
 11 14  1  0  0  0  0
  9 10  1  0  0  0  0
  9 11  1  0  0  0  0
  9 29  1  0  0  0  0
  7  8  1  0  0  0  0
  7  9  1  0  0  0  0
 33 34  1  0  0  0  0
 33 35  1  0  0  0  0
 33 36  1  0  0  0  0
 31 32  1  0  0  0  0
 31 33  1  0  0  0  0
M  CHG  1  20   1
M  END
$$$$
default_name
  -OEChem-02102213163D

 36 35  0     1  0  0  0  0  0999 V2000
   -4.2256   -3.6731    1.8584 H   0  0  0  0  0  0  0  0  0  0  0  0
   -4.2396   -2.6781    1.4144 C   0  0  0  0  0  0  0  0  0  0  0  0
   -4.9506   -2.0521    1.9514 H   0  0  0  0  0  0  0  0  0  0  0  0
   -4.5266   -2.7521    0.3674 H   0  0  0  0  0  0  0  0  0  0  0  0
   -2.8576   -2.0761    1.5184 C   0  0  0  0  0  0  0  0  0  0  0  0
   -1.9456   -2.7051    2.0404 O   0  0  0  0  0  0  0  0  0  0  0  0
   -2.6926   -0.8481    1.0174 N   0  0  0  0  0  0  0  0  0  0  0  0
   -3.4926   -0.3971    0.5954 H   0  0  0  0  0  0  0  0  0  0  0  0
   -1.4216   -0.1071    1.0434 C   0  0  1  0  0  0  0  0  0  0  0  0
   -0.6709   -0.6930    0.5106 H   0  0  0  0  0  0  0  0  0  0  0  0
   -1.6221    1.2315    0.3051 C   0  0  0  0  0  0  0  0  0  0  0  0
   -0.6748    1.5214   -0.1541 H   0  0  0  0  0  0  0  0  0  0  0  0
   -2.3567    1.0933   -0.4912 H   0  0  0  0  0  0  0  0  0  0  0  0
   -2.0824    2.3731    1.2233 C   0  0  0  0  0  0  0  0  0  0  0  0
   -2.2053    3.2877    0.6416 H   0  0  0  0  0  0  0  0  0  0  0  0
   -3.0357    2.1062    1.6806 H   0  0  0  0  0  0  0  0  0  0  0  0
   -1.0385    2.6129    2.3225 C   0  0  0  0  0  0  0  0  0  0  0  0
   -0.9025    1.6849    2.8826 H   0  0  0  0  0  0  0  0  0  0  0  0
   -0.0910    2.8813    1.8494 H   0  0  0  0  0  0  0  0  0  0  0  0
   -1.4519    3.6897    3.2458 N   0  3  0  0  0  0  0  0  0  0  0  0
   -2.3145    4.1607    3.0330 H   0  0  0  0  0  0  0  0  0  0  0  0
   -0.7965    4.0906    4.3223 C   0  0  0  0  0  0  0  0  0  0  0  0
    0.3309    3.5489    4.6892 N   0  0  0  0  0  0  0  0  0  0  0  0
    0.7115    2.8019    4.1356 H   0  0  0  0  0  0  0  0  0  0  0  0
    0.8158    3.8653    5.5088 H   0  0  0  0  0  0  0  0  0  0  0  0
   -1.2667    5.0564    5.0594 N   0  0  0  0  0  0  0  0  0  0  0  0
   -2.1332    5.5051    4.8168 H   0  0  0  0  0  0  0  0  0  0  0  0
   -0.7663    5.3575    5.8753 H   0  0  0  0  0  0  0  0  0  0  0  0
   -0.9523    0.1012    2.4848 C   0  0  0  0  0  0  0  0  0  0  0  0
    0.2133   -0.1319    2.7814 O   0  0  0  0  0  0  0  0  0  0  0  0
   -1.8684    0.5006    3.3725 N   0  0  0  0  0  0  0  0  0  0  0  0
   -2.7946    0.7048    3.0343 H   0  0  0  0  0  0  0  0  0  0  0  0
   -1.5848    0.7472    4.7873 C   0  0  0  0  0  0  0  0  0  0  0  0
   -0.8819    1.5774    4.8838 H   0  0  0  0  0  0  0  0  0  0  0  0
   -2.5030    0.9948    5.3214 H   0  0  0  0  0  0  0  0  0  0  0  0
   -1.1344   -0.1399    5.2381 H   0  0  0  0  0  0  0  0  0  0  0  0
  5  6  2  0  0  0  0
  5  7  1  0  0  0  0
  2  3  1  0  0  0  0
  2  4  1  0  0  0  0
  2  5  1  0  0  0  0
  1  2  1  0  0  0  0
 29 30  2  0  0  0  0
 29 31  1  0  0  0  0
 26 27  1  0  0  0  0
 26 28  1  0  0  0  0
 23 24  1  0  0  0  0
 23 25  1  0  0  0  0
 22 23  1  0  0  0  0
 22 26  1  0  0  0  0
 20 21  1  0  0  0  0
 20 22  2  0  0  0  0
 17 18  1  0  0  0  0
 17 19  1  0  0  0  0
 17 20  1  0  0  0  0
 14 15  1  0  0  0  0
 14 16  1  0  0  0  0
 14 17  1  0  0  0  0
 11 12  1  0  0  0  0
 11 13  1  0  0  0  0
 11 14  1  0  0  0  0
  9 10  1  0  0  0  0
  9 11  1  0  0  0  0
  9 29  1  0  0  0  0
  7  8  1  0  0  0  0
  7  9  1  0  0  0  0
 33 34  1  0  0  0  0
 33 35  1  0  0  0  0
 33 36  1  0  0  0  0
 31 32  1  0  0  0  0
 31 33  1  0  0  0  0
M  CHG  1  20   1
M  END
$$$$
default_name
  -OEChem-02102213163D

 36 35  0     1  0  0  0  0  0999 V2000
   -4.2256   -3.6731    1.8584 H   0  0  0  0  0  0  0  0  0  0  0  0
   -4.2396   -2.6781    1.4144 C   0  0  0  0  0  0  0  0  0  0  0  0
   -4.9506   -2.0521    1.9514 H   0  0  0  0  0  0  0  0  0  0  0  0
   -4.5266   -2.7521    0.3674 H   0  0  0  0  0  0  0  0  0  0  0  0
   -2.8576   -2.0761    1.5184 C   0  0  0  0  0  0  0  0  0  0  0  0
   -1.9456   -2.7051    2.0404 O   0  0  0  0  0  0  0  0  0  0  0  0
   -2.6926   -0.8481    1.0174 N   0  0  0  0  0  0  0  0  0  0  0  0
   -3.4926   -0.3971    0.5954 H   0  0  0  0  0  0  0  0  0  0  0  0
   -1.4216   -0.1071    1.0434 C   0  0  1  0  0  0  0  0  0  0  0  0
   -0.6709   -0.6930    0.5106 H   0  0  0  0  0  0  0  0  0  0  0  0
   -1.6221    1.2315    0.3051 C   0  0  0  0  0  0  0  0  0  0  0  0
   -0.6748    1.5214   -0.1541 H   0  0  0  0  0  0  0  0  0  0  0  0
   -2.3567    1.0933   -0.4912 H   0  0  0  0  0  0  0  0  0  0  0  0
   -2.0824    2.3731    1.2233 C   0  0  0  0  0  0  0  0  0  0  0  0
   -2.4583    3.2018    0.6216 H   0  0  0  0  0  0  0  0  0  0  0  0
   -2.8776    2.0123    1.8765 H   0  0  0  0  0  0  0  0  0  0  0  0
   -0.9050    2.8648    2.0762 C   0  0  0  0  0  0  0  0  0  0  0  0
   -0.5182    2.0229    2.6550 H   0  0  0  0  0  0  0  0  0  0  0  0
   -0.1186    3.2247    1.4086 H   0  0  0  0  0  0  0  0  0  0  0  0
   -1.3084    3.9499    2.9941 N   0  3  0  0  0  0  0  0  0  0  0  0
   -2.2604    4.2672    2.9278 H   0  0  0  0  0  0  0  0  0  0  0  0
   -0.5379    4.5410    3.8919 C   0  0  0  0  0  0  0  0  0  0  0  0
    0.7109    4.2075    4.0608 N   0  0  0  0  0  0  0  0  0  0  0  0
    1.0978    3.4765    3.4904 H   0  0  0  0  0  0  0  0  0  0  0  0
    1.2820    4.6665    4.7464 H   0  0  0  0  0  0  0  0  0  0  0  0
   -1.0129    5.4913    4.6459 N   0  0  0  0  0  0  0  0  0  0  0  0
   -1.9706    5.7832    4.5526 H   0  0  0  0  0  0  0  0  0  0  0  0
   -0.4250    5.9371    5.3258 H   0  0  0  0  0  0  0  0  0  0  0  0
   -0.9523    0.1012    2.4848 C   0  0  0  0  0  0  0  0  0  0  0  0
    0.2133   -0.1319    2.7814 O   0  0  0  0  0  0  0  0  0  0  0  0
   -1.8684    0.5006    3.3725 N   0  0  0  0  0  0  0  0  0  0  0  0
   -2.7946    0.7048    3.0343 H   0  0  0  0  0  0  0  0  0  0  0  0
   -1.5848    0.7472    4.7873 C   0  0  0  0  0  0  0  0  0  0  0  0
   -0.8819    1.5774    4.8838 H   0  0  0  0  0  0  0  0  0  0  0  0
   -2.5030    0.9948    5.3214 H   0  0  0  0  0  0  0  0  0  0  0  0
   -1.1344   -0.1399    5.2381 H   0  0  0  0  0  0  0  0  0  0  0  0
  5  6  2  0  0  0  0
  5  7  1  0  0  0  0
  2  3  1  0  0  0  0
  2  4  1  0  0  0  0
  2  5  1  0  0  0  0
  1  2  1  0  0  0  0
 29 30  2  0  0  0  0
 29 31  1  0  0  0  0
 26 27  1  0  0  0  0
 26 28  1  0  0  0  0
 23 24  1  0  0  0  0
 23 25  1  0  0  0  0
 22 23  1  0  0  0  0
 22 26  1  0  0  0  0
 20 21  1  0  0  0  0
 20 22  2  0  0  0  0
 17 18  1  0  0  0  0
 17 19  1  0  0  0  0
 17 20  1  0  0  0  0
 14 15  1  0  0  0  0
 14 16  1  0  0  0  0
 14 17  1  0  0  0  0
 11 12  1  0  0  0  0
 11 13  1  0  0  0  0
 11 14  1  0  0  0  0
  9 10  1  0  0  0  0
  9 11  1  0  0  0  0
  9 29  1  0  0  0  0
  7  8  1  0  0  0  0
  7  9  1  0  0  0  0
 33 34  1  0  0  0  0
 33 35  1  0  0  0  0
 33 36  1  0  0  0  0
 31 32  1  0  0  0  0
 31 33  1  0  0  0  0
M  CHG  1  20   1
M  END
$$$$
default_name
  -OEChem-02102213163D

 36 35  0     1  0  0  0  0  0999 V2000
   -4.2256   -3.6731    1.8584 H   0  0  0  0  0  0  0  0  0  0  0  0
   -4.2396   -2.6781    1.4144 C   0  0  0  0  0  0  0  0  0  0  0  0
   -4.9506   -2.0521    1.9514 H   0  0  0  0  0  0  0  0  0  0  0  0
   -4.5266   -2.7521    0.3674 H   0  0  0  0  0  0  0  0  0  0  0  0
   -2.8576   -2.0761    1.5184 C   0  0  0  0  0  0  0  0  0  0  0  0
   -1.9456   -2.7051    2.0404 O   0  0  0  0  0  0  0  0  0  0  0  0
   -2.6926   -0.8481    1.0174 N   0  0  0  0  0  0  0  0  0  0  0  0
   -3.4926   -0.3971    0.5954 H   0  0  0  0  0  0  0  0  0  0  0  0
   -1.4216   -0.1071    1.0434 C   0  0  1  0  0  0  0  0  0  0  0  0
   -0.6709   -0.6930    0.5106 H   0  0  0  0  0  0  0  0  0  0  0  0
   -1.6221    1.2315    0.3051 C   0  0  0  0  0  0  0  0  0  0  0  0
   -0.6748    1.5214   -0.1541 H   0  0  0  0  0  0  0  0  0  0  0  0
   -2.3567    1.0933   -0.4912 H   0  0  0  0  0  0  0  0  0  0  0  0
   -2.0824    2.3731    1.2233 C   0  0  0  0  0  0  0  0  0  0  0  0
   -2.6933    3.0780    0.6576 H   0  0  0  0  0  0  0  0  0  0  0  0
   -2.6727    1.9614    2.0426 H   0  0  0  0  0  0  0  0  0  0  0  0
   -0.8625    3.1097    1.7931 C   0  0  0  0  0  0  0  0  0  0  0  0
   -0.2432    2.3912    2.3350 H   0  0  0  0  0  0  0  0  0  0  0  0
   -0.2832    3.5179    0.9616 H   0  0  0  0  0  0  0  0  0  0  0  0
   -1.2585    4.2040    2.7032 N   0  3  0  0  0  0  0  0  0  0  0  0
   -2.2448    4.3702    2.8076 H   0  0  0  0  0  0  0  0  0  0  0  0
   -0.4406    4.9827    3.3915 C   0  0  0  0  0  0  0  0  0  0  0  0
    0.8551    4.8537    3.3296 N   0  0  0  0  0  0  0  0  0  0  0  0
    1.2424    4.1380    2.7405 H   0  0  0  0  0  0  0  0  0  0  0  0
    1.4617    5.4533    3.8582 H   0  0  0  0  0  0  0  0  0  0  0  0
   -0.9147    5.9186    4.1639 N   0  0  0  0  0  0  0  0  0  0  0  0
   -1.9074    6.0564    4.2446 H   0  0  0  0  0  0  0  0  0  0  0  0
   -0.2907    6.5071    4.6844 H   0  0  0  0  0  0  0  0  0  0  0  0
   -0.9523    0.1012    2.4848 C   0  0  0  0  0  0  0  0  0  0  0  0
    0.2133   -0.1319    2.7814 O   0  0  0  0  0  0  0  0  0  0  0  0
   -1.8684    0.5006    3.3725 N   0  0  0  0  0  0  0  0  0  0  0  0
   -2.7946    0.7048    3.0343 H   0  0  0  0  0  0  0  0  0  0  0  0
   -1.5848    0.7472    4.7873 C   0  0  0  0  0  0  0  0  0  0  0  0
   -0.8819    1.5774    4.8838 H   0  0  0  0  0  0  0  0  0  0  0  0
   -2.5030    0.9948    5.3214 H   0  0  0  0  0  0  0  0  0  0  0  0
   -1.1344   -0.1399    5.2381 H   0  0  0  0  0  0  0  0  0  0  0  0
  5  6  2  0  0  0  0
  5  7  1  0  0  0  0
  2  3  1  0  0  0  0
  2  4  1  0  0  0  0
  2  5  1  0  0  0  0
  1  2  1  0  0  0  0
 29 30  2  0  0  0  0
 29 31  1  0  0  0  0
 26 27  1  0  0  0  0
 26 28  1  0  0  0  0
 23 24  1  0  0  0  0
 23 25  1  0  0  0  0
 22 23  1  0  0  0  0
 22 26  1  0  0  0  0
 20 21  1  0  0  0  0
 20 22  2  0  0  0  0
 17 18  1  0  0  0  0
 17 19  1  0  0  0  0
 17 20  1  0  0  0  0
 14 15  1  0  0  0  0
 14 16  1  0  0  0  0
 14 17  1  0  0  0  0
 11 12  1  0  0  0  0
 11 13  1  0  0  0  0
 11 14  1  0  0  0  0
  9 10  1  0  0  0  0
  9 11  1  0  0  0  0
  9 29  1  0  0  0  0
  7  8  1  0  0  0  0
  7  9  1  0  0  0  0
 33 34  1  0  0  0  0
 33 35  1  0  0  0  0
 33 36  1  0  0  0  0
 31 32  1  0  0  0  0
 31 33  1  0  0  0  0
M  CHG  1  20   1
M  END
$$$$
default_name
  -OEChem-02102213163D

 36 35  0     1  0  0  0  0  0999 V2000
   -4.2256   -3.6731    1.8584 H   0  0  0  0  0  0  0  0  0  0  0  0
   -4.2396   -2.6781    1.4144 C   0  0  0  0  0  0  0  0  0  0  0  0
   -4.9506   -2.0521    1.9514 H   0  0  0  0  0  0  0  0  0  0  0  0
   -4.5266   -2.7521    0.3674 H   0  0  0  0  0  0  0  0  0  0  0  0
   -2.8576   -2.0761    1.5184 C   0  0  0  0  0  0  0  0  0  0  0  0
   -1.9456   -2.7051    2.0404 O   0  0  0  0  0  0  0  0  0  0  0  0
   -2.6926   -0.8481    1.0174 N   0  0  0  0  0  0  0  0  0  0  0  0
   -3.4926   -0.3971    0.5954 H   0  0  0  0  0  0  0  0  0  0  0  0
   -1.4216   -0.1071    1.0434 C   0  0  1  0  0  0  0  0  0  0  0  0
   -0.6709   -0.6930    0.5106 H   0  0  0  0  0  0  0  0  0  0  0  0
   -1.6221    1.2315    0.3051 C   0  0  0  0  0  0  0  0  0  0  0  0
   -0.6748    1.5214   -0.1541 H   0  0  0  0  0  0  0  0  0  0  0  0
   -2.3567    1.0933   -0.4912 H   0  0  0  0  0  0  0  0  0  0  0  0
   -2.0824    2.3731    1.2233 C   0  0  0  0  0  0  0  0  0  0  0  0
   -2.8942    2.9249    0.7473 H   0  0  0  0  0  0  0  0  0  0  0  0
   -2.4350    1.9568    2.1675 H   0  0  0  0  0  0  0  0  0  0  0  0
   -0.9137    3.3308    1.4925 C   0  0  0  0  0  0  0  0  0  0  0  0
   -0.0960    2.7647    1.9444 H   0  0  0  0  0  0  0  0  0  0  0  0
   -0.5736    3.7409    0.5386 H   0  0  0  0  0  0  0  0  0  0  0  0
   -1.3056    4.4346    2.3929 N   0  3  0  0  0  0  0  0  0  0  0  0
   -2.2689    4.4628    2.6804 H   0  0  0  0  0  0  0  0  0  0  0  0
   -0.5112    5.3856    2.8551 C   0  0  0  0  0  0  0  0  0  0  0  0
    0.7537    5.4435    2.5455 N   0  0  0  0  0  0  0  0  0  0  0  0
    1.1355    4.7410    1.9371 H   0  0  0  0  0  0  0  0  0  0  0  0
    1.3426    6.1723    2.9046 H   0  0  0  0  0  0  0  0  0  0  0  0
   -0.9787    6.3091    3.6463 N   0  0  0  0  0  0  0  0  0  0  0  0
   -1.9479    6.3062    3.9137 H   0  0  0  0  0  0  0  0  0  0  0  0
   -0.3726    7.0287    3.9948 H   0  0  0  0  0  0  0  0  0  0  0  0
   -0.9523    0.1012    2.4848 C   0  0  0  0  0  0  0  0  0  0  0  0
    0.2133   -0.1319    2.7814 O   0  0  0  0  0  0  0  0  0  0  0  0
   -1.8684    0.5006    3.3725 N   0  0  0  0  0  0  0  0  0  0  0  0
   -2.7946    0.7048    3.0343 H   0  0  0  0  0  0  0  0  0  0  0  0
   -1.5848    0.7472    4.7873 C   0  0  0  0  0  0  0  0  0  0  0  0
   -0.8819    1.5774    4.8838 H   0  0  0  0  0  0  0  0  0  0  0  0
   -2.5030    0.9948    5.3214 H   0  0  0  0  0  0  0  0  0  0  0  0
   -1.1344   -0.1399    5.2381 H   0  0  0  0  0  0  0  0  0  0  0  0
  5  6  2  0  0  0  0
  5  7  1  0  0  0  0
  2  3  1  0  0  0  0
  2  4  1  0  0  0  0
  2  5  1  0  0  0  0
  1  2  1  0  0  0  0
 29 30  2  0  0  0  0
 29 31  1  0  0  0  0
 26 27  1  0  0  0  0
 26 28  1  0  0  0  0
 23 24  1  0  0  0  0
 23 25  1  0  0  0  0
 22 23  1  0  0  0  0
 22 26  1  0  0  0  0
 20 21  1  0  0  0  0
 20 22  2  0  0  0  0
 17 18  1  0  0  0  0
 17 19  1  0  0  0  0
 17 20  1  0  0  0  0
 14 15  1  0  0  0  0
 14 16  1  0  0  0  0
 14 17  1  0  0  0  0
 11 12  1  0  0  0  0
 11 13  1  0  0  0  0
 11 14  1  0  0  0  0
  9 10  1  0  0  0  0
  9 11  1  0  0  0  0
  9 29  1  0  0  0  0
  7  8  1  0  0  0  0
  7  9  1  0  0  0  0
 33 34  1  0  0  0  0
 33 35  1  0  0  0  0
 33 36  1  0  0  0  0
 31 32  1  0  0  0  0
 31 33  1  0  0  0  0
M  CHG  1  20   1
M  END
$$$$
default_name
  -OEChem-02102213163D

 36 35  0     1  0  0  0  0  0999 V2000
   -4.2256   -3.6731    1.8584 H   0  0  0  0  0  0  0  0  0  0  0  0
   -4.2396   -2.6781    1.4144 C   0  0  0  0  0  0  0  0  0  0  0  0
   -4.9506   -2.0521    1.9514 H   0  0  0  0  0  0  0  0  0  0  0  0
   -4.5266   -2.7521    0.3674 H   0  0  0  0  0  0  0  0  0  0  0  0
   -2.8576   -2.0761    1.5184 C   0  0  0  0  0  0  0  0  0  0  0  0
   -1.9456   -2.7051    2.0404 O   0  0  0  0  0  0  0  0  0  0  0  0
   -2.6926   -0.8481    1.0174 N   0  0  0  0  0  0  0  0  0  0  0  0
   -3.4926   -0.3971    0.5954 H   0  0  0  0  0  0  0  0  0  0  0  0
   -1.4216   -0.1071    1.0434 C   0  0  1  0  0  0  0  0  0  0  0  0
   -0.6709   -0.6930    0.5106 H   0  0  0  0  0  0  0  0  0  0  0  0
   -1.6221    1.2315    0.3051 C   0  0  0  0  0  0  0  0  0  0  0  0
   -0.6748    1.5214   -0.1541 H   0  0  0  0  0  0  0  0  0  0  0  0
   -2.3567    1.0933   -0.4912 H   0  0  0  0  0  0  0  0  0  0  0  0
   -2.0824    2.3731    1.2233 C   0  0  0  0  0  0  0  0  0  0  0  0
   -3.0473    2.7529    0.8844 H   0  0  0  0  0  0  0  0  0  0  0  0
   -2.1805    1.9988    2.2428 H   0  0  0  0  0  0  0  0  0  0  0  0
   -1.0553    3.5131    1.1948 C   0  0  0  0  0  0  0  0  0  0  0  0
   -0.0869    3.1179    1.5098 H   0  0  0  0  0  0  0  0  0  0  0  0
   -0.9700    3.8786    0.1687 H   0  0  0  0  0  0  0  0  0  0  0  0
   -1.4464    4.6260    2.0844 N   0  3  0  0  0  0  0  0  0  0  0  0
   -2.3309    4.5386    2.5550 H   0  0  0  0  0  0  0  0  0  0  0  0
   -0.7450    5.7222    2.3194 C   0  0  0  0  0  0  0  0  0  0  0  0
    0.4136    5.9367    1.7618 N   0  0  0  0  0  0  0  0  0  0  0  0
    0.7842    5.2447    1.1348 H   0  0  0  0  0  0  0  0  0  0  0  0
    0.9328    6.7743    1.9506 H   0  0  0  0  0  0  0  0  0  0  0  0
   -1.2005    6.6362    3.1284 N   0  0  0  0  0  0  0  0  0  0  0  0
   -2.0894    6.5155    3.5825 H   0  0  0  0  0  0  0  0  0  0  0  0
   -0.6651    7.4664    3.3039 H   0  0  0  0  0  0  0  0  0  0  0  0
   -0.9523    0.1012    2.4848 C   0  0  0  0  0  0  0  0  0  0  0  0
    0.2133   -0.1319    2.7814 O   0  0  0  0  0  0  0  0  0  0  0  0
   -1.8684    0.5006    3.3725 N   0  0  0  0  0  0  0  0  0  0  0  0
   -2.7946    0.7048    3.0343 H   0  0  0  0  0  0  0  0  0  0  0  0
   -1.5848    0.7472    4.7873 C   0  0  0  0  0  0  0  0  0  0  0  0
   -0.8819    1.5774    4.8838 H   0  0  0  0  0  0  0  0  0  0  0  0
   -2.5030    0.9948    5.3214 H   0  0  0  0  0  0  0  0  0  0  0  0
   -1.1344   -0.1399    5.2381 H   0  0  0  0  0  0  0  0  0  0  0  0
  5  6  2  0  0  0  0
  5  7  1  0  0  0  0
  2  3  1  0  0  0  0
  2  4  1  0  0  0  0
  2  5  1  0  0  0  0
  1  2  1  0  0  0  0
 29 30  2  0  0  0  0
 29 31  1  0  0  0  0
 26 27  1  0  0  0  0
 26 28  1  0  0  0  0
 23 24  1  0  0  0  0
 23 25  1  0  0  0  0
 22 23  1  0  0  0  0
 22 26  1  0  0  0  0
 20 21  1  0  0  0  0
 20 22  2  0  0  0  0
 17 18  1  0  0  0  0
 17 19  1  0  0  0  0
 17 20  1  0  0  0  0
 14 15  1  0  0  0  0
 14 16  1  0  0  0  0
 14 17  1  0  0  0  0
 11 12  1  0  0  0  0
 11 13  1  0  0  0  0
 11 14  1  0  0  0  0
  9 10  1  0  0  0  0
  9 11  1  0  0  0  0
  9 29  1  0  0  0  0
  7  8  1  0  0  0  0
  7  9  1  0  0  0  0
 33 34  1  0  0  0  0
 33 35  1  0  0  0  0
 33 36  1  0  0  0  0
 31 32  1  0  0  0  0
 31 33  1  0  0  0  0
M  CHG  1  20   1
M  END
$$$$
default_name
  -OEChem-02102213163D

 36 35  0     1  0  0  0  0  0999 V2000
   -4.2256   -3.6731    1.8584 H   0  0  0  0  0  0  0  0  0  0  0  0
   -4.2396   -2.6781    1.4144 C   0  0  0  0  0  0  0  0  0  0  0  0
   -4.9506   -2.0521    1.9514 H   0  0  0  0  0  0  0  0  0  0  0  0
   -4.5266   -2.7521    0.3674 H   0  0  0  0  0  0  0  0  0  0  0  0
   -2.8576   -2.0761    1.5184 C   0  0  0  0  0  0  0  0  0  0  0  0
   -1.9456   -2.7051    2.0404 O   0  0  0  0  0  0  0  0  0  0  0  0
   -2.6926   -0.8481    1.0174 N   0  0  0  0  0  0  0  0  0  0  0  0
   -3.4926   -0.3971    0.5954 H   0  0  0  0  0  0  0  0  0  0  0  0
   -1.4216   -0.1071    1.0434 C   0  0  1  0  0  0  0  0  0  0  0  0
   -0.6709   -0.6930    0.5106 H   0  0  0  0  0  0  0  0  0  0  0  0
   -1.6221    1.2315    0.3051 C   0  0  0  0  0  0  0  0  0  0  0  0
   -0.6748    1.5214   -0.1541 H   0  0  0  0  0  0  0  0  0  0  0  0
   -2.3567    1.0933   -0.4912 H   0  0  0  0  0  0  0  0  0  0  0  0
   -2.0824    2.3731    1.2233 C   0  0  0  0  0  0  0  0  0  0  0  0
   -3.1422    2.5737    1.0596 H   0  0  0  0  0  0  0  0  0  0  0  0
   -1.9268    2.0846    2.2633 H   0  0  0  0  0  0  0  0  0  0  0  0
   -1.2776    3.6443    0.9203 C   0  0  0  0  0  0  0  0  0  0  0  0
   -0.2163    3.4268    1.0609 H   0  0  0  0  0  0  0  0  0  0  0  0
   -1.4454    3.9216   -0.1231 H   0  0  0  0  0  0  0  0  0  0  0  0
   -1.6715    4.7651    1.7986 N   0  3  0  0  0  0  0  0  0  0  0  0
   -2.4266    4.5925    2.4399 H   0  0  0  0  0  0  0  0  0  0  0  0
   -1.1260    5.9696    1.8207 C   0  0  0  0  0  0  0  0  0  0  0  0
   -0.1420    6.2996    1.0320 N   0  0  0  0  0  0  0  0  0  0  0  0
    0.2127    5.6145    0.3883 H   0  0  0  0  0  0  0  0  0  0  0  0
    0.2603    7.2184    1.0613 H   0  0  0  0  0  0  0  0  0  0  0  0
   -1.5650    6.8777    2.6454 N   0  0  0  0  0  0  0  0  0  0  0  0
   -2.3222    6.6701    3.2735 H   0  0  0  0  0  0  0  0  0  0  0  0
   -1.1483    7.7902    2.6590 H   0  0  0  0  0  0  0  0  0  0  0  0
   -0.9523    0.1012    2.4848 C   0  0  0  0  0  0  0  0  0  0  0  0
    0.2133   -0.1319    2.7814 O   0  0  0  0  0  0  0  0  0  0  0  0
   -1.8684    0.5006    3.3725 N   0  0  0  0  0  0  0  0  0  0  0  0
   -2.7946    0.7048    3.0343 H   0  0  0  0  0  0  0  0  0  0  0  0
   -1.5848    0.7472    4.7873 C   0  0  0  0  0  0  0  0  0  0  0  0
   -0.8819    1.5774    4.8838 H   0  0  0  0  0  0  0  0  0  0  0  0
   -2.5030    0.9948    5.3214 H   0  0  0  0  0  0  0  0  0  0  0  0
   -1.1344   -0.1399    5.2381 H   0  0  0  0  0  0  0  0  0  0  0  0
  5  6  2  0  0  0  0
  5  7  1  0  0  0  0
  2  3  1  0  0  0  0
  2  4  1  0  0  0  0
  2  5  1  0  0  0  0
  1  2  1  0  0  0  0
 29 30  2  0  0  0  0
 29 31  1  0  0  0  0
 26 27  1  0  0  0  0
 26 28  1  0  0  0  0
 23 24  1  0  0  0  0
 23 25  1  0  0  0  0
 22 23  1  0  0  0  0
 22 26  1  0  0  0  0
 20 21  1  0  0  0  0
 20 22  2  0  0  0  0
 17 18  1  0  0  0  0
 17 19  1  0  0  0  0
 17 20  1  0  0  0  0
 14 15  1  0  0  0  0
 14 16  1  0  0  0  0
 14 17  1  0  0  0  0
 11 12  1  0  0  0  0
 11 13  1  0  0  0  0
 11 14  1  0  0  0  0
  9 10  1  0  0  0  0
  9 11  1  0  0  0  0
  9 29  1  0  0  0  0
  7  8  1  0  0  0  0
  7  9  1  0  0  0  0
 33 34  1  0  0  0  0
 33 35  1  0  0  0  0
 33 36  1  0  0  0  0
 31 32  1  0  0  0  0
 31 33  1  0  0  0  0
M  CHG  1  20   1
M  END
$$$$
default_name
  -OEChem-02102213163D

 36 35  0     1  0  0  0  0  0999 V2000
   -4.2256   -3.6731    1.8584 H   0  0  0  0  0  0  0  0  0  0  0  0
   -4.2396   -2.6781    1.4144 C   0  0  0  0  0  0  0  0  0  0  0  0
   -4.9506   -2.0521    1.9514 H   0  0  0  0  0  0  0  0  0  0  0  0
   -4.5266   -2.7521    0.3674 H   0  0  0  0  0  0  0  0  0  0  0  0
   -2.8576   -2.0761    1.5184 C   0  0  0  0  0  0  0  0  0  0  0  0
   -1.9456   -2.7051    2.0404 O   0  0  0  0  0  0  0  0  0  0  0  0
   -2.6926   -0.8481    1.0174 N   0  0  0  0  0  0  0  0  0  0  0  0
   -3.4926   -0.3971    0.5954 H   0  0  0  0  0  0  0  0  0  0  0  0
   -1.4216   -0.1071    1.0434 C   0  0  1  0  0  0  0  0  0  0  0  0
   -0.6709   -0.6930    0.5106 H   0  0  0  0  0  0  0  0  0  0  0  0
   -1.6221    1.2315    0.3051 C   0  0  0  0  0  0  0  0  0  0  0  0
   -0.6748    1.5214   -0.1541 H   0  0  0  0  0  0  0  0  0  0  0  0
   -2.3567    1.0933   -0.4912 H   0  0  0  0  0  0  0  0  0  0  0  0
   -2.0824    2.3731    1.2233 C   0  0  0  0  0  0  0  0  0  0  0  0
   -3.1724    2.3995    1.2610 H   0  0  0  0  0  0  0  0  0  0  0  0
   -1.6910    2.2084    2.2277 H   0  0  0  0  0  0  0  0  0  0  0  0
   -1.5654    3.7152    0.6878 C   0  0  0  0  0  0  0  0  0  0  0  0
   -0.4755    3.6703    0.6282 H   0  0  0  0  0  0  0  0  0  0  0  0
   -1.9674    3.8668   -0.3167 H   0  0  0  0  0  0  0  0  0  0  0  0
   -1.9654    4.8424    1.5550 N   0  3  0  0  0  0  0  0  0  0  0  0
   -2.5496    4.6209    2.3430 H   0  0  0  0  0  0  0  0  0  0  0  0
   -1.6283    6.1110    1.3932 C   0  0  0  0  0  0  0  0  0  0  0  0
   -0.8753    6.5075    0.4058 N   0  0  0  0  0  0  0  0  0  0  0  0
   -0.5403    5.8254   -0.2514 H   0  0  0  0  0  0  0  0  0  0  0  0
   -0.6291    7.4742    0.2972 H   0  0  0  0  0  0  0  0  0  0  0  0
   -2.0474    7.0170    2.2302 N   0  0  0  0  0  0  0  0  0  0  0  0
   -2.6304    6.7595    3.0079 H   0  0  0  0  0  0  0  0  0  0  0  0
   -1.7892    7.9783    2.1038 H   0  0  0  0  0  0  0  0  0  0  0  0
   -0.9523    0.1012    2.4848 C   0  0  0  0  0  0  0  0  0  0  0  0
    0.2133   -0.1319    2.7814 O   0  0  0  0  0  0  0  0  0  0  0  0
   -1.8684    0.5006    3.3725 N   0  0  0  0  0  0  0  0  0  0  0  0
   -2.7946    0.7048    3.0343 H   0  0  0  0  0  0  0  0  0  0  0  0
   -1.5848    0.7472    4.7873 C   0  0  0  0  0  0  0  0  0  0  0  0
   -0.8819    1.5774    4.8838 H   0  0  0  0  0  0  0  0  0  0  0  0
   -2.5030    0.9948    5.3214 H   0  0  0  0  0  0  0  0  0  0  0  0
   -1.1344   -0.1399    5.2381 H   0  0  0  0  0  0  0  0  0  0  0  0
  5  6  2  0  0  0  0
  5  7  1  0  0  0  0
  2  3  1  0  0  0  0
  2  4  1  0  0  0  0
  2  5  1  0  0  0  0
  1  2  1  0  0  0  0
 29 30  2  0  0  0  0
 29 31  1  0  0  0  0
 26 27  1  0  0  0  0
 26 28  1  0  0  0  0
 23 24  1  0  0  0  0
 23 25  1  0  0  0  0
 22 23  1  0  0  0  0
 22 26  1  0  0  0  0
 20 21  1  0  0  0  0
 20 22  2  0  0  0  0
 17 18  1  0  0  0  0
 17 19  1  0  0  0  0
 17 20  1  0  0  0  0
 14 15  1  0  0  0  0
 14 16  1  0  0  0  0
 14 17  1  0  0  0  0
 11 12  1  0  0  0  0
 11 13  1  0  0  0  0
 11 14  1  0  0  0  0
  9 10  1  0  0  0  0
  9 11  1  0  0  0  0
  9 29  1  0  0  0  0
  7  8  1  0  0  0  0
  7  9  1  0  0  0  0
 33 34  1  0  0  0  0
 33 35  1  0  0  0  0
 33 36  1  0  0  0  0
 31 32  1  0  0  0  0
 31 33  1  0  0  0  0
M  CHG  1  20   1
M  END
$$$$
default_name
  -OEChem-02102213163D

 36 35  0     1  0  0  0  0  0999 V2000
   -4.2256   -3.6731    1.8584 H   0  0  0  0  0  0  0  0  0  0  0  0
   -4.2396   -2.6781    1.4144 C   0  0  0  0  0  0  0  0  0  0  0  0
   -4.9506   -2.0521    1.9514 H   0  0  0  0  0  0  0  0  0  0  0  0
   -4.5266   -2.7521    0.3674 H   0  0  0  0  0  0  0  0  0  0  0  0
   -2.8576   -2.0761    1.5184 C   0  0  0  0  0  0  0  0  0  0  0  0
   -1.9456   -2.7051    2.0404 O   0  0  0  0  0  0  0  0  0  0  0  0
   -2.6926   -0.8481    1.0174 N   0  0  0  0  0  0  0  0  0  0  0  0
   -3.4926   -0.3971    0.5954 H   0  0  0  0  0  0  0  0  0  0  0  0
   -1.4216   -0.1071    1.0434 C   0  0  1  0  0  0  0  0  0  0  0  0
   -0.6709   -0.6930    0.5106 H   0  0  0  0  0  0  0  0  0  0  0  0
   -1.6221    1.2315    0.3051 C   0  0  0  0  0  0  0  0  0  0  0  0
   -0.6748    1.5214   -0.1541 H   0  0  0  0  0  0  0  0  0  0  0  0
   -2.3567    1.0933   -0.4912 H   0  0  0  0  0  0  0  0  0  0  0  0
   -2.0824    2.3731    1.2233 C   0  0  0  0  0  0  0  0  0  0  0  0
   -3.1358    2.2422    1.4749 H   0  0  0  0  0  0  0  0  0  0  0  0
   -1.4893    2.3616    2.1383 H   0  0  0  0  0  0  0  0  0  0  0  0
   -1.8990    3.7212    0.5130 C   0  0  0  0  0  0  0  0  0  0  0  0
   -0.8468    3.8318    0.2412 H   0  0  0  0  0  0  0  0  0  0  0  0
   -2.5004    3.7182   -0.3991 H   0  0  0  0  0  0  0  0  0  0  0  0
   -2.3081    4.8528    1.3703 N   0  3  0  0  0  0  0  0  0  0  0  0
   -2.6914    4.6217    2.2709 H   0  0  0  0  0  0  0  0  0  0  0  0
   -2.2175    6.1366    1.0659 C   0  0  0  0  0  0  0  0  0  0  0  0
   -1.7362    6.5463   -0.0742 N   0  0  0  0  0  0  0  0  0  0  0  0
   -1.4233    5.8630   -0.7408 H   0  0  0  0  0  0  0  0  0  0  0  0
   -1.6748    7.5245   -0.2896 H   0  0  0  0  0  0  0  0  0  0  0  0
   -2.6148    7.0448    1.9112 N   0  0  0  0  0  0  0  0  0  0  0  0
   -2.9930    6.7775    2.8037 H   0  0  0  0  0  0  0  0  0  0  0  0
   -2.5443    8.0176    1.6763 H   0  0  0  0  0  0  0  0  0  0  0  0
   -0.9523    0.1012    2.4848 C   0  0  0  0  0  0  0  0  0  0  0  0
    0.2133   -0.1319    2.7814 O   0  0  0  0  0  0  0  0  0  0  0  0
   -1.8684    0.5006    3.3725 N   0  0  0  0  0  0  0  0  0  0  0  0
   -2.7946    0.7048    3.0343 H   0  0  0  0  0  0  0  0  0  0  0  0
   -1.5848    0.7472    4.7873 C   0  0  0  0  0  0  0  0  0  0  0  0
   -0.8819    1.5774    4.8838 H   0  0  0  0  0  0  0  0  0  0  0  0
   -2.5030    0.9948    5.3214 H   0  0  0  0  0  0  0  0  0  0  0  0
   -1.1344   -0.1399    5.2381 H   0  0  0  0  0  0  0  0  0  0  0  0
  5  6  2  0  0  0  0
  5  7  1  0  0  0  0
  2  3  1  0  0  0  0
  2  4  1  0  0  0  0
  2  5  1  0  0  0  0
  1  2  1  0  0  0  0
 29 30  2  0  0  0  0
 29 31  1  0  0  0  0
 26 27  1  0  0  0  0
 26 28  1  0  0  0  0
 23 24  1  0  0  0  0
 23 25  1  0  0  0  0
 22 23  1  0  0  0  0
 22 26  1  0  0  0  0
 20 21  1  0  0  0  0
 20 22  2  0  0  0  0
 17 18  1  0  0  0  0
 17 19  1  0  0  0  0
 17 20  1  0  0  0  0
 14 15  1  0  0  0  0
 14 16  1  0  0  0  0
 14 17  1  0  0  0  0
 11 12  1  0  0  0  0
 11 13  1  0  0  0  0
 11 14  1  0  0  0  0
  9 10  1  0  0  0  0
  9 11  1  0  0  0  0
  9 29  1  0  0  0  0
  7  8  1  0  0  0  0
  7  9  1  0  0  0  0
 33 34  1  0  0  0  0
 33 35  1  0  0  0  0
 33 36  1  0  0  0  0
 31 32  1  0  0  0  0
 31 33  1  0  0  0  0
M  CHG  1  20   1
M  END
$$$$
default_name
  -OEChem-02102213163D

 36 35  0     1  0  0  0  0  0999 V2000
   -4.2256   -3.6731    1.8584 H   0  0  0  0  0  0  0  0  0  0  0  0
   -4.2396   -2.6781    1.4144 C   0  0  0  0  0  0  0  0  0  0  0  0
   -4.9506   -2.0521    1.9514 H   0  0  0  0  0  0  0  0  0  0  0  0
   -4.5266   -2.7521    0.3674 H   0  0  0  0  0  0  0  0  0  0  0  0
   -2.8576   -2.0761    1.5184 C   0  0  0  0  0  0  0  0  0  0  0  0
   -1.9456   -2.7051    2.0404 O   0  0  0  0  0  0  0  0  0  0  0  0
   -2.6926   -0.8481    1.0174 N   0  0  0  0  0  0  0  0  0  0  0  0
   -3.4926   -0.3971    0.5954 H   0  0  0  0  0  0  0  0  0  0  0  0
   -1.4216   -0.1071    1.0434 C   0  0  1  0  0  0  0  0  0  0  0  0
   -0.6709   -0.6930    0.5106 H   0  0  0  0  0  0  0  0  0  0  0  0
   -1.6221    1.2315    0.3051 C   0  0  0  0  0  0  0  0  0  0  0  0
   -0.7759    1.3890   -0.3667 H   0  0  0  0  0  0  0  0  0  0  0  0
   -2.5293    1.1728   -0.3002 H   0  0  0  0  0  0  0  0  0  0  0  0
   -1.7217    2.4402    1.2471 C   0  0  0  0  0  0  0  0  0  0  0  0
   -2.5685    2.3126    1.9228 H   0  0  0  0  0  0  0  0  0  0  0  0
   -0.8039    2.5195    1.8306 H   0  0  0  0  0  0  0  0  0  0  0  0
   -1.9195    3.7244    0.4302 C   0  0  0  0  0  0  0  0  0  0  0  0
   -1.0809    3.8300   -0.2619 H   0  0  0  0  0  0  0  0  0  0  0  0
   -2.8428    3.6309   -0.1464 H   0  0  0  0  0  0  0  0  0  0  0  0
   -1.9970    4.9188    1.2963 N   0  3  0  0  0  0  0  0  0  0  0  0
   -1.9614    4.7602    2.2887 H   0  0  0  0  0  0  0  0  0  0  0  0
   -2.1082    6.1726    0.8905 C   0  0  0  0  0  0  0  0  0  0  0  0
   -2.1632    6.4900   -0.3726 N   0  0  0  0  0  0  0  0  0  0  0  0
   -2.1180    5.7569   -1.0581 H   0  0  0  0  0  0  0  0  0  0  0  0
   -2.2480    7.4466   -0.6637 H   0  0  0  0  0  0  0  0  0  0  0  0
   -2.1682    7.1437    1.7569 N   0  0  0  0  0  0  0  0  0  0  0  0
   -2.1293    6.9483    2.7424 H   0  0  0  0  0  0  0  0  0  0  0  0
   -2.2525    8.0934    1.4448 H   0  0  0  0  0  0  0  0  0  0  0  0
   -0.9523    0.1012    2.4848 C   0  0  0  0  0  0  0  0  0  0  0  0
    0.2133   -0.1319    2.7814 O   0  0  0  0  0  0  0  0  0  0  0  0
   -1.8684    0.5006    3.3725 N   0  0  0  0  0  0  0  0  0  0  0  0
   -2.7946    0.7048    3.0343 H   0  0  0  0  0  0  0  0  0  0  0  0
   -1.5848    0.7472    4.7873 C   0  0  0  0  0  0  0  0  0  0  0  0
   -0.8819    1.5774    4.8838 H   0  0  0  0  0  0  0  0  0  0  0  0
   -2.5030    0.9948    5.3214 H   0  0  0  0  0  0  0  0  0  0  0  0
   -1.1344   -0.1399    5.2381 H   0  0  0  0  0  0  0  0  0  0  0  0
  5  6  2  0  0  0  0
  5  7  1  0  0  0  0
  2  3  1  0  0  0  0
  2  4  1  0  0  0  0
  2  5  1  0  0  0  0
  1  2  1  0  0  0  0
 29 30  2  0  0  0  0
 29 31  1  0  0  0  0
 26 27  1  0  0  0  0
 26 28  1  0  0  0  0
 23 24  1  0  0  0  0
 23 25  1  0  0  0  0
 22 23  1  0  0  0  0
 22 26  1  0  0  0  0
 20 21  1  0  0  0  0
 20 22  2  0  0  0  0
 17 18  1  0  0  0  0
 17 19  1  0  0  0  0
 17 20  1  0  0  0  0
 14 15  1  0  0  0  0
 14 16  1  0  0  0  0
 14 17  1  0  0  0  0
 11 12  1  0  0  0  0
 11 13  1  0  0  0  0
 11 14  1  0  0  0  0
  9 10  1  0  0  0  0
  9 11  1  0  0  0  0
  9 29  1  0  0  0  0
  7  8  1  0  0  0  0
  7  9  1  0  0  0  0
 33 34  1  0  0  0  0
 33 35  1  0  0  0  0
 33 36  1  0  0  0  0
 31 32  1  0  0  0  0
 31 33  1  0  0  0  0
M  CHG  1  20   1
M  END
$$$$
default_name
  -OEChem-02102213163D

 36 35  0     1  0  0  0  0  0999 V2000
   -4.2256   -3.6731    1.8584 H   0  0  0  0  0  0  0  0  0  0  0  0
   -4.2396   -2.6781    1.4144 C   0  0  0  0  0  0  0  0  0  0  0  0
   -4.9506   -2.0521    1.9514 H   0  0  0  0  0  0  0  0  0  0  0  0
   -4.5266   -2.7521    0.3674 H   0  0  0  0  0  0  0  0  0  0  0  0
   -2.8576   -2.0761    1.5184 C   0  0  0  0  0  0  0  0  0  0  0  0
   -1.9456   -2.7051    2.0404 O   0  0  0  0  0  0  0  0  0  0  0  0
   -2.6926   -0.8481    1.0174 N   0  0  0  0  0  0  0  0  0  0  0  0
   -3.4926   -0.3971    0.5954 H   0  0  0  0  0  0  0  0  0  0  0  0
   -1.4216   -0.1071    1.0434 C   0  0  1  0  0  0  0  0  0  0  0  0
   -0.6709   -0.6930    0.5106 H   0  0  0  0  0  0  0  0  0  0  0  0
   -1.6221    1.2315    0.3051 C   0  0  0  0  0  0  0  0  0  0  0  0
   -0.7759    1.3890   -0.3667 H   0  0  0  0  0  0  0  0  0  0  0  0
   -2.5293    1.1728   -0.3002 H   0  0  0  0  0  0  0  0  0  0  0  0
   -1.7217    2.4402    1.2471 C   0  0  0  0  0  0  0  0  0  0  0  0
   -2.3826    2.2038    2.0821 H   0  0  0  0  0  0  0  0  0  0  0  0
   -0.7296    2.6819    1.6300 H   0  0  0  0  0  0  0  0  0  0  0  0
   -2.2842    3.6495    0.4877 C   0  0  0  0  0  0  0  0  0  0  0  0
   -1.6311    3.8624   -0.3617 H   0  0  0  0  0  0  0  0  0  0  0  0
   -3.2778    3.3931    0.1128 H   0  0  0  0  0  0  0  0  0  0  0  0
   -2.3755    4.8450    1.3509 N   0  3  0  0  0  0  0  0  0  0  0  0
   -2.1148    4.7271    2.3149 H   0  0  0  0  0  0  0  0  0  0  0  0
   -2.7663    6.0516    0.9761 C   0  0  0  0  0  0  0  0  0  0  0  0
   -3.1260    6.3144   -0.2490 N   0  0  0  0  0  0  0  0  0  0  0  0
   -3.1033    5.5751   -0.9290 H   0  0  0  0  0  0  0  0  0  0  0  0
   -3.4203    7.2355   -0.5168 H   0  0  0  0  0  0  0  0  0  0  0  0
   -2.8048    7.0295    1.8361 N   0  0  0  0  0  0  0  0  0  0  0  0
   -2.5364    6.8756    2.7928 H   0  0  0  0  0  0  0  0  0  0  0  0
   -3.1018    7.9434    1.5475 H   0  0  0  0  0  0  0  0  0  0  0  0
   -0.9523    0.1012    2.4848 C   0  0  0  0  0  0  0  0  0  0  0  0
    0.2133   -0.1319    2.7814 O   0  0  0  0  0  0  0  0  0  0  0  0
   -1.8684    0.5006    3.3725 N   0  0  0  0  0  0  0  0  0  0  0  0
   -2.7946    0.7048    3.0343 H   0  0  0  0  0  0  0  0  0  0  0  0
   -1.5848    0.7472    4.7873 C   0  0  0  0  0  0  0  0  0  0  0  0
   -0.8819    1.5774    4.8838 H   0  0  0  0  0  0  0  0  0  0  0  0
   -2.5030    0.9948    5.3214 H   0  0  0  0  0  0  0  0  0  0  0  0
   -1.1344   -0.1399    5.2381 H   0  0  0  0  0  0  0  0  0  0  0  0
  5  6  2  0  0  0  0
  5  7  1  0  0  0  0
  2  3  1  0  0  0  0
  2  4  1  0  0  0  0
  2  5  1  0  0  0  0
  1  2  1  0  0  0  0
 29 30  2  0  0  0  0
 29 31  1  0  0  0  0
 26 27  1  0  0  0  0
 26 28  1  0  0  0  0
 23 24  1  0  0  0  0
 23 25  1  0  0  0  0
 22 23  1  0  0  0  0
 22 26  1  0  0  0  0
 20 21  1  0  0  0  0
 20 22  2  0  0  0  0
 17 18  1  0  0  0  0
 17 19  1  0  0  0  0
 17 20  1  0  0  0  0
 14 15  1  0  0  0  0
 14 16  1  0  0  0  0
 14 17  1  0  0  0  0
 11 12  1  0  0  0  0
 11 13  1  0  0  0  0
 11 14  1  0  0  0  0
  9 10  1  0  0  0  0
  9 11  1  0  0  0  0
  9 29  1  0  0  0  0
  7  8  1  0  0  0  0
  7  9  1  0  0  0  0
 33 34  1  0  0  0  0
 33 35  1  0  0  0  0
 33 36  1  0  0  0  0
 31 32  1  0  0  0  0
 31 33  1  0  0  0  0
M  CHG  1  20   1
M  END
$$$$
default_name
  -OEChem-02102213163D

 36 35  0     1  0  0  0  0  0999 V2000
   -4.2256   -3.6731    1.8584 H   0  0  0  0  0  0  0  0  0  0  0  0
   -4.2396   -2.6781    1.4144 C   0  0  0  0  0  0  0  0  0  0  0  0
   -4.9506   -2.0521    1.9514 H   0  0  0  0  0  0  0  0  0  0  0  0
   -4.5266   -2.7521    0.3674 H   0  0  0  0  0  0  0  0  0  0  0  0
   -2.8576   -2.0761    1.5184 C   0  0  0  0  0  0  0  0  0  0  0  0
   -1.9456   -2.7051    2.0404 O   0  0  0  0  0  0  0  0  0  0  0  0
   -2.6926   -0.8481    1.0174 N   0  0  0  0  0  0  0  0  0  0  0  0
   -3.4926   -0.3971    0.5954 H   0  0  0  0  0  0  0  0  0  0  0  0
   -1.4216   -0.1071    1.0434 C   0  0  1  0  0  0  0  0  0  0  0  0
   -0.6709   -0.6930    0.5106 H   0  0  0  0  0  0  0  0  0  0  0  0
   -1.6221    1.2315    0.3051 C   0  0  0  0  0  0  0  0  0  0  0  0
   -0.7759    1.3890   -0.3667 H   0  0  0  0  0  0  0  0  0  0  0  0
   -2.5293    1.1728   -0.3002 H   0  0  0  0  0  0  0  0  0  0  0  0
   -1.7217    2.4402    1.2471 C   0  0  0  0  0  0  0  0  0  0  0  0
   -2.1532    2.1308    2.2000 H   0  0  0  0  0  0  0  0  0  0  0  0
   -0.7246    2.8473    1.4183 H   0  0  0  0  0  0  0  0  0  0  0  0
   -2.6129    3.5203    0.6188 C   0  0  0  0  0  0  0  0  0  0  0  0
   -2.1880    3.8048   -0.3466 H   0  0  0  0  0  0  0  0  0  0  0  0
   -3.6075    3.0987    0.4557 H   0  0  0  0  0  0  0  0  0  0  0  0
   -2.7183    4.7146    1.4819 N   0  3  0  0  0  0  0  0  0  0  0  0
   -2.2524    4.6712    2.3721 H   0  0  0  0  0  0  0  0  0  0  0  0
   -3.3653    5.8318    1.1949 C   0  0  0  0  0  0  0  0  0  0  0  0
   -4.0029    5.9939    0.0695 N   0  0  0  0  0  0  0  0  0  0  0  0
   -3.9999    5.2452   -0.6004 H   0  0  0  0  0  0  0  0  0  0  0  0
   -4.4892    6.8480   -0.1325 H   0  0  0  0  0  0  0  0  0  0  0  0
   -3.3854    6.8195    2.0441 N   0  0  0  0  0  0  0  0  0  0  0  0
   -2.9078    6.7415    2.9255 H   0  0  0  0  0  0  0  0  0  0  0  0
   -3.8774    7.6653    1.8223 H   0  0  0  0  0  0  0  0  0  0  0  0
   -0.9523    0.1012    2.4848 C   0  0  0  0  0  0  0  0  0  0  0  0
    0.2133   -0.1319    2.7814 O   0  0  0  0  0  0  0  0  0  0  0  0
   -1.8684    0.5006    3.3725 N   0  0  0  0  0  0  0  0  0  0  0  0
   -2.7946    0.7048    3.0343 H   0  0  0  0  0  0  0  0  0  0  0  0
   -1.5848    0.7472    4.7873 C   0  0  0  0  0  0  0  0  0  0  0  0
   -0.8819    1.5774    4.8838 H   0  0  0  0  0  0  0  0  0  0  0  0
   -2.5030    0.9948    5.3214 H   0  0  0  0  0  0  0  0  0  0  0  0
   -1.1344   -0.1399    5.2381 H   0  0  0  0  0  0  0  0  0  0  0  0
  5  6  2  0  0  0  0
  5  7  1  0  0  0  0
  2  3  1  0  0  0  0
  2  4  1  0  0  0  0
  2  5  1  0  0  0  0
  1  2  1  0  0  0  0
 29 30  2  0  0  0  0
 29 31  1  0  0  0  0
 26 27  1  0  0  0  0
 26 28  1  0  0  0  0
 23 24  1  0  0  0  0
 23 25  1  0  0  0  0
 22 23  1  0  0  0  0
 22 26  1  0  0  0  0
 20 21  1  0  0  0  0
 20 22  2  0  0  0  0
 17 18  1  0  0  0  0
 17 19  1  0  0  0  0
 17 20  1  0  0  0  0
 14 15  1  0  0  0  0
 14 16  1  0  0  0  0
 14 17  1  0  0  0  0
 11 12  1  0  0  0  0
 11 13  1  0  0  0  0
 11 14  1  0  0  0  0
  9 10  1  0  0  0  0
  9 11  1  0  0  0  0
  9 29  1  0  0  0  0
  7  8  1  0  0  0  0
  7  9  1  0  0  0  0
 33 34  1  0  0  0  0
 33 35  1  0  0  0  0
 33 36  1  0  0  0  0
 31 32  1  0  0  0  0
 31 33  1  0  0  0  0
M  CHG  1  20   1
M  END
$$$$
default_name
  -OEChem-02102213163D

 36 35  0     1  0  0  0  0  0999 V2000
   -4.2256   -3.6731    1.8584 H   0  0  0  0  0  0  0  0  0  0  0  0
   -4.2396   -2.6781    1.4144 C   0  0  0  0  0  0  0  0  0  0  0  0
   -4.9506   -2.0521    1.9514 H   0  0  0  0  0  0  0  0  0  0  0  0
   -4.5266   -2.7521    0.3674 H   0  0  0  0  0  0  0  0  0  0  0  0
   -2.8576   -2.0761    1.5184 C   0  0  0  0  0  0  0  0  0  0  0  0
   -1.9456   -2.7051    2.0404 O   0  0  0  0  0  0  0  0  0  0  0  0
   -2.6926   -0.8481    1.0174 N   0  0  0  0  0  0  0  0  0  0  0  0
   -3.4926   -0.3971    0.5954 H   0  0  0  0  0  0  0  0  0  0  0  0
   -1.4216   -0.1071    1.0434 C   0  0  1  0  0  0  0  0  0  0  0  0
   -0.6709   -0.6930    0.5106 H   0  0  0  0  0  0  0  0  0  0  0  0
   -1.6221    1.2315    0.3051 C   0  0  0  0  0  0  0  0  0  0  0  0
   -0.7759    1.3890   -0.3667 H   0  0  0  0  0  0  0  0  0  0  0  0
   -2.5293    1.1728   -0.3002 H   0  0  0  0  0  0  0  0  0  0  0  0
   -1.7217    2.4402    1.2471 C   0  0  0  0  0  0  0  0  0  0  0  0
   -1.8961    2.0987    2.2684 H   0  0  0  0  0  0  0  0  0  0  0  0
   -0.7891    3.0043    1.2101 H   0  0  0  0  0  0  0  0  0  0  0  0
   -2.8831    3.3455    0.8145 C   0  0  0  0  0  0  0  0  0  0  0  0
   -2.7136    3.6609   -0.2176 H   0  0  0  0  0  0  0  0  0  0  0  0
   -3.8093    2.7677    0.8590 H   0  0  0  0  0  0  0  0  0  0  0  0
   -3.0020    4.5365    1.6806 N   0  3  0  0  0  0  0  0  0  0  0  0
   -2.3647    4.5963    2.4563 H   0  0  0  0  0  0  0  0  0  0  0  0
   -3.8644    5.5280    1.5319 C   0  0  0  0  0  0  0  0  0  0  0  0
   -4.7341    5.5505    0.5611 N   0  0  0  0  0  0  0  0  0  0  0  0
   -4.7467    4.7897   -0.0949 H   0  0  0  0  0  0  0  0  0  0  0  0
   -5.3819    6.3105    0.4629 H   0  0  0  0  0  0  0  0  0  0  0  0
   -3.8705    6.5280    2.3669 N   0  0  0  0  0  0  0  0  0  0  0  0
   -3.2183    6.5553    3.1317 H   0  0  0  0  0  0  0  0  0  0  0  0
   -4.5264    7.2782    2.2505 H   0  0  0  0  0  0  0  0  0  0  0  0
   -0.9523    0.1012    2.4848 C   0  0  0  0  0  0  0  0  0  0  0  0
    0.2133   -0.1319    2.7814 O   0  0  0  0  0  0  0  0  0  0  0  0
   -1.8684    0.5006    3.3725 N   0  0  0  0  0  0  0  0  0  0  0  0
   -2.7946    0.7048    3.0343 H   0  0  0  0  0  0  0  0  0  0  0  0
   -1.5848    0.7472    4.7873 C   0  0  0  0  0  0  0  0  0  0  0  0
   -0.8819    1.5774    4.8838 H   0  0  0  0  0  0  0  0  0  0  0  0
   -2.5030    0.9948    5.3214 H   0  0  0  0  0  0  0  0  0  0  0  0
   -1.1344   -0.1399    5.2381 H   0  0  0  0  0  0  0  0  0  0  0  0
  5  6  2  0  0  0  0
  5  7  1  0  0  0  0
  2  3  1  0  0  0  0
  2  4  1  0  0  0  0
  2  5  1  0  0  0  0
  1  2  1  0  0  0  0
 29 30  2  0  0  0  0
 29 31  1  0  0  0  0
 26 27  1  0  0  0  0
 26 28  1  0  0  0  0
 23 24  1  0  0  0  0
 23 25  1  0  0  0  0
 22 23  1  0  0  0  0
 22 26  1  0  0  0  0
 20 21  1  0  0  0  0
 20 22  2  0  0  0  0
 17 18  1  0  0  0  0
 17 19  1  0  0  0  0
 17 20  1  0  0  0  0
 14 15  1  0  0  0  0
 14 16  1  0  0  0  0
 14 17  1  0  0  0  0
 11 12  1  0  0  0  0
 11 13  1  0  0  0  0
 11 14  1  0  0  0  0
  9 10  1  0  0  0  0
  9 11  1  0  0  0  0
  9 29  1  0  0  0  0
  7  8  1  0  0  0  0
  7  9  1  0  0  0  0
 33 34  1  0  0  0  0
 33 35  1  0  0  0  0
 33 36  1  0  0  0  0
 31 32  1  0  0  0  0
 31 33  1  0  0  0  0
M  CHG  1  20   1
M  END
$$$$
default_name
  -OEChem-02102213163D

 36 35  0     1  0  0  0  0  0999 V2000
   -4.2256   -3.6731    1.8584 H   0  0  0  0  0  0  0  0  0  0  0  0
   -4.2396   -2.6781    1.4144 C   0  0  0  0  0  0  0  0  0  0  0  0
   -4.9506   -2.0521    1.9514 H   0  0  0  0  0  0  0  0  0  0  0  0
   -4.5266   -2.7521    0.3674 H   0  0  0  0  0  0  0  0  0  0  0  0
   -2.8576   -2.0761    1.5184 C   0  0  0  0  0  0  0  0  0  0  0  0
   -1.9456   -2.7051    2.0404 O   0  0  0  0  0  0  0  0  0  0  0  0
   -2.6926   -0.8481    1.0174 N   0  0  0  0  0  0  0  0  0  0  0  0
   -3.4926   -0.3971    0.5954 H   0  0  0  0  0  0  0  0  0  0  0  0
   -1.4216   -0.1071    1.0434 C   0  0  1  0  0  0  0  0  0  0  0  0
   -0.6709   -0.6930    0.5106 H   0  0  0  0  0  0  0  0  0  0  0  0
   -1.6221    1.2315    0.3051 C   0  0  0  0  0  0  0  0  0  0  0  0
   -0.7759    1.3890   -0.3667 H   0  0  0  0  0  0  0  0  0  0  0  0
   -2.5293    1.1728   -0.3002 H   0  0  0  0  0  0  0  0  0  0  0  0
   -1.7217    2.4402    1.2471 C   0  0  0  0  0  0  0  0  0  0  0  0
   -1.6287    2.1097    2.2825 H   0  0  0  0  0  0  0  0  0  0  0  0
   -0.9188    3.1421    1.0194 H   0  0  0  0  0  0  0  0  0  0  0  0
   -3.0765    3.1370    1.0616 C   0  0  0  0  0  0  0  0  0  0  0  0
   -3.1723    3.4406    0.0166 H   0  0  0  0  0  0  0  0  0  0  0  0
   -3.8696    2.4228    1.2953 H   0  0  0  0  0  0  0  0  0  0  0  0
   -3.2072    4.3227    1.9332 N   0  3  0  0  0  0  0  0  0  0  0  0
   -2.4443    4.5076    2.5617 H   0  0  0  0  0  0  0  0  0  0  0  0
   -4.2296    5.1610    1.9643 C   0  0  0  0  0  0  0  0  0  0  0  0
   -5.2699    5.0144    1.1925 N   0  0  0  0  0  0  0  0  0  0  0  0
   -5.2927    4.2396    0.5532 H   0  0  0  0  0  0  0  0  0  0  0  0
   -6.0376    5.6595    1.2289 H   0  0  0  0  0  0  0  0  0  0  0  0
   -4.2270    6.1748    2.7824 N   0  0  0  0  0  0  0  0  0  0  0  0
   -3.4465    6.3296    3.3971 H   0  0  0  0  0  0  0  0  0  0  0  0
   -5.0046    6.8085    2.8027 H   0  0  0  0  0  0  0  0  0  0  0  0
   -0.9523    0.1012    2.4848 C   0  0  0  0  0  0  0  0  0  0  0  0
    0.2133   -0.1319    2.7814 O   0  0  0  0  0  0  0  0  0  0  0  0
   -1.8684    0.5006    3.3725 N   0  0  0  0  0  0  0  0  0  0  0  0
   -2.7946    0.7048    3.0343 H   0  0  0  0  0  0  0  0  0  0  0  0
   -1.5848    0.7472    4.7873 C   0  0  0  0  0  0  0  0  0  0  0  0
   -0.8819    1.5774    4.8838 H   0  0  0  0  0  0  0  0  0  0  0  0
   -2.5030    0.9948    5.3214 H   0  0  0  0  0  0  0  0  0  0  0  0
   -1.1344   -0.1399    5.2381 H   0  0  0  0  0  0  0  0  0  0  0  0
  5  6  2  0  0  0  0
  5  7  1  0  0  0  0
  2  3  1  0  0  0  0
  2  4  1  0  0  0  0
  2  5  1  0  0  0  0
  1  2  1  0  0  0  0
 29 30  2  0  0  0  0
 29 31  1  0  0  0  0
 26 27  1  0  0  0  0
 26 28  1  0  0  0  0
 23 24  1  0  0  0  0
 23 25  1  0  0  0  0
 22 23  1  0  0  0  0
 22 26  1  0  0  0  0
 20 21  1  0  0  0  0
 20 22  2  0  0  0  0
 17 18  1  0  0  0  0
 17 19  1  0  0  0  0
 17 20  1  0  0  0  0
 14 15  1  0  0  0  0
 14 16  1  0  0  0  0
 14 17  1  0  0  0  0
 11 12  1  0  0  0  0
 11 13  1  0  0  0  0
 11 14  1  0  0  0  0
  9 10  1  0  0  0  0
  9 11  1  0  0  0  0
  9 29  1  0  0  0  0
  7  8  1  0  0  0  0
  7  9  1  0  0  0  0
 33 34  1  0  0  0  0
 33 35  1  0  0  0  0
 33 36  1  0  0  0  0
 31 32  1  0  0  0  0
 31 33  1  0  0  0  0
M  CHG  1  20   1
M  END
$$$$
default_name
  -OEChem-02102213163D

 36 35  0     1  0  0  0  0  0999 V2000
   -4.2256   -3.6731    1.8584 H   0  0  0  0  0  0  0  0  0  0  0  0
   -4.2396   -2.6781    1.4144 C   0  0  0  0  0  0  0  0  0  0  0  0
   -4.9506   -2.0521    1.9514 H   0  0  0  0  0  0  0  0  0  0  0  0
   -4.5266   -2.7521    0.3674 H   0  0  0  0  0  0  0  0  0  0  0  0
   -2.8576   -2.0761    1.5184 C   0  0  0  0  0  0  0  0  0  0  0  0
   -1.9456   -2.7051    2.0404 O   0  0  0  0  0  0  0  0  0  0  0  0
   -2.6926   -0.8481    1.0174 N   0  0  0  0  0  0  0  0  0  0  0  0
   -3.4926   -0.3971    0.5954 H   0  0  0  0  0  0  0  0  0  0  0  0
   -1.4216   -0.1071    1.0434 C   0  0  1  0  0  0  0  0  0  0  0  0
   -0.6709   -0.6930    0.5106 H   0  0  0  0  0  0  0  0  0  0  0  0
   -1.6221    1.2315    0.3051 C   0  0  0  0  0  0  0  0  0  0  0  0
   -0.7759    1.3890   -0.3667 H   0  0  0  0  0  0  0  0  0  0  0  0
   -2.5293    1.1728   -0.3002 H   0  0  0  0  0  0  0  0  0  0  0  0
   -1.7217    2.4402    1.2471 C   0  0  0  0  0  0  0  0  0  0  0  0
   -1.3692    2.1630    2.2416 H   0  0  0  0  0  0  0  0  0  0  0  0
   -1.1047    3.2515    0.8594 H   0  0  0  0  0  0  0  0  0  0  0  0
   -3.1799    2.9090    1.3432 C   0  0  0  0  0  0  0  0  0  0  0  0
   -3.5326    3.1590    0.3399 H   0  0  0  0  0  0  0  0  0  0  0  0
   -3.7841    2.0874    1.7348 H   0  0  0  0  0  0  0  0  0  0  0  0
   -3.3201    4.0878    2.2227 N   0  3  0  0  0  0  0  0  0  0  0  0
   -2.4855    4.4110    2.6813 H   0  0  0  0  0  0  0  0  0  0  0  0
   -4.4361    4.7558    2.4624 C   0  0  0  0  0  0  0  0  0  0  0  0
   -5.5737    4.4221    1.9204 N   0  0  0  0  0  0  0  0  0  0  0  0
   -5.6007    3.6326    1.2997 H   0  0  0  0  0  0  0  0  0  0  0  0
   -6.4115    4.9395    2.1133 H   0  0  0  0  0  0  0  0  0  0  0  0
   -4.4307    5.7841    3.2623 N   0  0  0  0  0  0  0  0  0  0  0  0
   -3.5771    6.0798    3.7039 H   0  0  0  0  0  0  0  0  0  0  0  0
   -5.2795    6.2881    3.4414 H   0  0  0  0  0  0  0  0  0  0  0  0
   -0.9523    0.1012    2.4848 C   0  0  0  0  0  0  0  0  0  0  0  0
    0.2133   -0.1319    2.7814 O   0  0  0  0  0  0  0  0  0  0  0  0
   -1.8684    0.5006    3.3725 N   0  0  0  0  0  0  0  0  0  0  0  0
   -2.7946    0.7048    3.0343 H   0  0  0  0  0  0  0  0  0  0  0  0
   -1.5848    0.7472    4.7873 C   0  0  0  0  0  0  0  0  0  0  0  0
   -0.8819    1.5774    4.8838 H   0  0  0  0  0  0  0  0  0  0  0  0
   -2.5030    0.9948    5.3214 H   0  0  0  0  0  0  0  0  0  0  0  0
   -1.1344   -0.1399    5.2381 H   0  0  0  0  0  0  0  0  0  0  0  0
  5  6  2  0  0  0  0
  5  7  1  0  0  0  0
  2  3  1  0  0  0  0
  2  4  1  0  0  0  0
  2  5  1  0  0  0  0
  1  2  1  0  0  0  0
 29 30  2  0  0  0  0
 29 31  1  0  0  0  0
 26 27  1  0  0  0  0
 26 28  1  0  0  0  0
 23 24  1  0  0  0  0
 23 25  1  0  0  0  0
 22 23  1  0  0  0  0
 22 26  1  0  0  0  0
 20 21  1  0  0  0  0
 20 22  2  0  0  0  0
 17 18  1  0  0  0  0
 17 19  1  0  0  0  0
 17 20  1  0  0  0  0
 14 15  1  0  0  0  0
 14 16  1  0  0  0  0
 14 17  1  0  0  0  0
 11 12  1  0  0  0  0
 11 13  1  0  0  0  0
 11 14  1  0  0  0  0
  9 10  1  0  0  0  0
  9 11  1  0  0  0  0
  9 29  1  0  0  0  0
  7  8  1  0  0  0  0
  7  9  1  0  0  0  0
 33 34  1  0  0  0  0
 33 35  1  0  0  0  0
 33 36  1  0  0  0  0
 31 32  1  0  0  0  0
 31 33  1  0  0  0  0
M  CHG  1  20   1
M  END
$$$$
default_name
  -OEChem-02102213163D

 36 35  0     1  0  0  0  0  0999 V2000
   -4.2256   -3.6731    1.8584 H   0  0  0  0  0  0  0  0  0  0  0  0
   -4.2396   -2.6781    1.4144 C   0  0  0  0  0  0  0  0  0  0  0  0
   -4.9506   -2.0521    1.9514 H   0  0  0  0  0  0  0  0  0  0  0  0
   -4.5266   -2.7521    0.3674 H   0  0  0  0  0  0  0  0  0  0  0  0
   -2.8576   -2.0761    1.5184 C   0  0  0  0  0  0  0  0  0  0  0  0
   -1.9456   -2.7051    2.0404 O   0  0  0  0  0  0  0  0  0  0  0  0
   -2.6926   -0.8481    1.0174 N   0  0  0  0  0  0  0  0  0  0  0  0
   -3.4926   -0.3971    0.5954 H   0  0  0  0  0  0  0  0  0  0  0  0
   -1.4216   -0.1071    1.0434 C   0  0  1  0  0  0  0  0  0  0  0  0
   -0.6709   -0.6930    0.5106 H   0  0  0  0  0  0  0  0  0  0  0  0
   -1.6221    1.2315    0.3051 C   0  0  0  0  0  0  0  0  0  0  0  0
   -0.7759    1.3890   -0.3667 H   0  0  0  0  0  0  0  0  0  0  0  0
   -2.5293    1.1728   -0.3002 H   0  0  0  0  0  0  0  0  0  0  0  0
   -1.7217    2.4402    1.2471 C   0  0  0  0  0  0  0  0  0  0  0  0
   -1.1354    2.2550    2.1482 H   0  0  0  0  0  0  0  0  0  0  0  0
   -1.3343    3.3250    0.7408 H   0  0  0  0  0  0  0  0  0  0  0  0
   -3.1862    2.6772    1.6400 C   0  0  0  0  0  0  0  0  0  0  0  0
   -3.7701    2.8352    0.7303 H   0  0  0  0  0  0  0  0  0  0  0  0
   -3.5588    1.7843    2.1475 H   0  0  0  0  0  0  0  0  0  0  0  0
   -3.3329    3.8479    2.5292 N   0  3  0  0  0  0  0  0  0  0  0  0
   -2.4856    4.3132    2.8068 H   0  0  0  0  0  0  0  0  0  0  0  0
   -4.4696    4.3400    2.9925 C   0  0  0  0  0  0  0  0  0  0  0  0
   -5.6248    3.8140    2.6954 N   0  0  0  0  0  0  0  0  0  0  0  0
   -5.6498    3.0098    2.0937 H   0  0  0  0  0  0  0  0  0  0  0  0
   -6.4782    4.1995    3.0558 H   0  0  0  0  0  0  0  0  0  0  0  0
   -4.4676    5.3824    3.7740 N   0  0  0  0  0  0  0  0  0  0  0  0
   -3.6011    5.8230    4.0310 H   0  0  0  0  0  0  0  0  0  0  0  0
   -5.3323    5.7525    4.1232 H   0  0  0  0  0  0  0  0  0  0  0  0
   -0.9523    0.1012    2.4848 C   0  0  0  0  0  0  0  0  0  0  0  0
    0.2133   -0.1319    2.7814 O   0  0  0  0  0  0  0  0  0  0  0  0
   -1.8684    0.5006    3.3725 N   0  0  0  0  0  0  0  0  0  0  0  0
   -2.7946    0.7048    3.0343 H   0  0  0  0  0  0  0  0  0  0  0  0
   -1.5848    0.7472    4.7873 C   0  0  0  0  0  0  0  0  0  0  0  0
   -0.8819    1.5774    4.8838 H   0  0  0  0  0  0  0  0  0  0  0  0
   -2.5030    0.9948    5.3214 H   0  0  0  0  0  0  0  0  0  0  0  0
   -1.1344   -0.1399    5.2381 H   0  0  0  0  0  0  0  0  0  0  0  0
  5  6  2  0  0  0  0
  5  7  1  0  0  0  0
  2  3  1  0  0  0  0
  2  4  1  0  0  0  0
  2  5  1  0  0  0  0
  1  2  1  0  0  0  0
 29 30  2  0  0  0  0
 29 31  1  0  0  0  0
 26 27  1  0  0  0  0
 26 28  1  0  0  0  0
 23 24  1  0  0  0  0
 23 25  1  0  0  0  0
 22 23  1  0  0  0  0
 22 26  1  0  0  0  0
 20 21  1  0  0  0  0
 20 22  2  0  0  0  0
 17 18  1  0  0  0  0
 17 19  1  0  0  0  0
 17 20  1  0  0  0  0
 14 15  1  0  0  0  0
 14 16  1  0  0  0  0
 14 17  1  0  0  0  0
 11 12  1  0  0  0  0
 11 13  1  0  0  0  0
 11 14  1  0  0  0  0
  9 10  1  0  0  0  0
  9 11  1  0  0  0  0
  9 29  1  0  0  0  0
  7  8  1  0  0  0  0
  7  9  1  0  0  0  0
 33 34  1  0  0  0  0
 33 35  1  0  0  0  0
 33 36  1  0  0  0  0
 31 32  1  0  0  0  0
 31 33  1  0  0  0  0
M  CHG  1  20   1
M  END
$$$$
default_name
  -OEChem-02102213163D

 36 35  0     1  0  0  0  0  0999 V2000
   -4.2256   -3.6731    1.8584 H   0  0  0  0  0  0  0  0  0  0  0  0
   -4.2396   -2.6781    1.4144 C   0  0  0  0  0  0  0  0  0  0  0  0
   -4.9506   -2.0521    1.9514 H   0  0  0  0  0  0  0  0  0  0  0  0
   -4.5266   -2.7521    0.3674 H   0  0  0  0  0  0  0  0  0  0  0  0
   -2.8576   -2.0761    1.5184 C   0  0  0  0  0  0  0  0  0  0  0  0
   -1.9456   -2.7051    2.0404 O   0  0  0  0  0  0  0  0  0  0  0  0
   -2.6926   -0.8481    1.0174 N   0  0  0  0  0  0  0  0  0  0  0  0
   -3.4926   -0.3971    0.5954 H   0  0  0  0  0  0  0  0  0  0  0  0
   -1.4216   -0.1071    1.0434 C   0  0  1  0  0  0  0  0  0  0  0  0
   -0.6709   -0.6930    0.5106 H   0  0  0  0  0  0  0  0  0  0  0  0
   -1.6221    1.2315    0.3051 C   0  0  0  0  0  0  0  0  0  0  0  0
   -0.7759    1.3890   -0.3667 H   0  0  0  0  0  0  0  0  0  0  0  0
   -2.5293    1.1728   -0.3002 H   0  0  0  0  0  0  0  0  0  0  0  0
   -1.7217    2.4402    1.2471 C   0  0  0  0  0  0  0  0  0  0  0  0
   -0.9432    2.3794    2.0089 H   0  0  0  0  0  0  0  0  0  0  0  0
   -1.5919    3.3575    0.6718 H   0  0  0  0  0  0  0  0  0  0  0  0
   -3.0950    2.4572    1.9319 C   0  0  0  0  0  0  0  0  0  0  0  0
   -3.8685    2.4912    1.1613 H   0  0  0  0  0  0  0  0  0  0  0  0
   -3.2090    1.5343    2.5054 H   0  0  0  0  0  0  0  0  0  0  0  0
   -3.2447    3.6193    2.8319 N   0  3  0  0  0  0  0  0  0  0  0  0
   -2.4447    4.2208    2.9297 H   0  0  0  0  0  0  0  0  0  0  0  0
   -4.3281    3.9419    3.5183 C   0  0  0  0  0  0  0  0  0  0  0  0
   -5.4197    3.2315    3.4646 N   0  0  0  0  0  0  0  0  0  0  0  0
   -5.4366    2.4138    2.8811 H   0  0  0  0  0  0  0  0  0  0  0  0
   -6.2331    3.4900    3.9923 H   0  0  0  0  0  0  0  0  0  0  0  0
   -4.3353    4.9971    4.2824 N   0  0  0  0  0  0  0  0  0  0  0  0
   -3.5169    5.5765    4.3561 H   0  0  0  0  0  0  0  0  0  0  0  0
   -5.1593    5.2382    4.8014 H   0  0  0  0  0  0  0  0  0  0  0  0
   -0.9523    0.1012    2.4848 C   0  0  0  0  0  0  0  0  0  0  0  0
    0.2133   -0.1319    2.7814 O   0  0  0  0  0  0  0  0  0  0  0  0
   -1.8684    0.5006    3.3725 N   0  0  0  0  0  0  0  0  0  0  0  0
   -2.7946    0.7048    3.0343 H   0  0  0  0  0  0  0  0  0  0  0  0
   -1.5848    0.7472    4.7873 C   0  0  0  0  0  0  0  0  0  0  0  0
   -0.8819    1.5774    4.8838 H   0  0  0  0  0  0  0  0  0  0  0  0
   -2.5030    0.9948    5.3214 H   0  0  0  0  0  0  0  0  0  0  0  0
   -1.1344   -0.1399    5.2381 H   0  0  0  0  0  0  0  0  0  0  0  0
  5  6  2  0  0  0  0
  5  7  1  0  0  0  0
  2  3  1  0  0  0  0
  2  4  1  0  0  0  0
  2  5  1  0  0  0  0
  1  2  1  0  0  0  0
 29 30  2  0  0  0  0
 29 31  1  0  0  0  0
 26 27  1  0  0  0  0
 26 28  1  0  0  0  0
 23 24  1  0  0  0  0
 23 25  1  0  0  0  0
 22 23  1  0  0  0  0
 22 26  1  0  0  0  0
 20 21  1  0  0  0  0
 20 22  2  0  0  0  0
 17 18  1  0  0  0  0
 17 19  1  0  0  0  0
 17 20  1  0  0  0  0
 14 15  1  0  0  0  0
 14 16  1  0  0  0  0
 14 17  1  0  0  0  0
 11 12  1  0  0  0  0
 11 13  1  0  0  0  0
 11 14  1  0  0  0  0
  9 10  1  0  0  0  0
  9 11  1  0  0  0  0
  9 29  1  0  0  0  0
  7  8  1  0  0  0  0
  7  9  1  0  0  0  0
 33 34  1  0  0  0  0
 33 35  1  0  0  0  0
 33 36  1  0  0  0  0
 31 32  1  0  0  0  0
 31 33  1  0  0  0  0
M  CHG  1  20   1
M  END
$$$$
default_name
  -OEChem-02102213163D

 36 35  0     1  0  0  0  0  0999 V2000
   -4.2256   -3.6731    1.8584 H   0  0  0  0  0  0  0  0  0  0  0  0
   -4.2396   -2.6781    1.4144 C   0  0  0  0  0  0  0  0  0  0  0  0
   -4.9506   -2.0521    1.9514 H   0  0  0  0  0  0  0  0  0  0  0  0
   -4.5266   -2.7521    0.3674 H   0  0  0  0  0  0  0  0  0  0  0  0
   -2.8576   -2.0761    1.5184 C   0  0  0  0  0  0  0  0  0  0  0  0
   -1.9456   -2.7051    2.0404 O   0  0  0  0  0  0  0  0  0  0  0  0
   -2.6926   -0.8481    1.0174 N   0  0  0  0  0  0  0  0  0  0  0  0
   -3.4926   -0.3971    0.5954 H   0  0  0  0  0  0  0  0  0  0  0  0
   -1.4216   -0.1071    1.0434 C   0  0  1  0  0  0  0  0  0  0  0  0
   -0.6709   -0.6930    0.5106 H   0  0  0  0  0  0  0  0  0  0  0  0
   -1.6221    1.2315    0.3051 C   0  0  0  0  0  0  0  0  0  0  0  0
   -0.7759    1.3890   -0.3667 H   0  0  0  0  0  0  0  0  0  0  0  0
   -2.5293    1.1728   -0.3002 H   0  0  0  0  0  0  0  0  0  0  0  0
   -1.7217    2.4402    1.2471 C   0  0  0  0  0  0  0  0  0  0  0  0
   -0.8057    2.5277    1.8331 H   0  0  0  0  0  0  0  0  0  0  0  0
   -1.8599    3.3469    0.6572 H   0  0  0  0  0  0  0  0  0  0  0  0
   -2.9126    2.2641    2.1990 C   0  0  0  0  0  0  0  0  0  0  0  0
   -3.8212    2.1506    1.6034 H   0  0  0  0  0  0  0  0  0  0  0  0
   -2.7585    1.3543    2.7839 H   0  0  0  0  0  0  0  0  0  0  0  0
   -3.0615    3.4176    3.1101 N   0  3  0  0  0  0  0  0  0  0  0  0
   -2.3654    4.1402    3.0416 H   0  0  0  0  0  0  0  0  0  0  0  0
   -4.0210    3.5886    4.0040 C   0  0  0  0  0  0  0  0  0  0  0  0
   -4.9725    2.7143    4.1756 N   0  0  0  0  0  0  0  0  0  0  0  0
   -4.9756    1.8851    3.6082 H   0  0  0  0  0  0  0  0  0  0  0  0
   -5.6930    2.8593    4.8588 H   0  0  0  0  0  0  0  0  0  0  0  0
   -4.0427    4.6544    4.7530 N   0  0  0  0  0  0  0  0  0  0  0  0
   -3.3302    5.3573    4.6571 H   0  0  0  0  0  0  0  0  0  0  0  0
   -4.7725    4.7803    5.4299 H   0  0  0  0  0  0  0  0  0  0  0  0
   -0.9523    0.1012    2.4848 C   0  0  0  0  0  0  0  0  0  0  0  0
    0.2133   -0.1319    2.7814 O   0  0  0  0  0  0  0  0  0  0  0  0
   -1.8684    0.5006    3.3725 N   0  0  0  0  0  0  0  0  0  0  0  0
   -2.7946    0.7048    3.0343 H   0  0  0  0  0  0  0  0  0  0  0  0
   -1.5848    0.7472    4.7873 C   0  0  0  0  0  0  0  0  0  0  0  0
   -0.8819    1.5774    4.8838 H   0  0  0  0  0  0  0  0  0  0  0  0
   -2.5030    0.9948    5.3214 H   0  0  0  0  0  0  0  0  0  0  0  0
   -1.1344   -0.1399    5.2381 H   0  0  0  0  0  0  0  0  0  0  0  0
  5  6  2  0  0  0  0
  5  7  1  0  0  0  0
  2  3  1  0  0  0  0
  2  4  1  0  0  0  0
  2  5  1  0  0  0  0
  1  2  1  0  0  0  0
 29 30  2  0  0  0  0
 29 31  1  0  0  0  0
 26 27  1  0  0  0  0
 26 28  1  0  0  0  0
 23 24  1  0  0  0  0
 23 25  1  0  0  0  0
 22 23  1  0  0  0  0
 22 26  1  0  0  0  0
 20 21  1  0  0  0  0
 20 22  2  0  0  0  0
 17 18  1  0  0  0  0
 17 19  1  0  0  0  0
 17 20  1  0  0  0  0
 14 15  1  0  0  0  0
 14 16  1  0  0  0  0
 14 17  1  0  0  0  0
 11 12  1  0  0  0  0
 11 13  1  0  0  0  0
 11 14  1  0  0  0  0
  9 10  1  0  0  0  0
  9 11  1  0  0  0  0
  9 29  1  0  0  0  0
  7  8  1  0  0  0  0
  7  9  1  0  0  0  0
 33 34  1  0  0  0  0
 33 35  1  0  0  0  0
 33 36  1  0  0  0  0
 31 32  1  0  0  0  0
 31 33  1  0  0  0  0
M  CHG  1  20   1
M  END
$$$$
default_name
  -OEChem-02102213163D

 36 35  0     1  0  0  0  0  0999 V2000
   -4.2256   -3.6731    1.8584 H   0  0  0  0  0  0  0  0  0  0  0  0
   -4.2396   -2.6781    1.4144 C   0  0  0  0  0  0  0  0  0  0  0  0
   -4.9506   -2.0521    1.9514 H   0  0  0  0  0  0  0  0  0  0  0  0
   -4.5266   -2.7521    0.3674 H   0  0  0  0  0  0  0  0  0  0  0  0
   -2.8576   -2.0761    1.5184 C   0  0  0  0  0  0  0  0  0  0  0  0
   -1.9456   -2.7051    2.0404 O   0  0  0  0  0  0  0  0  0  0  0  0
   -2.6926   -0.8481    1.0174 N   0  0  0  0  0  0  0  0  0  0  0  0
   -3.4926   -0.3971    0.5954 H   0  0  0  0  0  0  0  0  0  0  0  0
   -1.4216   -0.1071    1.0434 C   0  0  1  0  0  0  0  0  0  0  0  0
   -0.6709   -0.6930    0.5106 H   0  0  0  0  0  0  0  0  0  0  0  0
   -1.6221    1.2315    0.3051 C   0  0  0  0  0  0  0  0  0  0  0  0
   -0.7759    1.3890   -0.3667 H   0  0  0  0  0  0  0  0  0  0  0  0
   -2.5293    1.1728   -0.3002 H   0  0  0  0  0  0  0  0  0  0  0  0
   -1.7217    2.4402    1.2471 C   0  0  0  0  0  0  0  0  0  0  0  0
   -0.7322    2.6899    1.6328 H   0  0  0  0  0  0  0  0  0  0  0  0
   -2.1201    3.2938    0.6978 H   0  0  0  0  0  0  0  0  0  0  0  0
   -2.6512    2.1111    2.4231 C   0  0  0  0  0  0  0  0  0  0  0  0
   -3.6314    1.8366    2.0265 H   0  0  0  0  0  0  0  0  0  0  0  0
   -2.2380    1.2566    2.9643 H   0  0  0  0  0  0  0  0  0  0  0  0
   -2.7959    3.2564    3.3450 N   0  3  0  0  0  0  0  0  0  0  0  0
   -2.2533    4.0767    3.1349 H   0  0  0  0  0  0  0  0  0  0  0  0
   -3.5694    3.3044    4.4166 C   0  0  0  0  0  0  0  0  0  0  0  0
   -4.3135    2.2976    4.7799 N   0  0  0  0  0  0  0  0  0  0  0  0
   -4.2983    1.4599    4.2255 H   0  0  0  0  0  0  0  0  0  0  0  0
   -4.8946    2.3503    5.5963 H   0  0  0  0  0  0  0  0  0  0  0  0
   -3.6098    4.3778    5.1538 N   0  0  0  0  0  0  0  0  0  0  0  0
   -3.0537    5.1803    4.9136 H   0  0  0  0  0  0  0  0  0  0  0  0
   -4.1981    4.4100    5.9658 H   0  0  0  0  0  0  0  0  0  0  0  0
   -0.9523    0.1012    2.4848 C   0  0  0  0  0  0  0  0  0  0  0  0
    0.2133   -0.1319    2.7814 O   0  0  0  0  0  0  0  0  0  0  0  0
   -1.8684    0.5006    3.3725 N   0  0  0  0  0  0  0  0  0  0  0  0
   -2.7946    0.7048    3.0343 H   0  0  0  0  0  0  0  0  0  0  0  0
   -1.5848    0.7472    4.7873 C   0  0  0  0  0  0  0  0  0  0  0  0
   -0.8819    1.5774    4.8838 H   0  0  0  0  0  0  0  0  0  0  0  0
   -2.5030    0.9948    5.3214 H   0  0  0  0  0  0  0  0  0  0  0  0
   -1.1344   -0.1399    5.2381 H   0  0  0  0  0  0  0  0  0  0  0  0
  5  6  2  0  0  0  0
  5  7  1  0  0  0  0
  2  3  1  0  0  0  0
  2  4  1  0  0  0  0
  2  5  1  0  0  0  0
  1  2  1  0  0  0  0
 29 30  2  0  0  0  0
 29 31  1  0  0  0  0
 26 27  1  0  0  0  0
 26 28  1  0  0  0  0
 23 24  1  0  0  0  0
 23 25  1  0  0  0  0
 22 23  1  0  0  0  0
 22 26  1  0  0  0  0
 20 21  1  0  0  0  0
 20 22  2  0  0  0  0
 17 18  1  0  0  0  0
 17 19  1  0  0  0  0
 17 20  1  0  0  0  0
 14 15  1  0  0  0  0
 14 16  1  0  0  0  0
 14 17  1  0  0  0  0
 11 12  1  0  0  0  0
 11 13  1  0  0  0  0
 11 14  1  0  0  0  0
  9 10  1  0  0  0  0
  9 11  1  0  0  0  0
  9 29  1  0  0  0  0
  7  8  1  0  0  0  0
  7  9  1  0  0  0  0
 33 34  1  0  0  0  0
 33 35  1  0  0  0  0
 33 36  1  0  0  0  0
 31 32  1  0  0  0  0
 31 33  1  0  0  0  0
M  CHG  1  20   1
M  END
$$$$
default_name
  -OEChem-02102213163D

 36 35  0     1  0  0  0  0  0999 V2000
   -4.2256   -3.6731    1.8584 H   0  0  0  0  0  0  0  0  0  0  0  0
   -4.2396   -2.6781    1.4144 C   0  0  0  0  0  0  0  0  0  0  0  0
   -4.9506   -2.0521    1.9514 H   0  0  0  0  0  0  0  0  0  0  0  0
   -4.5266   -2.7521    0.3674 H   0  0  0  0  0  0  0  0  0  0  0  0
   -2.8576   -2.0761    1.5184 C   0  0  0  0  0  0  0  0  0  0  0  0
   -1.9456   -2.7051    2.0404 O   0  0  0  0  0  0  0  0  0  0  0  0
   -2.6926   -0.8481    1.0174 N   0  0  0  0  0  0  0  0  0  0  0  0
   -3.4926   -0.3971    0.5954 H   0  0  0  0  0  0  0  0  0  0  0  0
   -1.4216   -0.1071    1.0434 C   0  0  1  0  0  0  0  0  0  0  0  0
   -0.6709   -0.6930    0.5106 H   0  0  0  0  0  0  0  0  0  0  0  0
   -1.6221    1.2315    0.3051 C   0  0  0  0  0  0  0  0  0  0  0  0
   -0.7759    1.3890   -0.3667 H   0  0  0  0  0  0  0  0  0  0  0  0
   -2.5293    1.1728   -0.3002 H   0  0  0  0  0  0  0  0  0  0  0  0
   -1.7217    2.4402    1.2471 C   0  0  0  0  0  0  0  0  0  0  0  0
   -0.7278    2.8548    1.4216 H   0  0  0  0  0  0  0  0  0  0  0  0
   -2.3548    3.2019    0.7909 H   0  0  0  0  0  0  0  0  0  0  0  0
   -2.3289    2.0085    2.5888 C   0  0  0  0  0  0  0  0  0  0  0  0
   -3.3120    1.5704    2.4018 H   0  0  0  0  0  0  0  0  0  0  0  0
   -1.6830    1.2480    3.0341 H   0  0  0  0  0  0  0  0  0  0  0  0
   -2.4659    3.1469    3.5204 N   0  3  0  0  0  0  0  0  0  0  0  0
   -2.1158    4.0347    3.2033 H   0  0  0  0  0  0  0  0  0  0  0  0
   -3.0040    3.1084    4.7279 C   0  0  0  0  0  0  0  0  0  0  0  0
   -3.4877    2.0099    5.2364 N   0  0  0  0  0  0  0  0  0  0  0  0
   -3.4508    1.1670    4.6910 H   0  0  0  0  0  0  0  0  0  0  0  0
   -3.8924    1.9978    6.1546 H   0  0  0  0  0  0  0  0  0  0  0  0
   -3.0661    4.1861    5.4573 N   0  0  0  0  0  0  0  0  0  0  0  0
   -2.7063    5.0575    5.1079 H   0  0  0  0  0  0  0  0  0  0  0  0
   -3.4752    4.1524    6.3728 H   0  0  0  0  0  0  0  0  0  0  0  0
   -0.9523    0.1012    2.4848 C   0  0  0  0  0  0  0  0  0  0  0  0
    0.2133   -0.1319    2.7814 O   0  0  0  0  0  0  0  0  0  0  0  0
   -1.8684    0.5006    3.3725 N   0  0  0  0  0  0  0  0  0  0  0  0
   -2.7946    0.7048    3.0343 H   0  0  0  0  0  0  0  0  0  0  0  0
   -1.5848    0.7472    4.7873 C   0  0  0  0  0  0  0  0  0  0  0  0
   -0.8819    1.5774    4.8838 H   0  0  0  0  0  0  0  0  0  0  0  0
   -2.5030    0.9948    5.3214 H   0  0  0  0  0  0  0  0  0  0  0  0
   -1.1344   -0.1399    5.2381 H   0  0  0  0  0  0  0  0  0  0  0  0
  5  6  2  0  0  0  0
  5  7  1  0  0  0  0
  2  3  1  0  0  0  0
  2  4  1  0  0  0  0
  2  5  1  0  0  0  0
  1  2  1  0  0  0  0
 29 30  2  0  0  0  0
 29 31  1  0  0  0  0
 26 27  1  0  0  0  0
 26 28  1  0  0  0  0
 23 24  1  0  0  0  0
 23 25  1  0  0  0  0
 22 23  1  0  0  0  0
 22 26  1  0  0  0  0
 20 21  1  0  0  0  0
 20 22  2  0  0  0  0
 17 18  1  0  0  0  0
 17 19  1  0  0  0  0
 17 20  1  0  0  0  0
 14 15  1  0  0  0  0
 14 16  1  0  0  0  0
 14 17  1  0  0  0  0
 11 12  1  0  0  0  0
 11 13  1  0  0  0  0
 11 14  1  0  0  0  0
  9 10  1  0  0  0  0
  9 11  1  0  0  0  0
  9 29  1  0  0  0  0
  7  8  1  0  0  0  0
  7  9  1  0  0  0  0
 33 34  1  0  0  0  0
 33 35  1  0  0  0  0
 33 36  1  0  0  0  0
 31 32  1  0  0  0  0
 31 33  1  0  0  0  0
M  CHG  1  20   1
M  END
$$$$
default_name
  -OEChem-02102213163D

 36 35  0     1  0  0  0  0  0999 V2000
   -4.2256   -3.6731    1.8584 H   0  0  0  0  0  0  0  0  0  0  0  0
   -4.2396   -2.6781    1.4144 C   0  0  0  0  0  0  0  0  0  0  0  0
   -4.9506   -2.0521    1.9514 H   0  0  0  0  0  0  0  0  0  0  0  0
   -4.5266   -2.7521    0.3674 H   0  0  0  0  0  0  0  0  0  0  0  0
   -2.8576   -2.0761    1.5184 C   0  0  0  0  0  0  0  0  0  0  0  0
   -1.9456   -2.7051    2.0404 O   0  0  0  0  0  0  0  0  0  0  0  0
   -2.6926   -0.8481    1.0174 N   0  0  0  0  0  0  0  0  0  0  0  0
   -3.4926   -0.3971    0.5954 H   0  0  0  0  0  0  0  0  0  0  0  0
   -1.4216   -0.1071    1.0434 C   0  0  1  0  0  0  0  0  0  0  0  0
   -0.6709   -0.6930    0.5106 H   0  0  0  0  0  0  0  0  0  0  0  0
   -1.6221    1.2315    0.3051 C   0  0  0  0  0  0  0  0  0  0  0  0
   -0.7759    1.3890   -0.3667 H   0  0  0  0  0  0  0  0  0  0  0  0
   -2.5293    1.1728   -0.3002 H   0  0  0  0  0  0  0  0  0  0  0  0
   -1.7217    2.4402    1.2471 C   0  0  0  0  0  0  0  0  0  0  0  0
   -0.7928    3.0113    1.2140 H   0  0  0  0  0  0  0  0  0  0  0  0
   -2.5479    3.0775    0.9301 H   0  0  0  0  0  0  0  0  0  0  0  0
   -1.9675    1.9633    2.6850 C   0  0  0  0  0  0  0  0  0  0  0  0
   -2.8848    1.3704    2.7037 H   0  0  0  0  0  0  0  0  0  0  0  0
   -1.1314    1.3289    2.9886 H   0  0  0  0  0  0  0  0  0  0  0  0
   -2.0940    3.0965    3.6245 N   0  3  0  0  0  0  0  0  0  0  0  0
   -1.9625    4.0172    3.2420 H   0  0  0  0  0  0  0  0  0  0  0  0
   -2.3633    3.0141    4.9167 C   0  0  0  0  0  0  0  0  0  0  0  0
   -2.5514    1.8708    5.5140 N   0  0  0  0  0  0  0  0  0  0  0  0
   -2.4908    1.0265    4.9728 H   0  0  0  0  0  0  0  0  0  0  0  0
   -2.7546    1.8259    6.4956 H   0  0  0  0  0  0  0  0  0  0  0  0
   -2.4487    4.0923    5.6429 N   0  0  0  0  0  0  0  0  0  0  0  0
   -2.3116    4.9973    5.2269 H   0  0  0  0  0  0  0  0  0  0  0  0
   -2.6533    4.0253    6.6229 H   0  0  0  0  0  0  0  0  0  0  0  0
   -0.9523    0.1012    2.4848 C   0  0  0  0  0  0  0  0  0  0  0  0
    0.2133   -0.1319    2.7814 O   0  0  0  0  0  0  0  0  0  0  0  0
   -1.8684    0.5006    3.3725 N   0  0  0  0  0  0  0  0  0  0  0  0
   -2.7946    0.7048    3.0343 H   0  0  0  0  0  0  0  0  0  0  0  0
   -1.5848    0.7472    4.7873 C   0  0  0  0  0  0  0  0  0  0  0  0
   -0.8819    1.5774    4.8838 H   0  0  0  0  0  0  0  0  0  0  0  0
   -2.5030    0.9948    5.3214 H   0  0  0  0  0  0  0  0  0  0  0  0
   -1.1344   -0.1399    5.2381 H   0  0  0  0  0  0  0  0  0  0  0  0
  5  6  2  0  0  0  0
  5  7  1  0  0  0  0
  2  3  1  0  0  0  0
  2  4  1  0  0  0  0
  2  5  1  0  0  0  0
  1  2  1  0  0  0  0
 29 30  2  0  0  0  0
 29 31  1  0  0  0  0
 26 27  1  0  0  0  0
 26 28  1  0  0  0  0
 23 24  1  0  0  0  0
 23 25  1  0  0  0  0
 22 23  1  0  0  0  0
 22 26  1  0  0  0  0
 20 21  1  0  0  0  0
 20 22  2  0  0  0  0
 17 18  1  0  0  0  0
 17 19  1  0  0  0  0
 17 20  1  0  0  0  0
 14 15  1  0  0  0  0
 14 16  1  0  0  0  0
 14 17  1  0  0  0  0
 11 12  1  0  0  0  0
 11 13  1  0  0  0  0
 11 14  1  0  0  0  0
  9 10  1  0  0  0  0
  9 11  1  0  0  0  0
  9 29  1  0  0  0  0
  7  8  1  0  0  0  0
  7  9  1  0  0  0  0
 33 34  1  0  0  0  0
 33 35  1  0  0  0  0
 33 36  1  0  0  0  0
 31 32  1  0  0  0  0
 31 33  1  0  0  0  0
M  CHG  1  20   1
M  END
$$$$
default_name
  -OEChem-02102213163D

 36 35  0     1  0  0  0  0  0999 V2000
   -4.2256   -3.6731    1.8584 H   0  0  0  0  0  0  0  0  0  0  0  0
   -4.2396   -2.6781    1.4144 C   0  0  0  0  0  0  0  0  0  0  0  0
   -4.9506   -2.0521    1.9514 H   0  0  0  0  0  0  0  0  0  0  0  0
   -4.5266   -2.7521    0.3674 H   0  0  0  0  0  0  0  0  0  0  0  0
   -2.8576   -2.0761    1.5184 C   0  0  0  0  0  0  0  0  0  0  0  0
   -1.9456   -2.7051    2.0404 O   0  0  0  0  0  0  0  0  0  0  0  0
   -2.6926   -0.8481    1.0174 N   0  0  0  0  0  0  0  0  0  0  0  0
   -3.4926   -0.3971    0.5954 H   0  0  0  0  0  0  0  0  0  0  0  0
   -1.4216   -0.1071    1.0434 C   0  0  1  0  0  0  0  0  0  0  0  0
   -0.6709   -0.6930    0.5106 H   0  0  0  0  0  0  0  0  0  0  0  0
   -1.6221    1.2315    0.3051 C   0  0  0  0  0  0  0  0  0  0  0  0
   -0.7759    1.3890   -0.3667 H   0  0  0  0  0  0  0  0  0  0  0  0
   -2.5293    1.1728   -0.3002 H   0  0  0  0  0  0  0  0  0  0  0  0
   -1.7217    2.4402    1.2471 C   0  0  0  0  0  0  0  0  0  0  0  0
   -0.9226    3.1487    1.0240 H   0  0  0  0  0  0  0  0  0  0  0  0
   -2.6862    2.9289    1.1061 H   0  0  0  0  0  0  0  0  0  0  0  0
   -1.5916    1.9787    2.7050 C   0  0  0  0  0  0  0  0  0  0  0  0
   -2.3788    1.2500    2.9116 H   0  0  0  0  0  0  0  0  0  0  0  0
   -0.6206    1.4939    2.8309 H   0  0  0  0  0  0  0  0  0  0  0  0
   -1.7056    3.1085    3.6501 N   0  3  0  0  0  0  0  0  0  0  0  0
   -1.8037    4.0253    3.2485 H   0  0  0  0  0  0  0  0  0  0  0  0
   -1.6910    3.0278    4.9701 C   0  0  0  0  0  0  0  0  0  0  0  0
   -1.5684    1.8897    5.5936 N   0  0  0  0  0  0  0  0  0  0  0  0
   -1.4839    1.0479    5.0518 H   0  0  0  0  0  0  0  0  0  0  0  0
   -1.5588    1.8461    6.5961 H   0  0  0  0  0  0  0  0  0  0  0  0
   -1.7996    4.1028    5.6981 N   0  0  0  0  0  0  0  0  0  0  0  0
   -1.8966    5.0038    5.2624 H   0  0  0  0  0  0  0  0  0  0  0  0
   -1.7882    4.0371    6.6991 H   0  0  0  0  0  0  0  0  0  0  0  0
   -0.9523    0.1012    2.4848 C   0  0  0  0  0  0  0  0  0  0  0  0
    0.2133   -0.1319    2.7814 O   0  0  0  0  0  0  0  0  0  0  0  0
   -1.8684    0.5006    3.3725 N   0  0  0  0  0  0  0  0  0  0  0  0
   -2.7946    0.7048    3.0343 H   0  0  0  0  0  0  0  0  0  0  0  0
   -1.5848    0.7472    4.7873 C   0  0  0  0  0  0  0  0  0  0  0  0
   -0.8819    1.5774    4.8838 H   0  0  0  0  0  0  0  0  0  0  0  0
   -2.5030    0.9948    5.3214 H   0  0  0  0  0  0  0  0  0  0  0  0
   -1.1344   -0.1399    5.2381 H   0  0  0  0  0  0  0  0  0  0  0  0
  5  6  2  0  0  0  0
  5  7  1  0  0  0  0
  2  3  1  0  0  0  0
  2  4  1  0  0  0  0
  2  5  1  0  0  0  0
  1  2  1  0  0  0  0
 29 30  2  0  0  0  0
 29 31  1  0  0  0  0
 26 27  1  0  0  0  0
 26 28  1  0  0  0  0
 23 24  1  0  0  0  0
 23 25  1  0  0  0  0
 22 23  1  0  0  0  0
 22 26  1  0  0  0  0
 20 21  1  0  0  0  0
 20 22  2  0  0  0  0
 17 18  1  0  0  0  0
 17 19  1  0  0  0  0
 17 20  1  0  0  0  0
 14 15  1  0  0  0  0
 14 16  1  0  0  0  0
 14 17  1  0  0  0  0
 11 12  1  0  0  0  0
 11 13  1  0  0  0  0
 11 14  1  0  0  0  0
  9 10  1  0  0  0  0
  9 11  1  0  0  0  0
  9 29  1  0  0  0  0
  7  8  1  0  0  0  0
  7  9  1  0  0  0  0
 33 34  1  0  0  0  0
 33 35  1  0  0  0  0
 33 36  1  0  0  0  0
 31 32  1  0  0  0  0
 31 33  1  0  0  0  0
M  CHG  1  20   1
M  END
$$$$
default_name
  -OEChem-02102213163D

 36 35  0     1  0  0  0  0  0999 V2000
   -4.2256   -3.6731    1.8584 H   0  0  0  0  0  0  0  0  0  0  0  0
   -4.2396   -2.6781    1.4144 C   0  0  0  0  0  0  0  0  0  0  0  0
   -4.9506   -2.0521    1.9514 H   0  0  0  0  0  0  0  0  0  0  0  0
   -4.5266   -2.7521    0.3674 H   0  0  0  0  0  0  0  0  0  0  0  0
   -2.8576   -2.0761    1.5184 C   0  0  0  0  0  0  0  0  0  0  0  0
   -1.9456   -2.7051    2.0404 O   0  0  0  0  0  0  0  0  0  0  0  0
   -2.6926   -0.8481    1.0174 N   0  0  0  0  0  0  0  0  0  0  0  0
   -3.4926   -0.3971    0.5954 H   0  0  0  0  0  0  0  0  0  0  0  0
   -1.4216   -0.1071    1.0434 C   0  0  1  0  0  0  0  0  0  0  0  0
   -0.6709   -0.6930    0.5106 H   0  0  0  0  0  0  0  0  0  0  0  0
   -1.6221    1.2315    0.3051 C   0  0  0  0  0  0  0  0  0  0  0  0
   -0.7759    1.3890   -0.3667 H   0  0  0  0  0  0  0  0  0  0  0  0
   -2.5293    1.1728   -0.3002 H   0  0  0  0  0  0  0  0  0  0  0  0
   -1.7217    2.4402    1.2471 C   0  0  0  0  0  0  0  0  0  0  0  0
   -1.1086    3.2575    0.8646 H   0  0  0  0  0  0  0  0  0  0  0  0
   -2.7605    2.7665    1.3068 H   0  0  0  0  0  0  0  0  0  0  0  0
   -1.2269    2.0535    2.6475 C   0  0  0  0  0  0  0  0  0  0  0  0
   -1.8287    1.2176    3.0114 H   0  0  0  0  0  0  0  0  0  0  0  0
   -0.1856    1.7317    2.5717 H   0  0  0  0  0  0  0  0  0  0  0  0
   -1.3271    3.1823    3.5955 N   0  3  0  0  0  0  0  0  0  0  0  0
   -1.6503    4.0583    3.2222 H   0  0  0  0  0  0  0  0  0  0  0  0
   -1.0330    3.1488    4.8845 C   0  0  0  0  0  0  0  0  0  0  0  0
   -0.6057    2.0654    5.4700 N   0  0  0  0  0  0  0  0  0  0  0  0
   -0.4985    1.2297    4.9227 H   0  0  0  0  0  0  0  0  0  0  0  0
   -0.3865    2.0571    6.4492 H   0  0  0  0  0  0  0  0  0  0  0  0
   -1.1631    4.2169    5.6189 N   0  0  0  0  0  0  0  0  0  0  0  0
   -1.4896    5.0765    5.2121 H   0  0  0  0  0  0  0  0  0  0  0  0
   -0.9389    4.1872    6.5964 H   0  0  0  0  0  0  0  0  0  0  0  0
   -0.9523    0.1012    2.4848 C   0  0  0  0  0  0  0  0  0  0  0  0
    0.2133   -0.1319    2.7814 O   0  0  0  0  0  0  0  0  0  0  0  0
   -1.8684    0.5006    3.3725 N   0  0  0  0  0  0  0  0  0  0  0  0
   -2.7946    0.7048    3.0343 H   0  0  0  0  0  0  0  0  0  0  0  0
   -1.5848    0.7472    4.7873 C   0  0  0  0  0  0  0  0  0  0  0  0
   -0.8819    1.5774    4.8838 H   0  0  0  0  0  0  0  0  0  0  0  0
   -2.5030    0.9948    5.3214 H   0  0  0  0  0  0  0  0  0  0  0  0
   -1.1344   -0.1399    5.2381 H   0  0  0  0  0  0  0  0  0  0  0  0
  5  6  2  0  0  0  0
  5  7  1  0  0  0  0
  2  3  1  0  0  0  0
  2  4  1  0  0  0  0
  2  5  1  0  0  0  0
  1  2  1  0  0  0  0
 29 30  2  0  0  0  0
 29 31  1  0  0  0  0
 26 27  1  0  0  0  0
 26 28  1  0  0  0  0
 23 24  1  0  0  0  0
 23 25  1  0  0  0  0
 22 23  1  0  0  0  0
 22 26  1  0  0  0  0
 20 21  1  0  0  0  0
 20 22  2  0  0  0  0
 17 18  1  0  0  0  0
 17 19  1  0  0  0  0
 17 20  1  0  0  0  0
 14 15  1  0  0  0  0
 14 16  1  0  0  0  0
 14 17  1  0  0  0  0
 11 12  1  0  0  0  0
 11 13  1  0  0  0  0
 11 14  1  0  0  0  0
  9 10  1  0  0  0  0
  9 11  1  0  0  0  0
  9 29  1  0  0  0  0
  7  8  1  0  0  0  0
  7  9  1  0  0  0  0
 33 34  1  0  0  0  0
 33 35  1  0  0  0  0
 33 36  1  0  0  0  0
 31 32  1  0  0  0  0
 31 33  1  0  0  0  0
M  CHG  1  20   1
M  END
$$$$
default_name
  -OEChem-02102213163D

 36 35  0     1  0  0  0  0  0999 V2000
   -4.2256   -3.6731    1.8584 H   0  0  0  0  0  0  0  0  0  0  0  0
   -4.2396   -2.6781    1.4144 C   0  0  0  0  0  0  0  0  0  0  0  0
   -4.9506   -2.0521    1.9514 H   0  0  0  0  0  0  0  0  0  0  0  0
   -4.5266   -2.7521    0.3674 H   0  0  0  0  0  0  0  0  0  0  0  0
   -2.8576   -2.0761    1.5184 C   0  0  0  0  0  0  0  0  0  0  0  0
   -1.9456   -2.7051    2.0404 O   0  0  0  0  0  0  0  0  0  0  0  0
   -2.6926   -0.8481    1.0174 N   0  0  0  0  0  0  0  0  0  0  0  0
   -3.4926   -0.3971    0.5954 H   0  0  0  0  0  0  0  0  0  0  0  0
   -1.4216   -0.1071    1.0434 C   0  0  1  0  0  0  0  0  0  0  0  0
   -0.6709   -0.6930    0.5106 H   0  0  0  0  0  0  0  0  0  0  0  0
   -1.6221    1.2315    0.3051 C   0  0  0  0  0  0  0  0  0  0  0  0
   -0.7759    1.3890   -0.3667 H   0  0  0  0  0  0  0  0  0  0  0  0
   -2.5293    1.1728   -0.3002 H   0  0  0  0  0  0  0  0  0  0  0  0
   -1.7217    2.4402    1.2471 C   0  0  0  0  0  0  0  0  0  0  0  0
   -1.3380    3.3305    0.7467 H   0  0  0  0  0  0  0  0  0  0  0  0
   -2.7655    2.6011    1.5184 H   0  0  0  0  0  0  0  0  0  0  0  0
   -0.8982    2.1828    2.5164 C   0  0  0  0  0  0  0  0  0  0  0  0
   -1.2718    1.2753    2.9962 H   0  0  0  0  0  0  0  0  0  0  0  0
    0.1441    2.0261    2.2288 H   0  0  0  0  0  0  0  0  0  0  0  0
   -0.9843    3.3126    3.4644 N   0  3  0  0  0  0  0  0  0  0  0  0
   -1.5127    4.1142    3.1651 H   0  0  0  0  0  0  0  0  0  0  0  0
   -0.4340    3.3686    4.6657 C   0  0  0  0  0  0  0  0  0  0  0  0
    0.2712    2.3858    5.1515 N   0  0  0  0  0  0  0  0  0  0  0  0
    0.3981    1.5596    4.5941 H   0  0  0  0  0  0  0  0  0  0  0  0
    0.6824    2.4446    6.0650 H   0  0  0  0  0  0  0  0  0  0  0  0
   -0.5824    4.4269    5.4108 N   0  0  0  0  0  0  0  0  0  0  0  0
   -1.1181    5.2106    5.0794 H   0  0  0  0  0  0  0  0  0  0  0  0
   -0.1633    4.4652    6.3215 H   0  0  0  0  0  0  0  0  0  0  0  0
   -0.9523    0.1012    2.4848 C   0  0  0  0  0  0  0  0  0  0  0  0
    0.2133   -0.1319    2.7814 O   0  0  0  0  0  0  0  0  0  0  0  0
   -1.8684    0.5006    3.3725 N   0  0  0  0  0  0  0  0  0  0  0  0
   -2.7946    0.7048    3.0343 H   0  0  0  0  0  0  0  0  0  0  0  0
   -1.5848    0.7472    4.7873 C   0  0  0  0  0  0  0  0  0  0  0  0
   -0.8819    1.5774    4.8838 H   0  0  0  0  0  0  0  0  0  0  0  0
   -2.5030    0.9948    5.3214 H   0  0  0  0  0  0  0  0  0  0  0  0
   -1.1344   -0.1399    5.2381 H   0  0  0  0  0  0  0  0  0  0  0  0
  5  6  2  0  0  0  0
  5  7  1  0  0  0  0
  2  3  1  0  0  0  0
  2  4  1  0  0  0  0
  2  5  1  0  0  0  0
  1  2  1  0  0  0  0
 29 30  2  0  0  0  0
 29 31  1  0  0  0  0
 26 27  1  0  0  0  0
 26 28  1  0  0  0  0
 23 24  1  0  0  0  0
 23 25  1  0  0  0  0
 22 23  1  0  0  0  0
 22 26  1  0  0  0  0
 20 21  1  0  0  0  0
 20 22  2  0  0  0  0
 17 18  1  0  0  0  0
 17 19  1  0  0  0  0
 17 20  1  0  0  0  0
 14 15  1  0  0  0  0
 14 16  1  0  0  0  0
 14 17  1  0  0  0  0
 11 12  1  0  0  0  0
 11 13  1  0  0  0  0
 11 14  1  0  0  0  0
  9 10  1  0  0  0  0
  9 11  1  0  0  0  0
  9 29  1  0  0  0  0
  7  8  1  0  0  0  0
  7  9  1  0  0  0  0
 33 34  1  0  0  0  0
 33 35  1  0  0  0  0
 33 36  1  0  0  0  0
 31 32  1  0  0  0  0
 31 33  1  0  0  0  0
M  CHG  1  20   1
M  END
$$$$
default_name
  -OEChem-02102213163D

 36 35  0     1  0  0  0  0  0999 V2000
   -4.2256   -3.6731    1.8584 H   0  0  0  0  0  0  0  0  0  0  0  0
   -4.2396   -2.6781    1.4144 C   0  0  0  0  0  0  0  0  0  0  0  0
   -4.9506   -2.0521    1.9514 H   0  0  0  0  0  0  0  0  0  0  0  0
   -4.5266   -2.7521    0.3674 H   0  0  0  0  0  0  0  0  0  0  0  0
   -2.8576   -2.0761    1.5184 C   0  0  0  0  0  0  0  0  0  0  0  0
   -1.9456   -2.7051    2.0404 O   0  0  0  0  0  0  0  0  0  0  0  0
   -2.6926   -0.8481    1.0174 N   0  0  0  0  0  0  0  0  0  0  0  0
   -3.4926   -0.3971    0.5954 H   0  0  0  0  0  0  0  0  0  0  0  0
   -1.4216   -0.1071    1.0434 C   0  0  1  0  0  0  0  0  0  0  0  0
   -0.6709   -0.6930    0.5106 H   0  0  0  0  0  0  0  0  0  0  0  0
   -1.6221    1.2315    0.3051 C   0  0  0  0  0  0  0  0  0  0  0  0
   -0.7759    1.3890   -0.3667 H   0  0  0  0  0  0  0  0  0  0  0  0
   -2.5293    1.1728   -0.3002 H   0  0  0  0  0  0  0  0  0  0  0  0
   -1.7217    2.4402    1.2471 C   0  0  0  0  0  0  0  0  0  0  0  0
   -1.5951    3.3625    0.6784 H   0  0  0  0  0  0  0  0  0  0  0  0
   -2.7010    2.4441    1.7267 H   0  0  0  0  0  0  0  0  0  0  0  0
   -0.6280    2.3576    2.3206 C   0  0  0  0  0  0  0  0  0  0  0  0
   -0.7461    1.4191    2.8672 H   0  0  0  0  0  0  0  0  0  0  0  0
    0.3459    2.3570    1.8254 H   0  0  0  0  0  0  0  0  0  0  0  0
   -0.7006    3.4908    3.2658 N   0  3  0  0  0  0  0  0  0  0  0  0
   -1.4003    4.1891    3.0809 H   0  0  0  0  0  0  0  0  0  0  0  0
    0.0652    3.6724    4.3286 C   0  0  0  0  0  0  0  0  0  0  0  0
    1.0025    2.8292    4.6599 N   0  0  0  0  0  0  0  0  0  0  0  0
    1.1448    2.0151    4.0886 H   0  0  0  0  0  0  0  0  0  0  0  0
    1.5751    2.9822    5.4695 H   0  0  0  0  0  0  0  0  0  0  0  0
   -0.0974    4.7184    5.0880 N   0  0  0  0  0  0  0  0  0  0  0  0
   -0.8077    5.3968    4.8732 H   0  0  0  0  0  0  0  0  0  0  0  0
    0.4857    4.8523    5.8934 H   0  0  0  0  0  0  0  0  0  0  0  0
   -0.9523    0.1012    2.4848 C   0  0  0  0  0  0  0  0  0  0  0  0
    0.2133   -0.1319    2.7814 O   0  0  0  0  0  0  0  0  0  0  0  0
   -1.8684    0.5006    3.3725 N   0  0  0  0  0  0  0  0  0  0  0  0
   -2.7946    0.7048    3.0343 H   0  0  0  0  0  0  0  0  0  0  0  0
   -1.5848    0.7472    4.7873 C   0  0  0  0  0  0  0  0  0  0  0  0
   -0.8819    1.5774    4.8838 H   0  0  0  0  0  0  0  0  0  0  0  0
   -2.5030    0.9948    5.3214 H   0  0  0  0  0  0  0  0  0  0  0  0
   -1.1344   -0.1399    5.2381 H   0  0  0  0  0  0  0  0  0  0  0  0
  5  6  2  0  0  0  0
  5  7  1  0  0  0  0
  2  3  1  0  0  0  0
  2  4  1  0  0  0  0
  2  5  1  0  0  0  0
  1  2  1  0  0  0  0
 29 30  2  0  0  0  0
 29 31  1  0  0  0  0
 26 27  1  0  0  0  0
 26 28  1  0  0  0  0
 23 24  1  0  0  0  0
 23 25  1  0  0  0  0
 22 23  1  0  0  0  0
 22 26  1  0  0  0  0
 20 21  1  0  0  0  0
 20 22  2  0  0  0  0
 17 18  1  0  0  0  0
 17 19  1  0  0  0  0
 17 20  1  0  0  0  0
 14 15  1  0  0  0  0
 14 16  1  0  0  0  0
 14 17  1  0  0  0  0
 11 12  1  0  0  0  0
 11 13  1  0  0  0  0
 11 14  1  0  0  0  0
  9 10  1  0  0  0  0
  9 11  1  0  0  0  0
  9 29  1  0  0  0  0
  7  8  1  0  0  0  0
  7  9  1  0  0  0  0
 33 34  1  0  0  0  0
 33 35  1  0  0  0  0
 33 36  1  0  0  0  0
 31 32  1  0  0  0  0
 31 33  1  0  0  0  0
M  CHG  1  20   1
M  END
$$$$
default_name
  -OEChem-02102213163D

 36 35  0     1  0  0  0  0  0999 V2000
   -4.2256   -3.6731    1.8584 H   0  0  0  0  0  0  0  0  0  0  0  0
   -4.2396   -2.6781    1.4144 C   0  0  0  0  0  0  0  0  0  0  0  0
   -4.9506   -2.0521    1.9514 H   0  0  0  0  0  0  0  0  0  0  0  0
   -4.5266   -2.7521    0.3674 H   0  0  0  0  0  0  0  0  0  0  0  0
   -2.8576   -2.0761    1.5184 C   0  0  0  0  0  0  0  0  0  0  0  0
   -1.9456   -2.7051    2.0404 O   0  0  0  0  0  0  0  0  0  0  0  0
   -2.6926   -0.8481    1.0174 N   0  0  0  0  0  0  0  0  0  0  0  0
   -3.4926   -0.3971    0.5954 H   0  0  0  0  0  0  0  0  0  0  0  0
   -1.4216   -0.1071    1.0434 C   0  0  1  0  0  0  0  0  0  0  0  0
   -0.6709   -0.6930    0.5106 H   0  0  0  0  0  0  0  0  0  0  0  0
   -1.6221    1.2315    0.3051 C   0  0  0  0  0  0  0  0  0  0  0  0
   -0.7759    1.3890   -0.3667 H   0  0  0  0  0  0  0  0  0  0  0  0
   -2.5293    1.1728   -0.3002 H   0  0  0  0  0  0  0  0  0  0  0  0
   -1.7217    2.4402    1.2471 C   0  0  0  0  0  0  0  0  0  0  0  0
   -1.8625    3.3516    0.6642 H   0  0  0  0  0  0  0  0  0  0  0  0
   -2.5713    2.3063    1.9173 H   0  0  0  0  0  0  0  0  0  0  0  0
   -0.4346    2.5661    2.0736 C   0  0  0  0  0  0  0  0  0  0  0  0
   -0.2875    1.6394    2.6330 H   0  0  0  0  0  0  0  0  0  0  0  0
    0.4062    2.7020    1.3892 H   0  0  0  0  0  0  0  0  0  0  0  0
   -0.4954    3.7046    3.0131 N   0  3  0  0  0  0  0  0  0  0  0  0
   -1.3208    4.2778    2.9754 H   0  0  0  0  0  0  0  0  0  0  0  0
    0.4304    4.0394    3.8963 C   0  0  0  0  0  0  0  0  0  0  0  0
    1.5382    3.3653    4.0285 N   0  0  0  0  0  0  0  0  0  0  0  0
    1.6908    2.5651    3.4405 H   0  0  0  0  0  0  0  0  0  0  0  0
    2.2307    3.6331    4.7035 H   0  0  0  0  0  0  0  0  0  0  0  0
    0.2592    5.0716    4.6725 N   0  0  0  0  0  0  0  0  0  0  0  0
   -0.5794    5.6225    4.6077 H   0  0  0  0  0  0  0  0  0  0  0  0
    0.9640    5.3221    5.3412 H   0  0  0  0  0  0  0  0  0  0  0  0
   -0.9523    0.1012    2.4848 C   0  0  0  0  0  0  0  0  0  0  0  0
    0.2133   -0.1319    2.7814 O   0  0  0  0  0  0  0  0  0  0  0  0
   -1.8684    0.5006    3.3725 N   0  0  0  0  0  0  0  0  0  0  0  0
   -2.7946    0.7048    3.0343 H   0  0  0  0  0  0  0  0  0  0  0  0
   -1.5848    0.7472    4.7873 C   0  0  0  0  0  0  0  0  0  0  0  0
   -0.8819    1.5774    4.8838 H   0  0  0  0  0  0  0  0  0  0  0  0
   -2.5030    0.9948    5.3214 H   0  0  0  0  0  0  0  0  0  0  0  0
   -1.1344   -0.1399    5.2381 H   0  0  0  0  0  0  0  0  0  0  0  0
  5  6  2  0  0  0  0
  5  7  1  0  0  0  0
  2  3  1  0  0  0  0
  2  4  1  0  0  0  0
  2  5  1  0  0  0  0
  1  2  1  0  0  0  0
 29 30  2  0  0  0  0
 29 31  1  0  0  0  0
 26 27  1  0  0  0  0
 26 28  1  0  0  0  0
 23 24  1  0  0  0  0
 23 25  1  0  0  0  0
 22 23  1  0  0  0  0
 22 26  1  0  0  0  0
 20 21  1  0  0  0  0
 20 22  2  0  0  0  0
 17 18  1  0  0  0  0
 17 19  1  0  0  0  0
 17 20  1  0  0  0  0
 14 15  1  0  0  0  0
 14 16  1  0  0  0  0
 14 17  1  0  0  0  0
 11 12  1  0  0  0  0
 11 13  1  0  0  0  0
 11 14  1  0  0  0  0
  9 10  1  0  0  0  0
  9 11  1  0  0  0  0
  9 29  1  0  0  0  0
  7  8  1  0  0  0  0
  7  9  1  0  0  0  0
 33 34  1  0  0  0  0
 33 35  1  0  0  0  0
 33 36  1  0  0  0  0
 31 32  1  0  0  0  0
 31 33  1  0  0  0  0
M  CHG  1  20   1
M  END
$$$$
default_name
  -OEChem-02102213163D

 36 35  0     1  0  0  0  0  0999 V2000
   -4.2256   -3.6731    1.8584 H   0  0  0  0  0  0  0  0  0  0  0  0
   -4.2396   -2.6781    1.4144 C   0  0  0  0  0  0  0  0  0  0  0  0
   -4.9506   -2.0521    1.9514 H   0  0  0  0  0  0  0  0  0  0  0  0
   -4.5266   -2.7521    0.3674 H   0  0  0  0  0  0  0  0  0  0  0  0
   -2.8576   -2.0761    1.5184 C   0  0  0  0  0  0  0  0  0  0  0  0
   -1.9456   -2.7051    2.0404 O   0  0  0  0  0  0  0  0  0  0  0  0
   -2.6926   -0.8481    1.0174 N   0  0  0  0  0  0  0  0  0  0  0  0
   -3.4926   -0.3971    0.5954 H   0  0  0  0  0  0  0  0  0  0  0  0
   -1.4216   -0.1071    1.0434 C   0  0  1  0  0  0  0  0  0  0  0  0
   -0.6709   -0.6930    0.5106 H   0  0  0  0  0  0  0  0  0  0  0  0
   -1.6221    1.2315    0.3051 C   0  0  0  0  0  0  0  0  0  0  0  0
   -0.7759    1.3890   -0.3667 H   0  0  0  0  0  0  0  0  0  0  0  0
   -2.5293    1.1728   -0.3002 H   0  0  0  0  0  0  0  0  0  0  0  0
   -1.7217    2.4402    1.2471 C   0  0  0  0  0  0  0  0  0  0  0  0
   -2.1219    3.2983    0.7052 H   0  0  0  0  0  0  0  0  0  0  0  0
   -2.3854    2.1969    2.0774 H   0  0  0  0  0  0  0  0  0  0  0  0
   -0.3312    2.7940    1.7920 C   0  0  0  0  0  0  0  0  0  0  0  0
    0.0729    1.9210    2.3097 H   0  0  0  0  0  0  0  0  0  0  0  0
    0.3207    3.0374    0.9497 H   0  0  0  0  0  0  0  0  0  0  0  0
   -0.3825    3.9395    2.7237 N   0  3  0  0  0  0  0  0  0  0  0  0
   -1.2796    4.3744    2.8559 H   0  0  0  0  0  0  0  0  0  0  0  0
    0.6368    4.4446    3.3981 C   0  0  0  0  0  0  0  0  0  0  0  0
    1.8420    3.9576    3.3006 N   0  0  0  0  0  0  0  0  0  0  0  0
    1.9989    3.1722    2.6940 H   0  0  0  0  0  0  0  0  0  0  0  0
    2.6046    4.3531    3.8191 H   0  0  0  0  0  0  0  0  0  0  0  0
    0.4628    5.4624    4.1926 N   0  0  0  0  0  0  0  0  0  0  0  0
   -0.4488    5.8723    4.3010 H   0  0  0  0  0  0  0  0  0  0  0  0
    1.2388    5.8425    4.7025 H   0  0  0  0  0  0  0  0  0  0  0  0
   -0.9523    0.1012    2.4848 C   0  0  0  0  0  0  0  0  0  0  0  0
    0.2133   -0.1319    2.7814 O   0  0  0  0  0  0  0  0  0  0  0  0
   -1.8684    0.5006    3.3725 N   0  0  0  0  0  0  0  0  0  0  0  0
   -2.7946    0.7048    3.0343 H   0  0  0  0  0  0  0  0  0  0  0  0
   -1.5848    0.7472    4.7873 C   0  0  0  0  0  0  0  0  0  0  0  0
   -0.8819    1.5774    4.8838 H   0  0  0  0  0  0  0  0  0  0  0  0
   -2.5030    0.9948    5.3214 H   0  0  0  0  0  0  0  0  0  0  0  0
   -1.1344   -0.1399    5.2381 H   0  0  0  0  0  0  0  0  0  0  0  0
  5  6  2  0  0  0  0
  5  7  1  0  0  0  0
  2  3  1  0  0  0  0
  2  4  1  0  0  0  0
  2  5  1  0  0  0  0
  1  2  1  0  0  0  0
 29 30  2  0  0  0  0
 29 31  1  0  0  0  0
 26 27  1  0  0  0  0
 26 28  1  0  0  0  0
 23 24  1  0  0  0  0
 23 25  1  0  0  0  0
 22 23  1  0  0  0  0
 22 26  1  0  0  0  0
 20 21  1  0  0  0  0
 20 22  2  0  0  0  0
 17 18  1  0  0  0  0
 17 19  1  0  0  0  0
 17 20  1  0  0  0  0
 14 15  1  0  0  0  0
 14 16  1  0  0  0  0
 14 17  1  0  0  0  0
 11 12  1  0  0  0  0
 11 13  1  0  0  0  0
 11 14  1  0  0  0  0
  9 10  1  0  0  0  0
  9 11  1  0  0  0  0
  9 29  1  0  0  0  0
  7  8  1  0  0  0  0
  7  9  1  0  0  0  0
 33 34  1  0  0  0  0
 33 35  1  0  0  0  0
 33 36  1  0  0  0  0
 31 32  1  0  0  0  0
 31 33  1  0  0  0  0
M  CHG  1  20   1
M  END
$$$$
default_name
  -OEChem-02102213163D

 36 35  0     1  0  0  0  0  0999 V2000
   -4.2256   -3.6731    1.8584 H   0  0  0  0  0  0  0  0  0  0  0  0
   -4.2396   -2.6781    1.4144 C   0  0  0  0  0  0  0  0  0  0  0  0
   -4.9506   -2.0521    1.9514 H   0  0  0  0  0  0  0  0  0  0  0  0
   -4.5266   -2.7521    0.3674 H   0  0  0  0  0  0  0  0  0  0  0  0
   -2.8576   -2.0761    1.5184 C   0  0  0  0  0  0  0  0  0  0  0  0
   -1.9456   -2.7051    2.0404 O   0  0  0  0  0  0  0  0  0  0  0  0
   -2.6926   -0.8481    1.0174 N   0  0  0  0  0  0  0  0  0  0  0  0
   -3.4926   -0.3971    0.5954 H   0  0  0  0  0  0  0  0  0  0  0  0
   -1.4216   -0.1071    1.0434 C   0  0  1  0  0  0  0  0  0  0  0  0
   -0.6709   -0.6930    0.5106 H   0  0  0  0  0  0  0  0  0  0  0  0
   -1.6221    1.2315    0.3051 C   0  0  0  0  0  0  0  0  0  0  0  0
   -0.7759    1.3890   -0.3667 H   0  0  0  0  0  0  0  0  0  0  0  0
   -2.5293    1.1728   -0.3002 H   0  0  0  0  0  0  0  0  0  0  0  0
   -1.7217    2.4402    1.2471 C   0  0  0  0  0  0  0  0  0  0  0  0
   -2.3557    3.2063    0.7985 H   0  0  0  0  0  0  0  0  0  0  0  0
   -2.1558    2.1234    2.1959 H   0  0  0  0  0  0  0  0  0  0  0  0
   -0.3249    3.0259    1.4951 C   0  0  0  0  0  0  0  0  0  0  0  0
    0.3104    2.2449    1.9193 H   0  0  0  0  0  0  0  0  0  0  0  0
    0.0954    3.3404    0.5370 H   0  0  0  0  0  0  0  0  0  0  0  0
   -0.3697    4.1794    2.4172 N   0  3  0  0  0  0  0  0  0  0  0  0
   -1.2794    4.4722    2.7304 H   0  0  0  0  0  0  0  0  0  0  0  0
    0.6704    4.8604    2.8681 C   0  0  0  0  0  0  0  0  0  0  0  0
    1.8932    4.5658    2.5256 N   0  0  0  0  0  0  0  0  0  0  0  0
    2.0479    3.7950    1.9000 H   0  0  0  0  0  0  0  0  0  0  0  0
    2.6713    5.0931    2.8766 H   0  0  0  0  0  0  0  0  0  0  0  0
    0.4998    5.8641    3.6810 N   0  0  0  0  0  0  0  0  0  0  0  0
   -0.4248    6.1291    3.9739 H   0  0  0  0  0  0  0  0  0  0  0  0
    1.2916    6.3781    4.0207 H   0  0  0  0  0  0  0  0  0  0  0  0
   -0.9523    0.1012    2.4848 C   0  0  0  0  0  0  0  0  0  0  0  0
    0.2133   -0.1319    2.7814 O   0  0  0  0  0  0  0  0  0  0  0  0
   -1.8684    0.5006    3.3725 N   0  0  0  0  0  0  0  0  0  0  0  0
   -2.7946    0.7048    3.0343 H   0  0  0  0  0  0  0  0  0  0  0  0
   -1.5848    0.7472    4.7873 C   0  0  0  0  0  0  0  0  0  0  0  0
   -0.8819    1.5774    4.8838 H   0  0  0  0  0  0  0  0  0  0  0  0
   -2.5030    0.9948    5.3214 H   0  0  0  0  0  0  0  0  0  0  0  0
   -1.1344   -0.1399    5.2381 H   0  0  0  0  0  0  0  0  0  0  0  0
  5  6  2  0  0  0  0
  5  7  1  0  0  0  0
  2  3  1  0  0  0  0
  2  4  1  0  0  0  0
  2  5  1  0  0  0  0
  1  2  1  0  0  0  0
 29 30  2  0  0  0  0
 29 31  1  0  0  0  0
 26 27  1  0  0  0  0
 26 28  1  0  0  0  0
 23 24  1  0  0  0  0
 23 25  1  0  0  0  0
 22 23  1  0  0  0  0
 22 26  1  0  0  0  0
 20 21  1  0  0  0  0
 20 22  2  0  0  0  0
 17 18  1  0  0  0  0
 17 19  1  0  0  0  0
 17 20  1  0  0  0  0
 14 15  1  0  0  0  0
 14 16  1  0  0  0  0
 14 17  1  0  0  0  0
 11 12  1  0  0  0  0
 11 13  1  0  0  0  0
 11 14  1  0  0  0  0
  9 10  1  0  0  0  0
  9 11  1  0  0  0  0
  9 29  1  0  0  0  0
  7  8  1  0  0  0  0
  7  9  1  0  0  0  0
 33 34  1  0  0  0  0
 33 35  1  0  0  0  0
 33 36  1  0  0  0  0
 31 32  1  0  0  0  0
 31 33  1  0  0  0  0
M  CHG  1  20   1
M  END
$$$$
default_name
  -OEChem-02102213163D

 36 35  0     1  0  0  0  0  0999 V2000
   -4.2256   -3.6731    1.8584 H   0  0  0  0  0  0  0  0  0  0  0  0
   -4.2396   -2.6781    1.4144 C   0  0  0  0  0  0  0  0  0  0  0  0
   -4.9506   -2.0521    1.9514 H   0  0  0  0  0  0  0  0  0  0  0  0
   -4.5266   -2.7521    0.3674 H   0  0  0  0  0  0  0  0  0  0  0  0
   -2.8576   -2.0761    1.5184 C   0  0  0  0  0  0  0  0  0  0  0  0
   -1.9456   -2.7051    2.0404 O   0  0  0  0  0  0  0  0  0  0  0  0
   -2.6926   -0.8481    1.0174 N   0  0  0  0  0  0  0  0  0  0  0  0
   -3.4926   -0.3971    0.5954 H   0  0  0  0  0  0  0  0  0  0  0  0
   -1.4216   -0.1071    1.0434 C   0  0  1  0  0  0  0  0  0  0  0  0
   -0.6709   -0.6930    0.5106 H   0  0  0  0  0  0  0  0  0  0  0  0
   -1.6221    1.2315    0.3051 C   0  0  0  0  0  0  0  0  0  0  0  0
   -0.7759    1.3890   -0.3667 H   0  0  0  0  0  0  0  0  0  0  0  0
   -2.5293    1.1728   -0.3002 H   0  0  0  0  0  0  0  0  0  0  0  0
   -1.7217    2.4402    1.2471 C   0  0  0  0  0  0  0  0  0  0  0  0
   -2.5479    3.0819    0.9378 H   0  0  0  0  0  0  0  0  0  0  0  0
   -1.8982    2.0909    2.2649 H   0  0  0  0  0  0  0  0  0  0  0  0
   -0.4160    3.2458    1.2032 C   0  0  0  0  0  0  0  0  0  0  0  0
    0.4088    2.5888    1.4884 H   0  0  0  0  0  0  0  0  0  0  0  0
   -0.2544    3.5905    0.1791 H   0  0  0  0  0  0  0  0  0  0  0  0
   -0.4579    4.4080    2.1145 N   0  3  0  0  0  0  0  0  0  0  0  0
   -1.3204    4.5646    2.6075 H   0  0  0  0  0  0  0  0  0  0  0  0
    0.5288    5.2585    2.3422 C   0  0  0  0  0  0  0  0  0  0  0  0
    1.6881    5.1483    1.7564 N   0  0  0  0  0  0  0  0  0  0  0  0
    1.8347    4.3910    1.1126 H   0  0  0  0  0  0  0  0  0  0  0  0
    2.4263    5.8027    1.9402 H   0  0  0  0  0  0  0  0  0  0  0  0
    0.3674    6.2494    3.1726 N   0  0  0  0  0  0  0  0  0  0  0  0
   -0.5091    6.3756    3.6488 H   0  0  0  0  0  0  0  0  0  0  0  0
    1.1187    6.8923    3.3425 H   0  0  0  0  0  0  0  0  0  0  0  0
   -0.9523    0.1012    2.4848 C   0  0  0  0  0  0  0  0  0  0  0  0
    0.2133   -0.1319    2.7814 O   0  0  0  0  0  0  0  0  0  0  0  0
   -1.8684    0.5006    3.3725 N   0  0  0  0  0  0  0  0  0  0  0  0
   -2.7946    0.7048    3.0343 H   0  0  0  0  0  0  0  0  0  0  0  0
   -1.5848    0.7472    4.7873 C   0  0  0  0  0  0  0  0  0  0  0  0
   -0.8819    1.5774    4.8838 H   0  0  0  0  0  0  0  0  0  0  0  0
   -2.5030    0.9948    5.3214 H   0  0  0  0  0  0  0  0  0  0  0  0
   -1.1344   -0.1399    5.2381 H   0  0  0  0  0  0  0  0  0  0  0  0
  5  6  2  0  0  0  0
  5  7  1  0  0  0  0
  2  3  1  0  0  0  0
  2  4  1  0  0  0  0
  2  5  1  0  0  0  0
  1  2  1  0  0  0  0
 29 30  2  0  0  0  0
 29 31  1  0  0  0  0
 26 27  1  0  0  0  0
 26 28  1  0  0  0  0
 23 24  1  0  0  0  0
 23 25  1  0  0  0  0
 22 23  1  0  0  0  0
 22 26  1  0  0  0  0
 20 21  1  0  0  0  0
 20 22  2  0  0  0  0
 17 18  1  0  0  0  0
 17 19  1  0  0  0  0
 17 20  1  0  0  0  0
 14 15  1  0  0  0  0
 14 16  1  0  0  0  0
 14 17  1  0  0  0  0
 11 12  1  0  0  0  0
 11 13  1  0  0  0  0
 11 14  1  0  0  0  0
  9 10  1  0  0  0  0
  9 11  1  0  0  0  0
  9 29  1  0  0  0  0
  7  8  1  0  0  0  0
  7  9  1  0  0  0  0
 33 34  1  0  0  0  0
 33 35  1  0  0  0  0
 33 36  1  0  0  0  0
 31 32  1  0  0  0  0
 31 33  1  0  0  0  0
M  CHG  1  20   1
M  END
$$$$
default_name
  -OEChem-02102213163D

 36 35  0     1  0  0  0  0  0999 V2000
   -4.2256   -3.6731    1.8584 H   0  0  0  0  0  0  0  0  0  0  0  0
   -4.2396   -2.6781    1.4144 C   0  0  0  0  0  0  0  0  0  0  0  0
   -4.9506   -2.0521    1.9514 H   0  0  0  0  0  0  0  0  0  0  0  0
   -4.5266   -2.7521    0.3674 H   0  0  0  0  0  0  0  0  0  0  0  0
   -2.8576   -2.0761    1.5184 C   0  0  0  0  0  0  0  0  0  0  0  0
   -1.9456   -2.7051    2.0404 O   0  0  0  0  0  0  0  0  0  0  0  0
   -2.6926   -0.8481    1.0174 N   0  0  0  0  0  0  0  0  0  0  0  0
   -3.4926   -0.3971    0.5954 H   0  0  0  0  0  0  0  0  0  0  0  0
   -1.4216   -0.1071    1.0434 C   0  0  1  0  0  0  0  0  0  0  0  0
   -0.6709   -0.6930    0.5106 H   0  0  0  0  0  0  0  0  0  0  0  0
   -1.6221    1.2315    0.3051 C   0  0  0  0  0  0  0  0  0  0  0  0
   -0.7759    1.3890   -0.3667 H   0  0  0  0  0  0  0  0  0  0  0  0
   -2.5293    1.1728   -0.3002 H   0  0  0  0  0  0  0  0  0  0  0  0
   -1.7217    2.4402    1.2471 C   0  0  0  0  0  0  0  0  0  0  0  0
   -2.6854    2.9335    1.1136 H   0  0  0  0  0  0  0  0  0  0  0  0
   -1.6301    2.1015    2.2796 H   0  0  0  0  0  0  0  0  0  0  0  0
   -0.5985    3.4389    0.9361 C   0  0  0  0  0  0  0  0  0  0  0  0
    0.3615    2.9294    1.0463 H   0  0  0  0  0  0  0  0  0  0  0  0
   -0.7049    3.7704   -0.0995 H   0  0  0  0  0  0  0  0  0  0  0  0
   -0.6411    4.6097    1.8362 N   0  3  0  0  0  0  0  0  0  0  0  0
   -1.3996    4.6453    2.4955 H   0  0  0  0  0  0  0  0  0  0  0  0
    0.2218    5.6118    1.8565 C   0  0  0  0  0  0  0  0  0  0  0  0
    1.2408    5.6655    1.0454 N   0  0  0  0  0  0  0  0  0  0  0  0
    1.3738    4.9197    0.3855 H   0  0  0  0  0  0  0  0  0  0  0  0
    1.8861    6.4334    1.0737 H   0  0  0  0  0  0  0  0  0  0  0  0
    0.0749    6.5920    2.7019 N   0  0  0  0  0  0  0  0  0  0  0  0
   -0.6958    6.5948    3.3477 H   0  0  0  0  0  0  0  0  0  0  0  0
    0.7318    7.3502    2.7140 H   0  0  0  0  0  0  0  0  0  0  0  0
   -0.9523    0.1012    2.4848 C   0  0  0  0  0  0  0  0  0  0  0  0
    0.2133   -0.1319    2.7814 O   0  0  0  0  0  0  0  0  0  0  0  0
   -1.8684    0.5006    3.3725 N   0  0  0  0  0  0  0  0  0  0  0  0
   -2.7946    0.7048    3.0343 H   0  0  0  0  0  0  0  0  0  0  0  0
   -1.5848    0.7472    4.7873 C   0  0  0  0  0  0  0  0  0  0  0  0
   -0.8819    1.5774    4.8838 H   0  0  0  0  0  0  0  0  0  0  0  0
   -2.5030    0.9948    5.3214 H   0  0  0  0  0  0  0  0  0  0  0  0
   -1.1344   -0.1399    5.2381 H   0  0  0  0  0  0  0  0  0  0  0  0
  5  6  2  0  0  0  0
  5  7  1  0  0  0  0
  2  3  1  0  0  0  0
  2  4  1  0  0  0  0
  2  5  1  0  0  0  0
  1  2  1  0  0  0  0
 29 30  2  0  0  0  0
 29 31  1  0  0  0  0
 26 27  1  0  0  0  0
 26 28  1  0  0  0  0
 23 24  1  0  0  0  0
 23 25  1  0  0  0  0
 22 23  1  0  0  0  0
 22 26  1  0  0  0  0
 20 21  1  0  0  0  0
 20 22  2  0  0  0  0
 17 18  1  0  0  0  0
 17 19  1  0  0  0  0
 17 20  1  0  0  0  0
 14 15  1  0  0  0  0
 14 16  1  0  0  0  0
 14 17  1  0  0  0  0
 11 12  1  0  0  0  0
 11 13  1  0  0  0  0
 11 14  1  0  0  0  0
  9 10  1  0  0  0  0
  9 11  1  0  0  0  0
  9 29  1  0  0  0  0
  7  8  1  0  0  0  0
  7  9  1  0  0  0  0
 33 34  1  0  0  0  0
 33 35  1  0  0  0  0
 33 36  1  0  0  0  0
 31 32  1  0  0  0  0
 31 33  1  0  0  0  0
M  CHG  1  20   1
M  END
$$$$
default_name
  -OEChem-02102213163D

 36 35  0     1  0  0  0  0  0999 V2000
   -4.2256   -3.6731    1.8584 H   0  0  0  0  0  0  0  0  0  0  0  0
   -4.2396   -2.6781    1.4144 C   0  0  0  0  0  0  0  0  0  0  0  0
   -4.9506   -2.0521    1.9514 H   0  0  0  0  0  0  0  0  0  0  0  0
   -4.5266   -2.7521    0.3674 H   0  0  0  0  0  0  0  0  0  0  0  0
   -2.8576   -2.0761    1.5184 C   0  0  0  0  0  0  0  0  0  0  0  0
   -1.9456   -2.7051    2.0404 O   0  0  0  0  0  0  0  0  0  0  0  0
   -2.6926   -0.8481    1.0174 N   0  0  0  0  0  0  0  0  0  0  0  0
   -3.4926   -0.3971    0.5954 H   0  0  0  0  0  0  0  0  0  0  0  0
   -1.4216   -0.1071    1.0434 C   0  0  1  0  0  0  0  0  0  0  0  0
   -0.6709   -0.6930    0.5106 H   0  0  0  0  0  0  0  0  0  0  0  0
   -1.6221    1.2315    0.3051 C   0  0  0  0  0  0  0  0  0  0  0  0
   -0.7759    1.3890   -0.3667 H   0  0  0  0  0  0  0  0  0  0  0  0
   -2.5293    1.1728   -0.3002 H   0  0  0  0  0  0  0  0  0  0  0  0
   -1.7217    2.4402    1.2471 C   0  0  0  0  0  0  0  0  0  0  0  0
   -2.7589    2.7714    1.3140 H   0  0  0  0  0  0  0  0  0  0  0  0
   -1.3700    2.1546    2.2390 H   0  0  0  0  0  0  0  0  0  0  0  0
   -0.8598    3.5920    0.7121 C   0  0  0  0  0  0  0  0  0  0  0  0
    0.1717    3.2435    0.6232 H   0  0  0  0  0  0  0  0  0  0  0  0
   -1.2254    3.8681   -0.2798 H   0  0  0  0  0  0  0  0  0  0  0  0
   -0.9067    4.7708    1.6014 N   0  3  0  0  0  0  0  0  0  0  0  0
   -1.5118    4.7087    2.4022 H   0  0  0  0  0  0  0  0  0  0  0  0
   -0.2299    5.8960    1.4439 C   0  0  0  0  0  0  0  0  0  0  0  0
    0.5819    6.0821    0.4411 N   0  0  0  0  0  0  0  0  0  0  0  0
    0.6964    5.3449   -0.2318 H   0  0  0  0  0  0  0  0  0  0  0  0
    1.0878    6.9423    0.3361 H   0  0  0  0  0  0  0  0  0  0  0  0
   -0.3580    6.8686    2.3012 N   0  0  0  0  0  0  0  0  0  0  0  0
   -0.9723    6.7718    3.0913 H   0  0  0  0  0  0  0  0  0  0  0  0
    0.1574    7.7206    2.1780 H   0  0  0  0  0  0  0  0  0  0  0  0
   -0.9523    0.1012    2.4848 C   0  0  0  0  0  0  0  0  0  0  0  0
    0.2133   -0.1319    2.7814 O   0  0  0  0  0  0  0  0  0  0  0  0
   -1.8684    0.5006    3.3725 N   0  0  0  0  0  0  0  0  0  0  0  0
   -2.7946    0.7048    3.0343 H   0  0  0  0  0  0  0  0  0  0  0  0
   -1.5848    0.7472    4.7873 C   0  0  0  0  0  0  0  0  0  0  0  0
   -0.8819    1.5774    4.8838 H   0  0  0  0  0  0  0  0  0  0  0  0
   -2.5030    0.9948    5.3214 H   0  0  0  0  0  0  0  0  0  0  0  0
   -1.1344   -0.1399    5.2381 H   0  0  0  0  0  0  0  0  0  0  0  0
  5  6  2  0  0  0  0
  5  7  1  0  0  0  0
  2  3  1  0  0  0  0
  2  4  1  0  0  0  0
  2  5  1  0  0  0  0
  1  2  1  0  0  0  0
 29 30  2  0  0  0  0
 29 31  1  0  0  0  0
 26 27  1  0  0  0  0
 26 28  1  0  0  0  0
 23 24  1  0  0  0  0
 23 25  1  0  0  0  0
 22 23  1  0  0  0  0
 22 26  1  0  0  0  0
 20 21  1  0  0  0  0
 20 22  2  0  0  0  0
 17 18  1  0  0  0  0
 17 19  1  0  0  0  0
 17 20  1  0  0  0  0
 14 15  1  0  0  0  0
 14 16  1  0  0  0  0
 14 17  1  0  0  0  0
 11 12  1  0  0  0  0
 11 13  1  0  0  0  0
 11 14  1  0  0  0  0
  9 10  1  0  0  0  0
  9 11  1  0  0  0  0
  9 29  1  0  0  0  0
  7  8  1  0  0  0  0
  7  9  1  0  0  0  0
 33 34  1  0  0  0  0
 33 35  1  0  0  0  0
 33 36  1  0  0  0  0
 31 32  1  0  0  0  0
 31 33  1  0  0  0  0
M  CHG  1  20   1
M  END
$$$$
default_name
  -OEChem-02102213163D

 36 35  0     1  0  0  0  0  0999 V2000
   -4.2256   -3.6731    1.8584 H   0  0  0  0  0  0  0  0  0  0  0  0
   -4.2396   -2.6781    1.4144 C   0  0  0  0  0  0  0  0  0  0  0  0
   -4.9506   -2.0521    1.9514 H   0  0  0  0  0  0  0  0  0  0  0  0
   -4.5266   -2.7521    0.3674 H   0  0  0  0  0  0  0  0  0  0  0  0
   -2.8576   -2.0761    1.5184 C   0  0  0  0  0  0  0  0  0  0  0  0
   -1.9456   -2.7051    2.0404 O   0  0  0  0  0  0  0  0  0  0  0  0
   -2.6926   -0.8481    1.0174 N   0  0  0  0  0  0  0  0  0  0  0  0
   -3.4926   -0.3971    0.5954 H   0  0  0  0  0  0  0  0  0  0  0  0
   -1.4216   -0.1071    1.0434 C   0  0  1  0  0  0  0  0  0  0  0  0
   -0.6709   -0.6930    0.5106 H   0  0  0  0  0  0  0  0  0  0  0  0
   -1.6221    1.2315    0.3051 C   0  0  0  0  0  0  0  0  0  0  0  0
   -0.7759    1.3890   -0.3667 H   0  0  0  0  0  0  0  0  0  0  0  0
   -2.5293    1.1728   -0.3002 H   0  0  0  0  0  0  0  0  0  0  0  0
   -1.7217    2.4402    1.2471 C   0  0  0  0  0  0  0  0  0  0  0  0
   -2.7633    2.6064    1.5251 H   0  0  0  0  0  0  0  0  0  0  0  0
   -1.1353    2.2465    2.1458 H   0  0  0  0  0  0  0  0  0  0  0  0
   -1.1822    3.6946    0.5463 C   0  0  0  0  0  0  0  0  0  0  0  0
   -0.1477    3.5096    0.2479 H   0  0  0  0  0  0  0  0  0  0  0  0
   -1.7804    3.8767   -0.3496 H   0  0  0  0  0  0  0  0  0  0  0  0
   -1.2367    4.8804    1.4259 N   0  3  0  0  0  0  0  0  0  0  0  0
   -1.6492    4.7507    2.3339 H   0  0  0  0  0  0  0  0  0  0  0  0
   -0.7953    6.0920    1.1327 C   0  0  0  0  0  0  0  0  0  0  0  0
   -0.2439    6.3698   -0.0154 N   0  0  0  0  0  0  0  0  0  0  0  0
   -0.1511    5.6378   -0.6973 H   0  0  0  0  0  0  0  0  0  0  0  0
    0.0855    7.2948   -0.2222 H   0  0  0  0  0  0  0  0  0  0  0  0
   -0.9017    7.0604    1.9977 N   0  0  0  0  0  0  0  0  0  0  0  0
   -1.3197    6.8946    2.8970 H   0  0  0  0  0  0  0  0  0  0  0  0
   -0.5654    7.9781    1.7711 H   0  0  0  0  0  0  0  0  0  0  0  0
   -0.9523    0.1012    2.4848 C   0  0  0  0  0  0  0  0  0  0  0  0
    0.2133   -0.1319    2.7814 O   0  0  0  0  0  0  0  0  0  0  0  0
   -1.8684    0.5006    3.3725 N   0  0  0  0  0  0  0  0  0  0  0  0
   -2.7946    0.7048    3.0343 H   0  0  0  0  0  0  0  0  0  0  0  0
   -1.5848    0.7472    4.7873 C   0  0  0  0  0  0  0  0  0  0  0  0
   -0.8819    1.5774    4.8838 H   0  0  0  0  0  0  0  0  0  0  0  0
   -2.5030    0.9948    5.3214 H   0  0  0  0  0  0  0  0  0  0  0  0
   -1.1344   -0.1399    5.2381 H   0  0  0  0  0  0  0  0  0  0  0  0
  5  6  2  0  0  0  0
  5  7  1  0  0  0  0
  2  3  1  0  0  0  0
  2  4  1  0  0  0  0
  2  5  1  0  0  0  0
  1  2  1  0  0  0  0
 29 30  2  0  0  0  0
 29 31  1  0  0  0  0
 26 27  1  0  0  0  0
 26 28  1  0  0  0  0
 23 24  1  0  0  0  0
 23 25  1  0  0  0  0
 22 23  1  0  0  0  0
 22 26  1  0  0  0  0
 20 21  1  0  0  0  0
 20 22  2  0  0  0  0
 17 18  1  0  0  0  0
 17 19  1  0  0  0  0
 17 20  1  0  0  0  0
 14 15  1  0  0  0  0
 14 16  1  0  0  0  0
 14 17  1  0  0  0  0
 11 12  1  0  0  0  0
 11 13  1  0  0  0  0
 11 14  1  0  0  0  0
  9 10  1  0  0  0  0
  9 11  1  0  0  0  0
  9 29  1  0  0  0  0
  7  8  1  0  0  0  0
  7  9  1  0  0  0  0
 33 34  1  0  0  0  0
 33 35  1  0  0  0  0
 33 36  1  0  0  0  0
 31 32  1  0  0  0  0
 31 33  1  0  0  0  0
M  CHG  1  20   1
M  END
$$$$
default_name
  -OEChem-02102213163D

 36 35  0     1  0  0  0  0  0999 V2000
   -4.2256   -3.6731    1.8584 H   0  0  0  0  0  0  0  0  0  0  0  0
   -4.2396   -2.6781    1.4144 C   0  0  0  0  0  0  0  0  0  0  0  0
   -4.9506   -2.0521    1.9514 H   0  0  0  0  0  0  0  0  0  0  0  0
   -4.5266   -2.7521    0.3674 H   0  0  0  0  0  0  0  0  0  0  0  0
   -2.8576   -2.0761    1.5184 C   0  0  0  0  0  0  0  0  0  0  0  0
   -1.9456   -2.7051    2.0404 O   0  0  0  0  0  0  0  0  0  0  0  0
   -2.6926   -0.8481    1.0174 N   0  0  0  0  0  0  0  0  0  0  0  0
   -3.4926   -0.3971    0.5954 H   0  0  0  0  0  0  0  0  0  0  0  0
   -1.4216   -0.1071    1.0434 C   0  0  1  0  0  0  0  0  0  0  0  0
   -0.6709   -0.6930    0.5106 H   0  0  0  0  0  0  0  0  0  0  0  0
   -1.6221    1.2315    0.3051 C   0  0  0  0  0  0  0  0  0  0  0  0
   -0.7759    1.3890   -0.3667 H   0  0  0  0  0  0  0  0  0  0  0  0
   -2.5293    1.1728   -0.3002 H   0  0  0  0  0  0  0  0  0  0  0  0
   -1.7217    2.4402    1.2471 C   0  0  0  0  0  0  0  0  0  0  0  0
   -2.6984    2.4500    1.7328 H   0  0  0  0  0  0  0  0  0  0  0  0
   -0.9422    2.3709    2.0066 H   0  0  0  0  0  0  0  0  0  0  0  0
   -1.5436    3.7398    0.4502 C   0  0  0  0  0  0  0  0  0  0  0  0
   -0.5750    3.7097   -0.0540 H   0  0  0  0  0  0  0  0  0  0  0  0
   -2.3321    3.7958   -0.3041 H   0  0  0  0  0  0  0  0  0  0  0  0
   -1.6086    4.9308    1.3219 N   0  3  0  0  0  0  0  0  0  0  0  0
   -1.8026    4.7682    2.2952 H   0  0  0  0  0  0  0  0  0  0  0  0
   -1.4359    6.1863    0.9439 C   0  0  0  0  0  0  0  0  0  0  0  0
   -1.1802    6.5090   -0.2930 N   0  0  0  0  0  0  0  0  0  0  0  0
   -1.1110    5.7783   -0.9791 H   0  0  0  0  0  0  0  0  0  0  0  0
   -1.0522    7.4668   -0.5632 H   0  0  0  0  0  0  0  0  0  0  0  0
   -1.5191    7.1542    1.8120 N   0  0  0  0  0  0  0  0  0  0  0  0
   -1.7143    6.9548    2.7780 H   0  0  0  0  0  0  0  0  0  0  0  0
   -1.3874    8.1053    1.5210 H   0  0  0  0  0  0  0  0  0  0  0  0
   -0.9523    0.1012    2.4848 C   0  0  0  0  0  0  0  0  0  0  0  0
    0.2133   -0.1319    2.7814 O   0  0  0  0  0  0  0  0  0  0  0  0
   -1.8684    0.5006    3.3725 N   0  0  0  0  0  0  0  0  0  0  0  0
   -2.7946    0.7048    3.0343 H   0  0  0  0  0  0  0  0  0  0  0  0
   -1.5848    0.7472    4.7873 C   0  0  0  0  0  0  0  0  0  0  0  0
   -0.8819    1.5774    4.8838 H   0  0  0  0  0  0  0  0  0  0  0  0
   -2.5030    0.9948    5.3214 H   0  0  0  0  0  0  0  0  0  0  0  0
   -1.1344   -0.1399    5.2381 H   0  0  0  0  0  0  0  0  0  0  0  0
  5  6  2  0  0  0  0
  5  7  1  0  0  0  0
  2  3  1  0  0  0  0
  2  4  1  0  0  0  0
  2  5  1  0  0  0  0
  1  2  1  0  0  0  0
 29 30  2  0  0  0  0
 29 31  1  0  0  0  0
 26 27  1  0  0  0  0
 26 28  1  0  0  0  0
 23 24  1  0  0  0  0
 23 25  1  0  0  0  0
 22 23  1  0  0  0  0
 22 26  1  0  0  0  0
 20 21  1  0  0  0  0
 20 22  2  0  0  0  0
 17 18  1  0  0  0  0
 17 19  1  0  0  0  0
 17 20  1  0  0  0  0
 14 15  1  0  0  0  0
 14 16  1  0  0  0  0
 14 17  1  0  0  0  0
 11 12  1  0  0  0  0
 11 13  1  0  0  0  0
 11 14  1  0  0  0  0
  9 10  1  0  0  0  0
  9 11  1  0  0  0  0
  9 29  1  0  0  0  0
  7  8  1  0  0  0  0
  7  9  1  0  0  0  0
 33 34  1  0  0  0  0
 33 35  1  0  0  0  0
 33 36  1  0  0  0  0
 31 32  1  0  0  0  0
 31 33  1  0  0  0  0
M  CHG  1  20   1
M  END
$$$$
default_name
  -OEChem-02102213163D

 36 35  0     1  0  0  0  0  0999 V2000
   -4.2256   -3.6731    1.8584 H   0  0  0  0  0  0  0  0  0  0  0  0
   -4.2396   -2.6781    1.4144 C   0  0  0  0  0  0  0  0  0  0  0  0
   -4.9506   -2.0521    1.9514 H   0  0  0  0  0  0  0  0  0  0  0  0
   -4.5266   -2.7521    0.3674 H   0  0  0  0  0  0  0  0  0  0  0  0
   -2.8576   -2.0761    1.5184 C   0  0  0  0  0  0  0  0  0  0  0  0
   -1.9456   -2.7051    2.0404 O   0  0  0  0  0  0  0  0  0  0  0  0
   -2.6926   -0.8481    1.0174 N   0  0  0  0  0  0  0  0  0  0  0  0
   -3.4926   -0.3971    0.5954 H   0  0  0  0  0  0  0  0  0  0  0  0
   -1.4216   -0.1071    1.0434 C   0  0  1  0  0  0  0  0  0  0  0  0
   -0.6709   -0.6930    0.5106 H   0  0  0  0  0  0  0  0  0  0  0  0
   -1.6221    1.2315    0.3051 C   0  0  0  0  0  0  0  0  0  0  0  0
   -0.9377    1.2664   -0.5450 H   0  0  0  0  0  0  0  0  0  0  0  0
   -2.6433    1.2775   -0.0795 H   0  0  0  0  0  0  0  0  0  0  0  0
   -1.3595    2.4612    1.1867 C   0  0  0  0  0  0  0  0  0  0  0  0
   -2.0401    2.4560    2.0393 H   0  0  0  0  0  0  0  0  0  0  0  0
   -0.3306    2.4338    1.5468 H   0  0  0  0  0  0  0  0  0  0  0  0
   -1.5818    3.7439    0.3739 C   0  0  0  0  0  0  0  0  0  0  0  0
   -0.9156    3.7280   -0.4918 H   0  0  0  0  0  0  0  0  0  0  0  0
   -2.6162    3.7579    0.0225 H   0  0  0  0  0  0  0  0  0  0  0  0
   -1.3168    4.9551    1.1774 N   0  3  0  0  0  0  0  0  0  0  0  0
   -1.0763    4.8126    2.1434 H   0  0  0  0  0  0  0  0  0  0  0  0
   -1.3658    6.2046    0.7470 C   0  0  0  0  0  0  0  0  0  0  0  0
   -1.6673    6.5019   -0.4859 N   0  0  0  0  0  0  0  0  0  0  0  0
   -1.8672    5.7558   -1.1284 H   0  0  0  0  0  0  0  0  0  0  0  0
   -1.7004    7.4556   -0.7961 H   0  0  0  0  0  0  0  0  0  0  0  0
   -1.1106    7.1921    1.5576 N   0  0  0  0  0  0  0  0  0  0  0  0
   -0.8730    7.0127    2.5180 H   0  0  0  0  0  0  0  0  0  0  0  0
   -1.1488    8.1386    1.2270 H   0  0  0  0  0  0  0  0  0  0  0  0
   -0.9523    0.1012    2.4848 C   0  0  0  0  0  0  0  0  0  0  0  0
    0.2133   -0.1319    2.7814 O   0  0  0  0  0  0  0  0  0  0  0  0
   -1.8684    0.5006    3.3725 N   0  0  0  0  0  0  0  0  0  0  0  0
   -2.7946    0.7048    3.0343 H   0  0  0  0  0  0  0  0  0  0  0  0
   -1.5848    0.7472    4.7873 C   0  0  0  0  0  0  0  0  0  0  0  0
   -0.8819    1.5774    4.8838 H   0  0  0  0  0  0  0  0  0  0  0  0
   -2.5030    0.9948    5.3214 H   0  0  0  0  0  0  0  0  0  0  0  0
   -1.1344   -0.1399    5.2381 H   0  0  0  0  0  0  0  0  0  0  0  0
  5  6  2  0  0  0  0
  5  7  1  0  0  0  0
  2  3  1  0  0  0  0
  2  4  1  0  0  0  0
  2  5  1  0  0  0  0
  1  2  1  0  0  0  0
 29 30  2  0  0  0  0
 29 31  1  0  0  0  0
 26 27  1  0  0  0  0
 26 28  1  0  0  0  0
 23 24  1  0  0  0  0
 23 25  1  0  0  0  0
 22 23  1  0  0  0  0
 22 26  1  0  0  0  0
 20 21  1  0  0  0  0
 20 22  2  0  0  0  0
 17 18  1  0  0  0  0
 17 19  1  0  0  0  0
 17 20  1  0  0  0  0
 14 15  1  0  0  0  0
 14 16  1  0  0  0  0
 14 17  1  0  0  0  0
 11 12  1  0  0  0  0
 11 13  1  0  0  0  0
 11 14  1  0  0  0  0
  9 10  1  0  0  0  0
  9 11  1  0  0  0  0
  9 29  1  0  0  0  0
  7  8  1  0  0  0  0
  7  9  1  0  0  0  0
 33 34  1  0  0  0  0
 33 35  1  0  0  0  0
 33 36  1  0  0  0  0
 31 32  1  0  0  0  0
 31 33  1  0  0  0  0
M  CHG  1  20   1
M  END
$$$$
default_name
  -OEChem-02102213163D

 36 35  0     1  0  0  0  0  0999 V2000
   -4.2256   -3.6731    1.8584 H   0  0  0  0  0  0  0  0  0  0  0  0
   -4.2396   -2.6781    1.4144 C   0  0  0  0  0  0  0  0  0  0  0  0
   -4.9506   -2.0521    1.9514 H   0  0  0  0  0  0  0  0  0  0  0  0
   -4.5266   -2.7521    0.3674 H   0  0  0  0  0  0  0  0  0  0  0  0
   -2.8576   -2.0761    1.5184 C   0  0  0  0  0  0  0  0  0  0  0  0
   -1.9456   -2.7051    2.0404 O   0  0  0  0  0  0  0  0  0  0  0  0
   -2.6926   -0.8481    1.0174 N   0  0  0  0  0  0  0  0  0  0  0  0
   -3.4926   -0.3971    0.5954 H   0  0  0  0  0  0  0  0  0  0  0  0
   -1.4216   -0.1071    1.0434 C   0  0  1  0  0  0  0  0  0  0  0  0
   -0.6709   -0.6930    0.5106 H   0  0  0  0  0  0  0  0  0  0  0  0
   -1.6221    1.2315    0.3051 C   0  0  0  0  0  0  0  0  0  0  0  0
   -0.9377    1.2664   -0.5450 H   0  0  0  0  0  0  0  0  0  0  0  0
   -2.6433    1.2775   -0.0795 H   0  0  0  0  0  0  0  0  0  0  0  0
   -1.3595    2.4612    1.1867 C   0  0  0  0  0  0  0  0  0  0  0  0
   -1.8372    2.3274    2.1583 H   0  0  0  0  0  0  0  0  0  0  0  0
   -0.2848    2.5815    1.3272 H   0  0  0  0  0  0  0  0  0  0  0  0
   -1.9302    3.7174    0.5146 C   0  0  0  0  0  0  0  0  0  0  0  0
   -1.4661    3.8285   -0.4680 H   0  0  0  0  0  0  0  0  0  0  0  0
   -3.0064    3.5828    0.3830 H   0  0  0  0  0  0  0  0  0  0  0  0
   -1.6791    4.9314    1.3183 N   0  3  0  0  0  0  0  0  0  0  0  0
   -1.2226    4.7999    2.2047 H   0  0  0  0  0  0  0  0  0  0  0  0
   -1.9969    6.1705    0.9826 C   0  0  0  0  0  0  0  0  0  0  0  0
   -2.5909    6.4531   -0.1428 N   0  0  0  0  0  0  0  0  0  0  0  0
   -2.8120    5.7039   -0.7746 H   0  0  0  0  0  0  0  0  0  0  0  0
   -2.8255    7.3989   -0.3820 H   0  0  0  0  0  0  0  0  0  0  0  0
   -1.7216    7.1618    1.7819 N   0  0  0  0  0  0  0  0  0  0  0  0
   -1.2637    6.9936    2.6610 H   0  0  0  0  0  0  0  0  0  0  0  0
   -1.9644    8.1003    1.5233 H   0  0  0  0  0  0  0  0  0  0  0  0
   -0.9523    0.1012    2.4848 C   0  0  0  0  0  0  0  0  0  0  0  0
    0.2133   -0.1319    2.7814 O   0  0  0  0  0  0  0  0  0  0  0  0
   -1.8684    0.5006    3.3725 N   0  0  0  0  0  0  0  0  0  0  0  0
   -2.7946    0.7048    3.0343 H   0  0  0  0  0  0  0  0  0  0  0  0
   -1.5848    0.7472    4.7873 C   0  0  0  0  0  0  0  0  0  0  0  0
   -0.8819    1.5774    4.8838 H   0  0  0  0  0  0  0  0  0  0  0  0
   -2.5030    0.9948    5.3214 H   0  0  0  0  0  0  0  0  0  0  0  0
   -1.1344   -0.1399    5.2381 H   0  0  0  0  0  0  0  0  0  0  0  0
  5  6  2  0  0  0  0
  5  7  1  0  0  0  0
  2  3  1  0  0  0  0
  2  4  1  0  0  0  0
  2  5  1  0  0  0  0
  1  2  1  0  0  0  0
 29 30  2  0  0  0  0
 29 31  1  0  0  0  0
 26 27  1  0  0  0  0
 26 28  1  0  0  0  0
 23 24  1  0  0  0  0
 23 25  1  0  0  0  0
 22 23  1  0  0  0  0
 22 26  1  0  0  0  0
 20 21  1  0  0  0  0
 20 22  2  0  0  0  0
 17 18  1  0  0  0  0
 17 19  1  0  0  0  0
 17 20  1  0  0  0  0
 14 15  1  0  0  0  0
 14 16  1  0  0  0  0
 14 17  1  0  0  0  0
 11 12  1  0  0  0  0
 11 13  1  0  0  0  0
 11 14  1  0  0  0  0
  9 10  1  0  0  0  0
  9 11  1  0  0  0  0
  9 29  1  0  0  0  0
  7  8  1  0  0  0  0
  7  9  1  0  0  0  0
 33 34  1  0  0  0  0
 33 35  1  0  0  0  0
 33 36  1  0  0  0  0
 31 32  1  0  0  0  0
 31 33  1  0  0  0  0
M  CHG  1  20   1
M  END
$$$$
default_name
  -OEChem-02102213163D

 36 35  0     1  0  0  0  0  0999 V2000
   -4.2256   -3.6731    1.8584 H   0  0  0  0  0  0  0  0  0  0  0  0
   -4.2396   -2.6781    1.4144 C   0  0  0  0  0  0  0  0  0  0  0  0
   -4.9506   -2.0521    1.9514 H   0  0  0  0  0  0  0  0  0  0  0  0
   -4.5266   -2.7521    0.3674 H   0  0  0  0  0  0  0  0  0  0  0  0
   -2.8576   -2.0761    1.5184 C   0  0  0  0  0  0  0  0  0  0  0  0
   -1.9456   -2.7051    2.0404 O   0  0  0  0  0  0  0  0  0  0  0  0
   -2.6926   -0.8481    1.0174 N   0  0  0  0  0  0  0  0  0  0  0  0
   -3.4926   -0.3971    0.5954 H   0  0  0  0  0  0  0  0  0  0  0  0
   -1.4216   -0.1071    1.0434 C   0  0  1  0  0  0  0  0  0  0  0  0
   -0.6709   -0.6930    0.5106 H   0  0  0  0  0  0  0  0  0  0  0  0
   -1.6221    1.2315    0.3051 C   0  0  0  0  0  0  0  0  0  0  0  0
   -0.9377    1.2664   -0.5450 H   0  0  0  0  0  0  0  0  0  0  0  0
   -2.6433    1.2775   -0.0795 H   0  0  0  0  0  0  0  0  0  0  0  0
   -1.3595    2.4612    1.1867 C   0  0  0  0  0  0  0  0  0  0  0  0
   -1.5976    2.2281    2.2255 H   0  0  0  0  0  0  0  0  0  0  0  0
   -0.3081    2.7407    1.1120 H   0  0  0  0  0  0  0  0  0  0  0  0
   -2.2337    3.6338    0.7216 C   0  0  0  0  0  0  0  0  0  0  0  0
   -2.0078    3.8428   -0.3266 H   0  0  0  0  0  0  0  0  0  0  0  0
   -3.2826    3.3396    0.8044 H   0  0  0  0  0  0  0  0  0  0  0  0
   -1.9963    4.8484    1.5285 N   0  3  0  0  0  0  0  0  0  0  0  0
   -1.3493    4.7632    2.2936 H   0  0  0  0  0  0  0  0  0  0  0  0
   -2.5526    6.0333    1.3395 C   0  0  0  0  0  0  0  0  0  0  0  0
   -3.4046    6.2536    0.3779 N   0  0  0  0  0  0  0  0  0  0  0  0
   -3.6437    5.4977   -0.2393 H   0  0  0  0  0  0  0  0  0  0  0  0
   -3.8180    7.1588    0.2486 H   0  0  0  0  0  0  0  0  0  0  0  0
   -2.2608    7.0319    2.1237 N   0  0  0  0  0  0  0  0  0  0  0  0
   -1.6087    6.9107    2.8794 H   0  0  0  0  0  0  0  0  0  0  0  0
   -2.6850    7.9291    1.9768 H   0  0  0  0  0  0  0  0  0  0  0  0
   -0.9523    0.1012    2.4848 C   0  0  0  0  0  0  0  0  0  0  0  0
    0.2133   -0.1319    2.7814 O   0  0  0  0  0  0  0  0  0  0  0  0
   -1.8684    0.5006    3.3725 N   0  0  0  0  0  0  0  0  0  0  0  0
   -2.7946    0.7048    3.0343 H   0  0  0  0  0  0  0  0  0  0  0  0
   -1.5848    0.7472    4.7873 C   0  0  0  0  0  0  0  0  0  0  0  0
   -0.8819    1.5774    4.8838 H   0  0  0  0  0  0  0  0  0  0  0  0
   -2.5030    0.9948    5.3214 H   0  0  0  0  0  0  0  0  0  0  0  0
   -1.1344   -0.1399    5.2381 H   0  0  0  0  0  0  0  0  0  0  0  0
  5  6  2  0  0  0  0
  5  7  1  0  0  0  0
  2  3  1  0  0  0  0
  2  4  1  0  0  0  0
  2  5  1  0  0  0  0
  1  2  1  0  0  0  0
 29 30  2  0  0  0  0
 29 31  1  0  0  0  0
 26 27  1  0  0  0  0
 26 28  1  0  0  0  0
 23 24  1  0  0  0  0
 23 25  1  0  0  0  0
 22 23  1  0  0  0  0
 22 26  1  0  0  0  0
 20 21  1  0  0  0  0
 20 22  2  0  0  0  0
 17 18  1  0  0  0  0
 17 19  1  0  0  0  0
 17 20  1  0  0  0  0
 14 15  1  0  0  0  0
 14 16  1  0  0  0  0
 14 17  1  0  0  0  0
 11 12  1  0  0  0  0
 11 13  1  0  0  0  0
 11 14  1  0  0  0  0
  9 10  1  0  0  0  0
  9 11  1  0  0  0  0
  9 29  1  0  0  0  0
  7  8  1  0  0  0  0
  7  9  1  0  0  0  0
 33 34  1  0  0  0  0
 33 35  1  0  0  0  0
 33 36  1  0  0  0  0
 31 32  1  0  0  0  0
 31 33  1  0  0  0  0
M  CHG  1  20   1
M  END
$$$$
default_name
  -OEChem-02102213163D

 36 35  0     1  0  0  0  0  0999 V2000
   -4.2256   -3.6731    1.8584 H   0  0  0  0  0  0  0  0  0  0  0  0
   -4.2396   -2.6781    1.4144 C   0  0  0  0  0  0  0  0  0  0  0  0
   -4.9506   -2.0521    1.9514 H   0  0  0  0  0  0  0  0  0  0  0  0
   -4.5266   -2.7521    0.3674 H   0  0  0  0  0  0  0  0  0  0  0  0
   -2.8576   -2.0761    1.5184 C   0  0  0  0  0  0  0  0  0  0  0  0
   -1.9456   -2.7051    2.0404 O   0  0  0  0  0  0  0  0  0  0  0  0
   -2.6926   -0.8481    1.0174 N   0  0  0  0  0  0  0  0  0  0  0  0
   -3.4926   -0.3971    0.5954 H   0  0  0  0  0  0  0  0  0  0  0  0
   -1.4216   -0.1071    1.0434 C   0  0  1  0  0  0  0  0  0  0  0  0
   -0.6709   -0.6930    0.5106 H   0  0  0  0  0  0  0  0  0  0  0  0
   -1.6221    1.2315    0.3051 C   0  0  0  0  0  0  0  0  0  0  0  0
   -0.9377    1.2664   -0.5450 H   0  0  0  0  0  0  0  0  0  0  0  0
   -2.6433    1.2775   -0.0795 H   0  0  0  0  0  0  0  0  0  0  0  0
   -1.3595    2.4612    1.1867 C   0  0  0  0  0  0  0  0  0  0  0  0
   -1.3374    2.1647    2.2363 H   0  0  0  0  0  0  0  0  0  0  0  0
   -0.3989    2.9006    0.9161 H   0  0  0  0  0  0  0  0  0  0  0  0
   -2.4715    3.4988    0.9807 C   0  0  0  0  0  0  0  0  0  0  0  0
   -2.5039    3.7698   -0.0770 H   0  0  0  0  0  0  0  0  0  0  0  0
   -3.4259    3.0451    1.2579 H   0  0  0  0  0  0  0  0  0  0  0  0
   -2.2468    4.7119    1.7936 N   0  3  0  0  0  0  0  0  0  0  0  0
   -1.4478    4.7050    2.4042 H   0  0  0  0  0  0  0  0  0  0  0  0
   -2.9950    5.8024    1.7933 C   0  0  0  0  0  0  0  0  0  0  0  0
   -4.0531    5.9170    1.0406 N   0  0  0  0  0  0  0  0  0  0  0  0
   -4.3054    5.1513    0.4410 H   0  0  0  0  0  0  0  0  0  0  0  0
   -4.6103    6.7514    1.0528 H   0  0  0  0  0  0  0  0  0  0  0  0
   -2.6914    6.8111    2.5600 N   0  0  0  0  0  0  0  0  0  0  0  0
   -1.8843    6.7697    3.1581 H   0  0  0  0  0  0  0  0  0  0  0  0
   -3.2617    7.6365    2.5567 H   0  0  0  0  0  0  0  0  0  0  0  0
   -0.9523    0.1012    2.4848 C   0  0  0  0  0  0  0  0  0  0  0  0
    0.2133   -0.1319    2.7814 O   0  0  0  0  0  0  0  0  0  0  0  0
   -1.8684    0.5006    3.3725 N   0  0  0  0  0  0  0  0  0  0  0  0
   -2.7946    0.7048    3.0343 H   0  0  0  0  0  0  0  0  0  0  0  0
   -1.5848    0.7472    4.7873 C   0  0  0  0  0  0  0  0  0  0  0  0
   -0.8819    1.5774    4.8838 H   0  0  0  0  0  0  0  0  0  0  0  0
   -2.5030    0.9948    5.3214 H   0  0  0  0  0  0  0  0  0  0  0  0
   -1.1344   -0.1399    5.2381 H   0  0  0  0  0  0  0  0  0  0  0  0
  5  6  2  0  0  0  0
  5  7  1  0  0  0  0
  2  3  1  0  0  0  0
  2  4  1  0  0  0  0
  2  5  1  0  0  0  0
  1  2  1  0  0  0  0
 29 30  2  0  0  0  0
 29 31  1  0  0  0  0
 26 27  1  0  0  0  0
 26 28  1  0  0  0  0
 23 24  1  0  0  0  0
 23 25  1  0  0  0  0
 22 23  1  0  0  0  0
 22 26  1  0  0  0  0
 20 21  1  0  0  0  0
 20 22  2  0  0  0  0
 17 18  1  0  0  0  0
 17 19  1  0  0  0  0
 17 20  1  0  0  0  0
 14 15  1  0  0  0  0
 14 16  1  0  0  0  0
 14 17  1  0  0  0  0
 11 12  1  0  0  0  0
 11 13  1  0  0  0  0
 11 14  1  0  0  0  0
  9 10  1  0  0  0  0
  9 11  1  0  0  0  0
  9 29  1  0  0  0  0
  7  8  1  0  0  0  0
  7  9  1  0  0  0  0
 33 34  1  0  0  0  0
 33 35  1  0  0  0  0
 33 36  1  0  0  0  0
 31 32  1  0  0  0  0
 31 33  1  0  0  0  0
M  CHG  1  20   1
M  END
$$$$
default_name
  -OEChem-02102213163D

 36 35  0     1  0  0  0  0  0999 V2000
   -4.2256   -3.6731    1.8584 H   0  0  0  0  0  0  0  0  0  0  0  0
   -4.2396   -2.6781    1.4144 C   0  0  0  0  0  0  0  0  0  0  0  0
   -4.9506   -2.0521    1.9514 H   0  0  0  0  0  0  0  0  0  0  0  0
   -4.5266   -2.7521    0.3674 H   0  0  0  0  0  0  0  0  0  0  0  0
   -2.8576   -2.0761    1.5184 C   0  0  0  0  0  0  0  0  0  0  0  0
   -1.9456   -2.7051    2.0404 O   0  0  0  0  0  0  0  0  0  0  0  0
   -2.6926   -0.8481    1.0174 N   0  0  0  0  0  0  0  0  0  0  0  0
   -3.4926   -0.3971    0.5954 H   0  0  0  0  0  0  0  0  0  0  0  0
   -1.4216   -0.1071    1.0434 C   0  0  1  0  0  0  0  0  0  0  0  0
   -0.6709   -0.6930    0.5106 H   0  0  0  0  0  0  0  0  0  0  0  0
   -1.6221    1.2315    0.3051 C   0  0  0  0  0  0  0  0  0  0  0  0
   -0.9377    1.2664   -0.5450 H   0  0  0  0  0  0  0  0  0  0  0  0
   -2.6433    1.2775   -0.0795 H   0  0  0  0  0  0  0  0  0  0  0  0
   -1.3595    2.4612    1.1867 C   0  0  0  0  0  0  0  0  0  0  0  0
   -1.0744    2.1417    2.1901 H   0  0  0  0  0  0  0  0  0  0  0  0
   -0.5509    3.0502    0.7527 H   0  0  0  0  0  0  0  0  0  0  0  0
   -2.6274    3.3216    1.2744 C   0  0  0  0  0  0  0  0  0  0  0  0
   -2.9205    3.6146    0.2636 H   0  0  0  0  0  0  0  0  0  0  0  0
   -3.4266    2.7193    1.7126 H   0  0  0  0  0  0  0  0  0  0  0  0
   -2.4136    4.5310    2.0955 N   0  3  0  0  0  0  0  0  0  0  0  0
   -1.5114    4.6292    2.5288 H   0  0  0  0  0  0  0  0  0  0  0  0
   -3.2940    5.4936    2.3132 C   0  0  0  0  0  0  0  0  0  0  0  0
   -4.4921    5.4661    1.8002 N   0  0  0  0  0  0  0  0  0  0  0  0
   -4.7522    4.6883    1.2199 H   0  0  0  0  0  0  0  0  0  0  0  0
   -5.1484    6.2046    1.9757 H   0  0  0  0  0  0  0  0  0  0  0  0
   -2.9842    6.5145    3.0608 N   0  0  0  0  0  0  0  0  0  0  0  0
   -2.0718    6.5803    3.4782 H   0  0  0  0  0  0  0  0  0  0  0  0
   -3.6551    7.2426    3.2233 H   0  0  0  0  0  0  0  0  0  0  0  0
   -0.9523    0.1012    2.4848 C   0  0  0  0  0  0  0  0  0  0  0  0
    0.2133   -0.1319    2.7814 O   0  0  0  0  0  0  0  0  0  0  0  0
   -1.8684    0.5006    3.3725 N   0  0  0  0  0  0  0  0  0  0  0  0
   -2.7946    0.7048    3.0343 H   0  0  0  0  0  0  0  0  0  0  0  0
   -1.5848    0.7472    4.7873 C   0  0  0  0  0  0  0  0  0  0  0  0
   -0.8819    1.5774    4.8838 H   0  0  0  0  0  0  0  0  0  0  0  0
   -2.5030    0.9948    5.3214 H   0  0  0  0  0  0  0  0  0  0  0  0
   -1.1344   -0.1399    5.2381 H   0  0  0  0  0  0  0  0  0  0  0  0
  5  6  2  0  0  0  0
  5  7  1  0  0  0  0
  2  3  1  0  0  0  0
  2  4  1  0  0  0  0
  2  5  1  0  0  0  0
  1  2  1  0  0  0  0
 29 30  2  0  0  0  0
 29 31  1  0  0  0  0
 26 27  1  0  0  0  0
 26 28  1  0  0  0  0
 23 24  1  0  0  0  0
 23 25  1  0  0  0  0
 22 23  1  0  0  0  0
 22 26  1  0  0  0  0
 20 21  1  0  0  0  0
 20 22  2  0  0  0  0
 17 18  1  0  0  0  0
 17 19  1  0  0  0  0
 17 20  1  0  0  0  0
 14 15  1  0  0  0  0
 14 16  1  0  0  0  0
 14 17  1  0  0  0  0
 11 12  1  0  0  0  0
 11 13  1  0  0  0  0
 11 14  1  0  0  0  0
  9 10  1  0  0  0  0
  9 11  1  0  0  0  0
  9 29  1  0  0  0  0
  7  8  1  0  0  0  0
  7  9  1  0  0  0  0
 33 34  1  0  0  0  0
 33 35  1  0  0  0  0
 33 36  1  0  0  0  0
 31 32  1  0  0  0  0
 31 33  1  0  0  0  0
M  CHG  1  20   1
M  END
$$$$
default_name
  -OEChem-02102213163D

 36 35  0     1  0  0  0  0  0999 V2000
   -4.2256   -3.6731    1.8584 H   0  0  0  0  0  0  0  0  0  0  0  0
   -4.2396   -2.6781    1.4144 C   0  0  0  0  0  0  0  0  0  0  0  0
   -4.9506   -2.0521    1.9514 H   0  0  0  0  0  0  0  0  0  0  0  0
   -4.5266   -2.7521    0.3674 H   0  0  0  0  0  0  0  0  0  0  0  0
   -2.8576   -2.0761    1.5184 C   0  0  0  0  0  0  0  0  0  0  0  0
   -1.9456   -2.7051    2.0404 O   0  0  0  0  0  0  0  0  0  0  0  0
   -2.6926   -0.8481    1.0174 N   0  0  0  0  0  0  0  0  0  0  0  0
   -3.4926   -0.3971    0.5954 H   0  0  0  0  0  0  0  0  0  0  0  0
   -1.4216   -0.1071    1.0434 C   0  0  1  0  0  0  0  0  0  0  0  0
   -0.6709   -0.6930    0.5106 H   0  0  0  0  0  0  0  0  0  0  0  0
   -1.6221    1.2315    0.3051 C   0  0  0  0  0  0  0  0  0  0  0  0
   -0.9377    1.2664   -0.5450 H   0  0  0  0  0  0  0  0  0  0  0  0
   -2.6433    1.2775   -0.0795 H   0  0  0  0  0  0  0  0  0  0  0  0
   -1.3595    2.4612    1.1867 C   0  0  0  0  0  0  0  0  0  0  0  0
   -0.8266    2.1606    2.0899 H   0  0  0  0  0  0  0  0  0  0  0  0
   -0.7538    3.1793    0.6330 H   0  0  0  0  0  0  0  0  0  0  0  0
   -2.6908    3.1143    1.5824 C   0  0  0  0  0  0  0  0  0  0  0  0
   -3.2293    3.3876    0.6721 H   0  0  0  0  0  0  0  0  0  0  0  0
   -3.2847    2.3843    2.1376 H   0  0  0  0  0  0  0  0  0  0  0  0
   -2.4852    4.3182    2.4137 N   0  3  0  0  0  0  0  0  0  0  0  0
   -1.5358    4.5410    2.6590 H   0  0  0  0  0  0  0  0  0  0  0  0
   -3.4292    5.1278    2.8636 C   0  0  0  0  0  0  0  0  0  0  0  0
   -4.6917    4.9318    2.6050 N   0  0  0  0  0  0  0  0  0  0  0  0
   -4.9535    4.1402    2.0444 H   0  0  0  0  0  0  0  0  0  0  0  0
   -5.3956    5.5557    2.9546 H   0  0  0  0  0  0  0  0  0  0  0  0
   -3.1191    6.1624    3.5921 N   0  0  0  0  0  0  0  0  0  0  0  0
   -2.1585    6.3552    3.8179 H   0  0  0  0  0  0  0  0  0  0  0  0
   -3.8383    6.7741    3.9314 H   0  0  0  0  0  0  0  0  0  0  0  0
   -0.9523    0.1012    2.4848 C   0  0  0  0  0  0  0  0  0  0  0  0
    0.2133   -0.1319    2.7814 O   0  0  0  0  0  0  0  0  0  0  0  0
   -1.8684    0.5006    3.3725 N   0  0  0  0  0  0  0  0  0  0  0  0
   -2.7946    0.7048    3.0343 H   0  0  0  0  0  0  0  0  0  0  0  0
   -1.5848    0.7472    4.7873 C   0  0  0  0  0  0  0  0  0  0  0  0
   -0.8819    1.5774    4.8838 H   0  0  0  0  0  0  0  0  0  0  0  0
   -2.5030    0.9948    5.3214 H   0  0  0  0  0  0  0  0  0  0  0  0
   -1.1344   -0.1399    5.2381 H   0  0  0  0  0  0  0  0  0  0  0  0
  5  6  2  0  0  0  0
  5  7  1  0  0  0  0
  2  3  1  0  0  0  0
  2  4  1  0  0  0  0
  2  5  1  0  0  0  0
  1  2  1  0  0  0  0
 29 30  2  0  0  0  0
 29 31  1  0  0  0  0
 26 27  1  0  0  0  0
 26 28  1  0  0  0  0
 23 24  1  0  0  0  0
 23 25  1  0  0  0  0
 22 23  1  0  0  0  0
 22 26  1  0  0  0  0
 20 21  1  0  0  0  0
 20 22  2  0  0  0  0
 17 18  1  0  0  0  0
 17 19  1  0  0  0  0
 17 20  1  0  0  0  0
 14 15  1  0  0  0  0
 14 16  1  0  0  0  0
 14 17  1  0  0  0  0
 11 12  1  0  0  0  0
 11 13  1  0  0  0  0
 11 14  1  0  0  0  0
  9 10  1  0  0  0  0
  9 11  1  0  0  0  0
  9 29  1  0  0  0  0
  7  8  1  0  0  0  0
  7  9  1  0  0  0  0
 33 34  1  0  0  0  0
 33 35  1  0  0  0  0
 33 36  1  0  0  0  0
 31 32  1  0  0  0  0
 31 33  1  0  0  0  0
M  CHG  1  20   1
M  END
$$$$
default_name
  -OEChem-02102213163D

 36 35  0     1  0  0  0  0  0999 V2000
   -4.2256   -3.6731    1.8584 H   0  0  0  0  0  0  0  0  0  0  0  0
   -4.2396   -2.6781    1.4144 C   0  0  0  0  0  0  0  0  0  0  0  0
   -4.9506   -2.0521    1.9514 H   0  0  0  0  0  0  0  0  0  0  0  0
   -4.5266   -2.7521    0.3674 H   0  0  0  0  0  0  0  0  0  0  0  0
   -2.8576   -2.0761    1.5184 C   0  0  0  0  0  0  0  0  0  0  0  0
   -1.9456   -2.7051    2.0404 O   0  0  0  0  0  0  0  0  0  0  0  0
   -2.6926   -0.8481    1.0174 N   0  0  0  0  0  0  0  0  0  0  0  0
   -3.4926   -0.3971    0.5954 H   0  0  0  0  0  0  0  0  0  0  0  0
   -1.4216   -0.1071    1.0434 C   0  0  1  0  0  0  0  0  0  0  0  0
   -0.6709   -0.6930    0.5106 H   0  0  0  0  0  0  0  0  0  0  0  0
   -1.6221    1.2315    0.3051 C   0  0  0  0  0  0  0  0  0  0  0  0
   -0.9377    1.2664   -0.5450 H   0  0  0  0  0  0  0  0  0  0  0  0
   -2.6433    1.2775   -0.0795 H   0  0  0  0  0  0  0  0  0  0  0  0
   -1.3595    2.4612    1.1867 C   0  0  0  0  0  0  0  0  0  0  0  0
   -0.6108    2.2202    1.9426 H   0  0  0  0  0  0  0  0  0  0  0  0
   -0.9937    3.2792    0.5652 H   0  0  0  0  0  0  0  0  0  0  0  0
   -2.6574    2.8910    1.8840 C   0  0  0  0  0  0  0  0  0  0  0  0
   -3.4091    3.1045    1.1206 H   0  0  0  0  0  0  0  0  0  0  0  0
   -3.0097    2.0631    2.5038 H   0  0  0  0  0  0  0  0  0  0  0  0
   -2.4569    4.0879    2.7265 N   0  3  0  0  0  0  0  0  0  0  0  0
   -1.5192    4.4465    2.7860 H   0  0  0  0  0  0  0  0  0  0  0  0
   -3.3914    4.7301    3.4071 C   0  0  0  0  0  0  0  0  0  0  0  0
   -4.6384    4.3504    3.4001 N   0  0  0  0  0  0  0  0  0  0  0  0
   -4.8956    3.5444    2.8582 H   0  0  0  0  0  0  0  0  0  0  0  0
   -5.3351    4.8488    3.9226 H   0  0  0  0  0  0  0  0  0  0  0  0
   -3.0870    5.7788    4.1177 N   0  0  0  0  0  0  0  0  0  0  0  0
   -2.1383    6.1100    4.1541 H   0  0  0  0  0  0  0  0  0  0  0  0
   -3.7990    6.2631    4.6325 H   0  0  0  0  0  0  0  0  0  0  0  0
   -0.9523    0.1012    2.4848 C   0  0  0  0  0  0  0  0  0  0  0  0
    0.2133   -0.1319    2.7814 O   0  0  0  0  0  0  0  0  0  0  0  0
   -1.8684    0.5006    3.3725 N   0  0  0  0  0  0  0  0  0  0  0  0
   -2.7946    0.7048    3.0343 H   0  0  0  0  0  0  0  0  0  0  0  0
   -1.5848    0.7472    4.7873 C   0  0  0  0  0  0  0  0  0  0  0  0
   -0.8819    1.5774    4.8838 H   0  0  0  0  0  0  0  0  0  0  0  0
   -2.5030    0.9948    5.3214 H   0  0  0  0  0  0  0  0  0  0  0  0
   -1.1344   -0.1399    5.2381 H   0  0  0  0  0  0  0  0  0  0  0  0
  5  6  2  0  0  0  0
  5  7  1  0  0  0  0
  2  3  1  0  0  0  0
  2  4  1  0  0  0  0
  2  5  1  0  0  0  0
  1  2  1  0  0  0  0
 29 30  2  0  0  0  0
 29 31  1  0  0  0  0
 26 27  1  0  0  0  0
 26 28  1  0  0  0  0
 23 24  1  0  0  0  0
 23 25  1  0  0  0  0
 22 23  1  0  0  0  0
 22 26  1  0  0  0  0
 20 21  1  0  0  0  0
 20 22  2  0  0  0  0
 17 18  1  0  0  0  0
 17 19  1  0  0  0  0
 17 20  1  0  0  0  0
 14 15  1  0  0  0  0
 14 16  1  0  0  0  0
 14 17  1  0  0  0  0
 11 12  1  0  0  0  0
 11 13  1  0  0  0  0
 11 14  1  0  0  0  0
  9 10  1  0  0  0  0
  9 11  1  0  0  0  0
  9 29  1  0  0  0  0
  7  8  1  0  0  0  0
  7  9  1  0  0  0  0
 33 34  1  0  0  0  0
 33 35  1  0  0  0  0
 33 36  1  0  0  0  0
 31 32  1  0  0  0  0
 31 33  1  0  0  0  0
M  CHG  1  20   1
M  END
$$$$
default_name
  -OEChem-02102213163D

 36 35  0     1  0  0  0  0  0999 V2000
   -4.2256   -3.6731    1.8584 H   0  0  0  0  0  0  0  0  0  0  0  0
   -4.2396   -2.6781    1.4144 C   0  0  0  0  0  0  0  0  0  0  0  0
   -4.9506   -2.0521    1.9514 H   0  0  0  0  0  0  0  0  0  0  0  0
   -4.5266   -2.7521    0.3674 H   0  0  0  0  0  0  0  0  0  0  0  0
   -2.8576   -2.0761    1.5184 C   0  0  0  0  0  0  0  0  0  0  0  0
   -1.9456   -2.7051    2.0404 O   0  0  0  0  0  0  0  0  0  0  0  0
   -2.6926   -0.8481    1.0174 N   0  0  0  0  0  0  0  0  0  0  0  0
   -3.4926   -0.3971    0.5954 H   0  0  0  0  0  0  0  0  0  0  0  0
   -1.4216   -0.1071    1.0434 C   0  0  1  0  0  0  0  0  0  0  0  0
   -0.6709   -0.6930    0.5106 H   0  0  0  0  0  0  0  0  0  0  0  0
   -1.6221    1.2315    0.3051 C   0  0  0  0  0  0  0  0  0  0  0  0
   -0.9377    1.2664   -0.5450 H   0  0  0  0  0  0  0  0  0  0  0  0
   -2.6433    1.2775   -0.0795 H   0  0  0  0  0  0  0  0  0  0  0  0
   -1.3595    2.4612    1.1867 C   0  0  0  0  0  0  0  0  0  0  0  0
   -0.4417    2.3162    1.7582 H   0  0  0  0  0  0  0  0  0  0  0  0
   -1.2544    3.3430    0.5538 H   0  0  0  0  0  0  0  0  0  0  0  0
   -2.5295    2.6669    2.1585 C   0  0  0  0  0  0  0  0  0  0  0  0
   -3.4478    2.7844    1.5786 H   0  0  0  0  0  0  0  0  0  0  0  0
   -2.6204    1.7774    2.7863 H   0  0  0  0  0  0  0  0  0  0  0  0
   -2.3304    3.8559    3.0125 N   0  3  0  0  0  0  0  0  0  0  0  0
   -1.4628    4.3520    2.9009 H   0  0  0  0  0  0  0  0  0  0  0  0
   -3.1831    4.3275    3.9066 C   0  0  0  0  0  0  0  0  0  0  0  0
   -4.3357    3.7615    4.1313 N   0  0  0  0  0  0  0  0  0  0  0  0
   -4.5825    2.9415    3.6060 H   0  0  0  0  0  0  0  0  0  0  0  0
   -4.9711    4.1321    4.8138 H   0  0  0  0  0  0  0  0  0  0  0  0
   -2.8900    5.3897    4.6018 N   0  0  0  0  0  0  0  0  0  0  0  0
   -2.0127    5.8612    4.4637 H   0  0  0  0  0  0  0  0  0  0  0  0
   -3.5398    5.7442    5.2790 H   0  0  0  0  0  0  0  0  0  0  0  0
   -0.9523    0.1012    2.4848 C   0  0  0  0  0  0  0  0  0  0  0  0
    0.2133   -0.1319    2.7814 O   0  0  0  0  0  0  0  0  0  0  0  0
   -1.8684    0.5006    3.3725 N   0  0  0  0  0  0  0  0  0  0  0  0
   -2.7946    0.7048    3.0343 H   0  0  0  0  0  0  0  0  0  0  0  0
   -1.5848    0.7472    4.7873 C   0  0  0  0  0  0  0  0  0  0  0  0
   -0.8819    1.5774    4.8838 H   0  0  0  0  0  0  0  0  0  0  0  0
   -2.5030    0.9948    5.3214 H   0  0  0  0  0  0  0  0  0  0  0  0
   -1.1344   -0.1399    5.2381 H   0  0  0  0  0  0  0  0  0  0  0  0
  5  6  2  0  0  0  0
  5  7  1  0  0  0  0
  2  3  1  0  0  0  0
  2  4  1  0  0  0  0
  2  5  1  0  0  0  0
  1  2  1  0  0  0  0
 29 30  2  0  0  0  0
 29 31  1  0  0  0  0
 26 27  1  0  0  0  0
 26 28  1  0  0  0  0
 23 24  1  0  0  0  0
 23 25  1  0  0  0  0
 22 23  1  0  0  0  0
 22 26  1  0  0  0  0
 20 21  1  0  0  0  0
 20 22  2  0  0  0  0
 17 18  1  0  0  0  0
 17 19  1  0  0  0  0
 17 20  1  0  0  0  0
 14 15  1  0  0  0  0
 14 16  1  0  0  0  0
 14 17  1  0  0  0  0
 11 12  1  0  0  0  0
 11 13  1  0  0  0  0
 11 14  1  0  0  0  0
  9 10  1  0  0  0  0
  9 11  1  0  0  0  0
  9 29  1  0  0  0  0
  7  8  1  0  0  0  0
  7  9  1  0  0  0  0
 33 34  1  0  0  0  0
 33 35  1  0  0  0  0
 33 36  1  0  0  0  0
 31 32  1  0  0  0  0
 31 33  1  0  0  0  0
M  CHG  1  20   1
M  END
$$$$
default_name
  -OEChem-02102213163D

 36 35  0     1  0  0  0  0  0999 V2000
   -4.2256   -3.6731    1.8584 H   0  0  0  0  0  0  0  0  0  0  0  0
   -4.2396   -2.6781    1.4144 C   0  0  0  0  0  0  0  0  0  0  0  0
   -4.9506   -2.0521    1.9514 H   0  0  0  0  0  0  0  0  0  0  0  0
   -4.5266   -2.7521    0.3674 H   0  0  0  0  0  0  0  0  0  0  0  0
   -2.8576   -2.0761    1.5184 C   0  0  0  0  0  0  0  0  0  0  0  0
   -1.9456   -2.7051    2.0404 O   0  0  0  0  0  0  0  0  0  0  0  0
   -2.6926   -0.8481    1.0174 N   0  0  0  0  0  0  0  0  0  0  0  0
   -3.4926   -0.3971    0.5954 H   0  0  0  0  0  0  0  0  0  0  0  0
   -1.4216   -0.1071    1.0434 C   0  0  1  0  0  0  0  0  0  0  0  0
   -0.6709   -0.6930    0.5106 H   0  0  0  0  0  0  0  0  0  0  0  0
   -1.6221    1.2315    0.3051 C   0  0  0  0  0  0  0  0  0  0  0  0
   -0.9377    1.2664   -0.5450 H   0  0  0  0  0  0  0  0  0  0  0  0
   -2.6433    1.2775   -0.0795 H   0  0  0  0  0  0  0  0  0  0  0  0
   -1.3595    2.4612    1.1867 C   0  0  0  0  0  0  0  0  0  0  0  0
   -0.3308    2.4423    1.5493 H   0  0  0  0  0  0  0  0  0  0  0  0
   -1.5181    3.3664    0.5997 H   0  0  0  0  0  0  0  0  0  0  0  0
   -2.3157    2.4573    2.3872 C   0  0  0  0  0  0  0  0  0  0  0  0
   -3.3427    2.4492    2.0148 H   0  0  0  0  0  0  0  0  0  0  0  0
   -2.1434    1.5468    2.9659 H   0  0  0  0  0  0  0  0  0  0  0  0
   -2.1145    3.6378    3.2523 N   0  3  0  0  0  0  0  0  0  0  0  0
   -1.3705    4.2641    2.9961 H   0  0  0  0  0  0  0  0  0  0  0  0
   -2.8186    3.9475    4.3282 C   0  0  0  0  0  0  0  0  0  0  0  0
   -3.8042    3.2054    4.7488 N   0  0  0  0  0  0  0  0  0  0  0  0
   -4.0355    2.3725    4.2367 H   0  0  0  0  0  0  0  0  0  0  0  0
   -4.3282    3.4546    5.5675 H   0  0  0  0  0  0  0  0  0  0  0  0
   -2.5416    5.0217    5.0113 N   0  0  0  0  0  0  0  0  0  0  0  0
   -1.7903    5.6258    4.7257 H   0  0  0  0  0  0  0  0  0  0  0  0
   -3.0783    5.2530    5.8268 H   0  0  0  0  0  0  0  0  0  0  0  0
   -0.9523    0.1012    2.4848 C   0  0  0  0  0  0  0  0  0  0  0  0
    0.2133   -0.1319    2.7814 O   0  0  0  0  0  0  0  0  0  0  0  0
   -1.8684    0.5006    3.3725 N   0  0  0  0  0  0  0  0  0  0  0  0
   -2.7946    0.7048    3.0343 H   0  0  0  0  0  0  0  0  0  0  0  0
   -1.5848    0.7472    4.7873 C   0  0  0  0  0  0  0  0  0  0  0  0
   -0.8819    1.5774    4.8838 H   0  0  0  0  0  0  0  0  0  0  0  0
   -2.5030    0.9948    5.3214 H   0  0  0  0  0  0  0  0  0  0  0  0
   -1.1344   -0.1399    5.2381 H   0  0  0  0  0  0  0  0  0  0  0  0
  5  6  2  0  0  0  0
  5  7  1  0  0  0  0
  2  3  1  0  0  0  0
  2  4  1  0  0  0  0
  2  5  1  0  0  0  0
  1  2  1  0  0  0  0
 29 30  2  0  0  0  0
 29 31  1  0  0  0  0
 26 27  1  0  0  0  0
 26 28  1  0  0  0  0
 23 24  1  0  0  0  0
 23 25  1  0  0  0  0
 22 23  1  0  0  0  0
 22 26  1  0  0  0  0
 20 21  1  0  0  0  0
 20 22  2  0  0  0  0
 17 18  1  0  0  0  0
 17 19  1  0  0  0  0
 17 20  1  0  0  0  0
 14 15  1  0  0  0  0
 14 16  1  0  0  0  0
 14 17  1  0  0  0  0
 11 12  1  0  0  0  0
 11 13  1  0  0  0  0
 11 14  1  0  0  0  0
  9 10  1  0  0  0  0
  9 11  1  0  0  0  0
  9 29  1  0  0  0  0
  7  8  1  0  0  0  0
  7  9  1  0  0  0  0
 33 34  1  0  0  0  0
 33 35  1  0  0  0  0
 33 36  1  0  0  0  0
 31 32  1  0  0  0  0
 31 33  1  0  0  0  0
M  CHG  1  20   1
M  END
$$$$
default_name
  -OEChem-02102213163D

 36 35  0     1  0  0  0  0  0999 V2000
   -4.2256   -3.6731    1.8584 H   0  0  0  0  0  0  0  0  0  0  0  0
   -4.2396   -2.6781    1.4144 C   0  0  0  0  0  0  0  0  0  0  0  0
   -4.9506   -2.0521    1.9514 H   0  0  0  0  0  0  0  0  0  0  0  0
   -4.5266   -2.7521    0.3674 H   0  0  0  0  0  0  0  0  0  0  0  0
   -2.8576   -2.0761    1.5184 C   0  0  0  0  0  0  0  0  0  0  0  0
   -1.9456   -2.7051    2.0404 O   0  0  0  0  0  0  0  0  0  0  0  0
   -2.6926   -0.8481    1.0174 N   0  0  0  0  0  0  0  0  0  0  0  0
   -3.4926   -0.3971    0.5954 H   0  0  0  0  0  0  0  0  0  0  0  0
   -1.4216   -0.1071    1.0434 C   0  0  1  0  0  0  0  0  0  0  0  0
   -0.6709   -0.6930    0.5106 H   0  0  0  0  0  0  0  0  0  0  0  0
   -1.6221    1.2315    0.3051 C   0  0  0  0  0  0  0  0  0  0  0  0
   -0.9377    1.2664   -0.5450 H   0  0  0  0  0  0  0  0  0  0  0  0
   -2.6433    1.2775   -0.0795 H   0  0  0  0  0  0  0  0  0  0  0  0
   -1.3595    2.4612    1.1867 C   0  0  0  0  0  0  0  0  0  0  0  0
   -0.2858    2.5898    1.3301 H   0  0  0  0  0  0  0  0  0  0  0  0
   -1.7667    3.3478    0.6997 H   0  0  0  0  0  0  0  0  0  0  0  0
   -2.0307    2.2765    2.5545 C   0  0  0  0  0  0  0  0  0  0  0  0
   -3.1010    2.1218    2.3996 H   0  0  0  0  0  0  0  0  0  0  0  0
   -1.6112    1.3870    3.0303 H   0  0  0  0  0  0  0  0  0  0  0  0
   -1.8238    3.4487    3.4296 N   0  3  0  0  0  0  0  0  0  0  0  0
   -1.2485    4.1886    3.0651 H   0  0  0  0  0  0  0  0  0  0  0  0
   -2.3226    3.6159    4.6430 C   0  0  0  0  0  0  0  0  0  0  0  0
   -3.0803    2.7198    5.2105 N   0  0  0  0  0  0  0  0  0  0  0  0
   -3.2919    1.8763    4.7074 H   0  0  0  0  0  0  0  0  0  0  0  0
   -3.4504    2.8622    6.1323 H   0  0  0  0  0  0  0  0  0  0  0  0
   -2.0656    4.6999    5.3184 N   0  0  0  0  0  0  0  0  0  0  0  0
   -1.4862    5.4199    4.9224 H   0  0  0  0  0  0  0  0  0  0  0  0
   -2.4460    4.8228    6.2386 H   0  0  0  0  0  0  0  0  0  0  0  0
   -0.9523    0.1012    2.4848 C   0  0  0  0  0  0  0  0  0  0  0  0
    0.2133   -0.1319    2.7814 O   0  0  0  0  0  0  0  0  0  0  0  0
   -1.8684    0.5006    3.3725 N   0  0  0  0  0  0  0  0  0  0  0  0
   -2.7946    0.7048    3.0343 H   0  0  0  0  0  0  0  0  0  0  0  0
   -1.5848    0.7472    4.7873 C   0  0  0  0  0  0  0  0  0  0  0  0
   -0.8819    1.5774    4.8838 H   0  0  0  0  0  0  0  0  0  0  0  0
   -2.5030    0.9948    5.3214 H   0  0  0  0  0  0  0  0  0  0  0  0
   -1.1344   -0.1399    5.2381 H   0  0  0  0  0  0  0  0  0  0  0  0
  5  6  2  0  0  0  0
  5  7  1  0  0  0  0
  2  3  1  0  0  0  0
  2  4  1  0  0  0  0
  2  5  1  0  0  0  0
  1  2  1  0  0  0  0
 29 30  2  0  0  0  0
 29 31  1  0  0  0  0
 26 27  1  0  0  0  0
 26 28  1  0  0  0  0
 23 24  1  0  0  0  0
 23 25  1  0  0  0  0
 22 23  1  0  0  0  0
 22 26  1  0  0  0  0
 20 21  1  0  0  0  0
 20 22  2  0  0  0  0
 17 18  1  0  0  0  0
 17 19  1  0  0  0  0
 17 20  1  0  0  0  0
 14 15  1  0  0  0  0
 14 16  1  0  0  0  0
 14 17  1  0  0  0  0
 11 12  1  0  0  0  0
 11 13  1  0  0  0  0
 11 14  1  0  0  0  0
  9 10  1  0  0  0  0
  9 11  1  0  0  0  0
  9 29  1  0  0  0  0
  7  8  1  0  0  0  0
  7  9  1  0  0  0  0
 33 34  1  0  0  0  0
 33 35  1  0  0  0  0
 33 36  1  0  0  0  0
 31 32  1  0  0  0  0
 31 33  1  0  0  0  0
M  CHG  1  20   1
M  END
$$$$
default_name
  -OEChem-02102213163D

 36 35  0     1  0  0  0  0  0999 V2000
   -4.2256   -3.6731    1.8584 H   0  0  0  0  0  0  0  0  0  0  0  0
   -4.2396   -2.6781    1.4144 C   0  0  0  0  0  0  0  0  0  0  0  0
   -4.9506   -2.0521    1.9514 H   0  0  0  0  0  0  0  0  0  0  0  0
   -4.5266   -2.7521    0.3674 H   0  0  0  0  0  0  0  0  0  0  0  0
   -2.8576   -2.0761    1.5184 C   0  0  0  0  0  0  0  0  0  0  0  0
   -1.9456   -2.7051    2.0404 O   0  0  0  0  0  0  0  0  0  0  0  0
   -2.6926   -0.8481    1.0174 N   0  0  0  0  0  0  0  0  0  0  0  0
   -3.4926   -0.3971    0.5954 H   0  0  0  0  0  0  0  0  0  0  0  0
   -1.4216   -0.1071    1.0434 C   0  0  1  0  0  0  0  0  0  0  0  0
   -0.6709   -0.6930    0.5106 H   0  0  0  0  0  0  0  0  0  0  0  0
   -1.6221    1.2315    0.3051 C   0  0  0  0  0  0  0  0  0  0  0  0
   -0.9377    1.2664   -0.5450 H   0  0  0  0  0  0  0  0  0  0  0  0
   -2.6433    1.2775   -0.0795 H   0  0  0  0  0  0  0  0  0  0  0  0
   -1.3595    2.4612    1.1867 C   0  0  0  0  0  0  0  0  0  0  0  0
   -0.3096    2.7487    1.1156 H   0  0  0  0  0  0  0  0  0  0  0  0
   -1.9834    3.2885    0.8470 H   0  0  0  0  0  0  0  0  0  0  0  0
   -1.6939    2.1368    2.6490 C   0  0  0  0  0  0  0  0  0  0  0  0
   -2.7391    1.8244    2.7067 H   0  0  0  0  0  0  0  0  0  0  0  0
   -1.0600    1.3088    2.9752 H   0  0  0  0  0  0  0  0  0  0  0  0
   -1.4782    3.3013    3.5322 N   0  3  0  0  0  0  0  0  0  0  0  0
   -1.1052    4.1308    3.1030 H   0  0  0  0  0  0  0  0  0  0  0  0
   -1.7291    3.3554    4.8296 C   0  0  0  0  0  0  0  0  0  0  0  0
   -2.2132    2.3379    5.4850 N   0  0  0  0  0  0  0  0  0  0  0  0
   -2.4024    1.4867    4.9859 H   0  0  0  0  0  0  0  0  0  0  0  0
   -2.3975    2.3955    6.4697 H   0  0  0  0  0  0  0  0  0  0  0  0
   -1.4943    4.4462    5.5021 N   0  0  0  0  0  0  0  0  0  0  0  0
   -1.1211    5.2576    5.0401 H   0  0  0  0  0  0  0  0  0  0  0  0
   -1.6861    4.4830    6.4862 H   0  0  0  0  0  0  0  0  0  0  0  0
   -0.9523    0.1012    2.4848 C   0  0  0  0  0  0  0  0  0  0  0  0
    0.2133   -0.1319    2.7814 O   0  0  0  0  0  0  0  0  0  0  0  0
   -1.8684    0.5006    3.3725 N   0  0  0  0  0  0  0  0  0  0  0  0
   -2.7946    0.7048    3.0343 H   0  0  0  0  0  0  0  0  0  0  0  0
   -1.5848    0.7472    4.7873 C   0  0  0  0  0  0  0  0  0  0  0  0
   -0.8819    1.5774    4.8838 H   0  0  0  0  0  0  0  0  0  0  0  0
   -2.5030    0.9948    5.3214 H   0  0  0  0  0  0  0  0  0  0  0  0
   -1.1344   -0.1399    5.2381 H   0  0  0  0  0  0  0  0  0  0  0  0
  5  6  2  0  0  0  0
  5  7  1  0  0  0  0
  2  3  1  0  0  0  0
  2  4  1  0  0  0  0
  2  5  1  0  0  0  0
  1  2  1  0  0  0  0
 29 30  2  0  0  0  0
 29 31  1  0  0  0  0
 26 27  1  0  0  0  0
 26 28  1  0  0  0  0
 23 24  1  0  0  0  0
 23 25  1  0  0  0  0
 22 23  1  0  0  0  0
 22 26  1  0  0  0  0
 20 21  1  0  0  0  0
 20 22  2  0  0  0  0
 17 18  1  0  0  0  0
 17 19  1  0  0  0  0
 17 20  1  0  0  0  0
 14 15  1  0  0  0  0
 14 16  1  0  0  0  0
 14 17  1  0  0  0  0
 11 12  1  0  0  0  0
 11 13  1  0  0  0  0
 11 14  1  0  0  0  0
  9 10  1  0  0  0  0
  9 11  1  0  0  0  0
  9 29  1  0  0  0  0
  7  8  1  0  0  0  0
  7  9  1  0  0  0  0
 33 34  1  0  0  0  0
 33 35  1  0  0  0  0
 33 36  1  0  0  0  0
 31 32  1  0  0  0  0
 31 33  1  0  0  0  0
M  CHG  1  20   1
M  END
$$$$
default_name
  -OEChem-02102213163D

 36 35  0     1  0  0  0  0  0999 V2000
   -4.2256   -3.6731    1.8584 H   0  0  0  0  0  0  0  0  0  0  0  0
   -4.2396   -2.6781    1.4144 C   0  0  0  0  0  0  0  0  0  0  0  0
   -4.9506   -2.0521    1.9514 H   0  0  0  0  0  0  0  0  0  0  0  0
   -4.5266   -2.7521    0.3674 H   0  0  0  0  0  0  0  0  0  0  0  0
   -2.8576   -2.0761    1.5184 C   0  0  0  0  0  0  0  0  0  0  0  0
   -1.9456   -2.7051    2.0404 O   0  0  0  0  0  0  0  0  0  0  0  0
   -2.6926   -0.8481    1.0174 N   0  0  0  0  0  0  0  0  0  0  0  0
   -3.4926   -0.3971    0.5954 H   0  0  0  0  0  0  0  0  0  0  0  0
   -1.4216   -0.1071    1.0434 C   0  0  1  0  0  0  0  0  0  0  0  0
   -0.6709   -0.6930    0.5106 H   0  0  0  0  0  0  0  0  0  0  0  0
   -1.6221    1.2315    0.3051 C   0  0  0  0  0  0  0  0  0  0  0  0
   -0.9377    1.2664   -0.5450 H   0  0  0  0  0  0  0  0  0  0  0  0
   -2.6433    1.2775   -0.0795 H   0  0  0  0  0  0  0  0  0  0  0  0
   -1.3595    2.4612    1.1867 C   0  0  0  0  0  0  0  0  0  0  0  0
   -0.4007    2.9081    0.9204 H   0  0  0  0  0  0  0  0  0  0  0  0
   -2.1534    3.1925    1.0315 H   0  0  0  0  0  0  0  0  0  0  0  0
   -1.3282    2.0477    2.6644 C   0  0  0  0  0  0  0  0  0  0  0  0
   -2.2817    1.5773    2.9151 H   0  0  0  0  0  0  0  0  0  0  0  0
   -0.5274    1.3177    2.8042 H   0  0  0  0  0  0  0  0  0  0  0  0
   -1.1013    3.2058    3.5532 N   0  3  0  0  0  0  0  0  0  0  0  0
   -0.9504    4.0946    3.1074 H   0  0  0  0  0  0  0  0  0  0  0  0
   -1.0784    3.1837    4.8753 C   0  0  0  0  0  0  0  0  0  0  0  0
   -1.2620    2.0857    5.5535 N   0  0  0  0  0  0  0  0  0  0  0  0
   -1.4276    1.2302    5.0534 H   0  0  0  0  0  0  0  0  0  0  0  0
   -1.2411    2.0862    6.5567 H   0  0  0  0  0  0  0  0  0  0  0  0
   -0.8667    4.2779    5.5500 N   0  0  0  0  0  0  0  0  0  0  0  0
   -0.7199    5.1497    5.0710 H   0  0  0  0  0  0  0  0  0  0  0  0
   -0.8502    4.2567    6.5529 H   0  0  0  0  0  0  0  0  0  0  0  0
   -0.9523    0.1012    2.4848 C   0  0  0  0  0  0  0  0  0  0  0  0
    0.2133   -0.1319    2.7814 O   0  0  0  0  0  0  0  0  0  0  0  0
   -1.8684    0.5006    3.3725 N   0  0  0  0  0  0  0  0  0  0  0  0
   -2.7946    0.7048    3.0343 H   0  0  0  0  0  0  0  0  0  0  0  0
   -1.5848    0.7472    4.7873 C   0  0  0  0  0  0  0  0  0  0  0  0
   -0.8819    1.5774    4.8838 H   0  0  0  0  0  0  0  0  0  0  0  0
   -2.5030    0.9948    5.3214 H   0  0  0  0  0  0  0  0  0  0  0  0
   -1.1344   -0.1399    5.2381 H   0  0  0  0  0  0  0  0  0  0  0  0
  5  6  2  0  0  0  0
  5  7  1  0  0  0  0
  2  3  1  0  0  0  0
  2  4  1  0  0  0  0
  2  5  1  0  0  0  0
  1  2  1  0  0  0  0
 29 30  2  0  0  0  0
 29 31  1  0  0  0  0
 26 27  1  0  0  0  0
 26 28  1  0  0  0  0
 23 24  1  0  0  0  0
 23 25  1  0  0  0  0
 22 23  1  0  0  0  0
 22 26  1  0  0  0  0
 20 21  1  0  0  0  0
 20 22  2  0  0  0  0
 17 18  1  0  0  0  0
 17 19  1  0  0  0  0
 17 20  1  0  0  0  0
 14 15  1  0  0  0  0
 14 16  1  0  0  0  0
 14 17  1  0  0  0  0
 11 12  1  0  0  0  0
 11 13  1  0  0  0  0
 11 14  1  0  0  0  0
  9 10  1  0  0  0  0
  9 11  1  0  0  0  0
  9 29  1  0  0  0  0
  7  8  1  0  0  0  0
  7  9  1  0  0  0  0
 33 34  1  0  0  0  0
 33 35  1  0  0  0  0
 33 36  1  0  0  0  0
 31 32  1  0  0  0  0
 31 33  1  0  0  0  0
M  CHG  1  20   1
M  END
$$$$
default_name
  -OEChem-02102213163D

 36 35  0     1  0  0  0  0  0999 V2000
   -4.2256   -3.6731    1.8584 H   0  0  0  0  0  0  0  0  0  0  0  0
   -4.2396   -2.6781    1.4144 C   0  0  0  0  0  0  0  0  0  0  0  0
   -4.9506   -2.0521    1.9514 H   0  0  0  0  0  0  0  0  0  0  0  0
   -4.5266   -2.7521    0.3674 H   0  0  0  0  0  0  0  0  0  0  0  0
   -2.8576   -2.0761    1.5184 C   0  0  0  0  0  0  0  0  0  0  0  0
   -1.9456   -2.7051    2.0404 O   0  0  0  0  0  0  0  0  0  0  0  0
   -2.6926   -0.8481    1.0174 N   0  0  0  0  0  0  0  0  0  0  0  0
   -3.4926   -0.3971    0.5954 H   0  0  0  0  0  0  0  0  0  0  0  0
   -1.4216   -0.1071    1.0434 C   0  0  1  0  0  0  0  0  0  0  0  0
   -0.6709   -0.6930    0.5106 H   0  0  0  0  0  0  0  0  0  0  0  0
   -1.6221    1.2315    0.3051 C   0  0  0  0  0  0  0  0  0  0  0  0
   -0.9377    1.2664   -0.5450 H   0  0  0  0  0  0  0  0  0  0  0  0
   -2.6433    1.2775   -0.0795 H   0  0  0  0  0  0  0  0  0  0  0  0
   -1.3595    2.4612    1.1867 C   0  0  0  0  0  0  0  0  0  0  0  0
   -0.5528    3.0572    0.7577 H   0  0  0  0  0  0  0  0  0  0  0  0
   -2.2651    3.0663    1.2408 H   0  0  0  0  0  0  0  0  0  0  0  0
   -0.9585    2.0153    2.5995 C   0  0  0  0  0  0  0  0  0  0  0  0
   -1.7600    1.3974    3.0107 H   0  0  0  0  0  0  0  0  0  0  0  0
   -0.0497    1.4129    2.5291 H   0  0  0  0  0  0  0  0  0  0  0  0
   -0.7186    3.1686    3.4911 N   0  3  0  0  0  0  0  0  0  0  0  0
   -0.7945    4.0824    3.0780 H   0  0  0  0  0  0  0  0  0  0  0  0
   -0.4148    3.1125    4.7770 C   0  0  0  0  0  0  0  0  0  0  0  0
   -0.2916    1.9804    5.4114 N   0  0  0  0  0  0  0  0  0  0  0  0
   -0.4338    1.1243    4.9052 H   0  0  0  0  0  0  0  0  0  0  0  0
   -0.0602    1.9555    6.3874 H   0  0  0  0  0  0  0  0  0  0  0  0
   -0.2256    4.2065    5.4586 N   0  0  0  0  0  0  0  0  0  0  0  0
   -0.3100    5.1038    5.0130 H   0  0  0  0  0  0  0  0  0  0  0  0
    0.0047    4.1594    6.4340 H   0  0  0  0  0  0  0  0  0  0  0  0
   -0.9523    0.1012    2.4848 C   0  0  0  0  0  0  0  0  0  0  0  0
    0.2133   -0.1319    2.7814 O   0  0  0  0  0  0  0  0  0  0  0  0
   -1.8684    0.5006    3.3725 N   0  0  0  0  0  0  0  0  0  0  0  0
   -2.7946    0.7048    3.0343 H   0  0  0  0  0  0  0  0  0  0  0  0
   -1.5848    0.7472    4.7873 C   0  0  0  0  0  0  0  0  0  0  0  0
   -0.8819    1.5774    4.8838 H   0  0  0  0  0  0  0  0  0  0  0  0
   -2.5030    0.9948    5.3214 H   0  0  0  0  0  0  0  0  0  0  0  0
   -1.1344   -0.1399    5.2381 H   0  0  0  0  0  0  0  0  0  0  0  0
  5  6  2  0  0  0  0
  5  7  1  0  0  0  0
  2  3  1  0  0  0  0
  2  4  1  0  0  0  0
  2  5  1  0  0  0  0
  1  2  1  0  0  0  0
 29 30  2  0  0  0  0
 29 31  1  0  0  0  0
 26 27  1  0  0  0  0
 26 28  1  0  0  0  0
 23 24  1  0  0  0  0
 23 25  1  0  0  0  0
 22 23  1  0  0  0  0
 22 26  1  0  0  0  0
 20 21  1  0  0  0  0
 20 22  2  0  0  0  0
 17 18  1  0  0  0  0
 17 19  1  0  0  0  0
 17 20  1  0  0  0  0
 14 15  1  0  0  0  0
 14 16  1  0  0  0  0
 14 17  1  0  0  0  0
 11 12  1  0  0  0  0
 11 13  1  0  0  0  0
 11 14  1  0  0  0  0
  9 10  1  0  0  0  0
  9 11  1  0  0  0  0
  9 29  1  0  0  0  0
  7  8  1  0  0  0  0
  7  9  1  0  0  0  0
 33 34  1  0  0  0  0
 33 35  1  0  0  0  0
 33 36  1  0  0  0  0
 31 32  1  0  0  0  0
 31 33  1  0  0  0  0
M  CHG  1  20   1
M  END
$$$$
default_name
  -OEChem-02102213163D

 36 35  0     1  0  0  0  0  0999 V2000
   -4.2256   -3.6731    1.8584 H   0  0  0  0  0  0  0  0  0  0  0  0
   -4.2396   -2.6781    1.4144 C   0  0  0  0  0  0  0  0  0  0  0  0
   -4.9506   -2.0521    1.9514 H   0  0  0  0  0  0  0  0  0  0  0  0
   -4.5266   -2.7521    0.3674 H   0  0  0  0  0  0  0  0  0  0  0  0
   -2.8576   -2.0761    1.5184 C   0  0  0  0  0  0  0  0  0  0  0  0
   -1.9456   -2.7051    2.0404 O   0  0  0  0  0  0  0  0  0  0  0  0
   -2.6926   -0.8481    1.0174 N   0  0  0  0  0  0  0  0  0  0  0  0
   -3.4926   -0.3971    0.5954 H   0  0  0  0  0  0  0  0  0  0  0  0
   -1.4216   -0.1071    1.0434 C   0  0  1  0  0  0  0  0  0  0  0  0
   -0.6709   -0.6930    0.5106 H   0  0  0  0  0  0  0  0  0  0  0  0
   -1.6221    1.2315    0.3051 C   0  0  0  0  0  0  0  0  0  0  0  0
   -0.9377    1.2664   -0.5450 H   0  0  0  0  0  0  0  0  0  0  0  0
   -2.6433    1.2775   -0.0795 H   0  0  0  0  0  0  0  0  0  0  0  0
   -1.3595    2.4612    1.1867 C   0  0  0  0  0  0  0  0  0  0  0  0
   -0.7556    3.1858    0.6387 H   0  0  0  0  0  0  0  0  0  0  0  0
   -2.3108    2.9186    1.4604 H   0  0  0  0  0  0  0  0  0  0  0  0
   -0.6101    2.0418    2.4587 C   0  0  0  0  0  0  0  0  0  0  0  0
   -1.2096    1.2968    2.9870 H   0  0  0  0  0  0  0  0  0  0  0  0
    0.3405    1.5881    2.1685 H   0  0  0  0  0  0  0  0  0  0  0  0
   -0.3563    3.1923    3.3501 N   0  3  0  0  0  0  0  0  0  0  0  0
   -0.6482    4.0951    3.0167 H   0  0  0  0  0  0  0  0  0  0  0  0
    0.2163    3.1467    4.5414 C   0  0  0  0  0  0  0  0  0  0  0  0
    0.6320    2.0292    5.0683 N   0  0  0  0  0  0  0  0  0  0  0  0
    0.5110    1.1761    4.5514 H   0  0  0  0  0  0  0  0  0  0  0  0
    1.0649    2.0121    5.9734 H   0  0  0  0  0  0  0  0  0  0  0  0
    0.3854    4.2368    5.2344 N   0  0  0  0  0  0  0  0  0  0  0  0
    0.0808    5.1230    4.8699 H   0  0  0  0  0  0  0  0  0  0  0  0
    0.8202    4.1977    6.1377 H   0  0  0  0  0  0  0  0  0  0  0  0
   -0.9523    0.1012    2.4848 C   0  0  0  0  0  0  0  0  0  0  0  0
    0.2133   -0.1319    2.7814 O   0  0  0  0  0  0  0  0  0  0  0  0
   -1.8684    0.5006    3.3725 N   0  0  0  0  0  0  0  0  0  0  0  0
   -2.7946    0.7048    3.0343 H   0  0  0  0  0  0  0  0  0  0  0  0
   -1.5848    0.7472    4.7873 C   0  0  0  0  0  0  0  0  0  0  0  0
   -0.8819    1.5774    4.8838 H   0  0  0  0  0  0  0  0  0  0  0  0
   -2.5030    0.9948    5.3214 H   0  0  0  0  0  0  0  0  0  0  0  0
   -1.1344   -0.1399    5.2381 H   0  0  0  0  0  0  0  0  0  0  0  0
  5  6  2  0  0  0  0
  5  7  1  0  0  0  0
  2  3  1  0  0  0  0
  2  4  1  0  0  0  0
  2  5  1  0  0  0  0
  1  2  1  0  0  0  0
 29 30  2  0  0  0  0
 29 31  1  0  0  0  0
 26 27  1  0  0  0  0
 26 28  1  0  0  0  0
 23 24  1  0  0  0  0
 23 25  1  0  0  0  0
 22 23  1  0  0  0  0
 22 26  1  0  0  0  0
 20 21  1  0  0  0  0
 20 22  2  0  0  0  0
 17 18  1  0  0  0  0
 17 19  1  0  0  0  0
 17 20  1  0  0  0  0
 14 15  1  0  0  0  0
 14 16  1  0  0  0  0
 14 17  1  0  0  0  0
 11 12  1  0  0  0  0
 11 13  1  0  0  0  0
 11 14  1  0  0  0  0
  9 10  1  0  0  0  0
  9 11  1  0  0  0  0
  9 29  1  0  0  0  0
  7  8  1  0  0  0  0
  7  9  1  0  0  0  0
 33 34  1  0  0  0  0
 33 35  1  0  0  0  0
 33 36  1  0  0  0  0
 31 32  1  0  0  0  0
 31 33  1  0  0  0  0
M  CHG  1  20   1
M  END
$$$$
default_name
  -OEChem-02102213163D

 36 35  0     1  0  0  0  0  0999 V2000
   -4.2256   -3.6731    1.8584 H   0  0  0  0  0  0  0  0  0  0  0  0
   -4.2396   -2.6781    1.4144 C   0  0  0  0  0  0  0  0  0  0  0  0
   -4.9506   -2.0521    1.9514 H   0  0  0  0  0  0  0  0  0  0  0  0
   -4.5266   -2.7521    0.3674 H   0  0  0  0  0  0  0  0  0  0  0  0
   -2.8576   -2.0761    1.5184 C   0  0  0  0  0  0  0  0  0  0  0  0
   -1.9456   -2.7051    2.0404 O   0  0  0  0  0  0  0  0  0  0  0  0
   -2.6926   -0.8481    1.0174 N   0  0  0  0  0  0  0  0  0  0  0  0
   -3.4926   -0.3971    0.5954 H   0  0  0  0  0  0  0  0  0  0  0  0
   -1.4216   -0.1071    1.0434 C   0  0  1  0  0  0  0  0  0  0  0  0
   -0.6709   -0.6930    0.5106 H   0  0  0  0  0  0  0  0  0  0  0  0
   -1.6221    1.2315    0.3051 C   0  0  0  0  0  0  0  0  0  0  0  0
   -0.9377    1.2664   -0.5450 H   0  0  0  0  0  0  0  0  0  0  0  0
   -2.6433    1.2775   -0.0795 H   0  0  0  0  0  0  0  0  0  0  0  0
   -1.3595    2.4612    1.1867 C   0  0  0  0  0  0  0  0  0  0  0  0
   -0.9952    3.2852    0.5715 H   0  0  0  0  0  0  0  0  0  0  0  0
   -2.2875    2.7594    1.6756 H   0  0  0  0  0  0  0  0  0  0  0  0
   -0.3066    2.1254    2.2517 C   0  0  0  0  0  0  0  0  0  0  0  0
   -0.6678    1.2826    2.8455 H   0  0  0  0  0  0  0  0  0  0  0  0
    0.6167    1.8312    1.7472 H   0  0  0  0  0  0  0  0  0  0  0  0
   -0.0391    3.2753    3.1400 N   0  3  0  0  0  0  0  0  0  0  0  0
   -0.5215    4.1318    2.9278 H   0  0  0  0  0  0  0  0  0  0  0  0
    0.7720    3.2839    4.1845 C   0  0  0  0  0  0  0  0  0  0  0  0
    1.4457    2.2287    4.5476 N   0  0  0  0  0  0  0  0  0  0  0  0
    1.3427    1.3823    4.0161 H   0  0  0  0  0  0  0  0  0  0  0  0
    2.0574    2.2522    5.3427 H   0  0  0  0  0  0  0  0  0  0  0  0
    0.9246    4.3668    4.8925 N   0  0  0  0  0  0  0  0  0  0  0  0
    0.4258    5.2059    4.6515 H   0  0  0  0  0  0  0  0  0  0  0  0
    1.5409    4.3690    5.6842 H   0  0  0  0  0  0  0  0  0  0  0  0
   -0.9523    0.1012    2.4848 C   0  0  0  0  0  0  0  0  0  0  0  0
    0.2133   -0.1319    2.7814 O   0  0  0  0  0  0  0  0  0  0  0  0
   -1.8684    0.5006    3.3725 N   0  0  0  0  0  0  0  0  0  0  0  0
   -2.7946    0.7048    3.0343 H   0  0  0  0  0  0  0  0  0  0  0  0
   -1.5848    0.7472    4.7873 C   0  0  0  0  0  0  0  0  0  0  0  0
   -0.8819    1.5774    4.8838 H   0  0  0  0  0  0  0  0  0  0  0  0
   -2.5030    0.9948    5.3214 H   0  0  0  0  0  0  0  0  0  0  0  0
   -1.1344   -0.1399    5.2381 H   0  0  0  0  0  0  0  0  0  0  0  0
  5  6  2  0  0  0  0
  5  7  1  0  0  0  0
  2  3  1  0  0  0  0
  2  4  1  0  0  0  0
  2  5  1  0  0  0  0
  1  2  1  0  0  0  0
 29 30  2  0  0  0  0
 29 31  1  0  0  0  0
 26 27  1  0  0  0  0
 26 28  1  0  0  0  0
 23 24  1  0  0  0  0
 23 25  1  0  0  0  0
 22 23  1  0  0  0  0
 22 26  1  0  0  0  0
 20 21  1  0  0  0  0
 20 22  2  0  0  0  0
 17 18  1  0  0  0  0
 17 19  1  0  0  0  0
 17 20  1  0  0  0  0
 14 15  1  0  0  0  0
 14 16  1  0  0  0  0
 14 17  1  0  0  0  0
 11 12  1  0  0  0  0
 11 13  1  0  0  0  0
 11 14  1  0  0  0  0
  9 10  1  0  0  0  0
  9 11  1  0  0  0  0
  9 29  1  0  0  0  0
  7  8  1  0  0  0  0
  7  9  1  0  0  0  0
 33 34  1  0  0  0  0
 33 35  1  0  0  0  0
 33 36  1  0  0  0  0
 31 32  1  0  0  0  0
 31 33  1  0  0  0  0
M  CHG  1  20   1
M  END
$$$$
default_name
  -OEChem-02102213163D

 36 35  0     1  0  0  0  0  0999 V2000
   -4.2256   -3.6731    1.8584 H   0  0  0  0  0  0  0  0  0  0  0  0
   -4.2396   -2.6781    1.4144 C   0  0  0  0  0  0  0  0  0  0  0  0
   -4.9506   -2.0521    1.9514 H   0  0  0  0  0  0  0  0  0  0  0  0
   -4.5266   -2.7521    0.3674 H   0  0  0  0  0  0  0  0  0  0  0  0
   -2.8576   -2.0761    1.5184 C   0  0  0  0  0  0  0  0  0  0  0  0
   -1.9456   -2.7051    2.0404 O   0  0  0  0  0  0  0  0  0  0  0  0
   -2.6926   -0.8481    1.0174 N   0  0  0  0  0  0  0  0  0  0  0  0
   -3.4926   -0.3971    0.5954 H   0  0  0  0  0  0  0  0  0  0  0  0
   -1.4216   -0.1071    1.0434 C   0  0  1  0  0  0  0  0  0  0  0  0
   -0.6709   -0.6930    0.5106 H   0  0  0  0  0  0  0  0  0  0  0  0
   -1.6221    1.2315    0.3051 C   0  0  0  0  0  0  0  0  0  0  0  0
   -0.9377    1.2664   -0.5450 H   0  0  0  0  0  0  0  0  0  0  0  0
   -2.6433    1.2775   -0.0795 H   0  0  0  0  0  0  0  0  0  0  0  0
   -1.3595    2.4612    1.1867 C   0  0  0  0  0  0  0  0  0  0  0  0
   -1.2554    3.3485    0.5607 H   0  0  0  0  0  0  0  0  0  0  0  0
   -2.1968    2.5995    1.8715 H   0  0  0  0  0  0  0  0  0  0  0  0
   -0.0689    2.2604    1.9926 C   0  0  0  0  0  0  0  0  0  0  0  0
   -0.1718    1.3556    2.5960 H   0  0  0  0  0  0  0  0  0  0  0  0
    0.7600    2.1257    1.2936 H   0  0  0  0  0  0  0  0  0  0  0  0
    0.2114    3.4118    2.8749 N   0  3  0  0  0  0  0  0  0  0  0  0
   -0.4229    4.1900    2.8172 H   0  0  0  0  0  0  0  0  0  0  0  0
    1.2144    3.5147    3.7307 C   0  0  0  0  0  0  0  0  0  0  0  0
    2.0942    2.5653    3.8849 N   0  0  0  0  0  0  0  0  0  0  0  0
    2.0044    1.7287    3.3359 H   0  0  0  0  0  0  0  0  0  0  0  0
    2.8497    2.6596    4.5386 H   0  0  0  0  0  0  0  0  0  0  0  0
    1.3552    4.5876    4.4563 N   0  0  0  0  0  0  0  0  0  0  0  0
    0.7014    5.3468    4.3728 H   0  0  0  0  0  0  0  0  0  0  0  0
    2.1175    4.6615    5.1044 H   0  0  0  0  0  0  0  0  0  0  0  0
   -0.9523    0.1012    2.4848 C   0  0  0  0  0  0  0  0  0  0  0  0
    0.2133   -0.1319    2.7814 O   0  0  0  0  0  0  0  0  0  0  0  0
   -1.8684    0.5006    3.3725 N   0  0  0  0  0  0  0  0  0  0  0  0
   -2.7946    0.7048    3.0343 H   0  0  0  0  0  0  0  0  0  0  0  0
   -1.5848    0.7472    4.7873 C   0  0  0  0  0  0  0  0  0  0  0  0
   -0.8819    1.5774    4.8838 H   0  0  0  0  0  0  0  0  0  0  0  0
   -2.5030    0.9948    5.3214 H   0  0  0  0  0  0  0  0  0  0  0  0
   -1.1344   -0.1399    5.2381 H   0  0  0  0  0  0  0  0  0  0  0  0
  5  6  2  0  0  0  0
  5  7  1  0  0  0  0
  2  3  1  0  0  0  0
  2  4  1  0  0  0  0
  2  5  1  0  0  0  0
  1  2  1  0  0  0  0
 29 30  2  0  0  0  0
 29 31  1  0  0  0  0
 26 27  1  0  0  0  0
 26 28  1  0  0  0  0
 23 24  1  0  0  0  0
 23 25  1  0  0  0  0
 22 23  1  0  0  0  0
 22 26  1  0  0  0  0
 20 21  1  0  0  0  0
 20 22  2  0  0  0  0
 17 18  1  0  0  0  0
 17 19  1  0  0  0  0
 17 20  1  0  0  0  0
 14 15  1  0  0  0  0
 14 16  1  0  0  0  0
 14 17  1  0  0  0  0
 11 12  1  0  0  0  0
 11 13  1  0  0  0  0
 11 14  1  0  0  0  0
  9 10  1  0  0  0  0
  9 11  1  0  0  0  0
  9 29  1  0  0  0  0
  7  8  1  0  0  0  0
  7  9  1  0  0  0  0
 33 34  1  0  0  0  0
 33 35  1  0  0  0  0
 33 36  1  0  0  0  0
 31 32  1  0  0  0  0
 31 33  1  0  0  0  0
M  CHG  1  20   1
M  END
$$$$
default_name
  -OEChem-02102213163D

 36 35  0     1  0  0  0  0  0999 V2000
   -4.2256   -3.6731    1.8584 H   0  0  0  0  0  0  0  0  0  0  0  0
   -4.2396   -2.6781    1.4144 C   0  0  0  0  0  0  0  0  0  0  0  0
   -4.9506   -2.0521    1.9514 H   0  0  0  0  0  0  0  0  0  0  0  0
   -4.5266   -2.7521    0.3674 H   0  0  0  0  0  0  0  0  0  0  0  0
   -2.8576   -2.0761    1.5184 C   0  0  0  0  0  0  0  0  0  0  0  0
   -1.9456   -2.7051    2.0404 O   0  0  0  0  0  0  0  0  0  0  0  0
   -2.6926   -0.8481    1.0174 N   0  0  0  0  0  0  0  0  0  0  0  0
   -3.4926   -0.3971    0.5954 H   0  0  0  0  0  0  0  0  0  0  0  0
   -1.4216   -0.1071    1.0434 C   0  0  1  0  0  0  0  0  0  0  0  0
   -0.6709   -0.6930    0.5106 H   0  0  0  0  0  0  0  0  0  0  0  0
   -1.6221    1.2315    0.3051 C   0  0  0  0  0  0  0  0  0  0  0  0
   -0.9377    1.2664   -0.5450 H   0  0  0  0  0  0  0  0  0  0  0  0
   -2.6433    1.2775   -0.0795 H   0  0  0  0  0  0  0  0  0  0  0  0
   -1.3595    2.4612    1.1867 C   0  0  0  0  0  0  0  0  0  0  0  0
   -1.5184    3.3715    0.6069 H   0  0  0  0  0  0  0  0  0  0  0  0
   -2.0448    2.4500    2.0349 H   0  0  0  0  0  0  0  0  0  0  0  0
    0.0871    2.4376    1.6990 C   0  0  0  0  0  0  0  0  0  0  0  0
    0.2449    1.5108    2.2553 H   0  0  0  0  0  0  0  0  0  0  0  0
    0.7607    2.4516    0.8389 H   0  0  0  0  0  0  0  0  0  0  0  0
    0.3782    3.5927    2.5730 N   0  3  0  0  0  0  0  0  0  0  0  0
   -0.3593    4.2658    2.6926 H   0  0  0  0  0  0  0  0  0  0  0  0
    1.5134    3.8236    3.2108 C   0  0  0  0  0  0  0  0  0  0  0  0
    2.5332    3.0162    3.1253 N   0  0  0  0  0  0  0  0  0  0  0  0
    2.4512    2.1917    2.5569 H   0  0  0  0  0  0  0  0  0  0  0  0
    3.3878    3.2064    3.6156 H   0  0  0  0  0  0  0  0  0  0  0  0
    1.6480    4.8841    3.9554 N   0  0  0  0  0  0  0  0  0  0  0  0
    0.8889    5.5363    4.0527 H   0  0  0  0  0  0  0  0  0  0  0  0
    2.5109    5.0555    4.4377 H   0  0  0  0  0  0  0  0  0  0  0  0
   -0.9523    0.1012    2.4848 C   0  0  0  0  0  0  0  0  0  0  0  0
    0.2133   -0.1319    2.7814 O   0  0  0  0  0  0  0  0  0  0  0  0
   -1.8684    0.5006    3.3725 N   0  0  0  0  0  0  0  0  0  0  0  0
   -2.7946    0.7048    3.0343 H   0  0  0  0  0  0  0  0  0  0  0  0
   -1.5848    0.7472    4.7873 C   0  0  0  0  0  0  0  0  0  0  0  0
   -0.8819    1.5774    4.8838 H   0  0  0  0  0  0  0  0  0  0  0  0
   -2.5030    0.9948    5.3214 H   0  0  0  0  0  0  0  0  0  0  0  0
   -1.1344   -0.1399    5.2381 H   0  0  0  0  0  0  0  0  0  0  0  0
  5  6  2  0  0  0  0
  5  7  1  0  0  0  0
  2  3  1  0  0  0  0
  2  4  1  0  0  0  0
  2  5  1  0  0  0  0
  1  2  1  0  0  0  0
 29 30  2  0  0  0  0
 29 31  1  0  0  0  0
 26 27  1  0  0  0  0
 26 28  1  0  0  0  0
 23 24  1  0  0  0  0
 23 25  1  0  0  0  0
 22 23  1  0  0  0  0
 22 26  1  0  0  0  0
 20 21  1  0  0  0  0
 20 22  2  0  0  0  0
 17 18  1  0  0  0  0
 17 19  1  0  0  0  0
 17 20  1  0  0  0  0
 14 15  1  0  0  0  0
 14 16  1  0  0  0  0
 14 17  1  0  0  0  0
 11 12  1  0  0  0  0
 11 13  1  0  0  0  0
 11 14  1  0  0  0  0
  9 10  1  0  0  0  0
  9 11  1  0  0  0  0
  9 29  1  0  0  0  0
  7  8  1  0  0  0  0
  7  9  1  0  0  0  0
 33 34  1  0  0  0  0
 33 35  1  0  0  0  0
 33 36  1  0  0  0  0
 31 32  1  0  0  0  0
 31 33  1  0  0  0  0
M  CHG  1  20   1
M  END
$$$$
default_name
  -OEChem-02102213163D

 36 35  0     1  0  0  0  0  0999 V2000
   -4.2256   -3.6731    1.8584 H   0  0  0  0  0  0  0  0  0  0  0  0
   -4.2396   -2.6781    1.4144 C   0  0  0  0  0  0  0  0  0  0  0  0
   -4.9506   -2.0521    1.9514 H   0  0  0  0  0  0  0  0  0  0  0  0
   -4.5266   -2.7521    0.3674 H   0  0  0  0  0  0  0  0  0  0  0  0
   -2.8576   -2.0761    1.5184 C   0  0  0  0  0  0  0  0  0  0  0  0
   -1.9456   -2.7051    2.0404 O   0  0  0  0  0  0  0  0  0  0  0  0
   -2.6926   -0.8481    1.0174 N   0  0  0  0  0  0  0  0  0  0  0  0
   -3.4926   -0.3971    0.5954 H   0  0  0  0  0  0  0  0  0  0  0  0
   -1.4216   -0.1071    1.0434 C   0  0  1  0  0  0  0  0  0  0  0  0
   -0.6709   -0.6930    0.5106 H   0  0  0  0  0  0  0  0  0  0  0  0
   -1.6221    1.2315    0.3051 C   0  0  0  0  0  0  0  0  0  0  0  0
   -0.9377    1.2664   -0.5450 H   0  0  0  0  0  0  0  0  0  0  0  0
   -2.6433    1.2775   -0.0795 H   0  0  0  0  0  0  0  0  0  0  0  0
   -1.3595    2.4612    1.1867 C   0  0  0  0  0  0  0  0  0  0  0  0
   -1.7662    3.3526    0.7071 H   0  0  0  0  0  0  0  0  0  0  0  0
   -1.8419    2.3208    2.1545 H   0  0  0  0  0  0  0  0  0  0  0  0
    0.1505    2.6449    1.3909 C   0  0  0  0  0  0  0  0  0  0  0  0
    0.5536    1.7377    1.8468 H   0  0  0  0  0  0  0  0  0  0  0  0
    0.6187    2.7865    0.4140 H   0  0  0  0  0  0  0  0  0  0  0  0
    0.4498    3.8055    2.2548 N   0  3  0  0  0  0  0  0  0  0  0  0
   -0.3350    4.3540    2.5623 H   0  0  0  0  0  0  0  0  0  0  0  0
    1.6486    4.1893    2.6604 C   0  0  0  0  0  0  0  0  0  0  0  0
    2.7328    3.5505    2.3205 N   0  0  0  0  0  0  0  0  0  0  0  0
    2.6525    2.7398    1.7325 H   0  0  0  0  0  0  0  0  0  0  0  0
    3.6350    3.8553    2.6367 H   0  0  0  0  0  0  0  0  0  0  0  0
    1.7829    5.2362    3.4241 N   0  0  0  0  0  0  0  0  0  0  0  0
    0.9755    5.7613    3.7130 H   0  0  0  0  0  0  0  0  0  0  0  0
    2.6942    5.5239    3.7297 H   0  0  0  0  0  0  0  0  0  0  0  0
   -0.9523    0.1012    2.4848 C   0  0  0  0  0  0  0  0  0  0  0  0
    0.2133   -0.1319    2.7814 O   0  0  0  0  0  0  0  0  0  0  0  0
   -1.8684    0.5006    3.3725 N   0  0  0  0  0  0  0  0  0  0  0  0
   -2.7946    0.7048    3.0343 H   0  0  0  0  0  0  0  0  0  0  0  0
   -1.5848    0.7472    4.7873 C   0  0  0  0  0  0  0  0  0  0  0  0
   -0.8819    1.5774    4.8838 H   0  0  0  0  0  0  0  0  0  0  0  0
   -2.5030    0.9948    5.3214 H   0  0  0  0  0  0  0  0  0  0  0  0
   -1.1344   -0.1399    5.2381 H   0  0  0  0  0  0  0  0  0  0  0  0
  5  6  2  0  0  0  0
  5  7  1  0  0  0  0
  2  3  1  0  0  0  0
  2  4  1  0  0  0  0
  2  5  1  0  0  0  0
  1  2  1  0  0  0  0
 29 30  2  0  0  0  0
 29 31  1  0  0  0  0
 26 27  1  0  0  0  0
 26 28  1  0  0  0  0
 23 24  1  0  0  0  0
 23 25  1  0  0  0  0
 22 23  1  0  0  0  0
 22 26  1  0  0  0  0
 20 21  1  0  0  0  0
 20 22  2  0  0  0  0
 17 18  1  0  0  0  0
 17 19  1  0  0  0  0
 17 20  1  0  0  0  0
 14 15  1  0  0  0  0
 14 16  1  0  0  0  0
 14 17  1  0  0  0  0
 11 12  1  0  0  0  0
 11 13  1  0  0  0  0
 11 14  1  0  0  0  0
  9 10  1  0  0  0  0
  9 11  1  0  0  0  0
  9 29  1  0  0  0  0
  7  8  1  0  0  0  0
  7  9  1  0  0  0  0
 33 34  1  0  0  0  0
 33 35  1  0  0  0  0
 33 36  1  0  0  0  0
 31 32  1  0  0  0  0
 31 33  1  0  0  0  0
M  CHG  1  20   1
M  END
$$$$
default_name
  -OEChem-02102213163D

 36 35  0     1  0  0  0  0  0999 V2000
   -4.2256   -3.6731    1.8584 H   0  0  0  0  0  0  0  0  0  0  0  0
   -4.2396   -2.6781    1.4144 C   0  0  0  0  0  0  0  0  0  0  0  0
   -4.9506   -2.0521    1.9514 H   0  0  0  0  0  0  0  0  0  0  0  0
   -4.5266   -2.7521    0.3674 H   0  0  0  0  0  0  0  0  0  0  0  0
   -2.8576   -2.0761    1.5184 C   0  0  0  0  0  0  0  0  0  0  0  0
   -1.9456   -2.7051    2.0404 O   0  0  0  0  0  0  0  0  0  0  0  0
   -2.6926   -0.8481    1.0174 N   0  0  0  0  0  0  0  0  0  0  0  0
   -3.4926   -0.3971    0.5954 H   0  0  0  0  0  0  0  0  0  0  0  0
   -1.4216   -0.1071    1.0434 C   0  0  1  0  0  0  0  0  0  0  0  0
   -0.6709   -0.6930    0.5106 H   0  0  0  0  0  0  0  0  0  0  0  0
   -1.6221    1.2315    0.3051 C   0  0  0  0  0  0  0  0  0  0  0  0
   -0.9377    1.2664   -0.5450 H   0  0  0  0  0  0  0  0  0  0  0  0
   -2.6433    1.2775   -0.0795 H   0  0  0  0  0  0  0  0  0  0  0  0
   -1.3595    2.4612    1.1867 C   0  0  0  0  0  0  0  0  0  0  0  0
   -1.9821    3.2931    0.8544 H   0  0  0  0  0  0  0  0  0  0  0  0
   -1.6019    2.2210    2.2224 H   0  0  0  0  0  0  0  0  0  0  0  0
    0.1171    2.8682    1.0893 C   0  0  0  0  0  0  0  0  0  0  0  0
    0.7335    2.0209    1.3983 H   0  0  0  0  0  0  0  0  0  0  0  0
    0.3437    3.1078    0.0477 H   0  0  0  0  0  0  0  0  0  0  0  0
    0.4214    4.0358    1.9420 N   0  3  0  0  0  0  0  0  0  0  0  0
   -0.3516    4.4485    2.4354 H   0  0  0  0  0  0  0  0  0  0  0  0
    1.6107    4.5870    2.1169 C   0  0  0  0  0  0  0  0  0  0  0  0
    2.6795    4.1319    1.5254 N   0  0  0  0  0  0  0  0  0  0  0  0
    2.5946    3.3356    0.9186 H   0  0  0  0  0  0  0  0  0  0  0  0
    3.5745    4.5622    1.6687 H   0  0  0  0  0  0  0  0  0  0  0  0
    1.7508    5.6199    2.8985 N   0  0  0  0  0  0  0  0  0  0  0  0
    0.9554    6.0066    3.3769 H   0  0  0  0  0  0  0  0  0  0  0  0
    2.6549    6.0350    3.0285 H   0  0  0  0  0  0  0  0  0  0  0  0
   -0.9523    0.1012    2.4848 C   0  0  0  0  0  0  0  0  0  0  0  0
    0.2133   -0.1319    2.7814 O   0  0  0  0  0  0  0  0  0  0  0  0
   -1.8684    0.5006    3.3725 N   0  0  0  0  0  0  0  0  0  0  0  0
   -2.7946    0.7048    3.0343 H   0  0  0  0  0  0  0  0  0  0  0  0
   -1.5848    0.7472    4.7873 C   0  0  0  0  0  0  0  0  0  0  0  0
   -0.8819    1.5774    4.8838 H   0  0  0  0  0  0  0  0  0  0  0  0
   -2.5030    0.9948    5.3214 H   0  0  0  0  0  0  0  0  0  0  0  0
   -1.1344   -0.1399    5.2381 H   0  0  0  0  0  0  0  0  0  0  0  0
  5  6  2  0  0  0  0
  5  7  1  0  0  0  0
  2  3  1  0  0  0  0
  2  4  1  0  0  0  0
  2  5  1  0  0  0  0
  1  2  1  0  0  0  0
 29 30  2  0  0  0  0
 29 31  1  0  0  0  0
 26 27  1  0  0  0  0
 26 28  1  0  0  0  0
 23 24  1  0  0  0  0
 23 25  1  0  0  0  0
 22 23  1  0  0  0  0
 22 26  1  0  0  0  0
 20 21  1  0  0  0  0
 20 22  2  0  0  0  0
 17 18  1  0  0  0  0
 17 19  1  0  0  0  0
 17 20  1  0  0  0  0
 14 15  1  0  0  0  0
 14 16  1  0  0  0  0
 14 17  1  0  0  0  0
 11 12  1  0  0  0  0
 11 13  1  0  0  0  0
 11 14  1  0  0  0  0
  9 10  1  0  0  0  0
  9 11  1  0  0  0  0
  9 29  1  0  0  0  0
  7  8  1  0  0  0  0
  7  9  1  0  0  0  0
 33 34  1  0  0  0  0
 33 35  1  0  0  0  0
 33 36  1  0  0  0  0
 31 32  1  0  0  0  0
 31 33  1  0  0  0  0
M  CHG  1  20   1
M  END
$$$$
default_name
  -OEChem-02102213163D

 36 35  0     1  0  0  0  0  0999 V2000
   -4.2256   -3.6731    1.8584 H   0  0  0  0  0  0  0  0  0  0  0  0
   -4.2396   -2.6781    1.4144 C   0  0  0  0  0  0  0  0  0  0  0  0
   -4.9506   -2.0521    1.9514 H   0  0  0  0  0  0  0  0  0  0  0  0
   -4.5266   -2.7521    0.3674 H   0  0  0  0  0  0  0  0  0  0  0  0
   -2.8576   -2.0761    1.5184 C   0  0  0  0  0  0  0  0  0  0  0  0
   -1.9456   -2.7051    2.0404 O   0  0  0  0  0  0  0  0  0  0  0  0
   -2.6926   -0.8481    1.0174 N   0  0  0  0  0  0  0  0  0  0  0  0
   -3.4926   -0.3971    0.5954 H   0  0  0  0  0  0  0  0  0  0  0  0
   -1.4216   -0.1071    1.0434 C   0  0  1  0  0  0  0  0  0  0  0  0
   -0.6709   -0.6930    0.5106 H   0  0  0  0  0  0  0  0  0  0  0  0
   -1.6221    1.2315    0.3051 C   0  0  0  0  0  0  0  0  0  0  0  0
   -0.9377    1.2664   -0.5450 H   0  0  0  0  0  0  0  0  0  0  0  0
   -2.6433    1.2775   -0.0795 H   0  0  0  0  0  0  0  0  0  0  0  0
   -1.3595    2.4612    1.1867 C   0  0  0  0  0  0  0  0  0  0  0  0
   -2.1512    3.1970    1.0388 H   0  0  0  0  0  0  0  0  0  0  0  0
   -1.3412    2.1572    2.2338 H   0  0  0  0  0  0  0  0  0  0  0  0
   -0.0108    3.0923    0.8149 C   0  0  0  0  0  0  0  0  0  0  0  0
    0.7722    2.3410    0.9403 H   0  0  0  0  0  0  0  0  0  0  0  0
   -0.0455    3.3935   -0.2348 H   0  0  0  0  0  0  0  0  0  0  0  0
    0.2949    4.2678    1.6559 N   0  3  0  0  0  0  0  0  0  0  0  0
   -0.4080    4.5429    2.3204 H   0  0  0  0  0  0  0  0  0  0  0  0
    1.4025    4.9896    1.6174 C   0  0  0  0  0  0  0  0  0  0  0  0
    2.3768    4.7207    0.7942 N   0  0  0  0  0  0  0  0  0  0  0  0
    2.2815    3.9385    0.1709 H   0  0  0  0  0  0  0  0  0  0  0  0
    3.2105    5.2789    0.7775 H   0  0  0  0  0  0  0  0  0  0  0  0
    1.5538    6.0090    2.4145 N   0  0  0  0  0  0  0  0  0  0  0  0
    0.8298    6.2554    3.0672 H   0  0  0  0  0  0  0  0  0  0  0  0
    2.3956    6.5538    2.3820 H   0  0  0  0  0  0  0  0  0  0  0  0
   -0.9523    0.1012    2.4848 C   0  0  0  0  0  0  0  0  0  0  0  0
    0.2133   -0.1319    2.7814 O   0  0  0  0  0  0  0  0  0  0  0  0
   -1.8684    0.5006    3.3725 N   0  0  0  0  0  0  0  0  0  0  0  0
   -2.7946    0.7048    3.0343 H   0  0  0  0  0  0  0  0  0  0  0  0
   -1.5848    0.7472    4.7873 C   0  0  0  0  0  0  0  0  0  0  0  0
   -0.8819    1.5774    4.8838 H   0  0  0  0  0  0  0  0  0  0  0  0
   -2.5030    0.9948    5.3214 H   0  0  0  0  0  0  0  0  0  0  0  0
   -1.1344   -0.1399    5.2381 H   0  0  0  0  0  0  0  0  0  0  0  0
  5  6  2  0  0  0  0
  5  7  1  0  0  0  0
  2  3  1  0  0  0  0
  2  4  1  0  0  0  0
  2  5  1  0  0  0  0
  1  2  1  0  0  0  0
 29 30  2  0  0  0  0
 29 31  1  0  0  0  0
 26 27  1  0  0  0  0
 26 28  1  0  0  0  0
 23 24  1  0  0  0  0
 23 25  1  0  0  0  0
 22 23  1  0  0  0  0
 22 26  1  0  0  0  0
 20 21  1  0  0  0  0
 20 22  2  0  0  0  0
 17 18  1  0  0  0  0
 17 19  1  0  0  0  0
 17 20  1  0  0  0  0
 14 15  1  0  0  0  0
 14 16  1  0  0  0  0
 14 17  1  0  0  0  0
 11 12  1  0  0  0  0
 11 13  1  0  0  0  0
 11 14  1  0  0  0  0
  9 10  1  0  0  0  0
  9 11  1  0  0  0  0
  9 29  1  0  0  0  0
  7  8  1  0  0  0  0
  7  9  1  0  0  0  0
 33 34  1  0  0  0  0
 33 35  1  0  0  0  0
 33 36  1  0  0  0  0
 31 32  1  0  0  0  0
 31 33  1  0  0  0  0
M  CHG  1  20   1
M  END
$$$$
default_name
  -OEChem-02102213163D

 36 35  0     1  0  0  0  0  0999 V2000
   -4.2256   -3.6731    1.8584 H   0  0  0  0  0  0  0  0  0  0  0  0
   -4.2396   -2.6781    1.4144 C   0  0  0  0  0  0  0  0  0  0  0  0
   -4.9506   -2.0521    1.9514 H   0  0  0  0  0  0  0  0  0  0  0  0
   -4.5266   -2.7521    0.3674 H   0  0  0  0  0  0  0  0  0  0  0  0
   -2.8576   -2.0761    1.5184 C   0  0  0  0  0  0  0  0  0  0  0  0
   -1.9456   -2.7051    2.0404 O   0  0  0  0  0  0  0  0  0  0  0  0
   -2.6926   -0.8481    1.0174 N   0  0  0  0  0  0  0  0  0  0  0  0
   -3.4926   -0.3971    0.5954 H   0  0  0  0  0  0  0  0  0  0  0  0
   -1.4216   -0.1071    1.0434 C   0  0  1  0  0  0  0  0  0  0  0  0
   -0.6709   -0.6930    0.5106 H   0  0  0  0  0  0  0  0  0  0  0  0
   -1.6221    1.2315    0.3051 C   0  0  0  0  0  0  0  0  0  0  0  0
   -0.9377    1.2664   -0.5450 H   0  0  0  0  0  0  0  0  0  0  0  0
   -2.6433    1.2775   -0.0795 H   0  0  0  0  0  0  0  0  0  0  0  0
   -1.3595    2.4612    1.1867 C   0  0  0  0  0  0  0  0  0  0  0  0
   -2.2620    3.0709    1.2477 H   0  0  0  0  0  0  0  0  0  0  0  0
   -1.0775    2.1337    2.1879 H   0  0  0  0  0  0  0  0  0  0  0  0
   -0.2246    3.3019    0.5862 C   0  0  0  0  0  0  0  0  0  0  0  0
    0.6671    2.6761    0.5041 H   0  0  0  0  0  0  0  0  0  0  0  0
   -0.5225    3.6241   -0.4144 H   0  0  0  0  0  0  0  0  0  0  0  0
    0.0790    4.4859    1.4161 N   0  3  0  0  0  0  0  0  0  0  0  0
   -0.5003    4.6309    2.2252 H   0  0  0  0  0  0  0  0  0  0  0  0
    1.0379    5.3696    1.1959 C   0  0  0  0  0  0  0  0  0  0  0  0
    1.8453    5.2769    0.1767 N   0  0  0  0  0  0  0  0  0  0  0  0
    1.7345    4.5075   -0.4598 H   0  0  0  0  0  0  0  0  0  0  0  0
    2.5676    5.9564    0.0238 H   0  0  0  0  0  0  0  0  0  0  0  0
    1.2054    6.3769    2.0049 N   0  0  0  0  0  0  0  0  0  0  0  0
    0.6074    6.4907    2.8052 H   0  0  0  0  0  0  0  0  0  0  0  0
    1.9341    7.0451    1.8342 H   0  0  0  0  0  0  0  0  0  0  0  0
   -0.9523    0.1012    2.4848 C   0  0  0  0  0  0  0  0  0  0  0  0
    0.2133   -0.1319    2.7814 O   0  0  0  0  0  0  0  0  0  0  0  0
   -1.8684    0.5006    3.3725 N   0  0  0  0  0  0  0  0  0  0  0  0
   -2.7946    0.7048    3.0343 H   0  0  0  0  0  0  0  0  0  0  0  0
   -1.5848    0.7472    4.7873 C   0  0  0  0  0  0  0  0  0  0  0  0
   -0.8819    1.5774    4.8838 H   0  0  0  0  0  0  0  0  0  0  0  0
   -2.5030    0.9948    5.3214 H   0  0  0  0  0  0  0  0  0  0  0  0
   -1.1344   -0.1399    5.2381 H   0  0  0  0  0  0  0  0  0  0  0  0
  5  6  2  0  0  0  0
  5  7  1  0  0  0  0
  2  3  1  0  0  0  0
  2  4  1  0  0  0  0
  2  5  1  0  0  0  0
  1  2  1  0  0  0  0
 29 30  2  0  0  0  0
 29 31  1  0  0  0  0
 26 27  1  0  0  0  0
 26 28  1  0  0  0  0
 23 24  1  0  0  0  0
 23 25  1  0  0  0  0
 22 23  1  0  0  0  0
 22 26  1  0  0  0  0
 20 21  1  0  0  0  0
 20 22  2  0  0  0  0
 17 18  1  0  0  0  0
 17 19  1  0  0  0  0
 17 20  1  0  0  0  0
 14 15  1  0  0  0  0
 14 16  1  0  0  0  0
 14 17  1  0  0  0  0
 11 12  1  0  0  0  0
 11 13  1  0  0  0  0
 11 14  1  0  0  0  0
  9 10  1  0  0  0  0
  9 11  1  0  0  0  0
  9 29  1  0  0  0  0
  7  8  1  0  0  0  0
  7  9  1  0  0  0  0
 33 34  1  0  0  0  0
 33 35  1  0  0  0  0
 33 36  1  0  0  0  0
 31 32  1  0  0  0  0
 31 33  1  0  0  0  0
M  CHG  1  20   1
M  END
$$$$
default_name
  -OEChem-02102213163D

 36 35  0     1  0  0  0  0  0999 V2000
   -4.2256   -3.6731    1.8584 H   0  0  0  0  0  0  0  0  0  0  0  0
   -4.2396   -2.6781    1.4144 C   0  0  0  0  0  0  0  0  0  0  0  0
   -4.9506   -2.0521    1.9514 H   0  0  0  0  0  0  0  0  0  0  0  0
   -4.5266   -2.7521    0.3674 H   0  0  0  0  0  0  0  0  0  0  0  0
   -2.8576   -2.0761    1.5184 C   0  0  0  0  0  0  0  0  0  0  0  0
   -1.9456   -2.7051    2.0404 O   0  0  0  0  0  0  0  0  0  0  0  0
   -2.6926   -0.8481    1.0174 N   0  0  0  0  0  0  0  0  0  0  0  0
   -3.4926   -0.3971    0.5954 H   0  0  0  0  0  0  0  0  0  0  0  0
   -1.4216   -0.1071    1.0434 C   0  0  1  0  0  0  0  0  0  0  0  0
   -0.6709   -0.6930    0.5106 H   0  0  0  0  0  0  0  0  0  0  0  0
   -1.6221    1.2315    0.3051 C   0  0  0  0  0  0  0  0  0  0  0  0
   -0.9377    1.2664   -0.5450 H   0  0  0  0  0  0  0  0  0  0  0  0
   -2.6433    1.2775   -0.0795 H   0  0  0  0  0  0  0  0  0  0  0  0
   -1.3595    2.4612    1.1867 C   0  0  0  0  0  0  0  0  0  0  0  0
   -2.3071    2.9234    1.4669 H   0  0  0  0  0  0  0  0  0  0  0  0
   -0.8289    2.1523    2.0879 H   0  0  0  0  0  0  0  0  0  0  0  0
   -0.5096    3.4827    0.4188 C   0  0  0  0  0  0  0  0  0  0  0  0
    0.4254    3.0036    0.1193 H   0  0  0  0  0  0  0  0  0  0  0  0
   -1.0548    3.7839   -0.4788 H   0  0  0  0  0  0  0  0  0  0  0  0
   -0.2116    4.6750    1.2388 N   0  3  0  0  0  0  0  0  0  0  0  0
   -0.6222    4.7064    2.1563 H   0  0  0  0  0  0  0  0  0  0  0  0
    0.5420    5.7012    0.8811 C   0  0  0  0  0  0  0  0  0  0  0  0
    1.1214    5.7625   -0.2850 N   0  0  0  0  0  0  0  0  0  0  0  0
    0.9909    5.0037   -0.9305 H   0  0  0  0  0  0  0  0  0  0  0  0
    1.6898    6.5488   -0.5410 H   0  0  0  0  0  0  0  0  0  0  0  0
    0.7294    6.6987    1.6978 N   0  0  0  0  0  0  0  0  0  0  0  0
    0.3033    6.6966    2.6086 H   0  0  0  0  0  0  0  0  0  0  0  0
    1.3019    7.4752    1.4225 H   0  0  0  0  0  0  0  0  0  0  0  0
   -0.9523    0.1012    2.4848 C   0  0  0  0  0  0  0  0  0  0  0  0
    0.2133   -0.1319    2.7814 O   0  0  0  0  0  0  0  0  0  0  0  0
   -1.8684    0.5006    3.3725 N   0  0  0  0  0  0  0  0  0  0  0  0
   -2.7946    0.7048    3.0343 H   0  0  0  0  0  0  0  0  0  0  0  0
   -1.5848    0.7472    4.7873 C   0  0  0  0  0  0  0  0  0  0  0  0
   -0.8819    1.5774    4.8838 H   0  0  0  0  0  0  0  0  0  0  0  0
   -2.5030    0.9948    5.3214 H   0  0  0  0  0  0  0  0  0  0  0  0
   -1.1344   -0.1399    5.2381 H   0  0  0  0  0  0  0  0  0  0  0  0
  5  6  2  0  0  0  0
  5  7  1  0  0  0  0
  2  3  1  0  0  0  0
  2  4  1  0  0  0  0
  2  5  1  0  0  0  0
  1  2  1  0  0  0  0
 29 30  2  0  0  0  0
 29 31  1  0  0  0  0
 26 27  1  0  0  0  0
 26 28  1  0  0  0  0
 23 24  1  0  0  0  0
 23 25  1  0  0  0  0
 22 23  1  0  0  0  0
 22 26  1  0  0  0  0
 20 21  1  0  0  0  0
 20 22  2  0  0  0  0
 17 18  1  0  0  0  0
 17 19  1  0  0  0  0
 17 20  1  0  0  0  0
 14 15  1  0  0  0  0
 14 16  1  0  0  0  0
 14 17  1  0  0  0  0
 11 12  1  0  0  0  0
 11 13  1  0  0  0  0
 11 14  1  0  0  0  0
  9 10  1  0  0  0  0
  9 11  1  0  0  0  0
  9 29  1  0  0  0  0
  7  8  1  0  0  0  0
  7  9  1  0  0  0  0
 33 34  1  0  0  0  0
 33 35  1  0  0  0  0
 33 36  1  0  0  0  0
 31 32  1  0  0  0  0
 31 33  1  0  0  0  0
M  CHG  1  20   1
M  END
$$$$
default_name
  -OEChem-02102213163D

 36 35  0     1  0  0  0  0  0999 V2000
   -4.2256   -3.6731    1.8584 H   0  0  0  0  0  0  0  0  0  0  0  0
   -4.2396   -2.6781    1.4144 C   0  0  0  0  0  0  0  0  0  0  0  0
   -4.9506   -2.0521    1.9514 H   0  0  0  0  0  0  0  0  0  0  0  0
   -4.5266   -2.7521    0.3674 H   0  0  0  0  0  0  0  0  0  0  0  0
   -2.8576   -2.0761    1.5184 C   0  0  0  0  0  0  0  0  0  0  0  0
   -1.9456   -2.7051    2.0404 O   0  0  0  0  0  0  0  0  0  0  0  0
   -2.6926   -0.8481    1.0174 N   0  0  0  0  0  0  0  0  0  0  0  0
   -3.4926   -0.3971    0.5954 H   0  0  0  0  0  0  0  0  0  0  0  0
   -1.4216   -0.1071    1.0434 C   0  0  1  0  0  0  0  0  0  0  0  0
   -0.6709   -0.6930    0.5106 H   0  0  0  0  0  0  0  0  0  0  0  0
   -1.6221    1.2315    0.3051 C   0  0  0  0  0  0  0  0  0  0  0  0
   -0.9377    1.2664   -0.5450 H   0  0  0  0  0  0  0  0  0  0  0  0
   -2.6433    1.2775   -0.0795 H   0  0  0  0  0  0  0  0  0  0  0  0
   -1.3595    2.4612    1.1867 C   0  0  0  0  0  0  0  0  0  0  0  0
   -2.2833    2.7645    1.6814 H   0  0  0  0  0  0  0  0  0  0  0  0
   -0.6122    2.2117    1.9406 H   0  0  0  0  0  0  0  0  0  0  0  0
   -0.8464    3.6224    0.3243 C   0  0  0  0  0  0  0  0  0  0  0  0
    0.0635    3.3010   -0.1877 H   0  0  0  0  0  0  0  0  0  0  0  0
   -1.6059    3.8620   -0.4236 H   0  0  0  0  0  0  0  0  0  0  0  0
   -0.5572    4.8224    1.1362 N   0  3  0  0  0  0  0  0  0  0  0  0
   -0.7655    4.7642    2.1184 H   0  0  0  0  0  0  0  0  0  0  0  0
   -0.0516    5.9617    0.6944 C   0  0  0  0  0  0  0  0  0  0  0  0
    0.2543    6.1444   -0.5595 N   0  0  0  0  0  0  0  0  0  0  0  0
    0.1014    5.3933   -1.2091 H   0  0  0  0  0  0  0  0  0  0  0  0
    0.6369    7.0155   -0.8784 H   0  0  0  0  0  0  0  0  0  0  0  0
    0.1581    6.9524    1.5141 N   0  0  0  0  0  0  0  0  0  0  0  0
   -0.0618    6.8590    2.4908 H   0  0  0  0  0  0  0  0  0  0  0  0
    0.5419    7.8150    1.1748 H   0  0  0  0  0  0  0  0  0  0  0  0
   -0.9523    0.1012    2.4848 C   0  0  0  0  0  0  0  0  0  0  0  0
    0.2133   -0.1319    2.7814 O   0  0  0  0  0  0  0  0  0  0  0  0
   -1.8684    0.5006    3.3725 N   0  0  0  0  0  0  0  0  0  0  0  0
   -2.7946    0.7048    3.0343 H   0  0  0  0  0  0  0  0  0  0  0  0
   -1.5848    0.7472    4.7873 C   0  0  0  0  0  0  0  0  0  0  0  0
   -0.8819    1.5774    4.8838 H   0  0  0  0  0  0  0  0  0  0  0  0
   -2.5030    0.9948    5.3214 H   0  0  0  0  0  0  0  0  0  0  0  0
   -1.1344   -0.1399    5.2381 H   0  0  0  0  0  0  0  0  0  0  0  0
  5  6  2  0  0  0  0
  5  7  1  0  0  0  0
  2  3  1  0  0  0  0
  2  4  1  0  0  0  0
  2  5  1  0  0  0  0
  1  2  1  0  0  0  0
 29 30  2  0  0  0  0
 29 31  1  0  0  0  0
 26 27  1  0  0  0  0
 26 28  1  0  0  0  0
 23 24  1  0  0  0  0
 23 25  1  0  0  0  0
 22 23  1  0  0  0  0
 22 26  1  0  0  0  0
 20 21  1  0  0  0  0
 20 22  2  0  0  0  0
 17 18  1  0  0  0  0
 17 19  1  0  0  0  0
 17 20  1  0  0  0  0
 14 15  1  0  0  0  0
 14 16  1  0  0  0  0
 14 17  1  0  0  0  0
 11 12  1  0  0  0  0
 11 13  1  0  0  0  0
 11 14  1  0  0  0  0
  9 10  1  0  0  0  0
  9 11  1  0  0  0  0
  9 29  1  0  0  0  0
  7  8  1  0  0  0  0
  7  9  1  0  0  0  0
 33 34  1  0  0  0  0
 33 35  1  0  0  0  0
 33 36  1  0  0  0  0
 31 32  1  0  0  0  0
 31 33  1  0  0  0  0
M  CHG  1  20   1
M  END
$$$$
default_name
  -OEChem-02102213163D

 36 35  0     1  0  0  0  0  0999 V2000
   -4.2256   -3.6731    1.8584 H   0  0  0  0  0  0  0  0  0  0  0  0
   -4.2396   -2.6781    1.4144 C   0  0  0  0  0  0  0  0  0  0  0  0
   -4.9506   -2.0521    1.9514 H   0  0  0  0  0  0  0  0  0  0  0  0
   -4.5266   -2.7521    0.3674 H   0  0  0  0  0  0  0  0  0  0  0  0
   -2.8576   -2.0761    1.5184 C   0  0  0  0  0  0  0  0  0  0  0  0
   -1.9456   -2.7051    2.0404 O   0  0  0  0  0  0  0  0  0  0  0  0
   -2.6926   -0.8481    1.0174 N   0  0  0  0  0  0  0  0  0  0  0  0
   -3.4926   -0.3971    0.5954 H   0  0  0  0  0  0  0  0  0  0  0  0
   -1.4216   -0.1071    1.0434 C   0  0  1  0  0  0  0  0  0  0  0  0
   -0.6709   -0.6930    0.5106 H   0  0  0  0  0  0  0  0  0  0  0  0
   -1.6221    1.2315    0.3051 C   0  0  0  0  0  0  0  0  0  0  0  0
   -0.9377    1.2664   -0.5450 H   0  0  0  0  0  0  0  0  0  0  0  0
   -2.6433    1.2775   -0.0795 H   0  0  0  0  0  0  0  0  0  0  0  0
   -1.3595    2.4612    1.1867 C   0  0  0  0  0  0  0  0  0  0  0  0
   -2.1922    2.6051    1.8766 H   0  0  0  0  0  0  0  0  0  0  0  0
   -0.4422    2.3077    1.7561 H   0  0  0  0  0  0  0  0  0  0  0  0
   -1.2121    3.7115    0.3089 C   0  0  0  0  0  0  0  0  0  0  0  0
   -0.3939    3.5481   -0.3962 H   0  0  0  0  0  0  0  0  0  0  0  0
   -2.1385    3.8532   -0.2527 H   0  0  0  0  0  0  0  0  0  0  0  0
   -0.9342    4.9179    1.1153 N   0  3  0  0  0  0  0  0  0  0  0  0
   -0.9204    4.8004    2.1139 H   0  0  0  0  0  0  0  0  0  0  0  0
   -0.7023    6.1334    0.6487 C   0  0  0  0  0  0  0  0  0  0  0  0
   -0.6969    6.3966   -0.6280 N   0  0  0  0  0  0  0  0  0  0  0  0
   -0.8734    5.6498   -1.2766 H   0  0  0  0  0  0  0  0  0  0  0  0
   -0.5195    7.3248   -0.9654 H   0  0  0  0  0  0  0  0  0  0  0  0
   -0.4695    7.1207    1.4663 N   0  0  0  0  0  0  0  0  0  0  0  0
   -0.4630    6.9668    2.4599 H   0  0  0  0  0  0  0  0  0  0  0  0
   -0.2940    8.0413    1.1082 H   0  0  0  0  0  0  0  0  0  0  0  0
   -0.9523    0.1012    2.4848 C   0  0  0  0  0  0  0  0  0  0  0  0
    0.2133   -0.1319    2.7814 O   0  0  0  0  0  0  0  0  0  0  0  0
   -1.8684    0.5006    3.3725 N   0  0  0  0  0  0  0  0  0  0  0  0
   -2.7946    0.7048    3.0343 H   0  0  0  0  0  0  0  0  0  0  0  0
   -1.5848    0.7472    4.7873 C   0  0  0  0  0  0  0  0  0  0  0  0
   -0.8819    1.5774    4.8838 H   0  0  0  0  0  0  0  0  0  0  0  0
   -2.5030    0.9948    5.3214 H   0  0  0  0  0  0  0  0  0  0  0  0
   -1.1344   -0.1399    5.2381 H   0  0  0  0  0  0  0  0  0  0  0  0
  5  6  2  0  0  0  0
  5  7  1  0  0  0  0
  2  3  1  0  0  0  0
  2  4  1  0  0  0  0
  2  5  1  0  0  0  0
  1  2  1  0  0  0  0
 29 30  2  0  0  0  0
 29 31  1  0  0  0  0
 26 27  1  0  0  0  0
 26 28  1  0  0  0  0
 23 24  1  0  0  0  0
 23 25  1  0  0  0  0
 22 23  1  0  0  0  0
 22 26  1  0  0  0  0
 20 21  1  0  0  0  0
 20 22  2  0  0  0  0
 17 18  1  0  0  0  0
 17 19  1  0  0  0  0
 17 20  1  0  0  0  0
 14 15  1  0  0  0  0
 14 16  1  0  0  0  0
 14 17  1  0  0  0  0
 11 12  1  0  0  0  0
 11 13  1  0  0  0  0
 11 14  1  0  0  0  0
  9 10  1  0  0  0  0
  9 11  1  0  0  0  0
  9 29  1  0  0  0  0
  7  8  1  0  0  0  0
  7  9  1  0  0  0  0
 33 34  1  0  0  0  0
 33 35  1  0  0  0  0
 33 36  1  0  0  0  0
 31 32  1  0  0  0  0
 31 33  1  0  0  0  0
M  CHG  1  20   1
M  END
$$$$
default_name
  -OEChem-02102213163D

 36 35  0     1  0  0  0  0  0999 V2000
   -4.2256   -3.6731    1.8584 H   0  0  0  0  0  0  0  0  0  0  0  0
   -4.2396   -2.6781    1.4144 C   0  0  0  0  0  0  0  0  0  0  0  0
   -4.9506   -2.0521    1.9514 H   0  0  0  0  0  0  0  0  0  0  0  0
   -4.5266   -2.7521    0.3674 H   0  0  0  0  0  0  0  0  0  0  0  0
   -2.8576   -2.0761    1.5184 C   0  0  0  0  0  0  0  0  0  0  0  0
   -1.9456   -2.7051    2.0404 O   0  0  0  0  0  0  0  0  0  0  0  0
   -2.6926   -0.8481    1.0174 N   0  0  0  0  0  0  0  0  0  0  0  0
   -3.4926   -0.3971    0.5954 H   0  0  0  0  0  0  0  0  0  0  0  0
   -1.4216   -0.1071    1.0434 C   0  0  1  0  0  0  0  0  0  0  0  0
   -0.6709   -0.6930    0.5106 H   0  0  0  0  0  0  0  0  0  0  0  0
   -1.6221    1.2315    0.3051 C   0  0  0  0  0  0  0  0  0  0  0  0
   -1.1493    1.1621   -0.6766 H   0  0  0  0  0  0  0  0  0  0  0  0
   -2.6908    1.4001    0.1557 H   0  0  0  0  0  0  0  0  0  0  0  0
   -1.0207    2.4345    1.0463 C   0  0  0  0  0  0  0  0  0  0  0  0
   -1.4856    2.5330    2.0282 H   0  0  0  0  0  0  0  0  0  0  0  0
    0.0522    2.2829    1.1693 H   0  0  0  0  0  0  0  0  0  0  0  0
   -1.2658    3.7190    0.2429 C   0  0  0  0  0  0  0  0  0  0  0  0
   -0.8202    3.6013   -0.7475 H   0  0  0  0  0  0  0  0  0  0  0  0
   -2.3436    3.8582    0.1303 H   0  0  0  0  0  0  0  0  0  0  0  0
   -0.6821    4.9018    0.9085 N   0  3  0  0  0  0  0  0  0  0  0  0
   -0.2476    4.7486    1.8024 H   0  0  0  0  0  0  0  0  0  0  0  0
   -0.6769    6.1388    0.4406 C   0  0  0  0  0  0  0  0  0  0  0  0
   -1.2123    6.4480   -0.7071 N   0  0  0  0  0  0  0  0  0  0  0  0
   -1.6408    5.7212   -1.2525 H   0  0  0  0  0  0  0  0  0  0  0  0
   -1.2002    7.3919   -1.0474 H   0  0  0  0  0  0  0  0  0  0  0  0
   -0.1279    7.1012    1.1258 N   0  0  0  0  0  0  0  0  0  0  0  0
    0.2981    6.9116    2.0166 H   0  0  0  0  0  0  0  0  0  0  0  0
   -0.1261    8.0382    0.7672 H   0  0  0  0  0  0  0  0  0  0  0  0
   -0.9523    0.1012    2.4848 C   0  0  0  0  0  0  0  0  0  0  0  0
    0.2133   -0.1319    2.7814 O   0  0  0  0  0  0  0  0  0  0  0  0
   -1.8684    0.5006    3.3725 N   0  0  0  0  0  0  0  0  0  0  0  0
   -2.7946    0.7048    3.0343 H   0  0  0  0  0  0  0  0  0  0  0  0
   -1.5848    0.7472    4.7873 C   0  0  0  0  0  0  0  0  0  0  0  0
   -0.8819    1.5774    4.8838 H   0  0  0  0  0  0  0  0  0  0  0  0
   -2.5030    0.9948    5.3214 H   0  0  0  0  0  0  0  0  0  0  0  0
   -1.1344   -0.1399    5.2381 H   0  0  0  0  0  0  0  0  0  0  0  0
  5  6  2  0  0  0  0
  5  7  1  0  0  0  0
  2  3  1  0  0  0  0
  2  4  1  0  0  0  0
  2  5  1  0  0  0  0
  1  2  1  0  0  0  0
 29 30  2  0  0  0  0
 29 31  1  0  0  0  0
 26 27  1  0  0  0  0
 26 28  1  0  0  0  0
 23 24  1  0  0  0  0
 23 25  1  0  0  0  0
 22 23  1  0  0  0  0
 22 26  1  0  0  0  0
 20 21  1  0  0  0  0
 20 22  2  0  0  0  0
 17 18  1  0  0  0  0
 17 19  1  0  0  0  0
 17 20  1  0  0  0  0
 14 15  1  0  0  0  0
 14 16  1  0  0  0  0
 14 17  1  0  0  0  0
 11 12  1  0  0  0  0
 11 13  1  0  0  0  0
 11 14  1  0  0  0  0
  9 10  1  0  0  0  0
  9 11  1  0  0  0  0
  9 29  1  0  0  0  0
  7  8  1  0  0  0  0
  7  9  1  0  0  0  0
 33 34  1  0  0  0  0
 33 35  1  0  0  0  0
 33 36  1  0  0  0  0
 31 32  1  0  0  0  0
 31 33  1  0  0  0  0
M  CHG  1  20   1
M  END
$$$$
default_name
  -OEChem-02102213163D

 36 35  0     1  0  0  0  0  0999 V2000
   -4.2256   -3.6731    1.8584 H   0  0  0  0  0  0  0  0  0  0  0  0
   -4.2396   -2.6781    1.4144 C   0  0  0  0  0  0  0  0  0  0  0  0
   -4.9506   -2.0521    1.9514 H   0  0  0  0  0  0  0  0  0  0  0  0
   -4.5266   -2.7521    0.3674 H   0  0  0  0  0  0  0  0  0  0  0  0
   -2.8576   -2.0761    1.5184 C   0  0  0  0  0  0  0  0  0  0  0  0
   -1.9456   -2.7051    2.0404 O   0  0  0  0  0  0  0  0  0  0  0  0
   -2.6926   -0.8481    1.0174 N   0  0  0  0  0  0  0  0  0  0  0  0
   -3.4926   -0.3971    0.5954 H   0  0  0  0  0  0  0  0  0  0  0  0
   -1.4216   -0.1071    1.0434 C   0  0  1  0  0  0  0  0  0  0  0  0
   -0.6709   -0.6930    0.5106 H   0  0  0  0  0  0  0  0  0  0  0  0
   -1.6221    1.2315    0.3051 C   0  0  0  0  0  0  0  0  0  0  0  0
   -1.1493    1.1621   -0.6766 H   0  0  0  0  0  0  0  0  0  0  0  0
   -2.6908    1.4001    0.1557 H   0  0  0  0  0  0  0  0  0  0  0  0
   -1.0207    2.4345    1.0463 C   0  0  0  0  0  0  0  0  0  0  0  0
   -1.2781    2.3818    2.1051 H   0  0  0  0  0  0  0  0  0  0  0  0
    0.0643    2.4193    0.9381 H   0  0  0  0  0  0  0  0  0  0  0  0
   -1.5739    3.7400    0.4588 C   0  0  0  0  0  0  0  0  0  0  0  0
   -1.3348    3.7717   -0.6066 H   0  0  0  0  0  0  0  0  0  0  0  0
   -2.6600    3.7415    0.5767 H   0  0  0  0  0  0  0  0  0  0  0  0
   -1.0031    4.9274    1.1275 N   0  3  0  0  0  0  0  0  0  0  0  0
   -0.3766    4.7559    1.8952 H   0  0  0  0  0  0  0  0  0  0  0  0
   -1.2376    6.1902    0.8121 C   0  0  0  0  0  0  0  0  0  0  0  0
   -2.0330    6.5244   -0.1651 N   0  0  0  0  0  0  0  0  0  0  0  0
   -2.4800    5.7974   -0.6952 H   0  0  0  0  0  0  0  0  0  0  0  0
   -2.2004    7.4876   -0.3911 H   0  0  0  0  0  0  0  0  0  0  0  0
   -0.6711    7.1536    1.4816 N   0  0  0  0  0  0  0  0  0  0  0  0
   -0.0494    6.9454    2.2439 H   0  0  0  0  0  0  0  0  0  0  0  0
   -0.8517    8.1102    1.2390 H   0  0  0  0  0  0  0  0  0  0  0  0
   -0.9523    0.1012    2.4848 C   0  0  0  0  0  0  0  0  0  0  0  0
    0.2133   -0.1319    2.7814 O   0  0  0  0  0  0  0  0  0  0  0  0
   -1.8684    0.5006    3.3725 N   0  0  0  0  0  0  0  0  0  0  0  0
   -2.7946    0.7048    3.0343 H   0  0  0  0  0  0  0  0  0  0  0  0
   -1.5848    0.7472    4.7873 C   0  0  0  0  0  0  0  0  0  0  0  0
   -0.8819    1.5774    4.8838 H   0  0  0  0  0  0  0  0  0  0  0  0
   -2.5030    0.9948    5.3214 H   0  0  0  0  0  0  0  0  0  0  0  0
   -1.1344   -0.1399    5.2381 H   0  0  0  0  0  0  0  0  0  0  0  0
  5  6  2  0  0  0  0
  5  7  1  0  0  0  0
  2  3  1  0  0  0  0
  2  4  1  0  0  0  0
  2  5  1  0  0  0  0
  1  2  1  0  0  0  0
 29 30  2  0  0  0  0
 29 31  1  0  0  0  0
 26 27  1  0  0  0  0
 26 28  1  0  0  0  0
 23 24  1  0  0  0  0
 23 25  1  0  0  0  0
 22 23  1  0  0  0  0
 22 26  1  0  0  0  0
 20 21  1  0  0  0  0
 20 22  2  0  0  0  0
 17 18  1  0  0  0  0
 17 19  1  0  0  0  0
 17 20  1  0  0  0  0
 14 15  1  0  0  0  0
 14 16  1  0  0  0  0
 14 17  1  0  0  0  0
 11 12  1  0  0  0  0
 11 13  1  0  0  0  0
 11 14  1  0  0  0  0
  9 10  1  0  0  0  0
  9 11  1  0  0  0  0
  9 29  1  0  0  0  0
  7  8  1  0  0  0  0
  7  9  1  0  0  0  0
 33 34  1  0  0  0  0
 33 35  1  0  0  0  0
 33 36  1  0  0  0  0
 31 32  1  0  0  0  0
 31 33  1  0  0  0  0
M  CHG  1  20   1
M  END
$$$$
default_name
  -OEChem-02102213163D

 36 35  0     1  0  0  0  0  0999 V2000
   -4.2256   -3.6731    1.8584 H   0  0  0  0  0  0  0  0  0  0  0  0
   -4.2396   -2.6781    1.4144 C   0  0  0  0  0  0  0  0  0  0  0  0
   -4.9506   -2.0521    1.9514 H   0  0  0  0  0  0  0  0  0  0  0  0
   -4.5266   -2.7521    0.3674 H   0  0  0  0  0  0  0  0  0  0  0  0
   -2.8576   -2.0761    1.5184 C   0  0  0  0  0  0  0  0  0  0  0  0
   -1.9456   -2.7051    2.0404 O   0  0  0  0  0  0  0  0  0  0  0  0
   -2.6926   -0.8481    1.0174 N   0  0  0  0  0  0  0  0  0  0  0  0
   -3.4926   -0.3971    0.5954 H   0  0  0  0  0  0  0  0  0  0  0  0
   -1.4216   -0.1071    1.0434 C   0  0  1  0  0  0  0  0  0  0  0  0
   -0.6709   -0.6930    0.5106 H   0  0  0  0  0  0  0  0  0  0  0  0
   -1.6221    1.2315    0.3051 C   0  0  0  0  0  0  0  0  0  0  0  0
   -1.1493    1.1621   -0.6766 H   0  0  0  0  0  0  0  0  0  0  0  0
   -2.6908    1.4001    0.1557 H   0  0  0  0  0  0  0  0  0  0  0  0
   -1.0207    2.4345    1.0463 C   0  0  0  0  0  0  0  0  0  0  0  0
   -1.0431    2.2540    2.1219 H   0  0  0  0  0  0  0  0  0  0  0  0
    0.0121    2.5759    0.7262 H   0  0  0  0  0  0  0  0  0  0  0  0
   -1.8302    3.6999    0.7319 C   0  0  0  0  0  0  0  0  0  0  0  0
   -1.8246    3.8578   -0.3490 H   0  0  0  0  0  0  0  0  0  0  0  0
   -2.8606    3.5439    1.0601 H   0  0  0  0  0  0  0  0  0  0  0  0
   -1.2719    4.8898    1.4067 N   0  3  0  0  0  0  0  0  0  0  0  0
   -0.4833    4.7375    2.0118 H   0  0  0  0  0  0  0  0  0  0  0  0
   -1.7102    6.1321    1.2899 C   0  0  0  0  0  0  0  0  0  0  0  0
   -2.7253    6.4407    0.5326 N   0  0  0  0  0  0  0  0  0  0  0  0
   -3.1871    5.7096    0.0210 H   0  0  0  0  0  0  0  0  0  0  0  0
   -3.0455    7.3885    0.4554 H   0  0  0  0  0  0  0  0  0  0  0  0
   -1.1303    7.1003    1.9408 N   0  0  0  0  0  0  0  0  0  0  0  0
   -0.3432    6.9115    2.5372 H   0  0  0  0  0  0  0  0  0  0  0  0
   -1.4659    8.0413    1.8492 H   0  0  0  0  0  0  0  0  0  0  0  0
   -0.9523    0.1012    2.4848 C   0  0  0  0  0  0  0  0  0  0  0  0
    0.2133   -0.1319    2.7814 O   0  0  0  0  0  0  0  0  0  0  0  0
   -1.8684    0.5006    3.3725 N   0  0  0  0  0  0  0  0  0  0  0  0
   -2.7946    0.7048    3.0343 H   0  0  0  0  0  0  0  0  0  0  0  0
   -1.5848    0.7472    4.7873 C   0  0  0  0  0  0  0  0  0  0  0  0
   -0.8819    1.5774    4.8838 H   0  0  0  0  0  0  0  0  0  0  0  0
   -2.5030    0.9948    5.3214 H   0  0  0  0  0  0  0  0  0  0  0  0
   -1.1344   -0.1399    5.2381 H   0  0  0  0  0  0  0  0  0  0  0  0
  5  6  2  0  0  0  0
  5  7  1  0  0  0  0
  2  3  1  0  0  0  0
  2  4  1  0  0  0  0
  2  5  1  0  0  0  0
  1  2  1  0  0  0  0
 29 30  2  0  0  0  0
 29 31  1  0  0  0  0
 26 27  1  0  0  0  0
 26 28  1  0  0  0  0
 23 24  1  0  0  0  0
 23 25  1  0  0  0  0
 22 23  1  0  0  0  0
 22 26  1  0  0  0  0
 20 21  1  0  0  0  0
 20 22  2  0  0  0  0
 17 18  1  0  0  0  0
 17 19  1  0  0  0  0
 17 20  1  0  0  0  0
 14 15  1  0  0  0  0
 14 16  1  0  0  0  0
 14 17  1  0  0  0  0
 11 12  1  0  0  0  0
 11 13  1  0  0  0  0
 11 14  1  0  0  0  0
  9 10  1  0  0  0  0
  9 11  1  0  0  0  0
  9 29  1  0  0  0  0
  7  8  1  0  0  0  0
  7  9  1  0  0  0  0
 33 34  1  0  0  0  0
 33 35  1  0  0  0  0
 33 36  1  0  0  0  0
 31 32  1  0  0  0  0
 31 33  1  0  0  0  0
M  CHG  1  20   1
M  END
$$$$
default_name
  -OEChem-02102213163D

 36 35  0     1  0  0  0  0  0999 V2000
   -4.2256   -3.6731    1.8584 H   0  0  0  0  0  0  0  0  0  0  0  0
   -4.2396   -2.6781    1.4144 C   0  0  0  0  0  0  0  0  0  0  0  0
   -4.9506   -2.0521    1.9514 H   0  0  0  0  0  0  0  0  0  0  0  0
   -4.5266   -2.7521    0.3674 H   0  0  0  0  0  0  0  0  0  0  0  0
   -2.8576   -2.0761    1.5184 C   0  0  0  0  0  0  0  0  0  0  0  0
   -1.9456   -2.7051    2.0404 O   0  0  0  0  0  0  0  0  0  0  0  0
   -2.6926   -0.8481    1.0174 N   0  0  0  0  0  0  0  0  0  0  0  0
   -3.4926   -0.3971    0.5954 H   0  0  0  0  0  0  0  0  0  0  0  0
   -1.4216   -0.1071    1.0434 C   0  0  1  0  0  0  0  0  0  0  0  0
   -0.6709   -0.6930    0.5106 H   0  0  0  0  0  0  0  0  0  0  0  0
   -1.6221    1.2315    0.3051 C   0  0  0  0  0  0  0  0  0  0  0  0
   -1.1493    1.1621   -0.6766 H   0  0  0  0  0  0  0  0  0  0  0  0
   -2.6908    1.4001    0.1557 H   0  0  0  0  0  0  0  0  0  0  0  0
   -1.0207    2.4345    1.0463 C   0  0  0  0  0  0  0  0  0  0  0  0
   -0.7968    2.1582    2.0776 H   0  0  0  0  0  0  0  0  0  0  0  0
   -0.1008    2.7422    0.5480 H   0  0  0  0  0  0  0  0  0  0  0  0
   -2.0175    3.6015    1.0436 C   0  0  0  0  0  0  0  0  0  0  0  0
   -2.2562    3.8537    0.0079 H   0  0  0  0  0  0  0  0  0  0  0  0
   -2.9316    3.2790    1.5477 H   0  0  0  0  0  0  0  0  0  0  0  0
   -1.4703    4.7915    1.7271 N   0  3  0  0  0  0  0  0  0  0  0  0
   -0.5604    4.6945    2.1442 H   0  0  0  0  0  0  0  0  0  0  0  0
   -2.0626    5.9685    1.8413 C   0  0  0  0  0  0  0  0  0  0  0  0
   -3.2422    6.2026    1.3383 N   0  0  0  0  0  0  0  0  0  0  0  0
   -3.7140    5.4640    0.8473 H   0  0  0  0  0  0  0  0  0  0  0  0
   -3.6777    7.1015    1.4343 H   0  0  0  0  0  0  0  0  0  0  0  0
   -1.4741    6.9449    2.4719 N   0  0  0  0  0  0  0  0  0  0  0  0
   -0.5633    6.8124    2.8767 H   0  0  0  0  0  0  0  0  0  0  0  0
   -1.9269    7.8362    2.5562 H   0  0  0  0  0  0  0  0  0  0  0  0
   -0.9523    0.1012    2.4848 C   0  0  0  0  0  0  0  0  0  0  0  0
    0.2133   -0.1319    2.7814 O   0  0  0  0  0  0  0  0  0  0  0  0
   -1.8684    0.5006    3.3725 N   0  0  0  0  0  0  0  0  0  0  0  0
   -2.7946    0.7048    3.0343 H   0  0  0  0  0  0  0  0  0  0  0  0
   -1.5848    0.7472    4.7873 C   0  0  0  0  0  0  0  0  0  0  0  0
   -0.8819    1.5774    4.8838 H   0  0  0  0  0  0  0  0  0  0  0  0
   -2.5030    0.9948    5.3214 H   0  0  0  0  0  0  0  0  0  0  0  0
   -1.1344   -0.1399    5.2381 H   0  0  0  0  0  0  0  0  0  0  0  0
  5  6  2  0  0  0  0
  5  7  1  0  0  0  0
  2  3  1  0  0  0  0
  2  4  1  0  0  0  0
  2  5  1  0  0  0  0
  1  2  1  0  0  0  0
 29 30  2  0  0  0  0
 29 31  1  0  0  0  0
 26 27  1  0  0  0  0
 26 28  1  0  0  0  0
 23 24  1  0  0  0  0
 23 25  1  0  0  0  0
 22 23  1  0  0  0  0
 22 26  1  0  0  0  0
 20 21  1  0  0  0  0
 20 22  2  0  0  0  0
 17 18  1  0  0  0  0
 17 19  1  0  0  0  0
 17 20  1  0  0  0  0
 14 15  1  0  0  0  0
 14 16  1  0  0  0  0
 14 17  1  0  0  0  0
 11 12  1  0  0  0  0
 11 13  1  0  0  0  0
 11 14  1  0  0  0  0
  9 10  1  0  0  0  0
  9 11  1  0  0  0  0
  9 29  1  0  0  0  0
  7  8  1  0  0  0  0
  7  9  1  0  0  0  0
 33 34  1  0  0  0  0
 33 35  1  0  0  0  0
 33 36  1  0  0  0  0
 31 32  1  0  0  0  0
 31 33  1  0  0  0  0
M  CHG  1  20   1
M  END
$$$$
default_name
  -OEChem-02102213163D

 36 35  0     1  0  0  0  0  0999 V2000
   -4.2256   -3.6731    1.8584 H   0  0  0  0  0  0  0  0  0  0  0  0
   -4.2396   -2.6781    1.4144 C   0  0  0  0  0  0  0  0  0  0  0  0
   -4.9506   -2.0521    1.9514 H   0  0  0  0  0  0  0  0  0  0  0  0
   -4.5266   -2.7521    0.3674 H   0  0  0  0  0  0  0  0  0  0  0  0
   -2.8576   -2.0761    1.5184 C   0  0  0  0  0  0  0  0  0  0  0  0
   -1.9456   -2.7051    2.0404 O   0  0  0  0  0  0  0  0  0  0  0  0
   -2.6926   -0.8481    1.0174 N   0  0  0  0  0  0  0  0  0  0  0  0
   -3.4926   -0.3971    0.5954 H   0  0  0  0  0  0  0  0  0  0  0  0
   -1.4216   -0.1071    1.0434 C   0  0  1  0  0  0  0  0  0  0  0  0
   -0.6709   -0.6930    0.5106 H   0  0  0  0  0  0  0  0  0  0  0  0
   -1.6221    1.2315    0.3051 C   0  0  0  0  0  0  0  0  0  0  0  0
   -1.1493    1.1621   -0.6766 H   0  0  0  0  0  0  0  0  0  0  0  0
   -2.6908    1.4001    0.1557 H   0  0  0  0  0  0  0  0  0  0  0  0
   -1.0207    2.4345    1.0463 C   0  0  0  0  0  0  0  0  0  0  0  0
   -0.5559    2.1009    1.9751 H   0  0  0  0  0  0  0  0  0  0  0  0
   -0.2668    2.9067    0.4156 H   0  0  0  0  0  0  0  0  0  0  0  0
   -2.1228    3.4514    1.3727 C   0  0  0  0  0  0  0  0  0  0  0  0
   -2.6003    3.7597    0.4397 H   0  0  0  0  0  0  0  0  0  0  0  0
   -2.8683    2.9648    2.0062 H   0  0  0  0  0  0  0  0  0  0  0  0
   -1.5847    4.6394    2.0669 N   0  3  0  0  0  0  0  0  0  0  0  0
   -0.6027    4.6299    2.2833 H   0  0  0  0  0  0  0  0  0  0  0  0
   -2.2707    5.7106    2.4288 C   0  0  0  0  0  0  0  0  0  0  0  0
   -3.5483    5.8265    2.1973 N   0  0  0  0  0  0  0  0  0  0  0  0
   -4.0247    5.0771    1.7273 H   0  0  0  0  0  0  0  0  0  0  0  0
   -4.0541    6.6461    2.4789 H   0  0  0  0  0  0  0  0  0  0  0  0
   -1.6790    6.6980    3.0390 N   0  0  0  0  0  0  0  0  0  0  0  0
   -0.6947    6.6547    3.2392 H   0  0  0  0  0  0  0  0  0  0  0  0
   -2.2032    7.5088    3.3118 H   0  0  0  0  0  0  0  0  0  0  0  0
   -0.9523    0.1012    2.4848 C   0  0  0  0  0  0  0  0  0  0  0  0
    0.2133   -0.1319    2.7814 O   0  0  0  0  0  0  0  0  0  0  0  0
   -1.8684    0.5006    3.3725 N   0  0  0  0  0  0  0  0  0  0  0  0
   -2.7946    0.7048    3.0343 H   0  0  0  0  0  0  0  0  0  0  0  0
   -1.5848    0.7472    4.7873 C   0  0  0  0  0  0  0  0  0  0  0  0
   -0.8819    1.5774    4.8838 H   0  0  0  0  0  0  0  0  0  0  0  0
   -2.5030    0.9948    5.3214 H   0  0  0  0  0  0  0  0  0  0  0  0
   -1.1344   -0.1399    5.2381 H   0  0  0  0  0  0  0  0  0  0  0  0
  5  6  2  0  0  0  0
  5  7  1  0  0  0  0
  2  3  1  0  0  0  0
  2  4  1  0  0  0  0
  2  5  1  0  0  0  0
  1  2  1  0  0  0  0
 29 30  2  0  0  0  0
 29 31  1  0  0  0  0
 26 27  1  0  0  0  0
 26 28  1  0  0  0  0
 23 24  1  0  0  0  0
 23 25  1  0  0  0  0
 22 23  1  0  0  0  0
 22 26  1  0  0  0  0
 20 21  1  0  0  0  0
 20 22  2  0  0  0  0
 17 18  1  0  0  0  0
 17 19  1  0  0  0  0
 17 20  1  0  0  0  0
 14 15  1  0  0  0  0
 14 16  1  0  0  0  0
 14 17  1  0  0  0  0
 11 12  1  0  0  0  0
 11 13  1  0  0  0  0
 11 14  1  0  0  0  0
  9 10  1  0  0  0  0
  9 11  1  0  0  0  0
  9 29  1  0  0  0  0
  7  8  1  0  0  0  0
  7  9  1  0  0  0  0
 33 34  1  0  0  0  0
 33 35  1  0  0  0  0
 33 36  1  0  0  0  0
 31 32  1  0  0  0  0
 31 33  1  0  0  0  0
M  CHG  1  20   1
M  END
$$$$
default_name
  -OEChem-02102213163D

 36 35  0     1  0  0  0  0  0999 V2000
   -4.2256   -3.6731    1.8584 H   0  0  0  0  0  0  0  0  0  0  0  0
   -4.2396   -2.6781    1.4144 C   0  0  0  0  0  0  0  0  0  0  0  0
   -4.9506   -2.0521    1.9514 H   0  0  0  0  0  0  0  0  0  0  0  0
   -4.5266   -2.7521    0.3674 H   0  0  0  0  0  0  0  0  0  0  0  0
   -2.8576   -2.0761    1.5184 C   0  0  0  0  0  0  0  0  0  0  0  0
   -1.9456   -2.7051    2.0404 O   0  0  0  0  0  0  0  0  0  0  0  0
   -2.6926   -0.8481    1.0174 N   0  0  0  0  0  0  0  0  0  0  0  0
   -3.4926   -0.3971    0.5954 H   0  0  0  0  0  0  0  0  0  0  0  0
   -1.4216   -0.1071    1.0434 C   0  0  1  0  0  0  0  0  0  0  0  0
   -0.6709   -0.6930    0.5106 H   0  0  0  0  0  0  0  0  0  0  0  0
   -1.6221    1.2315    0.3051 C   0  0  0  0  0  0  0  0  0  0  0  0
   -1.1493    1.1621   -0.6766 H   0  0  0  0  0  0  0  0  0  0  0  0
   -2.6908    1.4001    0.1557 H   0  0  0  0  0  0  0  0  0  0  0  0
   -1.0207    2.4345    1.0463 C   0  0  0  0  0  0  0  0  0  0  0  0
   -0.3368    2.0860    1.8215 H   0  0  0  0  0  0  0  0  0  0  0  0
   -0.4746    3.0584    0.3380 H   0  0  0  0  0  0  0  0  0  0  0  0
   -2.1392    3.2599    1.6967 C   0  0  0  0  0  0  0  0  0  0  0  0
   -2.8333    3.5821    0.9171 H   0  0  0  0  0  0  0  0  0  0  0  0
   -2.6749    2.6228    2.4044 H   0  0  0  0  0  0  0  0  0  0  0  0
   -1.6074    4.4437    2.4028 N   0  3  0  0  0  0  0  0  0  0  0  0
   -0.6073    4.5481    2.4197 H   0  0  0  0  0  0  0  0  0  0  0  0
   -2.3204    5.3759    3.0123 C   0  0  0  0  0  0  0  0  0  0  0  0
   -3.6229    5.3378    3.0509 N   0  0  0  0  0  0  0  0  0  0  0  0
   -4.0981    4.5754    2.6011 H   0  0  0  0  0  0  0  0  0  0  0  0
   -4.1489    6.0532    3.5181 H   0  0  0  0  0  0  0  0  0  0  0  0
   -1.7312    6.3764    3.6032 N   0  0  0  0  0  0  0  0  0  0  0  0
   -0.7284    6.4493    3.6001 H   0  0  0  0  0  0  0  0  0  0  0  0
   -2.2759    7.0815    4.0644 H   0  0  0  0  0  0  0  0  0  0  0  0
   -0.9523    0.1012    2.4848 C   0  0  0  0  0  0  0  0  0  0  0  0
    0.2133   -0.1319    2.7814 O   0  0  0  0  0  0  0  0  0  0  0  0
   -1.8684    0.5006    3.3725 N   0  0  0  0  0  0  0  0  0  0  0  0
   -2.7946    0.7048    3.0343 H   0  0  0  0  0  0  0  0  0  0  0  0
   -1.5848    0.7472    4.7873 C   0  0  0  0  0  0  0  0  0  0  0  0
   -0.8819    1.5774    4.8838 H   0  0  0  0  0  0  0  0  0  0  0  0
   -2.5030    0.9948    5.3214 H   0  0  0  0  0  0  0  0  0  0  0  0
   -1.1344   -0.1399    5.2381 H   0  0  0  0  0  0  0  0  0  0  0  0
  5  6  2  0  0  0  0
  5  7  1  0  0  0  0
  2  3  1  0  0  0  0
  2  4  1  0  0  0  0
  2  5  1  0  0  0  0
  1  2  1  0  0  0  0
 29 30  2  0  0  0  0
 29 31  1  0  0  0  0
 26 27  1  0  0  0  0
 26 28  1  0  0  0  0
 23 24  1  0  0  0  0
 23 25  1  0  0  0  0
 22 23  1  0  0  0  0
 22 26  1  0  0  0  0
 20 21  1  0  0  0  0
 20 22  2  0  0  0  0
 17 18  1  0  0  0  0
 17 19  1  0  0  0  0
 17 20  1  0  0  0  0
 14 15  1  0  0  0  0
 14 16  1  0  0  0  0
 14 17  1  0  0  0  0
 11 12  1  0  0  0  0
 11 13  1  0  0  0  0
 11 14  1  0  0  0  0
  9 10  1  0  0  0  0
  9 11  1  0  0  0  0
  9 29  1  0  0  0  0
  7  8  1  0  0  0  0
  7  9  1  0  0  0  0
 33 34  1  0  0  0  0
 33 35  1  0  0  0  0
 33 36  1  0  0  0  0
 31 32  1  0  0  0  0
 31 33  1  0  0  0  0
M  CHG  1  20   1
M  END
$$$$
default_name
  -OEChem-02102213163D

 36 35  0     1  0  0  0  0  0999 V2000
   -4.2256   -3.6731    1.8584 H   0  0  0  0  0  0  0  0  0  0  0  0
   -4.2396   -2.6781    1.4144 C   0  0  0  0  0  0  0  0  0  0  0  0
   -4.9506   -2.0521    1.9514 H   0  0  0  0  0  0  0  0  0  0  0  0
   -4.5266   -2.7521    0.3674 H   0  0  0  0  0  0  0  0  0  0  0  0
   -2.8576   -2.0761    1.5184 C   0  0  0  0  0  0  0  0  0  0  0  0
   -1.9456   -2.7051    2.0404 O   0  0  0  0  0  0  0  0  0  0  0  0
   -2.6926   -0.8481    1.0174 N   0  0  0  0  0  0  0  0  0  0  0  0
   -3.4926   -0.3971    0.5954 H   0  0  0  0  0  0  0  0  0  0  0  0
   -1.4216   -0.1071    1.0434 C   0  0  1  0  0  0  0  0  0  0  0  0
   -0.6709   -0.6930    0.5106 H   0  0  0  0  0  0  0  0  0  0  0  0
   -1.6221    1.2315    0.3051 C   0  0  0  0  0  0  0  0  0  0  0  0
   -1.1493    1.1621   -0.6766 H   0  0  0  0  0  0  0  0  0  0  0  0
   -2.6908    1.4001    0.1557 H   0  0  0  0  0  0  0  0  0  0  0  0
   -1.0207    2.4345    1.0463 C   0  0  0  0  0  0  0  0  0  0  0  0
   -0.1545    2.1146    1.6272 H   0  0  0  0  0  0  0  0  0  0  0  0
   -0.7099    3.1868    0.3206 H   0  0  0  0  0  0  0  0  0  0  0  0
   -2.0653    3.0401    1.9936 C   0  0  0  0  0  0  0  0  0  0  0  0
   -2.9394    3.3330    1.4074 H   0  0  0  0  0  0  0  0  0  0  0  0
   -2.3646    2.2762    2.7152 H   0  0  0  0  0  0  0  0  0  0  0  0
   -1.5366    4.2178    2.7121 N   0  3  0  0  0  0  0  0  0  0  0  0
   -0.5738    4.4547    2.5442 H   0  0  0  0  0  0  0  0  0  0  0  0
   -2.2083    4.9873    3.5521 C   0  0  0  0  0  0  0  0  0  0  0  0
   -3.4608    4.7700    3.8411 N   0  0  0  0  0  0  0  0  0  0  0  0
   -3.9291    3.9931    3.4092 H   0  0  0  0  0  0  0  0  0  0  0  0
   -3.9558    5.3634    4.4811 H   0  0  0  0  0  0  0  0  0  0  0  0
   -1.6270    6.0021    4.1262 N   0  0  0  0  0  0  0  0  0  0  0  0
   -0.6621    6.2100    3.9346 H   0  0  0  0  0  0  0  0  0  0  0  0
   -2.1403    6.5834    4.7628 H   0  0  0  0  0  0  0  0  0  0  0  0
   -0.9523    0.1012    2.4848 C   0  0  0  0  0  0  0  0  0  0  0  0
    0.2133   -0.1319    2.7814 O   0  0  0  0  0  0  0  0  0  0  0  0
   -1.8684    0.5006    3.3725 N   0  0  0  0  0  0  0  0  0  0  0  0
   -2.7946    0.7048    3.0343 H   0  0  0  0  0  0  0  0  0  0  0  0
   -1.5848    0.7472    4.7873 C   0  0  0  0  0  0  0  0  0  0  0  0
   -0.8819    1.5774    4.8838 H   0  0  0  0  0  0  0  0  0  0  0  0
   -2.5030    0.9948    5.3214 H   0  0  0  0  0  0  0  0  0  0  0  0
   -1.1344   -0.1399    5.2381 H   0  0  0  0  0  0  0  0  0  0  0  0
  5  6  2  0  0  0  0
  5  7  1  0  0  0  0
  2  3  1  0  0  0  0
  2  4  1  0  0  0  0
  2  5  1  0  0  0  0
  1  2  1  0  0  0  0
 29 30  2  0  0  0  0
 29 31  1  0  0  0  0
 26 27  1  0  0  0  0
 26 28  1  0  0  0  0
 23 24  1  0  0  0  0
 23 25  1  0  0  0  0
 22 23  1  0  0  0  0
 22 26  1  0  0  0  0
 20 21  1  0  0  0  0
 20 22  2  0  0  0  0
 17 18  1  0  0  0  0
 17 19  1  0  0  0  0
 17 20  1  0  0  0  0
 14 15  1  0  0  0  0
 14 16  1  0  0  0  0
 14 17  1  0  0  0  0
 11 12  1  0  0  0  0
 11 13  1  0  0  0  0
 11 14  1  0  0  0  0
  9 10  1  0  0  0  0
  9 11  1  0  0  0  0
  9 29  1  0  0  0  0
  7  8  1  0  0  0  0
  7  9  1  0  0  0  0
 33 34  1  0  0  0  0
 33 35  1  0  0  0  0
 33 36  1  0  0  0  0
 31 32  1  0  0  0  0
 31 33  1  0  0  0  0
M  CHG  1  20   1
M  END
$$$$
default_name
  -OEChem-02102213163D

 36 35  0     1  0  0  0  0  0999 V2000
   -4.2256   -3.6731    1.8584 H   0  0  0  0  0  0  0  0  0  0  0  0
   -4.2396   -2.6781    1.4144 C   0  0  0  0  0  0  0  0  0  0  0  0
   -4.9506   -2.0521    1.9514 H   0  0  0  0  0  0  0  0  0  0  0  0
   -4.5266   -2.7521    0.3674 H   0  0  0  0  0  0  0  0  0  0  0  0
   -2.8576   -2.0761    1.5184 C   0  0  0  0  0  0  0  0  0  0  0  0
   -1.9456   -2.7051    2.0404 O   0  0  0  0  0  0  0  0  0  0  0  0
   -2.6926   -0.8481    1.0174 N   0  0  0  0  0  0  0  0  0  0  0  0
   -3.4926   -0.3971    0.5954 H   0  0  0  0  0  0  0  0  0  0  0  0
   -1.4216   -0.1071    1.0434 C   0  0  1  0  0  0  0  0  0  0  0  0
   -0.6709   -0.6930    0.5106 H   0  0  0  0  0  0  0  0  0  0  0  0
   -1.6221    1.2315    0.3051 C   0  0  0  0  0  0  0  0  0  0  0  0
   -1.1493    1.1621   -0.6766 H   0  0  0  0  0  0  0  0  0  0  0  0
   -2.6908    1.4001    0.1557 H   0  0  0  0  0  0  0  0  0  0  0  0
   -1.0207    2.4345    1.0463 C   0  0  0  0  0  0  0  0  0  0  0  0
   -0.0213    2.1846    1.4054 H   0  0  0  0  0  0  0  0  0  0  0  0
   -0.9568    3.2831    0.3645 H   0  0  0  0  0  0  0  0  0  0  0  0
   -1.9063    2.8069    2.2431 C   0  0  0  0  0  0  0  0  0  0  0  0
   -2.9113    3.0295    1.8773 H   0  0  0  0  0  0  0  0  0  0  0  0
   -1.9586    1.9487    2.9173 H   0  0  0  0  0  0  0  0  0  0  0  0
   -1.3774    3.9771    2.9736 N   0  3  0  0  0  0  0  0  0  0  0  0
   -0.5046    4.3561    2.6481 H   0  0  0  0  0  0  0  0  0  0  0  0
   -1.9421    4.5712    4.0115 C   0  0  0  0  0  0  0  0  0  0  0  0
   -3.0730    4.1616    4.5139 N   0  0  0  0  0  0  0  0  0  0  0  0
   -3.5293    3.3698    4.0965 H   0  0  0  0  0  0  0  0  0  0  0  0
   -3.4879    4.6236    5.3021 H   0  0  0  0  0  0  0  0  0  0  0  0
   -1.3736    5.6006    4.5723 N   0  0  0  0  0  0  0  0  0  0  0  0
   -0.5004    5.9533    4.2200 H   0  0  0  0  0  0  0  0  0  0  0  0
   -1.8054    6.0484    5.3595 H   0  0  0  0  0  0  0  0  0  0  0  0
   -0.9523    0.1012    2.4848 C   0  0  0  0  0  0  0  0  0  0  0  0
    0.2133   -0.1319    2.7814 O   0  0  0  0  0  0  0  0  0  0  0  0
   -1.8684    0.5006    3.3725 N   0  0  0  0  0  0  0  0  0  0  0  0
   -2.7946    0.7048    3.0343 H   0  0  0  0  0  0  0  0  0  0  0  0
   -1.5848    0.7472    4.7873 C   0  0  0  0  0  0  0  0  0  0  0  0
   -0.8819    1.5774    4.8838 H   0  0  0  0  0  0  0  0  0  0  0  0
   -2.5030    0.9948    5.3214 H   0  0  0  0  0  0  0  0  0  0  0  0
   -1.1344   -0.1399    5.2381 H   0  0  0  0  0  0  0  0  0  0  0  0
  5  6  2  0  0  0  0
  5  7  1  0  0  0  0
  2  3  1  0  0  0  0
  2  4  1  0  0  0  0
  2  5  1  0  0  0  0
  1  2  1  0  0  0  0
 29 30  2  0  0  0  0
 29 31  1  0  0  0  0
 26 27  1  0  0  0  0
 26 28  1  0  0  0  0
 23 24  1  0  0  0  0
 23 25  1  0  0  0  0
 22 23  1  0  0  0  0
 22 26  1  0  0  0  0
 20 21  1  0  0  0  0
 20 22  2  0  0  0  0
 17 18  1  0  0  0  0
 17 19  1  0  0  0  0
 17 20  1  0  0  0  0
 14 15  1  0  0  0  0
 14 16  1  0  0  0  0
 14 17  1  0  0  0  0
 11 12  1  0  0  0  0
 11 13  1  0  0  0  0
 11 14  1  0  0  0  0
  9 10  1  0  0  0  0
  9 11  1  0  0  0  0
  9 29  1  0  0  0  0
  7  8  1  0  0  0  0
  7  9  1  0  0  0  0
 33 34  1  0  0  0  0
 33 35  1  0  0  0  0
 33 36  1  0  0  0  0
 31 32  1  0  0  0  0
 31 33  1  0  0  0  0
M  CHG  1  20   1
M  END
$$$$
default_name
  -OEChem-02102213163D

 36 35  0     1  0  0  0  0  0999 V2000
   -4.2256   -3.6731    1.8584 H   0  0  0  0  0  0  0  0  0  0  0  0
   -4.2396   -2.6781    1.4144 C   0  0  0  0  0  0  0  0  0  0  0  0
   -4.9506   -2.0521    1.9514 H   0  0  0  0  0  0  0  0  0  0  0  0
   -4.5266   -2.7521    0.3674 H   0  0  0  0  0  0  0  0  0  0  0  0
   -2.8576   -2.0761    1.5184 C   0  0  0  0  0  0  0  0  0  0  0  0
   -1.9456   -2.7051    2.0404 O   0  0  0  0  0  0  0  0  0  0  0  0
   -2.6926   -0.8481    1.0174 N   0  0  0  0  0  0  0  0  0  0  0  0
   -3.4926   -0.3971    0.5954 H   0  0  0  0  0  0  0  0  0  0  0  0
   -1.4216   -0.1071    1.0434 C   0  0  1  0  0  0  0  0  0  0  0  0
   -0.6709   -0.6930    0.5106 H   0  0  0  0  0  0  0  0  0  0  0  0
   -1.6221    1.2315    0.3051 C   0  0  0  0  0  0  0  0  0  0  0  0
   -1.1493    1.1621   -0.6766 H   0  0  0  0  0  0  0  0  0  0  0  0
   -2.6908    1.4001    0.1557 H   0  0  0  0  0  0  0  0  0  0  0  0
   -1.0207    2.4345    1.0463 C   0  0  0  0  0  0  0  0  0  0  0  0
    0.0536    2.2914    1.1713 H   0  0  0  0  0  0  0  0  0  0  0  0
   -1.1984    3.3409    0.4667 H   0  0  0  0  0  0  0  0  0  0  0  0
   -1.6730    2.5762    2.4283 C   0  0  0  0  0  0  0  0  0  0  0  0
   -2.7510    2.6922    2.2947 H   0  0  0  0  0  0  0  0  0  0  0  0
   -1.4845    1.6626    2.9970 H   0  0  0  0  0  0  0  0  0  0  0  0
   -1.1405    3.7380    3.1695 N   0  3  0  0  0  0  0  0  0  0  0  0
   -0.4044    4.2589    2.7244 H   0  0  0  0  0  0  0  0  0  0  0  0
   -1.5398    4.1560    4.3590 C   0  0  0  0  0  0  0  0  0  0  0  0
   -2.4861    3.5543    5.0235 N   0  0  0  0  0  0  0  0  0  0  0  0
   -2.9259    2.7480    4.6161 H   0  0  0  0  0  0  0  0  0  0  0  0
   -2.7770    3.8843    5.9253 H   0  0  0  0  0  0  0  0  0  0  0  0
   -0.9882    5.1991    4.9112 N   0  0  0  0  0  0  0  0  0  0  0  0
   -0.2542    5.6966    4.4370 H   0  0  0  0  0  0  0  0  0  0  0  0
   -1.2941    5.5129    5.8137 H   0  0  0  0  0  0  0  0  0  0  0  0
   -0.9523    0.1012    2.4848 C   0  0  0  0  0  0  0  0  0  0  0  0
    0.2133   -0.1319    2.7814 O   0  0  0  0  0  0  0  0  0  0  0  0
   -1.8684    0.5006    3.3725 N   0  0  0  0  0  0  0  0  0  0  0  0
   -2.7946    0.7048    3.0343 H   0  0  0  0  0  0  0  0  0  0  0  0
   -1.5848    0.7472    4.7873 C   0  0  0  0  0  0  0  0  0  0  0  0
   -0.8819    1.5774    4.8838 H   0  0  0  0  0  0  0  0  0  0  0  0
   -2.5030    0.9948    5.3214 H   0  0  0  0  0  0  0  0  0  0  0  0
   -1.1344   -0.1399    5.2381 H   0  0  0  0  0  0  0  0  0  0  0  0
  5  6  2  0  0  0  0
  5  7  1  0  0  0  0
  2  3  1  0  0  0  0
  2  4  1  0  0  0  0
  2  5  1  0  0  0  0
  1  2  1  0  0  0  0
 29 30  2  0  0  0  0
 29 31  1  0  0  0  0
 26 27  1  0  0  0  0
 26 28  1  0  0  0  0
 23 24  1  0  0  0  0
 23 25  1  0  0  0  0
 22 23  1  0  0  0  0
 22 26  1  0  0  0  0
 20 21  1  0  0  0  0
 20 22  2  0  0  0  0
 17 18  1  0  0  0  0
 17 19  1  0  0  0  0
 17 20  1  0  0  0  0
 14 15  1  0  0  0  0
 14 16  1  0  0  0  0
 14 17  1  0  0  0  0
 11 12  1  0  0  0  0
 11 13  1  0  0  0  0
 11 14  1  0  0  0  0
  9 10  1  0  0  0  0
  9 11  1  0  0  0  0
  9 29  1  0  0  0  0
  7  8  1  0  0  0  0
  7  9  1  0  0  0  0
 33 34  1  0  0  0  0
 33 35  1  0  0  0  0
 33 36  1  0  0  0  0
 31 32  1  0  0  0  0
 31 33  1  0  0  0  0
M  CHG  1  20   1
M  END
$$$$
default_name
  -OEChem-02102213163D

 36 35  0     1  0  0  0  0  0999 V2000
   -4.2256   -3.6731    1.8584 H   0  0  0  0  0  0  0  0  0  0  0  0
   -4.2396   -2.6781    1.4144 C   0  0  0  0  0  0  0  0  0  0  0  0
   -4.9506   -2.0521    1.9514 H   0  0  0  0  0  0  0  0  0  0  0  0
   -4.5266   -2.7521    0.3674 H   0  0  0  0  0  0  0  0  0  0  0  0
   -2.8576   -2.0761    1.5184 C   0  0  0  0  0  0  0  0  0  0  0  0
   -1.9456   -2.7051    2.0404 O   0  0  0  0  0  0  0  0  0  0  0  0
   -2.6926   -0.8481    1.0174 N   0  0  0  0  0  0  0  0  0  0  0  0
   -3.4926   -0.3971    0.5954 H   0  0  0  0  0  0  0  0  0  0  0  0
   -1.4216   -0.1071    1.0434 C   0  0  1  0  0  0  0  0  0  0  0  0
   -0.6709   -0.6930    0.5106 H   0  0  0  0  0  0  0  0  0  0  0  0
   -1.6221    1.2315    0.3051 C   0  0  0  0  0  0  0  0  0  0  0  0
   -1.1493    1.1621   -0.6766 H   0  0  0  0  0  0  0  0  0  0  0  0
   -2.6908    1.4001    0.1557 H   0  0  0  0  0  0  0  0  0  0  0  0
   -1.0207    2.4345    1.0463 C   0  0  0  0  0  0  0  0  0  0  0  0
    0.0651    2.4277    0.9408 H   0  0  0  0  0  0  0  0  0  0  0  0
   -1.4183    3.3562    0.6203 H   0  0  0  0  0  0  0  0  0  0  0  0
   -1.3813    2.3638    2.5364 C   0  0  0  0  0  0  0  0  0  0  0  0
   -2.4695    2.3441    2.6312 H   0  0  0  0  0  0  0  0  0  0  0  0
   -0.9747    1.4374    2.9489 H   0  0  0  0  0  0  0  0  0  0  0  0
   -0.8421    3.5168    3.2864 N   0  3  0  0  0  0  0  0  0  0  0  0
   -0.2799    4.1699    2.7680 H   0  0  0  0  0  0  0  0  0  0  0  0
   -1.0289    3.7700    4.5710 C   0  0  0  0  0  0  0  0  0  0  0  0
   -1.7400    2.9893    5.3351 N   0  0  0  0  0  0  0  0  0  0  0  0
   -2.1600    2.1701    4.9326 H   0  0  0  0  0  0  0  0  0  0  0  0
   -1.8716    3.1958    6.3082 H   0  0  0  0  0  0  0  0  0  0  0  0
   -0.4970    4.8252    5.1196 N   0  0  0  0  0  0  0  0  0  0  0  0
    0.0596    5.4574    4.5706 H   0  0  0  0  0  0  0  0  0  0  0  0
   -0.6413    5.0136    6.0944 H   0  0  0  0  0  0  0  0  0  0  0  0
   -0.9523    0.1012    2.4848 C   0  0  0  0  0  0  0  0  0  0  0  0
    0.2133   -0.1319    2.7814 O   0  0  0  0  0  0  0  0  0  0  0  0
   -1.8684    0.5006    3.3725 N   0  0  0  0  0  0  0  0  0  0  0  0
   -2.7946    0.7048    3.0343 H   0  0  0  0  0  0  0  0  0  0  0  0
   -1.5848    0.7472    4.7873 C   0  0  0  0  0  0  0  0  0  0  0  0
   -0.8819    1.5774    4.8838 H   0  0  0  0  0  0  0  0  0  0  0  0
   -2.5030    0.9948    5.3214 H   0  0  0  0  0  0  0  0  0  0  0  0
   -1.1344   -0.1399    5.2381 H   0  0  0  0  0  0  0  0  0  0  0  0
  5  6  2  0  0  0  0
  5  7  1  0  0  0  0
  2  3  1  0  0  0  0
  2  4  1  0  0  0  0
  2  5  1  0  0  0  0
  1  2  1  0  0  0  0
 29 30  2  0  0  0  0
 29 31  1  0  0  0  0
 26 27  1  0  0  0  0
 26 28  1  0  0  0  0
 23 24  1  0  0  0  0
 23 25  1  0  0  0  0
 22 23  1  0  0  0  0
 22 26  1  0  0  0  0
 20 21  1  0  0  0  0
 20 22  2  0  0  0  0
 17 18  1  0  0  0  0
 17 19  1  0  0  0  0
 17 20  1  0  0  0  0
 14 15  1  0  0  0  0
 14 16  1  0  0  0  0
 14 17  1  0  0  0  0
 11 12  1  0  0  0  0
 11 13  1  0  0  0  0
 11 14  1  0  0  0  0
  9 10  1  0  0  0  0
  9 11  1  0  0  0  0
  9 29  1  0  0  0  0
  7  8  1  0  0  0  0
  7  9  1  0  0  0  0
 33 34  1  0  0  0  0
 33 35  1  0  0  0  0
 33 36  1  0  0  0  0
 31 32  1  0  0  0  0
 31 33  1  0  0  0  0
M  CHG  1  20   1
M  END
$$$$
default_name
  -OEChem-02102213163D

 36 35  0     1  0  0  0  0  0999 V2000
   -4.2256   -3.6731    1.8584 H   0  0  0  0  0  0  0  0  0  0  0  0
   -4.2396   -2.6781    1.4144 C   0  0  0  0  0  0  0  0  0  0  0  0
   -4.9506   -2.0521    1.9514 H   0  0  0  0  0  0  0  0  0  0  0  0
   -4.5266   -2.7521    0.3674 H   0  0  0  0  0  0  0  0  0  0  0  0
   -2.8576   -2.0761    1.5184 C   0  0  0  0  0  0  0  0  0  0  0  0
   -1.9456   -2.7051    2.0404 O   0  0  0  0  0  0  0  0  0  0  0  0
   -2.6926   -0.8481    1.0174 N   0  0  0  0  0  0  0  0  0  0  0  0
   -3.4926   -0.3971    0.5954 H   0  0  0  0  0  0  0  0  0  0  0  0
   -1.4216   -0.1071    1.0434 C   0  0  1  0  0  0  0  0  0  0  0  0
   -0.6709   -0.6930    0.5106 H   0  0  0  0  0  0  0  0  0  0  0  0
   -1.6221    1.2315    0.3051 C   0  0  0  0  0  0  0  0  0  0  0  0
   -1.1493    1.1621   -0.6766 H   0  0  0  0  0  0  0  0  0  0  0  0
   -2.6908    1.4001    0.1557 H   0  0  0  0  0  0  0  0  0  0  0  0
   -1.0207    2.4345    1.0463 C   0  0  0  0  0  0  0  0  0  0  0  0
    0.0125    2.5841    0.7296 H   0  0  0  0  0  0  0  0  0  0  0  0
   -1.6014    3.3280    0.8148 H   0  0  0  0  0  0  0  0  0  0  0  0
   -1.0511    2.1840    2.5602 C   0  0  0  0  0  0  0  0  0  0  0  0
   -2.0858    2.0090    2.8639 H   0  0  0  0  0  0  0  0  0  0  0  0
   -0.4639    1.2884    2.7763 H   0  0  0  0  0  0  0  0  0  0  0  0
   -0.5025    3.3285    3.3165 N   0  3  0  0  0  0  0  0  0  0  0  0
   -0.1397    4.0950    2.7759 H   0  0  0  0  0  0  0  0  0  0  0  0
   -0.4441    3.4395    4.6330 C   0  0  0  0  0  0  0  0  0  0  0  0
   -0.8856    2.5051    5.4276 N   0  0  0  0  0  0  0  0  0  0  0  0
   -1.2839    1.6755    5.0245 H   0  0  0  0  0  0  0  0  0  0  0  0
   -0.8334    2.6050    6.4247 H   0  0  0  0  0  0  0  0  0  0  0  0
    0.0663    4.5042    5.1835 N   0  0  0  0  0  0  0  0  0  0  0  0
    0.4197    5.2520    4.6117 H   0  0  0  0  0  0  0  0  0  0  0  0
    0.1086    4.5844    6.1827 H   0  0  0  0  0  0  0  0  0  0  0  0
   -0.9523    0.1012    2.4848 C   0  0  0  0  0  0  0  0  0  0  0  0
    0.2133   -0.1319    2.7814 O   0  0  0  0  0  0  0  0  0  0  0  0
   -1.8684    0.5006    3.3725 N   0  0  0  0  0  0  0  0  0  0  0  0
   -2.7946    0.7048    3.0343 H   0  0  0  0  0  0  0  0  0  0  0  0
   -1.5848    0.7472    4.7873 C   0  0  0  0  0  0  0  0  0  0  0  0
   -0.8819    1.5774    4.8838 H   0  0  0  0  0  0  0  0  0  0  0  0
   -2.5030    0.9948    5.3214 H   0  0  0  0  0  0  0  0  0  0  0  0
   -1.1344   -0.1399    5.2381 H   0  0  0  0  0  0  0  0  0  0  0  0
  5  6  2  0  0  0  0
  5  7  1  0  0  0  0
  2  3  1  0  0  0  0
  2  4  1  0  0  0  0
  2  5  1  0  0  0  0
  1  2  1  0  0  0  0
 29 30  2  0  0  0  0
 29 31  1  0  0  0  0
 26 27  1  0  0  0  0
 26 28  1  0  0  0  0
 23 24  1  0  0  0  0
 23 25  1  0  0  0  0
 22 23  1  0  0  0  0
 22 26  1  0  0  0  0
 20 21  1  0  0  0  0
 20 22  2  0  0  0  0
 17 18  1  0  0  0  0
 17 19  1  0  0  0  0
 17 20  1  0  0  0  0
 14 15  1  0  0  0  0
 14 16  1  0  0  0  0
 14 17  1  0  0  0  0
 11 12  1  0  0  0  0
 11 13  1  0  0  0  0
 11 14  1  0  0  0  0
  9 10  1  0  0  0  0
  9 11  1  0  0  0  0
  9 29  1  0  0  0  0
  7  8  1  0  0  0  0
  7  9  1  0  0  0  0
 33 34  1  0  0  0  0
 33 35  1  0  0  0  0
 33 36  1  0  0  0  0
 31 32  1  0  0  0  0
 31 33  1  0  0  0  0
M  CHG  1  20   1
M  END
$$$$
default_name
  -OEChem-02102213163D

 36 35  0     1  0  0  0  0  0999 V2000
   -4.2256   -3.6731    1.8584 H   0  0  0  0  0  0  0  0  0  0  0  0
   -4.2396   -2.6781    1.4144 C   0  0  0  0  0  0  0  0  0  0  0  0
   -4.9506   -2.0521    1.9514 H   0  0  0  0  0  0  0  0  0  0  0  0
   -4.5266   -2.7521    0.3674 H   0  0  0  0  0  0  0  0  0  0  0  0
   -2.8576   -2.0761    1.5184 C   0  0  0  0  0  0  0  0  0  0  0  0
   -1.9456   -2.7051    2.0404 O   0  0  0  0  0  0  0  0  0  0  0  0
   -2.6926   -0.8481    1.0174 N   0  0  0  0  0  0  0  0  0  0  0  0
   -3.4926   -0.3971    0.5954 H   0  0  0  0  0  0  0  0  0  0  0  0
   -1.4216   -0.1071    1.0434 C   0  0  1  0  0  0  0  0  0  0  0  0
   -0.6709   -0.6930    0.5106 H   0  0  0  0  0  0  0  0  0  0  0  0
   -1.6221    1.2315    0.3051 C   0  0  0  0  0  0  0  0  0  0  0  0
   -1.1493    1.1621   -0.6766 H   0  0  0  0  0  0  0  0  0  0  0  0
   -2.6908    1.4001    0.1557 H   0  0  0  0  0  0  0  0  0  0  0  0
   -1.0207    2.4345    1.0463 C   0  0  0  0  0  0  0  0  0  0  0  0
   -0.1007    2.7500    0.5522 H   0  0  0  0  0  0  0  0  0  0  0  0
   -1.7353    3.2581    1.0369 H   0  0  0  0  0  0  0  0  0  0  0  0
   -0.7049    2.0493    2.4980 C   0  0  0  0  0  0  0  0  0  0  0  0
   -1.6261    1.7096    2.9769 H   0  0  0  0  0  0  0  0  0  0  0  0
    0.0131    1.2258    2.4908 H   0  0  0  0  0  0  0  0  0  0  0  0
   -0.1449    3.1860    3.2575 N   0  3  0  0  0  0  0  0  0  0  0  0
    0.0066    4.0393    2.7474 H   0  0  0  0  0  0  0  0  0  0  0  0
    0.1745    3.1869    4.5409 C   0  0  0  0  0  0  0  0  0  0  0  0
    0.0190    2.1348    5.2947 N   0  0  0  0  0  0  0  0  0  0  0  0
   -0.3572    1.2979    4.8855 H   0  0  0  0  0  0  0  0  0  0  0  0
    0.2668    2.1522    6.2669 H   0  0  0  0  0  0  0  0  0  0  0  0
    0.6635    4.2581    5.0984 N   0  0  0  0  0  0  0  0  0  0  0  0
    0.8015    5.0945    4.5577 H   0  0  0  0  0  0  0  0  0  0  0  0
    0.9045    4.2545    6.0723 H   0  0  0  0  0  0  0  0  0  0  0  0
   -0.9523    0.1012    2.4848 C   0  0  0  0  0  0  0  0  0  0  0  0
    0.2133   -0.1319    2.7814 O   0  0  0  0  0  0  0  0  0  0  0  0
   -1.8684    0.5006    3.3725 N   0  0  0  0  0  0  0  0  0  0  0  0
   -2.7946    0.7048    3.0343 H   0  0  0  0  0  0  0  0  0  0  0  0
   -1.5848    0.7472    4.7873 C   0  0  0  0  0  0  0  0  0  0  0  0
   -0.8819    1.5774    4.8838 H   0  0  0  0  0  0  0  0  0  0  0  0
   -2.5030    0.9948    5.3214 H   0  0  0  0  0  0  0  0  0  0  0  0
   -1.1344   -0.1399    5.2381 H   0  0  0  0  0  0  0  0  0  0  0  0
  5  6  2  0  0  0  0
  5  7  1  0  0  0  0
  2  3  1  0  0  0  0
  2  4  1  0  0  0  0
  2  5  1  0  0  0  0
  1  2  1  0  0  0  0
 29 30  2  0  0  0  0
 29 31  1  0  0  0  0
 26 27  1  0  0  0  0
 26 28  1  0  0  0  0
 23 24  1  0  0  0  0
 23 25  1  0  0  0  0
 22 23  1  0  0  0  0
 22 26  1  0  0  0  0
 20 21  1  0  0  0  0
 20 22  2  0  0  0  0
 17 18  1  0  0  0  0
 17 19  1  0  0  0  0
 17 20  1  0  0  0  0
 14 15  1  0  0  0  0
 14 16  1  0  0  0  0
 14 17  1  0  0  0  0
 11 12  1  0  0  0  0
 11 13  1  0  0  0  0
 11 14  1  0  0  0  0
  9 10  1  0  0  0  0
  9 11  1  0  0  0  0
  9 29  1  0  0  0  0
  7  8  1  0  0  0  0
  7  9  1  0  0  0  0
 33 34  1  0  0  0  0
 33 35  1  0  0  0  0
 33 36  1  0  0  0  0
 31 32  1  0  0  0  0
 31 33  1  0  0  0  0
M  CHG  1  20   1
M  END
$$$$
default_name
  -OEChem-02102213163D

 36 35  0     1  0  0  0  0  0999 V2000
   -4.2256   -3.6731    1.8584 H   0  0  0  0  0  0  0  0  0  0  0  0
   -4.2396   -2.6781    1.4144 C   0  0  0  0  0  0  0  0  0  0  0  0
   -4.9506   -2.0521    1.9514 H   0  0  0  0  0  0  0  0  0  0  0  0
   -4.5266   -2.7521    0.3674 H   0  0  0  0  0  0  0  0  0  0  0  0
   -2.8576   -2.0761    1.5184 C   0  0  0  0  0  0  0  0  0  0  0  0
   -1.9456   -2.7051    2.0404 O   0  0  0  0  0  0  0  0  0  0  0  0
   -2.6926   -0.8481    1.0174 N   0  0  0  0  0  0  0  0  0  0  0  0
   -3.4926   -0.3971    0.5954 H   0  0  0  0  0  0  0  0  0  0  0  0
   -1.4216   -0.1071    1.0434 C   0  0  1  0  0  0  0  0  0  0  0  0
   -0.6709   -0.6930    0.5106 H   0  0  0  0  0  0  0  0  0  0  0  0
   -1.6221    1.2315    0.3051 C   0  0  0  0  0  0  0  0  0  0  0  0
   -1.1493    1.1621   -0.6766 H   0  0  0  0  0  0  0  0  0  0  0  0
   -2.6908    1.4001    0.1557 H   0  0  0  0  0  0  0  0  0  0  0  0
   -1.0207    2.4345    1.0463 C   0  0  0  0  0  0  0  0  0  0  0  0
   -0.2667    2.9141    0.4205 H   0  0  0  0  0  0  0  0  0  0  0  0
   -1.8109    3.1513    1.2716 H   0  0  0  0  0  0  0  0  0  0  0  0
   -0.3662    1.9686    2.3540 C   0  0  0  0  0  0  0  0  0  0  0  0
   -1.1218    1.4663    2.9624 H   0  0  0  0  0  0  0  0  0  0  0  0
    0.4238    1.2538    2.1120 H   0  0  0  0  0  0  0  0  0  0  0  0
    0.2064    3.0990    3.1137 N   0  3  0  0  0  0  0  0  0  0  0  0
    0.1491    4.0068    2.6846 H   0  0  0  0  0  0  0  0  0  0  0  0
    0.7850    3.0296    4.3009 C   0  0  0  0  0  0  0  0  0  0  0  0
    0.9120    1.9036    4.9453 N   0  0  0  0  0  0  0  0  0  0  0  0
    0.5569    1.0630    4.5251 H   0  0  0  0  0  0  0  0  0  0  0  0
    1.3541    1.8683    5.8454 H   0  0  0  0  0  0  0  0  0  0  0  0
    1.2539    4.1035    4.8702 N   0  0  0  0  0  0  0  0  0  0  0  0
    1.1790    4.9954    4.4121 H   0  0  0  0  0  0  0  0  0  0  0  0
    1.6920    4.0464    5.7710 H   0  0  0  0  0  0  0  0  0  0  0  0
   -0.9523    0.1012    2.4848 C   0  0  0  0  0  0  0  0  0  0  0  0
    0.2133   -0.1319    2.7814 O   0  0  0  0  0  0  0  0  0  0  0  0
   -1.8684    0.5006    3.3725 N   0  0  0  0  0  0  0  0  0  0  0  0
   -2.7946    0.7048    3.0343 H   0  0  0  0  0  0  0  0  0  0  0  0
   -1.5848    0.7472    4.7873 C   0  0  0  0  0  0  0  0  0  0  0  0
   -0.8819    1.5774    4.8838 H   0  0  0  0  0  0  0  0  0  0  0  0
   -2.5030    0.9948    5.3214 H   0  0  0  0  0  0  0  0  0  0  0  0
   -1.1344   -0.1399    5.2381 H   0  0  0  0  0  0  0  0  0  0  0  0
  5  6  2  0  0  0  0
  5  7  1  0  0  0  0
  2  3  1  0  0  0  0
  2  4  1  0  0  0  0
  2  5  1  0  0  0  0
  1  2  1  0  0  0  0
 29 30  2  0  0  0  0
 29 31  1  0  0  0  0
 26 27  1  0  0  0  0
 26 28  1  0  0  0  0
 23 24  1  0  0  0  0
 23 25  1  0  0  0  0
 22 23  1  0  0  0  0
 22 26  1  0  0  0  0
 20 21  1  0  0  0  0
 20 22  2  0  0  0  0
 17 18  1  0  0  0  0
 17 19  1  0  0  0  0
 17 20  1  0  0  0  0
 14 15  1  0  0  0  0
 14 16  1  0  0  0  0
 14 17  1  0  0  0  0
 11 12  1  0  0  0  0
 11 13  1  0  0  0  0
 11 14  1  0  0  0  0
  9 10  1  0  0  0  0
  9 11  1  0  0  0  0
  9 29  1  0  0  0  0
  7  8  1  0  0  0  0
  7  9  1  0  0  0  0
 33 34  1  0  0  0  0
 33 35  1  0  0  0  0
 33 36  1  0  0  0  0
 31 32  1  0  0  0  0
 31 33  1  0  0  0  0
M  CHG  1  20   1
M  END
$$$$
default_name
  -OEChem-02102213163D

 36 35  0     1  0  0  0  0  0999 V2000
   -4.2256   -3.6731    1.8584 H   0  0  0  0  0  0  0  0  0  0  0  0
   -4.2396   -2.6781    1.4144 C   0  0  0  0  0  0  0  0  0  0  0  0
   -4.9506   -2.0521    1.9514 H   0  0  0  0  0  0  0  0  0  0  0  0
   -4.5266   -2.7521    0.3674 H   0  0  0  0  0  0  0  0  0  0  0  0
   -2.8576   -2.0761    1.5184 C   0  0  0  0  0  0  0  0  0  0  0  0
   -1.9456   -2.7051    2.0404 O   0  0  0  0  0  0  0  0  0  0  0  0
   -2.6926   -0.8481    1.0174 N   0  0  0  0  0  0  0  0  0  0  0  0
   -3.4926   -0.3971    0.5954 H   0  0  0  0  0  0  0  0  0  0  0  0
   -1.4216   -0.1071    1.0434 C   0  0  1  0  0  0  0  0  0  0  0  0
   -0.6709   -0.6930    0.5106 H   0  0  0  0  0  0  0  0  0  0  0  0
   -1.6221    1.2315    0.3051 C   0  0  0  0  0  0  0  0  0  0  0  0
   -1.1493    1.1621   -0.6766 H   0  0  0  0  0  0  0  0  0  0  0  0
   -2.6908    1.4001    0.1557 H   0  0  0  0  0  0  0  0  0  0  0  0
   -1.0207    2.4345    1.0463 C   0  0  0  0  0  0  0  0  0  0  0  0
   -0.4742    3.0652    0.3437 H   0  0  0  0  0  0  0  0  0  0  0  0
   -1.8231    3.0150    1.5027 H   0  0  0  0  0  0  0  0  0  0  0  0
   -0.0582    1.9477    2.1381 C   0  0  0  0  0  0  0  0  0  0  0  0
   -0.6072    1.2959    2.8216 H   0  0  0  0  0  0  0  0  0  0  0  0
    0.7403    1.3706    1.6657 H   0  0  0  0  0  0  0  0  0  0  0  0
    0.5274    3.0735    2.8947 N   0  3  0  0  0  0  0  0  0  0  0  0
    0.2782    3.9995    2.5918 H   0  0  0  0  0  0  0  0  0  0  0  0
    1.3456    2.9783    3.9294 C   0  0  0  0  0  0  0  0  0  0  0  0
    1.7327    1.8273    4.4033 N   0  0  0  0  0  0  0  0  0  0  0  0
    1.3961    0.9868    3.9677 H   0  0  0  0  0  0  0  0  0  0  0  0
    2.3544    1.7727    5.1891 H   0  0  0  0  0  0  0  0  0  0  0  0
    1.7972    4.0511    4.5144 N   0  0  0  0  0  0  0  0  0  0  0  0
    1.5265    4.9617    4.1849 H   0  0  0  0  0  0  0  0  0  0  0  0
    2.4176    3.9744    5.2991 H   0  0  0  0  0  0  0  0  0  0  0  0
   -0.9523    0.1012    2.4848 C   0  0  0  0  0  0  0  0  0  0  0  0
    0.2133   -0.1319    2.7814 O   0  0  0  0  0  0  0  0  0  0  0  0
   -1.8684    0.5006    3.3725 N   0  0  0  0  0  0  0  0  0  0  0  0
   -2.7946    0.7048    3.0343 H   0  0  0  0  0  0  0  0  0  0  0  0
   -1.5848    0.7472    4.7873 C   0  0  0  0  0  0  0  0  0  0  0  0
   -0.8819    1.5774    4.8838 H   0  0  0  0  0  0  0  0  0  0  0  0
   -2.5030    0.9948    5.3214 H   0  0  0  0  0  0  0  0  0  0  0  0
   -1.1344   -0.1399    5.2381 H   0  0  0  0  0  0  0  0  0  0  0  0
  5  6  2  0  0  0  0
  5  7  1  0  0  0  0
  2  3  1  0  0  0  0
  2  4  1  0  0  0  0
  2  5  1  0  0  0  0
  1  2  1  0  0  0  0
 29 30  2  0  0  0  0
 29 31  1  0  0  0  0
 26 27  1  0  0  0  0
 26 28  1  0  0  0  0
 23 24  1  0  0  0  0
 23 25  1  0  0  0  0
 22 23  1  0  0  0  0
 22 26  1  0  0  0  0
 20 21  1  0  0  0  0
 20 22  2  0  0  0  0
 17 18  1  0  0  0  0
 17 19  1  0  0  0  0
 17 20  1  0  0  0  0
 14 15  1  0  0  0  0
 14 16  1  0  0  0  0
 14 17  1  0  0  0  0
 11 12  1  0  0  0  0
 11 13  1  0  0  0  0
 11 14  1  0  0  0  0
  9 10  1  0  0  0  0
  9 11  1  0  0  0  0
  9 29  1  0  0  0  0
  7  8  1  0  0  0  0
  7  9  1  0  0  0  0
 33 34  1  0  0  0  0
 33 35  1  0  0  0  0
 33 36  1  0  0  0  0
 31 32  1  0  0  0  0
 31 33  1  0  0  0  0
M  CHG  1  20   1
M  END
$$$$
default_name
  -OEChem-02102213163D

 36 35  0     1  0  0  0  0  0999 V2000
   -4.2256   -3.6731    1.8584 H   0  0  0  0  0  0  0  0  0  0  0  0
   -4.2396   -2.6781    1.4144 C   0  0  0  0  0  0  0  0  0  0  0  0
   -4.9506   -2.0521    1.9514 H   0  0  0  0  0  0  0  0  0  0  0  0
   -4.5266   -2.7521    0.3674 H   0  0  0  0  0  0  0  0  0  0  0  0
   -2.8576   -2.0761    1.5184 C   0  0  0  0  0  0  0  0  0  0  0  0
   -1.9456   -2.7051    2.0404 O   0  0  0  0  0  0  0  0  0  0  0  0
   -2.6926   -0.8481    1.0174 N   0  0  0  0  0  0  0  0  0  0  0  0
   -3.4926   -0.3971    0.5954 H   0  0  0  0  0  0  0  0  0  0  0  0
   -1.4216   -0.1071    1.0434 C   0  0  1  0  0  0  0  0  0  0  0  0
   -0.6709   -0.6930    0.5106 H   0  0  0  0  0  0  0  0  0  0  0  0
   -1.6221    1.2315    0.3051 C   0  0  0  0  0  0  0  0  0  0  0  0
   -1.1493    1.1621   -0.6766 H   0  0  0  0  0  0  0  0  0  0  0  0
   -2.6908    1.4001    0.1557 H   0  0  0  0  0  0  0  0  0  0  0  0
   -1.0207    2.4345    1.0463 C   0  0  0  0  0  0  0  0  0  0  0  0
   -0.7092    3.1930    0.3268 H   0  0  0  0  0  0  0  0  0  0  0  0
   -1.7709    2.8583    1.7146 H   0  0  0  0  0  0  0  0  0  0  0  0
    0.1982    1.9878    1.8650 C   0  0  0  0  0  0  0  0  0  0  0  0
   -0.1174    1.2097    2.5640 H   0  0  0  0  0  0  0  0  0  0  0  0
    0.9408    1.5682    1.1823 H   0  0  0  0  0  0  0  0  0  0  0  0
    0.7963    3.1111    2.6154 N   0  3  0  0  0  0  0  0  0  0  0  0
    0.3849    4.0179    2.4752 H   0  0  0  0  0  0  0  0  0  0  0  0
    1.8182    3.0363    3.4516 C   0  0  0  0  0  0  0  0  0  0  0  0
    2.4251    1.9110    3.7057 N   0  0  0  0  0  0  0  0  0  0  0  0
    2.1033    1.0745    3.2515 H   0  0  0  0  0  0  0  0  0  0  0  0
    3.1994    1.8717    4.3426 H   0  0  0  0  0  0  0  0  0  0  0  0
    2.2564    4.1045    4.0553 N   0  0  0  0  0  0  0  0  0  0  0  0
    1.8203    4.9956    3.8915 H   0  0  0  0  0  0  0  0  0  0  0  0
    3.0318    4.0433    4.6889 H   0  0  0  0  0  0  0  0  0  0  0  0
   -0.9523    0.1012    2.4848 C   0  0  0  0  0  0  0  0  0  0  0  0
    0.2133   -0.1319    2.7814 O   0  0  0  0  0  0  0  0  0  0  0  0
   -1.8684    0.5006    3.3725 N   0  0  0  0  0  0  0  0  0  0  0  0
   -2.7946    0.7048    3.0343 H   0  0  0  0  0  0  0  0  0  0  0  0
   -1.5848    0.7472    4.7873 C   0  0  0  0  0  0  0  0  0  0  0  0
   -0.8819    1.5774    4.8838 H   0  0  0  0  0  0  0  0  0  0  0  0
   -2.5030    0.9948    5.3214 H   0  0  0  0  0  0  0  0  0  0  0  0
   -1.1344   -0.1399    5.2381 H   0  0  0  0  0  0  0  0  0  0  0  0
  5  6  2  0  0  0  0
  5  7  1  0  0  0  0
  2  3  1  0  0  0  0
  2  4  1  0  0  0  0
  2  5  1  0  0  0  0
  1  2  1  0  0  0  0
 29 30  2  0  0  0  0
 29 31  1  0  0  0  0
 26 27  1  0  0  0  0
 26 28  1  0  0  0  0
 23 24  1  0  0  0  0
 23 25  1  0  0  0  0
 22 23  1  0  0  0  0
 22 26  1  0  0  0  0
 20 21  1  0  0  0  0
 20 22  2  0  0  0  0
 17 18  1  0  0  0  0
 17 19  1  0  0  0  0
 17 20  1  0  0  0  0
 14 15  1  0  0  0  0
 14 16  1  0  0  0  0
 14 17  1  0  0  0  0
 11 12  1  0  0  0  0
 11 13  1  0  0  0  0
 11 14  1  0  0  0  0
  9 10  1  0  0  0  0
  9 11  1  0  0  0  0
  9 29  1  0  0  0  0
  7  8  1  0  0  0  0
  7  9  1  0  0  0  0
 33 34  1  0  0  0  0
 33 35  1  0  0  0  0
 33 36  1  0  0  0  0
 31 32  1  0  0  0  0
 31 33  1  0  0  0  0
M  CHG  1  20   1
M  END
$$$$
default_name
  -OEChem-02102213163D

 36 35  0     1  0  0  0  0  0999 V2000
   -4.2256   -3.6731    1.8584 H   0  0  0  0  0  0  0  0  0  0  0  0
   -4.2396   -2.6781    1.4144 C   0  0  0  0  0  0  0  0  0  0  0  0
   -4.9506   -2.0521    1.9514 H   0  0  0  0  0  0  0  0  0  0  0  0
   -4.5266   -2.7521    0.3674 H   0  0  0  0  0  0  0  0  0  0  0  0
   -2.8576   -2.0761    1.5184 C   0  0  0  0  0  0  0  0  0  0  0  0
   -1.9456   -2.7051    2.0404 O   0  0  0  0  0  0  0  0  0  0  0  0
   -2.6926   -0.8481    1.0174 N   0  0  0  0  0  0  0  0  0  0  0  0
   -3.4926   -0.3971    0.5954 H   0  0  0  0  0  0  0  0  0  0  0  0
   -1.4216   -0.1071    1.0434 C   0  0  1  0  0  0  0  0  0  0  0  0
   -0.6709   -0.6930    0.5106 H   0  0  0  0  0  0  0  0  0  0  0  0
   -1.6221    1.2315    0.3051 C   0  0  0  0  0  0  0  0  0  0  0  0
   -1.1493    1.1621   -0.6766 H   0  0  0  0  0  0  0  0  0  0  0  0
   -2.6908    1.4001    0.1557 H   0  0  0  0  0  0  0  0  0  0  0  0
   -1.0207    2.4345    1.0463 C   0  0  0  0  0  0  0  0  0  0  0  0
   -0.9555    3.2889    0.3711 H   0  0  0  0  0  0  0  0  0  0  0  0
   -1.6579    2.6920    1.8929 H   0  0  0  0  0  0  0  0  0  0  0  0
    0.3854    2.0862    1.5533 C   0  0  0  0  0  0  0  0  0  0  0  0
    0.3142    1.2139    2.2070 H   0  0  0  0  0  0  0  0  0  0  0  0
    1.0118    1.8331    0.6947 H   0  0  0  0  0  0  0  0  0  0  0  0
    0.9947    3.2093    2.2950 N   0  3  0  0  0  0  0  0  0  0  0  0
    0.4620    4.0609    2.3428 H   0  0  0  0  0  0  0  0  0  0  0  0
    2.1706    3.1999    2.9002 C   0  0  0  0  0  0  0  0  0  0  0  0
    2.9419    2.1490    2.8999 N   0  0  0  0  0  0  0  0  0  0  0  0
    2.6301    1.3202    2.4253 H   0  0  0  0  0  0  0  0  0  0  0  0
    3.8317    2.1587    3.3637 H   0  0  0  0  0  0  0  0  0  0  0  0
    2.6001    4.2599    3.5241 N   0  0  0  0  0  0  0  0  0  0  0  0
    2.0404    5.0947    3.5520 H   0  0  0  0  0  0  0  0  0  0  0  0
    3.4928    4.2484    3.9819 H   0  0  0  0  0  0  0  0  0  0  0  0
   -0.9523    0.1012    2.4848 C   0  0  0  0  0  0  0  0  0  0  0  0
    0.2133   -0.1319    2.7814 O   0  0  0  0  0  0  0  0  0  0  0  0
   -1.8684    0.5006    3.3725 N   0  0  0  0  0  0  0  0  0  0  0  0
   -2.7946    0.7048    3.0343 H   0  0  0  0  0  0  0  0  0  0  0  0
   -1.5848    0.7472    4.7873 C   0  0  0  0  0  0  0  0  0  0  0  0
   -0.8819    1.5774    4.8838 H   0  0  0  0  0  0  0  0  0  0  0  0
   -2.5030    0.9948    5.3214 H   0  0  0  0  0  0  0  0  0  0  0  0
   -1.1344   -0.1399    5.2381 H   0  0  0  0  0  0  0  0  0  0  0  0
  5  6  2  0  0  0  0
  5  7  1  0  0  0  0
  2  3  1  0  0  0  0
  2  4  1  0  0  0  0
  2  5  1  0  0  0  0
  1  2  1  0  0  0  0
 29 30  2  0  0  0  0
 29 31  1  0  0  0  0
 26 27  1  0  0  0  0
 26 28  1  0  0  0  0
 23 24  1  0  0  0  0
 23 25  1  0  0  0  0
 22 23  1  0  0  0  0
 22 26  1  0  0  0  0
 20 21  1  0  0  0  0
 20 22  2  0  0  0  0
 17 18  1  0  0  0  0
 17 19  1  0  0  0  0
 17 20  1  0  0  0  0
 14 15  1  0  0  0  0
 14 16  1  0  0  0  0
 14 17  1  0  0  0  0
 11 12  1  0  0  0  0
 11 13  1  0  0  0  0
 11 14  1  0  0  0  0
  9 10  1  0  0  0  0
  9 11  1  0  0  0  0
  9 29  1  0  0  0  0
  7  8  1  0  0  0  0
  7  9  1  0  0  0  0
 33 34  1  0  0  0  0
 33 35  1  0  0  0  0
 33 36  1  0  0  0  0
 31 32  1  0  0  0  0
 31 33  1  0  0  0  0
M  CHG  1  20   1
M  END
$$$$
default_name
  -OEChem-02102213163D

 36 35  0     1  0  0  0  0  0999 V2000
   -4.2256   -3.6731    1.8584 H   0  0  0  0  0  0  0  0  0  0  0  0
   -4.2396   -2.6781    1.4144 C   0  0  0  0  0  0  0  0  0  0  0  0
   -4.9506   -2.0521    1.9514 H   0  0  0  0  0  0  0  0  0  0  0  0
   -4.5266   -2.7521    0.3674 H   0  0  0  0  0  0  0  0  0  0  0  0
   -2.8576   -2.0761    1.5184 C   0  0  0  0  0  0  0  0  0  0  0  0
   -1.9456   -2.7051    2.0404 O   0  0  0  0  0  0  0  0  0  0  0  0
   -2.6926   -0.8481    1.0174 N   0  0  0  0  0  0  0  0  0  0  0  0
   -3.4926   -0.3971    0.5954 H   0  0  0  0  0  0  0  0  0  0  0  0
   -1.4216   -0.1071    1.0434 C   0  0  1  0  0  0  0  0  0  0  0  0
   -0.6709   -0.6930    0.5106 H   0  0  0  0  0  0  0  0  0  0  0  0
   -1.6221    1.2315    0.3051 C   0  0  0  0  0  0  0  0  0  0  0  0
   -1.1493    1.1621   -0.6766 H   0  0  0  0  0  0  0  0  0  0  0  0
   -2.6908    1.4001    0.1557 H   0  0  0  0  0  0  0  0  0  0  0  0
   -1.0207    2.4345    1.0463 C   0  0  0  0  0  0  0  0  0  0  0  0
   -1.1964    3.3462    0.4736 H   0  0  0  0  0  0  0  0  0  0  0  0
   -1.4919    2.5275    2.0253 H   0  0  0  0  0  0  0  0  0  0  0  0
    0.4908    2.2363    1.2243 C   0  0  0  0  0  0  0  0  0  0  0  0
    0.6582    1.3079    1.7752 H   0  0  0  0  0  0  0  0  0  0  0  0
    0.9485    2.1473    0.2362 H   0  0  0  0  0  0  0  0  0  0  0  0
    1.1091    3.3615    1.9553 N   0  3  0  0  0  0  0  0  0  0  0  0
    0.5043    4.1255    2.2037 H   0  0  0  0  0  0  0  0  0  0  0  0
    2.3788    3.4578    2.3127 C   0  0  0  0  0  0  0  0  0  0  0  0
    3.2480    2.5252    2.0410 N   0  0  0  0  0  0  0  0  0  0  0  0
    2.9408    1.7071    1.5452 H   0  0  0  0  0  0  0  0  0  0  0  0
    4.2080    2.6142    2.3191 H   0  0  0  0  0  0  0  0  0  0  0  0
    2.8051    4.5068    2.9570 N   0  0  0  0  0  0  0  0  0  0  0  0
    2.1718    5.2524    3.1895 H   0  0  0  0  0  0  0  0  0  0  0  0
    3.7691    4.5758    3.2264 H   0  0  0  0  0  0  0  0  0  0  0  0
   -0.9523    0.1012    2.4848 C   0  0  0  0  0  0  0  0  0  0  0  0
    0.2133   -0.1319    2.7814 O   0  0  0  0  0  0  0  0  0  0  0  0
   -1.8684    0.5006    3.3725 N   0  0  0  0  0  0  0  0  0  0  0  0
   -2.7946    0.7048    3.0343 H   0  0  0  0  0  0  0  0  0  0  0  0
   -1.5848    0.7472    4.7873 C   0  0  0  0  0  0  0  0  0  0  0  0
   -0.8819    1.5774    4.8838 H   0  0  0  0  0  0  0  0  0  0  0  0
   -2.5030    0.9948    5.3214 H   0  0  0  0  0  0  0  0  0  0  0  0
   -1.1344   -0.1399    5.2381 H   0  0  0  0  0  0  0  0  0  0  0  0
  5  6  2  0  0  0  0
  5  7  1  0  0  0  0
  2  3  1  0  0  0  0
  2  4  1  0  0  0  0
  2  5  1  0  0  0  0
  1  2  1  0  0  0  0
 29 30  2  0  0  0  0
 29 31  1  0  0  0  0
 26 27  1  0  0  0  0
 26 28  1  0  0  0  0
 23 24  1  0  0  0  0
 23 25  1  0  0  0  0
 22 23  1  0  0  0  0
 22 26  1  0  0  0  0
 20 21  1  0  0  0  0
 20 22  2  0  0  0  0
 17 18  1  0  0  0  0
 17 19  1  0  0  0  0
 17 20  1  0  0  0  0
 14 15  1  0  0  0  0
 14 16  1  0  0  0  0
 14 17  1  0  0  0  0
 11 12  1  0  0  0  0
 11 13  1  0  0  0  0
 11 14  1  0  0  0  0
  9 10  1  0  0  0  0
  9 11  1  0  0  0  0
  9 29  1  0  0  0  0
  7  8  1  0  0  0  0
  7  9  1  0  0  0  0
 33 34  1  0  0  0  0
 33 35  1  0  0  0  0
 33 36  1  0  0  0  0
 31 32  1  0  0  0  0
 31 33  1  0  0  0  0
M  CHG  1  20   1
M  END
$$$$
default_name
  -OEChem-02102213163D

 36 35  0     1  0  0  0  0  0999 V2000
   -4.2256   -3.6731    1.8584 H   0  0  0  0  0  0  0  0  0  0  0  0
   -4.2396   -2.6781    1.4144 C   0  0  0  0  0  0  0  0  0  0  0  0
   -4.9506   -2.0521    1.9514 H   0  0  0  0  0  0  0  0  0  0  0  0
   -4.5266   -2.7521    0.3674 H   0  0  0  0  0  0  0  0  0  0  0  0
   -2.8576   -2.0761    1.5184 C   0  0  0  0  0  0  0  0  0  0  0  0
   -1.9456   -2.7051    2.0404 O   0  0  0  0  0  0  0  0  0  0  0  0
   -2.6926   -0.8481    1.0174 N   0  0  0  0  0  0  0  0  0  0  0  0
   -3.4926   -0.3971    0.5954 H   0  0  0  0  0  0  0  0  0  0  0  0
   -1.4216   -0.1071    1.0434 C   0  0  1  0  0  0  0  0  0  0  0  0
   -0.6709   -0.6930    0.5106 H   0  0  0  0  0  0  0  0  0  0  0  0
   -1.6221    1.2315    0.3051 C   0  0  0  0  0  0  0  0  0  0  0  0
   -1.1493    1.1621   -0.6766 H   0  0  0  0  0  0  0  0  0  0  0  0
   -2.6908    1.4001    0.1557 H   0  0  0  0  0  0  0  0  0  0  0  0
   -1.0207    2.4345    1.0463 C   0  0  0  0  0  0  0  0  0  0  0  0
   -1.4155    3.3611    0.6272 H   0  0  0  0  0  0  0  0  0  0  0  0
   -1.2842    2.3758    2.1028 H   0  0  0  0  0  0  0  0  0  0  0  0
    0.5071    2.4277    0.9002 C   0  0  0  0  0  0  0  0  0  0  0  0
    0.8912    1.4855    1.2979 H   0  0  0  0  0  0  0  0  0  0  0  0
    0.7551    2.4893   -0.1620 H   0  0  0  0  0  0  0  0  0  0  0  0
    1.1317    3.5571    1.6193 N   0  3  0  0  0  0  0  0  0  0  0  0
    0.5089    4.2073    2.0673 H   0  0  0  0  0  0  0  0  0  0  0  0
    2.4285    3.7925    1.7291 C   0  0  0  0  0  0  0  0  0  0  0  0
    3.3226    3.0138    1.1873 N   0  0  0  0  0  0  0  0  0  0  0  0
    3.0142    2.2088    0.6714 H   0  0  0  0  0  0  0  0  0  0  0  0
    4.3029    3.2070    1.2799 H   0  0  0  0  0  0  0  0  0  0  0  0
    2.8572    4.8283    2.3928 N   0  0  0  0  0  0  0  0  0  0  0  0
    2.2055    5.4578    2.8287 H   0  0  0  0  0  0  0  0  0  0  0  0
    3.8419    5.0031    2.4737 H   0  0  0  0  0  0  0  0  0  0  0  0
   -0.9523    0.1012    2.4848 C   0  0  0  0  0  0  0  0  0  0  0  0
    0.2133   -0.1319    2.7814 O   0  0  0  0  0  0  0  0  0  0  0  0
   -1.8684    0.5006    3.3725 N   0  0  0  0  0  0  0  0  0  0  0  0
   -2.7946    0.7048    3.0343 H   0  0  0  0  0  0  0  0  0  0  0  0
   -1.5848    0.7472    4.7873 C   0  0  0  0  0  0  0  0  0  0  0  0
   -0.8819    1.5774    4.8838 H   0  0  0  0  0  0  0  0  0  0  0  0
   -2.5030    0.9948    5.3214 H   0  0  0  0  0  0  0  0  0  0  0  0
   -1.1344   -0.1399    5.2381 H   0  0  0  0  0  0  0  0  0  0  0  0
  5  6  2  0  0  0  0
  5  7  1  0  0  0  0
  2  3  1  0  0  0  0
  2  4  1  0  0  0  0
  2  5  1  0  0  0  0
  1  2  1  0  0  0  0
 29 30  2  0  0  0  0
 29 31  1  0  0  0  0
 26 27  1  0  0  0  0
 26 28  1  0  0  0  0
 23 24  1  0  0  0  0
 23 25  1  0  0  0  0
 22 23  1  0  0  0  0
 22 26  1  0  0  0  0
 20 21  1  0  0  0  0
 20 22  2  0  0  0  0
 17 18  1  0  0  0  0
 17 19  1  0  0  0  0
 17 20  1  0  0  0  0
 14 15  1  0  0  0  0
 14 16  1  0  0  0  0
 14 17  1  0  0  0  0
 11 12  1  0  0  0  0
 11 13  1  0  0  0  0
 11 14  1  0  0  0  0
  9 10  1  0  0  0  0
  9 11  1  0  0  0  0
  9 29  1  0  0  0  0
  7  8  1  0  0  0  0
  7  9  1  0  0  0  0
 33 34  1  0  0  0  0
 33 35  1  0  0  0  0
 33 36  1  0  0  0  0
 31 32  1  0  0  0  0
 31 33  1  0  0  0  0
M  CHG  1  20   1
M  END
$$$$
default_name
  -OEChem-02102213163D

 36 35  0     1  0  0  0  0  0999 V2000
   -4.2256   -3.6731    1.8584 H   0  0  0  0  0  0  0  0  0  0  0  0
   -4.2396   -2.6781    1.4144 C   0  0  0  0  0  0  0  0  0  0  0  0
   -4.9506   -2.0521    1.9514 H   0  0  0  0  0  0  0  0  0  0  0  0
   -4.5266   -2.7521    0.3674 H   0  0  0  0  0  0  0  0  0  0  0  0
   -2.8576   -2.0761    1.5184 C   0  0  0  0  0  0  0  0  0  0  0  0
   -1.9456   -2.7051    2.0404 O   0  0  0  0  0  0  0  0  0  0  0  0
   -2.6926   -0.8481    1.0174 N   0  0  0  0  0  0  0  0  0  0  0  0
   -3.4926   -0.3971    0.5954 H   0  0  0  0  0  0  0  0  0  0  0  0
   -1.4216   -0.1071    1.0434 C   0  0  1  0  0  0  0  0  0  0  0  0
   -0.6709   -0.6930    0.5106 H   0  0  0  0  0  0  0  0  0  0  0  0
   -1.6221    1.2315    0.3051 C   0  0  0  0  0  0  0  0  0  0  0  0
   -1.1493    1.1621   -0.6766 H   0  0  0  0  0  0  0  0  0  0  0  0
   -2.6908    1.4001    0.1557 H   0  0  0  0  0  0  0  0  0  0  0  0
   -1.0207    2.4345    1.0463 C   0  0  0  0  0  0  0  0  0  0  0  0
   -1.5978    3.3325    0.8215 H   0  0  0  0  0  0  0  0  0  0  0  0
   -1.0488    2.2475    2.1202 H   0  0  0  0  0  0  0  0  0  0  0  0
    0.4333    2.6476    0.6034 C   0  0  0  0  0  0  0  0  0  0  0  0
    0.9973    1.7346    0.8075 H   0  0  0  0  0  0  0  0  0  0  0  0
    0.4448    2.8358   -0.4728 H   0  0  0  0  0  0  0  0  0  0  0  0
    1.0610    3.7830    1.3100 N   0  3  0  0  0  0  0  0  0  0  0  0
    0.4754    4.3007    1.9428 H   0  0  0  0  0  0  0  0  0  0  0  0
    2.3164    4.1811    1.1893 C   0  0  0  0  0  0  0  0  0  0  0  0
    3.1605    3.5817    0.3972 N   0  0  0  0  0  0  0  0  0  0  0  0
    2.8452    2.7911   -0.1367 H   0  0  0  0  0  0  0  0  0  0  0  0
    4.1098    3.8968    0.3169 H   0  0  0  0  0  0  0  0  0  0  0  0
    2.7530    5.2026    1.8698 N   0  0  0  0  0  0  0  0  0  0  0  0
    2.1393    5.6970    2.4941 H   0  0  0  0  0  0  0  0  0  0  0  0
    3.7062    5.5012    1.7753 H   0  0  0  0  0  0  0  0  0  0  0  0
   -0.9523    0.1012    2.4848 C   0  0  0  0  0  0  0  0  0  0  0  0
    0.2133   -0.1319    2.7814 O   0  0  0  0  0  0  0  0  0  0  0  0
   -1.8684    0.5006    3.3725 N   0  0  0  0  0  0  0  0  0  0  0  0
   -2.7946    0.7048    3.0343 H   0  0  0  0  0  0  0  0  0  0  0  0
   -1.5848    0.7472    4.7873 C   0  0  0  0  0  0  0  0  0  0  0  0
   -0.8819    1.5774    4.8838 H   0  0  0  0  0  0  0  0  0  0  0  0
   -2.5030    0.9948    5.3214 H   0  0  0  0  0  0  0  0  0  0  0  0
   -1.1344   -0.1399    5.2381 H   0  0  0  0  0  0  0  0  0  0  0  0
  5  6  2  0  0  0  0
  5  7  1  0  0  0  0
  2  3  1  0  0  0  0
  2  4  1  0  0  0  0
  2  5  1  0  0  0  0
  1  2  1  0  0  0  0
 29 30  2  0  0  0  0
 29 31  1  0  0  0  0
 26 27  1  0  0  0  0
 26 28  1  0  0  0  0
 23 24  1  0  0  0  0
 23 25  1  0  0  0  0
 22 23  1  0  0  0  0
 22 26  1  0  0  0  0
 20 21  1  0  0  0  0
 20 22  2  0  0  0  0
 17 18  1  0  0  0  0
 17 19  1  0  0  0  0
 17 20  1  0  0  0  0
 14 15  1  0  0  0  0
 14 16  1  0  0  0  0
 14 17  1  0  0  0  0
 11 12  1  0  0  0  0
 11 13  1  0  0  0  0
 11 14  1  0  0  0  0
  9 10  1  0  0  0  0
  9 11  1  0  0  0  0
  9 29  1  0  0  0  0
  7  8  1  0  0  0  0
  7  9  1  0  0  0  0
 33 34  1  0  0  0  0
 33 35  1  0  0  0  0
 33 36  1  0  0  0  0
 31 32  1  0  0  0  0
 31 33  1  0  0  0  0
M  CHG  1  20   1
M  END
$$$$
default_name
  -OEChem-02102213163D

 36 35  0     1  0  0  0  0  0999 V2000
   -4.2256   -3.6731    1.8584 H   0  0  0  0  0  0  0  0  0  0  0  0
   -4.2396   -2.6781    1.4144 C   0  0  0  0  0  0  0  0  0  0  0  0
   -4.9506   -2.0521    1.9514 H   0  0  0  0  0  0  0  0  0  0  0  0
   -4.5266   -2.7521    0.3674 H   0  0  0  0  0  0  0  0  0  0  0  0
   -2.8576   -2.0761    1.5184 C   0  0  0  0  0  0  0  0  0  0  0  0
   -1.9456   -2.7051    2.0404 O   0  0  0  0  0  0  0  0  0  0  0  0
   -2.6926   -0.8481    1.0174 N   0  0  0  0  0  0  0  0  0  0  0  0
   -3.4926   -0.3971    0.5954 H   0  0  0  0  0  0  0  0  0  0  0  0
   -1.4216   -0.1071    1.0434 C   0  0  1  0  0  0  0  0  0  0  0  0
   -0.6709   -0.6930    0.5106 H   0  0  0  0  0  0  0  0  0  0  0  0
   -1.6221    1.2315    0.3051 C   0  0  0  0  0  0  0  0  0  0  0  0
   -1.1493    1.1621   -0.6766 H   0  0  0  0  0  0  0  0  0  0  0  0
   -2.6908    1.4001    0.1557 H   0  0  0  0  0  0  0  0  0  0  0  0
   -1.0207    2.4345    1.0463 C   0  0  0  0  0  0  0  0  0  0  0  0
   -1.7310    3.2624    1.0433 H   0  0  0  0  0  0  0  0  0  0  0  0
   -0.8020    2.1511    2.0763 H   0  0  0  0  0  0  0  0  0  0  0  0
    0.2743    2.8808    0.3538 C   0  0  0  0  0  0  0  0  0  0  0  0
    0.9693    2.0381    0.3377 H   0  0  0  0  0  0  0  0  0  0  0  0
    0.0388    3.1634   -0.6749 H   0  0  0  0  0  0  0  0  0  0  0  0
    0.9018    4.0237    1.0486 N   0  3  0  0  0  0  0  0  0  0  0  0
    0.4062    4.3993    1.8389 H   0  0  0  0  0  0  0  0  0  0  0  0
    2.0501    4.5972    0.7300 C   0  0  0  0  0  0  0  0  0  0  0  0
    2.7728    4.1900   -0.2756 N   0  0  0  0  0  0  0  0  0  0  0  0
    2.4454    3.4144   -0.8240 H   0  0  0  0  0  0  0  0  0  0  0  0
    3.6418    4.6366   -0.5041 H   0  0  0  0  0  0  0  0  0  0  0  0
    2.4996    5.6042    1.4237 N   0  0  0  0  0  0  0  0  0  0  0  0
    1.9775    5.9538    2.2087 H   0  0  0  0  0  0  0  0  0  0  0  0
    3.3713    6.0362    1.1786 H   0  0  0  0  0  0  0  0  0  0  0  0
   -0.9523    0.1012    2.4848 C   0  0  0  0  0  0  0  0  0  0  0  0
    0.2133   -0.1319    2.7814 O   0  0  0  0  0  0  0  0  0  0  0  0
   -1.8684    0.5006    3.3725 N   0  0  0  0  0  0  0  0  0  0  0  0
   -2.7946    0.7048    3.0343 H   0  0  0  0  0  0  0  0  0  0  0  0
   -1.5848    0.7472    4.7873 C   0  0  0  0  0  0  0  0  0  0  0  0
   -0.8819    1.5774    4.8838 H   0  0  0  0  0  0  0  0  0  0  0  0
   -2.5030    0.9948    5.3214 H   0  0  0  0  0  0  0  0  0  0  0  0
   -1.1344   -0.1399    5.2381 H   0  0  0  0  0  0  0  0  0  0  0  0
  5  6  2  0  0  0  0
  5  7  1  0  0  0  0
  2  3  1  0  0  0  0
  2  4  1  0  0  0  0
  2  5  1  0  0  0  0
  1  2  1  0  0  0  0
 29 30  2  0  0  0  0
 29 31  1  0  0  0  0
 26 27  1  0  0  0  0
 26 28  1  0  0  0  0
 23 24  1  0  0  0  0
 23 25  1  0  0  0  0
 22 23  1  0  0  0  0
 22 26  1  0  0  0  0
 20 21  1  0  0  0  0
 20 22  2  0  0  0  0
 17 18  1  0  0  0  0
 17 19  1  0  0  0  0
 17 20  1  0  0  0  0
 14 15  1  0  0  0  0
 14 16  1  0  0  0  0
 14 17  1  0  0  0  0
 11 12  1  0  0  0  0
 11 13  1  0  0  0  0
 11 14  1  0  0  0  0
  9 10  1  0  0  0  0
  9 11  1  0  0  0  0
  9 29  1  0  0  0  0
  7  8  1  0  0  0  0
  7  9  1  0  0  0  0
 33 34  1  0  0  0  0
 33 35  1  0  0  0  0
 33 36  1  0  0  0  0
 31 32  1  0  0  0  0
 31 33  1  0  0  0  0
M  CHG  1  20   1
M  END
$$$$
default_name
  -OEChem-02102213163D

 36 35  0     1  0  0  0  0  0999 V2000
   -4.2256   -3.6731    1.8584 H   0  0  0  0  0  0  0  0  0  0  0  0
   -4.2396   -2.6781    1.4144 C   0  0  0  0  0  0  0  0  0  0  0  0
   -4.9506   -2.0521    1.9514 H   0  0  0  0  0  0  0  0  0  0  0  0
   -4.5266   -2.7521    0.3674 H   0  0  0  0  0  0  0  0  0  0  0  0
   -2.8576   -2.0761    1.5184 C   0  0  0  0  0  0  0  0  0  0  0  0
   -1.9456   -2.7051    2.0404 O   0  0  0  0  0  0  0  0  0  0  0  0
   -2.6926   -0.8481    1.0174 N   0  0  0  0  0  0  0  0  0  0  0  0
   -3.4926   -0.3971    0.5954 H   0  0  0  0  0  0  0  0  0  0  0  0
   -1.4216   -0.1071    1.0434 C   0  0  1  0  0  0  0  0  0  0  0  0
   -0.6709   -0.6930    0.5106 H   0  0  0  0  0  0  0  0  0  0  0  0
   -1.6221    1.2315    0.3051 C   0  0  0  0  0  0  0  0  0  0  0  0
   -1.1493    1.1621   -0.6766 H   0  0  0  0  0  0  0  0  0  0  0  0
   -2.6908    1.4001    0.1557 H   0  0  0  0  0  0  0  0  0  0  0  0
   -1.0207    2.4345    1.0463 C   0  0  0  0  0  0  0  0  0  0  0  0
   -1.8059    3.1556    1.2774 H   0  0  0  0  0  0  0  0  0  0  0  0
   -0.5604    2.0933    1.9741 H   0  0  0  0  0  0  0  0  0  0  0  0
    0.0410    3.1114    0.1687 C   0  0  0  0  0  0  0  0  0  0  0  0
    0.8090    2.3754   -0.0797 H   0  0  0  0  0  0  0  0  0  0  0  0
   -0.4352    3.4495   -0.7547 H   0  0  0  0  0  0  0  0  0  0  0  0
    0.6649    4.2629    0.8527 N   0  3  0  0  0  0  0  0  0  0  0  0
    0.3059    4.4965    1.7626 H   0  0  0  0  0  0  0  0  0  0  0  0
    1.6478    5.0124    0.3825 C   0  0  0  0  0  0  0  0  0  0  0  0
    2.1859    4.7974   -0.7852 N   0  0  0  0  0  0  0  0  0  0  0  0
    1.8420    4.0362   -1.3436 H   0  0  0  0  0  0  0  0  0  0  0  0
    2.9309    5.3759   -1.1273 H   0  0  0  0  0  0  0  0  0  0  0  0
    2.1142    6.0056    1.0849 N   0  0  0  0  0  0  0  0  0  0  0  0
    1.7314    6.2104    1.9918 H   0  0  0  0  0  0  0  0  0  0  0  0
    2.8600    6.5717    0.7245 H   0  0  0  0  0  0  0  0  0  0  0  0
   -0.9523    0.1012    2.4848 C   0  0  0  0  0  0  0  0  0  0  0  0
    0.2133   -0.1319    2.7814 O   0  0  0  0  0  0  0  0  0  0  0  0
   -1.8684    0.5006    3.3725 N   0  0  0  0  0  0  0  0  0  0  0  0
   -2.7946    0.7048    3.0343 H   0  0  0  0  0  0  0  0  0  0  0  0
   -1.5848    0.7472    4.7873 C   0  0  0  0  0  0  0  0  0  0  0  0
   -0.8819    1.5774    4.8838 H   0  0  0  0  0  0  0  0  0  0  0  0
   -2.5030    0.9948    5.3214 H   0  0  0  0  0  0  0  0  0  0  0  0
   -1.1344   -0.1399    5.2381 H   0  0  0  0  0  0  0  0  0  0  0  0
  5  6  2  0  0  0  0
  5  7  1  0  0  0  0
  2  3  1  0  0  0  0
  2  4  1  0  0  0  0
  2  5  1  0  0  0  0
  1  2  1  0  0  0  0
 29 30  2  0  0  0  0
 29 31  1  0  0  0  0
 26 27  1  0  0  0  0
 26 28  1  0  0  0  0
 23 24  1  0  0  0  0
 23 25  1  0  0  0  0
 22 23  1  0  0  0  0
 22 26  1  0  0  0  0
 20 21  1  0  0  0  0
 20 22  2  0  0  0  0
 17 18  1  0  0  0  0
 17 19  1  0  0  0  0
 17 20  1  0  0  0  0
 14 15  1  0  0  0  0
 14 16  1  0  0  0  0
 14 17  1  0  0  0  0
 11 12  1  0  0  0  0
 11 13  1  0  0  0  0
 11 14  1  0  0  0  0
  9 10  1  0  0  0  0
  9 11  1  0  0  0  0
  9 29  1  0  0  0  0
  7  8  1  0  0  0  0
  7  9  1  0  0  0  0
 33 34  1  0  0  0  0
 33 35  1  0  0  0  0
 33 36  1  0  0  0  0
 31 32  1  0  0  0  0
 31 33  1  0  0  0  0
M  CHG  1  20   1
M  END
$$$$
default_name
  -OEChem-02102213163D

 36 35  0     1  0  0  0  0  0999 V2000
   -4.2256   -3.6731    1.8584 H   0  0  0  0  0  0  0  0  0  0  0  0
   -4.2396   -2.6781    1.4144 C   0  0  0  0  0  0  0  0  0  0  0  0
   -4.9506   -2.0521    1.9514 H   0  0  0  0  0  0  0  0  0  0  0  0
   -4.5266   -2.7521    0.3674 H   0  0  0  0  0  0  0  0  0  0  0  0
   -2.8576   -2.0761    1.5184 C   0  0  0  0  0  0  0  0  0  0  0  0
   -1.9456   -2.7051    2.0404 O   0  0  0  0  0  0  0  0  0  0  0  0
   -2.6926   -0.8481    1.0174 N   0  0  0  0  0  0  0  0  0  0  0  0
   -3.4926   -0.3971    0.5954 H   0  0  0  0  0  0  0  0  0  0  0  0
   -1.4216   -0.1071    1.0434 C   0  0  1  0  0  0  0  0  0  0  0  0
   -0.6709   -0.6930    0.5106 H   0  0  0  0  0  0  0  0  0  0  0  0
   -1.6221    1.2315    0.3051 C   0  0  0  0  0  0  0  0  0  0  0  0
   -1.1493    1.1621   -0.6766 H   0  0  0  0  0  0  0  0  0  0  0  0
   -2.6908    1.4001    0.1557 H   0  0  0  0  0  0  0  0  0  0  0  0
   -1.0207    2.4345    1.0463 C   0  0  0  0  0  0  0  0  0  0  0  0
   -1.8174    3.0194    1.5079 H   0  0  0  0  0  0  0  0  0  0  0  0
   -0.3405    2.0780    1.8205 H   0  0  0  0  0  0  0  0  0  0  0  0
   -0.2507    3.3239    0.0606 C   0  0  0  0  0  0  0  0  0  0  0  0
    0.5274    2.7235   -0.4163 H   0  0  0  0  0  0  0  0  0  0  0  0
   -0.9451    3.6747   -0.7066 H   0  0  0  0  0  0  0  0  0  0  0  0
    0.3665    4.4841    0.7357 N   0  3  0  0  0  0  0  0  0  0  0  0
    0.1815    4.5855    1.7190 H   0  0  0  0  0  0  0  0  0  0  0  0
    1.1369    5.3984    0.1705 C   0  0  0  0  0  0  0  0  0  0  0  0
    1.4398    5.3624   -1.0969 N   0  0  0  0  0  0  0  0  0  0  0  0
    1.0761    4.6141   -1.6601 H   0  0  0  0  0  0  0  0  0  0  0  0
    2.0255    6.0645   -1.5102 H   0  0  0  0  0  0  0  0  0  0  0  0
    1.6231    6.3795    0.8764 N   0  0  0  0  0  0  0  0  0  0  0  0
    1.4176    6.4496    1.8582 H   0  0  0  0  0  0  0  0  0  0  0  0
    2.2072    7.0710    0.4437 H   0  0  0  0  0  0  0  0  0  0  0  0
   -0.9523    0.1012    2.4848 C   0  0  0  0  0  0  0  0  0  0  0  0
    0.2133   -0.1319    2.7814 O   0  0  0  0  0  0  0  0  0  0  0  0
   -1.8684    0.5006    3.3725 N   0  0  0  0  0  0  0  0  0  0  0  0
   -2.7946    0.7048    3.0343 H   0  0  0  0  0  0  0  0  0  0  0  0
   -1.5848    0.7472    4.7873 C   0  0  0  0  0  0  0  0  0  0  0  0
   -0.8819    1.5774    4.8838 H   0  0  0  0  0  0  0  0  0  0  0  0
   -2.5030    0.9948    5.3214 H   0  0  0  0  0  0  0  0  0  0  0  0
   -1.1344   -0.1399    5.2381 H   0  0  0  0  0  0  0  0  0  0  0  0
  5  6  2  0  0  0  0
  5  7  1  0  0  0  0
  2  3  1  0  0  0  0
  2  4  1  0  0  0  0
  2  5  1  0  0  0  0
  1  2  1  0  0  0  0
 29 30  2  0  0  0  0
 29 31  1  0  0  0  0
 26 27  1  0  0  0  0
 26 28  1  0  0  0  0
 23 24  1  0  0  0  0
 23 25  1  0  0  0  0
 22 23  1  0  0  0  0
 22 26  1  0  0  0  0
 20 21  1  0  0  0  0
 20 22  2  0  0  0  0
 17 18  1  0  0  0  0
 17 19  1  0  0  0  0
 17 20  1  0  0  0  0
 14 15  1  0  0  0  0
 14 16  1  0  0  0  0
 14 17  1  0  0  0  0
 11 12  1  0  0  0  0
 11 13  1  0  0  0  0
 11 14  1  0  0  0  0
  9 10  1  0  0  0  0
  9 11  1  0  0  0  0
  9 29  1  0  0  0  0
  7  8  1  0  0  0  0
  7  9  1  0  0  0  0
 33 34  1  0  0  0  0
 33 35  1  0  0  0  0
 33 36  1  0  0  0  0
 31 32  1  0  0  0  0
 31 33  1  0  0  0  0
M  CHG  1  20   1
M  END
$$$$
default_name
  -OEChem-02102213163D

 36 35  0     1  0  0  0  0  0999 V2000
   -4.2256   -3.6731    1.8584 H   0  0  0  0  0  0  0  0  0  0  0  0
   -4.2396   -2.6781    1.4144 C   0  0  0  0  0  0  0  0  0  0  0  0
   -4.9506   -2.0521    1.9514 H   0  0  0  0  0  0  0  0  0  0  0  0
   -4.5266   -2.7521    0.3674 H   0  0  0  0  0  0  0  0  0  0  0  0
   -2.8576   -2.0761    1.5184 C   0  0  0  0  0  0  0  0  0  0  0  0
   -1.9456   -2.7051    2.0404 O   0  0  0  0  0  0  0  0  0  0  0  0
   -2.6926   -0.8481    1.0174 N   0  0  0  0  0  0  0  0  0  0  0  0
   -3.4926   -0.3971    0.5954 H   0  0  0  0  0  0  0  0  0  0  0  0
   -1.4216   -0.1071    1.0434 C   0  0  1  0  0  0  0  0  0  0  0  0
   -0.6709   -0.6930    0.5106 H   0  0  0  0  0  0  0  0  0  0  0  0
   -1.6221    1.2315    0.3051 C   0  0  0  0  0  0  0  0  0  0  0  0
   -1.1493    1.1621   -0.6766 H   0  0  0  0  0  0  0  0  0  0  0  0
   -2.6908    1.4001    0.1557 H   0  0  0  0  0  0  0  0  0  0  0  0
   -1.0207    2.4345    1.0463 C   0  0  0  0  0  0  0  0  0  0  0  0
   -1.7648    2.8630    1.7191 H   0  0  0  0  0  0  0  0  0  0  0  0
   -0.1573    2.1063    1.6260 H   0  0  0  0  0  0  0  0  0  0  0  0
   -0.5809    3.5036    0.0368 C   0  0  0  0  0  0  0  0  0  0  0  0
    0.1437    3.0586   -0.6489 H   0  0  0  0  0  0  0  0  0  0  0  0
   -1.4559    3.8237   -0.5339 H   0  0  0  0  0  0  0  0  0  0  0  0
    0.0269    4.6724    0.7057 N   0  3  0  0  0  0  0  0  0  0  0  0
    0.0413    4.6604    1.7111 H   0  0  0  0  0  0  0  0  0  0  0  0
    0.5522    5.7290    0.1084 C   0  0  0  0  0  0  0  0  0  0  0  0
    0.5853    5.8465   -1.1894 N   0  0  0  0  0  0  0  0  0  0  0  0
    0.2000    5.1087   -1.7520 H   0  0  0  0  0  0  0  0  0  0  0  0
    0.9873    6.6552   -1.6267 H   0  0  0  0  0  0  0  0  0  0  0  0
    1.0597    6.7005    0.8125 N   0  0  0  0  0  0  0  0  0  0  0  0
    1.0575    6.6550    1.8170 H   0  0  0  0  0  0  0  0  0  0  0  0
    1.4573    7.5002    0.3555 H   0  0  0  0  0  0  0  0  0  0  0  0
   -0.9523    0.1012    2.4848 C   0  0  0  0  0  0  0  0  0  0  0  0
    0.2133   -0.1319    2.7814 O   0  0  0  0  0  0  0  0  0  0  0  0
   -1.8684    0.5006    3.3725 N   0  0  0  0  0  0  0  0  0  0  0  0
   -2.7946    0.7048    3.0343 H   0  0  0  0  0  0  0  0  0  0  0  0
   -1.5848    0.7472    4.7873 C   0  0  0  0  0  0  0  0  0  0  0  0
   -0.8819    1.5774    4.8838 H   0  0  0  0  0  0  0  0  0  0  0  0
   -2.5030    0.9948    5.3214 H   0  0  0  0  0  0  0  0  0  0  0  0
   -1.1344   -0.1399    5.2381 H   0  0  0  0  0  0  0  0  0  0  0  0
  5  6  2  0  0  0  0
  5  7  1  0  0  0  0
  2  3  1  0  0  0  0
  2  4  1  0  0  0  0
  2  5  1  0  0  0  0
  1  2  1  0  0  0  0
 29 30  2  0  0  0  0
 29 31  1  0  0  0  0
 26 27  1  0  0  0  0
 26 28  1  0  0  0  0
 23 24  1  0  0  0  0
 23 25  1  0  0  0  0
 22 23  1  0  0  0  0
 22 26  1  0  0  0  0
 20 21  1  0  0  0  0
 20 22  2  0  0  0  0
 17 18  1  0  0  0  0
 17 19  1  0  0  0  0
 17 20  1  0  0  0  0
 14 15  1  0  0  0  0
 14 16  1  0  0  0  0
 14 17  1  0  0  0  0
 11 12  1  0  0  0  0
 11 13  1  0  0  0  0
 11 14  1  0  0  0  0
  9 10  1  0  0  0  0
  9 11  1  0  0  0  0
  9 29  1  0  0  0  0
  7  8  1  0  0  0  0
  7  9  1  0  0  0  0
 33 34  1  0  0  0  0
 33 35  1  0  0  0  0
 33 36  1  0  0  0  0
 31 32  1  0  0  0  0
 31 33  1  0  0  0  0
M  CHG  1  20   1
M  END
$$$$
default_name
  -OEChem-02102213163D

 36 35  0     1  0  0  0  0  0999 V2000
   -4.2256   -3.6731    1.8584 H   0  0  0  0  0  0  0  0  0  0  0  0
   -4.2396   -2.6781    1.4144 C   0  0  0  0  0  0  0  0  0  0  0  0
   -4.9506   -2.0521    1.9514 H   0  0  0  0  0  0  0  0  0  0  0  0
   -4.5266   -2.7521    0.3674 H   0  0  0  0  0  0  0  0  0  0  0  0
   -2.8576   -2.0761    1.5184 C   0  0  0  0  0  0  0  0  0  0  0  0
   -1.9456   -2.7051    2.0404 O   0  0  0  0  0  0  0  0  0  0  0  0
   -2.6926   -0.8481    1.0174 N   0  0  0  0  0  0  0  0  0  0  0  0
   -3.4926   -0.3971    0.5954 H   0  0  0  0  0  0  0  0  0  0  0  0
   -1.4216   -0.1071    1.0434 C   0  0  1  0  0  0  0  0  0  0  0  0
   -0.6709   -0.6930    0.5106 H   0  0  0  0  0  0  0  0  0  0  0  0
   -1.6221    1.2315    0.3051 C   0  0  0  0  0  0  0  0  0  0  0  0
   -1.1493    1.1621   -0.6766 H   0  0  0  0  0  0  0  0  0  0  0  0
   -2.6908    1.4001    0.1557 H   0  0  0  0  0  0  0  0  0  0  0  0
   -1.0207    2.4345    1.0463 C   0  0  0  0  0  0  0  0  0  0  0  0
   -1.6517    2.6971    1.8966 H   0  0  0  0  0  0  0  0  0  0  0  0
   -0.0234    2.1762    1.4039 H   0  0  0  0  0  0  0  0  0  0  0  0
   -0.9272    3.6384    0.0990 C   0  0  0  0  0  0  0  0  0  0  0  0
   -0.3159    3.3580   -0.7619 H   0  0  0  0  0  0  0  0  0  0  0  0
   -1.9329    3.8863   -0.2484 H   0  0  0  0  0  0  0  0  0  0  0  0
   -0.3308    4.8148    0.7646 N   0  3  0  0  0  0  0  0  0  0  0  0
   -0.1050    4.7161    1.7396 H   0  0  0  0  0  0  0  0  0  0  0  0
   -0.0665    5.9815    0.2005 C   0  0  0  0  0  0  0  0  0  0  0  0
   -0.3193    6.2168   -1.0564 N   0  0  0  0  0  0  0  0  0  0  0  0
   -0.7267    5.4863   -1.6130 H   0  0  0  0  0  0  0  0  0  0  0  0
   -0.1129    7.1080   -1.4688 H   0  0  0  0  0  0  0  0  0  0  0  0
    0.4625    6.9467    0.8976 N   0  0  0  0  0  0  0  0  0  0  0  0
    0.6757    6.8126    1.8710 H   0  0  0  0  0  0  0  0  0  0  0  0
    0.6615    7.8301    0.4658 H   0  0  0  0  0  0  0  0  0  0  0  0
   -0.9523    0.1012    2.4848 C   0  0  0  0  0  0  0  0  0  0  0  0
    0.2133   -0.1319    2.7814 O   0  0  0  0  0  0  0  0  0  0  0  0
   -1.8684    0.5006    3.3725 N   0  0  0  0  0  0  0  0  0  0  0  0
   -2.7946    0.7048    3.0343 H   0  0  0  0  0  0  0  0  0  0  0  0
   -1.5848    0.7472    4.7873 C   0  0  0  0  0  0  0  0  0  0  0  0
   -0.8819    1.5774    4.8838 H   0  0  0  0  0  0  0  0  0  0  0  0
   -2.5030    0.9948    5.3214 H   0  0  0  0  0  0  0  0  0  0  0  0
   -1.1344   -0.1399    5.2381 H   0  0  0  0  0  0  0  0  0  0  0  0
  5  6  2  0  0  0  0
  5  7  1  0  0  0  0
  2  3  1  0  0  0  0
  2  4  1  0  0  0  0
  2  5  1  0  0  0  0
  1  2  1  0  0  0  0
 29 30  2  0  0  0  0
 29 31  1  0  0  0  0
 26 27  1  0  0  0  0
 26 28  1  0  0  0  0
 23 24  1  0  0  0  0
 23 25  1  0  0  0  0
 22 23  1  0  0  0  0
 22 26  1  0  0  0  0
 20 21  1  0  0  0  0
 20 22  2  0  0  0  0
 17 18  1  0  0  0  0
 17 19  1  0  0  0  0
 17 20  1  0  0  0  0
 14 15  1  0  0  0  0
 14 16  1  0  0  0  0
 14 17  1  0  0  0  0
 11 12  1  0  0  0  0
 11 13  1  0  0  0  0
 11 14  1  0  0  0  0
  9 10  1  0  0  0  0
  9 11  1  0  0  0  0
  9 29  1  0  0  0  0
  7  8  1  0  0  0  0
  7  9  1  0  0  0  0
 33 34  1  0  0  0  0
 33 35  1  0  0  0  0
 33 36  1  0  0  0  0
 31 32  1  0  0  0  0
 31 33  1  0  0  0  0
M  CHG  1  20   1
M  END
$$$$
default_name
  -OEChem-02102213163D

 36 35  0     1  0  0  0  0  0999 V2000
   -4.2256   -3.6731    1.8584 H   0  0  0  0  0  0  0  0  0  0  0  0
   -4.2396   -2.6781    1.4144 C   0  0  0  0  0  0  0  0  0  0  0  0
   -4.9506   -2.0521    1.9514 H   0  0  0  0  0  0  0  0  0  0  0  0
   -4.5266   -2.7521    0.3674 H   0  0  0  0  0  0  0  0  0  0  0  0
   -2.8576   -2.0761    1.5184 C   0  0  0  0  0  0  0  0  0  0  0  0
   -1.9456   -2.7051    2.0404 O   0  0  0  0  0  0  0  0  0  0  0  0
   -2.6926   -0.8481    1.0174 N   0  0  0  0  0  0  0  0  0  0  0  0
   -3.4926   -0.3971    0.5954 H   0  0  0  0  0  0  0  0  0  0  0  0
   -1.4216   -0.1071    1.0434 C   0  0  1  0  0  0  0  0  0  0  0  0
   -0.6709   -0.6930    0.5106 H   0  0  0  0  0  0  0  0  0  0  0  0
   -1.6221    1.2315    0.3051 C   0  0  0  0  0  0  0  0  0  0  0  0
   -1.3962    1.0832   -0.7528 H   0  0  0  0  0  0  0  0  0  0  0  0
   -2.6686    1.5323    0.3894 H   0  0  0  0  0  0  0  0  0  0  0  0
   -0.7282    2.3620    0.8354 C   0  0  0  0  0  0  0  0  0  0  0  0
   -0.9431    2.5382    1.8904 H   0  0  0  0  0  0  0  0  0  0  0  0
    0.3184    2.0770    0.7236 H   0  0  0  0  0  0  0  0  0  0  0  0
   -0.9932    3.6514    0.0463 C   0  0  0  0  0  0  0  0  0  0  0  0
   -0.8013    3.4584   -1.0116 H   0  0  0  0  0  0  0  0  0  0  0  0
   -2.0437    3.9250    0.1699 H   0  0  0  0  0  0  0  0  0  0  0  0
   -0.1359    4.7627    0.5079 N   0  3  0  0  0  0  0  0  0  0  0  0
    0.4684    4.5727    1.2889 H   0  0  0  0  0  0  0  0  0  0  0  0
   -0.0886    5.9795   -0.0081 C   0  0  0  0  0  0  0  0  0  0  0  0
   -0.8292    6.3322   -1.0211 N   0  0  0  0  0  0  0  0  0  0  0  0
   -1.4543    5.6556   -1.4222 H   0  0  0  0  0  0  0  0  0  0  0  0
   -0.7813    7.2599   -1.4004 H   0  0  0  0  0  0  0  0  0  0  0  0
    0.7131    6.8770    0.4910 N   0  0  0  0  0  0  0  0  0  0  0  0
    1.3042    6.6520    1.2726 H   0  0  0  0  0  0  0  0  0  0  0  0
    0.7460    7.7989    0.0965 H   0  0  0  0  0  0  0  0  0  0  0  0
   -0.9523    0.1012    2.4848 C   0  0  0  0  0  0  0  0  0  0  0  0
    0.2133   -0.1319    2.7814 O   0  0  0  0  0  0  0  0  0  0  0  0
   -1.8684    0.5006    3.3725 N   0  0  0  0  0  0  0  0  0  0  0  0
   -2.7946    0.7048    3.0343 H   0  0  0  0  0  0  0  0  0  0  0  0
   -1.5848    0.7472    4.7873 C   0  0  0  0  0  0  0  0  0  0  0  0
   -0.8819    1.5774    4.8838 H   0  0  0  0  0  0  0  0  0  0  0  0
   -2.5030    0.9948    5.3214 H   0  0  0  0  0  0  0  0  0  0  0  0
   -1.1344   -0.1399    5.2381 H   0  0  0  0  0  0  0  0  0  0  0  0
  5  6  2  0  0  0  0
  5  7  1  0  0  0  0
  2  3  1  0  0  0  0
  2  4  1  0  0  0  0
  2  5  1  0  0  0  0
  1  2  1  0  0  0  0
 29 30  2  0  0  0  0
 29 31  1  0  0  0  0
 26 27  1  0  0  0  0
 26 28  1  0  0  0  0
 23 24  1  0  0  0  0
 23 25  1  0  0  0  0
 22 23  1  0  0  0  0
 22 26  1  0  0  0  0
 20 21  1  0  0  0  0
 20 22  2  0  0  0  0
 17 18  1  0  0  0  0
 17 19  1  0  0  0  0
 17 20  1  0  0  0  0
 14 15  1  0  0  0  0
 14 16  1  0  0  0  0
 14 17  1  0  0  0  0
 11 12  1  0  0  0  0
 11 13  1  0  0  0  0
 11 14  1  0  0  0  0
  9 10  1  0  0  0  0
  9 11  1  0  0  0  0
  9 29  1  0  0  0  0
  7  8  1  0  0  0  0
  7  9  1  0  0  0  0
 33 34  1  0  0  0  0
 33 35  1  0  0  0  0
 33 36  1  0  0  0  0
 31 32  1  0  0  0  0
 31 33  1  0  0  0  0
M  CHG  1  20   1
M  END
$$$$
default_name
  -OEChem-02102213163D

 36 35  0     1  0  0  0  0  0999 V2000
   -4.2256   -3.6731    1.8584 H   0  0  0  0  0  0  0  0  0  0  0  0
   -4.2396   -2.6781    1.4144 C   0  0  0  0  0  0  0  0  0  0  0  0
   -4.9506   -2.0521    1.9514 H   0  0  0  0  0  0  0  0  0  0  0  0
   -4.5266   -2.7521    0.3674 H   0  0  0  0  0  0  0  0  0  0  0  0
   -2.8576   -2.0761    1.5184 C   0  0  0  0  0  0  0  0  0  0  0  0
   -1.9456   -2.7051    2.0404 O   0  0  0  0  0  0  0  0  0  0  0  0
   -2.6926   -0.8481    1.0174 N   0  0  0  0  0  0  0  0  0  0  0  0
   -3.4926   -0.3971    0.5954 H   0  0  0  0  0  0  0  0  0  0  0  0
   -1.4216   -0.1071    1.0434 C   0  0  1  0  0  0  0  0  0  0  0  0
   -0.6709   -0.6930    0.5106 H   0  0  0  0  0  0  0  0  0  0  0  0
   -1.6221    1.2315    0.3051 C   0  0  0  0  0  0  0  0  0  0  0  0
   -1.3962    1.0832   -0.7528 H   0  0  0  0  0  0  0  0  0  0  0  0
   -2.6686    1.5323    0.3894 H   0  0  0  0  0  0  0  0  0  0  0  0
   -0.7282    2.3620    0.8354 C   0  0  0  0  0  0  0  0  0  0  0  0
   -0.7432    2.3633    1.9262 H   0  0  0  0  0  0  0  0  0  0  0  0
    0.2941    2.2062    0.4893 H   0  0  0  0  0  0  0  0  0  0  0  0
   -1.2394    3.7158    0.3241 C   0  0  0  0  0  0  0  0  0  0  0  0
   -1.2462    3.6959   -0.7681 H   0  0  0  0  0  0  0  0  0  0  0  0
   -2.2623    3.8583    0.6805 H   0  0  0  0  0  0  0  0  0  0  0  0
   -0.3934    4.8333    0.7913 N   0  3  0  0  0  0  0  0  0  0  0  0
    0.3656    4.5982    1.4077 H   0  0  0  0  0  0  0  0  0  0  0  0
   -0.5400    6.1093    0.4761 C   0  0  0  0  0  0  0  0  0  0  0  0
   -1.4903    6.5233   -0.3144 N   0  0  0  0  0  0  0  0  0  0  0  0
   -2.1299    5.8492   -0.6963 H   0  0  0  0  0  0  0  0  0  0  0  0
   -1.5877    7.4954   -0.5432 H   0  0  0  0  0  0  0  0  0  0  0  0
    0.2750    7.0053    0.9559 N   0  0  0  0  0  0  0  0  0  0  0  0
    1.0239    6.7342    1.5696 H   0  0  0  0  0  0  0  0  0  0  0  0
    0.1604    7.9723    0.7141 H   0  0  0  0  0  0  0  0  0  0  0  0
   -0.9523    0.1012    2.4848 C   0  0  0  0  0  0  0  0  0  0  0  0
    0.2133   -0.1319    2.7814 O   0  0  0  0  0  0  0  0  0  0  0  0
   -1.8684    0.5006    3.3725 N   0  0  0  0  0  0  0  0  0  0  0  0
   -2.7946    0.7048    3.0343 H   0  0  0  0  0  0  0  0  0  0  0  0
   -1.5848    0.7472    4.7873 C   0  0  0  0  0  0  0  0  0  0  0  0
   -0.8819    1.5774    4.8838 H   0  0  0  0  0  0  0  0  0  0  0  0
   -2.5030    0.9948    5.3214 H   0  0  0  0  0  0  0  0  0  0  0  0
   -1.1344   -0.1399    5.2381 H   0  0  0  0  0  0  0  0  0  0  0  0
  5  6  2  0  0  0  0
  5  7  1  0  0  0  0
  2  3  1  0  0  0  0
  2  4  1  0  0  0  0
  2  5  1  0  0  0  0
  1  2  1  0  0  0  0
 29 30  2  0  0  0  0
 29 31  1  0  0  0  0
 26 27  1  0  0  0  0
 26 28  1  0  0  0  0
 23 24  1  0  0  0  0
 23 25  1  0  0  0  0
 22 23  1  0  0  0  0
 22 26  1  0  0  0  0
 20 21  1  0  0  0  0
 20 22  2  0  0  0  0
 17 18  1  0  0  0  0
 17 19  1  0  0  0  0
 17 20  1  0  0  0  0
 14 15  1  0  0  0  0
 14 16  1  0  0  0  0
 14 17  1  0  0  0  0
 11 12  1  0  0  0  0
 11 13  1  0  0  0  0
 11 14  1  0  0  0  0
  9 10  1  0  0  0  0
  9 11  1  0  0  0  0
  9 29  1  0  0  0  0
  7  8  1  0  0  0  0
  7  9  1  0  0  0  0
 33 34  1  0  0  0  0
 33 35  1  0  0  0  0
 33 36  1  0  0  0  0
 31 32  1  0  0  0  0
 31 33  1  0  0  0  0
M  CHG  1  20   1
M  END
$$$$
default_name
  -OEChem-02102213163D

 36 35  0     1  0  0  0  0  0999 V2000
   -4.2256   -3.6731    1.8584 H   0  0  0  0  0  0  0  0  0  0  0  0
   -4.2396   -2.6781    1.4144 C   0  0  0  0  0  0  0  0  0  0  0  0
   -4.9506   -2.0521    1.9514 H   0  0  0  0  0  0  0  0  0  0  0  0
   -4.5266   -2.7521    0.3674 H   0  0  0  0  0  0  0  0  0  0  0  0
   -2.8576   -2.0761    1.5184 C   0  0  0  0  0  0  0  0  0  0  0  0
   -1.9456   -2.7051    2.0404 O   0  0  0  0  0  0  0  0  0  0  0  0
   -2.6926   -0.8481    1.0174 N   0  0  0  0  0  0  0  0  0  0  0  0
   -3.4926   -0.3971    0.5954 H   0  0  0  0  0  0  0  0  0  0  0  0
   -1.4216   -0.1071    1.0434 C   0  0  1  0  0  0  0  0  0  0  0  0
   -0.6709   -0.6930    0.5106 H   0  0  0  0  0  0  0  0  0  0  0  0
   -1.6221    1.2315    0.3051 C   0  0  0  0  0  0  0  0  0  0  0  0
   -1.3962    1.0832   -0.7528 H   0  0  0  0  0  0  0  0  0  0  0  0
   -2.6686    1.5323    0.3894 H   0  0  0  0  0  0  0  0  0  0  0  0
   -0.7282    2.3620    0.8354 C   0  0  0  0  0  0  0  0  0  0  0  0
   -0.5276    2.2069    1.8965 H   0  0  0  0  0  0  0  0  0  0  0  0
    0.2144    2.3640    0.2871 H   0  0  0  0  0  0  0  0  0  0  0  0
   -1.4300    3.7141    0.6490 C   0  0  0  0  0  0  0  0  0  0  0  0
   -1.6508    3.8489   -0.4123 H   0  0  0  0  0  0  0  0  0  0  0  0
   -2.3702    3.6975    1.2053 H   0  0  0  0  0  0  0  0  0  0  0  0
   -0.5945    4.8358    1.1249 N   0  3  0  0  0  0  0  0  0  0  0  0
    0.2867    4.5958    1.5458 H   0  0  0  0  0  0  0  0  0  0  0  0
   -0.8954    6.1214    1.0493 C   0  0  0  0  0  0  0  0  0  0  0  0
   -2.0112    6.5424    0.5230 N   0  0  0  0  0  0  0  0  0  0  0  0
   -2.6614    5.8665    0.1627 H   0  0  0  0  0  0  0  0  0  0  0  0
   -2.2243    7.5217    0.4738 H   0  0  0  0  0  0  0  0  0  0  0  0
   -0.0710    7.0201    1.5077 N   0  0  0  0  0  0  0  0  0  0  0  0
    0.8024    6.7439    1.9223 H   0  0  0  0  0  0  0  0  0  0  0  0
   -0.3031    7.9943    1.4483 H   0  0  0  0  0  0  0  0  0  0  0  0
   -0.9523    0.1012    2.4848 C   0  0  0  0  0  0  0  0  0  0  0  0
    0.2133   -0.1319    2.7814 O   0  0  0  0  0  0  0  0  0  0  0  0
   -1.8684    0.5006    3.3725 N   0  0  0  0  0  0  0  0  0  0  0  0
   -2.7946    0.7048    3.0343 H   0  0  0  0  0  0  0  0  0  0  0  0
   -1.5848    0.7472    4.7873 C   0  0  0  0  0  0  0  0  0  0  0  0
   -0.8819    1.5774    4.8838 H   0  0  0  0  0  0  0  0  0  0  0  0
   -2.5030    0.9948    5.3214 H   0  0  0  0  0  0  0  0  0  0  0  0
   -1.1344   -0.1399    5.2381 H   0  0  0  0  0  0  0  0  0  0  0  0
  5  6  2  0  0  0  0
  5  7  1  0  0  0  0
  2  3  1  0  0  0  0
  2  4  1  0  0  0  0
  2  5  1  0  0  0  0
  1  2  1  0  0  0  0
 29 30  2  0  0  0  0
 29 31  1  0  0  0  0
 26 27  1  0  0  0  0
 26 28  1  0  0  0  0
 23 24  1  0  0  0  0
 23 25  1  0  0  0  0
 22 23  1  0  0  0  0
 22 26  1  0  0  0  0
 20 21  1  0  0  0  0
 20 22  2  0  0  0  0
 17 18  1  0  0  0  0
 17 19  1  0  0  0  0
 17 20  1  0  0  0  0
 14 15  1  0  0  0  0
 14 16  1  0  0  0  0
 14 17  1  0  0  0  0
 11 12  1  0  0  0  0
 11 13  1  0  0  0  0
 11 14  1  0  0  0  0
  9 10  1  0  0  0  0
  9 11  1  0  0  0  0
  9 29  1  0  0  0  0
  7  8  1  0  0  0  0
  7  9  1  0  0  0  0
 33 34  1  0  0  0  0
 33 35  1  0  0  0  0
 33 36  1  0  0  0  0
 31 32  1  0  0  0  0
 31 33  1  0  0  0  0
M  CHG  1  20   1
M  END
$$$$
default_name
  -OEChem-02102213163D

 36 35  0     1  0  0  0  0  0999 V2000
   -4.2256   -3.6731    1.8584 H   0  0  0  0  0  0  0  0  0  0  0  0
   -4.2396   -2.6781    1.4144 C   0  0  0  0  0  0  0  0  0  0  0  0
   -4.9506   -2.0521    1.9514 H   0  0  0  0  0  0  0  0  0  0  0  0
   -4.5266   -2.7521    0.3674 H   0  0  0  0  0  0  0  0  0  0  0  0
   -2.8576   -2.0761    1.5184 C   0  0  0  0  0  0  0  0  0  0  0  0
   -1.9456   -2.7051    2.0404 O   0  0  0  0  0  0  0  0  0  0  0  0
   -2.6926   -0.8481    1.0174 N   0  0  0  0  0  0  0  0  0  0  0  0
   -3.4926   -0.3971    0.5954 H   0  0  0  0  0  0  0  0  0  0  0  0
   -1.4216   -0.1071    1.0434 C   0  0  1  0  0  0  0  0  0  0  0  0
   -0.6709   -0.6930    0.5106 H   0  0  0  0  0  0  0  0  0  0  0  0
   -1.6221    1.2315    0.3051 C   0  0  0  0  0  0  0  0  0  0  0  0
   -1.3962    1.0832   -0.7528 H   0  0  0  0  0  0  0  0  0  0  0  0
   -2.6686    1.5323    0.3894 H   0  0  0  0  0  0  0  0  0  0  0  0
   -0.7282    2.3620    0.8354 C   0  0  0  0  0  0  0  0  0  0  0  0
   -0.3111    2.0795    1.8031 H   0  0  0  0  0  0  0  0  0  0  0  0
    0.0847    2.5399    0.1307 H   0  0  0  0  0  0  0  0  0  0  0  0
   -1.5521    3.6465    0.9989 C   0  0  0  0  0  0  0  0  0  0  0  0
   -1.9875    3.9070    0.0315 H   0  0  0  0  0  0  0  0  0  0  0  0
   -2.3600    3.4534    1.7086 H   0  0  0  0  0  0  0  0  0  0  0  0
   -0.7254    4.7700    1.4857 N   0  3  0  0  0  0  0  0  0  0  0  0
    0.2370    4.5656    1.6940 H   0  0  0  0  0  0  0  0  0  0  0  0
   -1.1305    6.0150    1.6725 C   0  0  0  0  0  0  0  0  0  0  0  0
   -2.3566    6.3881    1.4341 N   0  0  0  0  0  0  0  0  0  0  0  0
   -3.0127    5.7063    1.0963 H   0  0  0  0  0  0  0  0  0  0  0  0
   -2.6478    7.3369    1.5815 H   0  0  0  0  0  0  0  0  0  0  0  0
   -0.3014    6.9203    2.1089 N   0  0  0  0  0  0  0  0  0  0  0  0
    0.6548    6.6804    2.3066 H   0  0  0  0  0  0  0  0  0  0  0  0
   -0.6129    7.8636    2.2491 H   0  0  0  0  0  0  0  0  0  0  0  0
   -0.9523    0.1012    2.4848 C   0  0  0  0  0  0  0  0  0  0  0  0
    0.2133   -0.1319    2.7814 O   0  0  0  0  0  0  0  0  0  0  0  0
   -1.8684    0.5006    3.3725 N   0  0  0  0  0  0  0  0  0  0  0  0
   -2.7946    0.7048    3.0343 H   0  0  0  0  0  0  0  0  0  0  0  0
   -1.5848    0.7472    4.7873 C   0  0  0  0  0  0  0  0  0  0  0  0
   -0.8819    1.5774    4.8838 H   0  0  0  0  0  0  0  0  0  0  0  0
   -2.5030    0.9948    5.3214 H   0  0  0  0  0  0  0  0  0  0  0  0
   -1.1344   -0.1399    5.2381 H   0  0  0  0  0  0  0  0  0  0  0  0
  5  6  2  0  0  0  0
  5  7  1  0  0  0  0
  2  3  1  0  0  0  0
  2  4  1  0  0  0  0
  2  5  1  0  0  0  0
  1  2  1  0  0  0  0
 29 30  2  0  0  0  0
 29 31  1  0  0  0  0
 26 27  1  0  0  0  0
 26 28  1  0  0  0  0
 23 24  1  0  0  0  0
 23 25  1  0  0  0  0
 22 23  1  0  0  0  0
 22 26  1  0  0  0  0
 20 21  1  0  0  0  0
 20 22  2  0  0  0  0
 17 18  1  0  0  0  0
 17 19  1  0  0  0  0
 17 20  1  0  0  0  0
 14 15  1  0  0  0  0
 14 16  1  0  0  0  0
 14 17  1  0  0  0  0
 11 12  1  0  0  0  0
 11 13  1  0  0  0  0
 11 14  1  0  0  0  0
  9 10  1  0  0  0  0
  9 11  1  0  0  0  0
  9 29  1  0  0  0  0
  7  8  1  0  0  0  0
  7  9  1  0  0  0  0
 33 34  1  0  0  0  0
 33 35  1  0  0  0  0
 33 36  1  0  0  0  0
 31 32  1  0  0  0  0
 31 33  1  0  0  0  0
M  CHG  1  20   1
M  END
$$$$
default_name
  -OEChem-02102213163D

 36 35  0     1  0  0  0  0  0999 V2000
   -4.2256   -3.6731    1.8584 H   0  0  0  0  0  0  0  0  0  0  0  0
   -4.2396   -2.6781    1.4144 C   0  0  0  0  0  0  0  0  0  0  0  0
   -4.9506   -2.0521    1.9514 H   0  0  0  0  0  0  0  0  0  0  0  0
   -4.5266   -2.7521    0.3674 H   0  0  0  0  0  0  0  0  0  0  0  0
   -2.8576   -2.0761    1.5184 C   0  0  0  0  0  0  0  0  0  0  0  0
   -1.9456   -2.7051    2.0404 O   0  0  0  0  0  0  0  0  0  0  0  0
   -2.6926   -0.8481    1.0174 N   0  0  0  0  0  0  0  0  0  0  0  0
   -3.4926   -0.3971    0.5954 H   0  0  0  0  0  0  0  0  0  0  0  0
   -1.4216   -0.1071    1.0434 C   0  0  1  0  0  0  0  0  0  0  0  0
   -0.6709   -0.6930    0.5106 H   0  0  0  0  0  0  0  0  0  0  0  0
   -1.6221    1.2315    0.3051 C   0  0  0  0  0  0  0  0  0  0  0  0
   -1.3962    1.0832   -0.7528 H   0  0  0  0  0  0  0  0  0  0  0  0
   -2.6686    1.5323    0.3894 H   0  0  0  0  0  0  0  0  0  0  0  0
   -0.7282    2.3620    0.8354 C   0  0  0  0  0  0  0  0  0  0  0  0
   -0.1084    1.9899    1.6524 H   0  0  0  0  0  0  0  0  0  0  0  0
   -0.0860    2.7217    0.0309 H   0  0  0  0  0  0  0  0  0  0  0  0
   -1.5973    3.5176    1.3500 C   0  0  0  0  0  0  0  0  0  0  0  0
   -2.2333    3.8661    0.5330 H   0  0  0  0  0  0  0  0  0  0  0  0
   -2.2325    3.1427    2.1560 H   0  0  0  0  0  0  0  0  0  0  0  0
   -0.7771    4.6404    1.8493 N   0  3  0  0  0  0  0  0  0  0  0  0
    0.2200    4.5097    1.8419 H   0  0  0  0  0  0  0  0  0  0  0  0
   -1.2294    5.7973    2.3032 C   0  0  0  0  0  0  0  0  0  0  0  0
   -2.5028    6.0709    2.3566 N   0  0  0  0  0  0  0  0  0  0  0  0
   -3.1598    5.3796    2.0408 H   0  0  0  0  0  0  0  0  0  0  0  0
   -2.8293    6.9538    2.7043 H   0  0  0  0  0  0  0  0  0  0  0  0
   -0.4005    6.7127    2.7184 N   0  0  0  0  0  0  0  0  0  0  0  0
    0.5911    6.5479    2.6964 H   0  0  0  0  0  0  0  0  0  0  0  0
   -0.7479    7.5890    3.0619 H   0  0  0  0  0  0  0  0  0  0  0  0
   -0.9523    0.1012    2.4848 C   0  0  0  0  0  0  0  0  0  0  0  0
    0.2133   -0.1319    2.7814 O   0  0  0  0  0  0  0  0  0  0  0  0
   -1.8684    0.5006    3.3725 N   0  0  0  0  0  0  0  0  0  0  0  0
   -2.7946    0.7048    3.0343 H   0  0  0  0  0  0  0  0  0  0  0  0
   -1.5848    0.7472    4.7873 C   0  0  0  0  0  0  0  0  0  0  0  0
   -0.8819    1.5774    4.8838 H   0  0  0  0  0  0  0  0  0  0  0  0
   -2.5030    0.9948    5.3214 H   0  0  0  0  0  0  0  0  0  0  0  0
   -1.1344   -0.1399    5.2381 H   0  0  0  0  0  0  0  0  0  0  0  0
  5  6  2  0  0  0  0
  5  7  1  0  0  0  0
  2  3  1  0  0  0  0
  2  4  1  0  0  0  0
  2  5  1  0  0  0  0
  1  2  1  0  0  0  0
 29 30  2  0  0  0  0
 29 31  1  0  0  0  0
 26 27  1  0  0  0  0
 26 28  1  0  0  0  0
 23 24  1  0  0  0  0
 23 25  1  0  0  0  0
 22 23  1  0  0  0  0
 22 26  1  0  0  0  0
 20 21  1  0  0  0  0
 20 22  2  0  0  0  0
 17 18  1  0  0  0  0
 17 19  1  0  0  0  0
 17 20  1  0  0  0  0
 14 15  1  0  0  0  0
 14 16  1  0  0  0  0
 14 17  1  0  0  0  0
 11 12  1  0  0  0  0
 11 13  1  0  0  0  0
 11 14  1  0  0  0  0
  9 10  1  0  0  0  0
  9 11  1  0  0  0  0
  9 29  1  0  0  0  0
  7  8  1  0  0  0  0
  7  9  1  0  0  0  0
 33 34  1  0  0  0  0
 33 35  1  0  0  0  0
 33 36  1  0  0  0  0
 31 32  1  0  0  0  0
 31 33  1  0  0  0  0
M  CHG  1  20   1
M  END
$$$$
default_name
  -OEChem-02102213163D

 36 35  0     1  0  0  0  0  0999 V2000
   -4.2256   -3.6731    1.8584 H   0  0  0  0  0  0  0  0  0  0  0  0
   -4.2396   -2.6781    1.4144 C   0  0  0  0  0  0  0  0  0  0  0  0
   -4.9506   -2.0521    1.9514 H   0  0  0  0  0  0  0  0  0  0  0  0
   -4.5266   -2.7521    0.3674 H   0  0  0  0  0  0  0  0  0  0  0  0
   -2.8576   -2.0761    1.5184 C   0  0  0  0  0  0  0  0  0  0  0  0
   -1.9456   -2.7051    2.0404 O   0  0  0  0  0  0  0  0  0  0  0  0
   -2.6926   -0.8481    1.0174 N   0  0  0  0  0  0  0  0  0  0  0  0
   -3.4926   -0.3971    0.5954 H   0  0  0  0  0  0  0  0  0  0  0  0
   -1.4216   -0.1071    1.0434 C   0  0  1  0  0  0  0  0  0  0  0  0
   -0.6709   -0.6930    0.5106 H   0  0  0  0  0  0  0  0  0  0  0  0
   -1.6221    1.2315    0.3051 C   0  0  0  0  0  0  0  0  0  0  0  0
   -1.3962    1.0832   -0.7528 H   0  0  0  0  0  0  0  0  0  0  0  0
   -2.6686    1.5323    0.3894 H   0  0  0  0  0  0  0  0  0  0  0  0
   -0.7282    2.3620    0.8354 C   0  0  0  0  0  0  0  0  0  0  0  0
    0.0667    1.9441    1.4548 H   0  0  0  0  0  0  0  0  0  0  0  0
   -0.2861    2.8971   -0.0056 H   0  0  0  0  0  0  0  0  0  0  0  0
   -1.5626    3.3361    1.6783 C   0  0  0  0  0  0  0  0  0  0  0  0
   -2.3716    3.7290    1.0582 H   0  0  0  0  0  0  0  0  0  0  0  0
   -1.9963    2.7866    2.5171 H   0  0  0  0  0  0  0  0  0  0  0  0
   -0.7463    4.4558    2.1908 N   0  3  0  0  0  0  0  0  0  0  0  0
    0.2367    4.4318    1.9797 H   0  0  0  0  0  0  0  0  0  0  0  0
   -1.1853    5.4832    2.8985 C   0  0  0  0  0  0  0  0  0  0  0  0
   -2.4399    5.6126    3.2278 N   0  0  0  0  0  0  0  0  0  0  0  0
   -3.0928    4.9085    2.9321 H   0  0  0  0  0  0  0  0  0  0  0  0
   -2.7565    6.3983    3.7656 H   0  0  0  0  0  0  0  0  0  0  0  0
   -0.3616    6.4115    3.2949 N   0  0  0  0  0  0  0  0  0  0  0  0
    0.6157    6.3555    3.0651 H   0  0  0  0  0  0  0  0  0  0  0  0
   -0.6988    7.1892    3.8315 H   0  0  0  0  0  0  0  0  0  0  0  0
   -0.9523    0.1012    2.4848 C   0  0  0  0  0  0  0  0  0  0  0  0
    0.2133   -0.1319    2.7814 O   0  0  0  0  0  0  0  0  0  0  0  0
   -1.8684    0.5006    3.3725 N   0  0  0  0  0  0  0  0  0  0  0  0
   -2.7946    0.7048    3.0343 H   0  0  0  0  0  0  0  0  0  0  0  0
   -1.5848    0.7472    4.7873 C   0  0  0  0  0  0  0  0  0  0  0  0
   -0.8819    1.5774    4.8838 H   0  0  0  0  0  0  0  0  0  0  0  0
   -2.5030    0.9948    5.3214 H   0  0  0  0  0  0  0  0  0  0  0  0
   -1.1344   -0.1399    5.2381 H   0  0  0  0  0  0  0  0  0  0  0  0
  5  6  2  0  0  0  0
  5  7  1  0  0  0  0
  2  3  1  0  0  0  0
  2  4  1  0  0  0  0
  2  5  1  0  0  0  0
  1  2  1  0  0  0  0
 29 30  2  0  0  0  0
 29 31  1  0  0  0  0
 26 27  1  0  0  0  0
 26 28  1  0  0  0  0
 23 24  1  0  0  0  0
 23 25  1  0  0  0  0
 22 23  1  0  0  0  0
 22 26  1  0  0  0  0
 20 21  1  0  0  0  0
 20 22  2  0  0  0  0
 17 18  1  0  0  0  0
 17 19  1  0  0  0  0
 17 20  1  0  0  0  0
 14 15  1  0  0  0  0
 14 16  1  0  0  0  0
 14 17  1  0  0  0  0
 11 12  1  0  0  0  0
 11 13  1  0  0  0  0
 11 14  1  0  0  0  0
  9 10  1  0  0  0  0
  9 11  1  0  0  0  0
  9 29  1  0  0  0  0
  7  8  1  0  0  0  0
  7  9  1  0  0  0  0
 33 34  1  0  0  0  0
 33 35  1  0  0  0  0
 33 36  1  0  0  0  0
 31 32  1  0  0  0  0
 31 33  1  0  0  0  0
M  CHG  1  20   1
M  END
$$$$
default_name
  -OEChem-02102213163D

 36 35  0     1  0  0  0  0  0999 V2000
   -4.2256   -3.6731    1.8584 H   0  0  0  0  0  0  0  0  0  0  0  0
   -4.2396   -2.6781    1.4144 C   0  0  0  0  0  0  0  0  0  0  0  0
   -4.9506   -2.0521    1.9514 H   0  0  0  0  0  0  0  0  0  0  0  0
   -4.5266   -2.7521    0.3674 H   0  0  0  0  0  0  0  0  0  0  0  0
   -2.8576   -2.0761    1.5184 C   0  0  0  0  0  0  0  0  0  0  0  0
   -1.9456   -2.7051    2.0404 O   0  0  0  0  0  0  0  0  0  0  0  0
   -2.6926   -0.8481    1.0174 N   0  0  0  0  0  0  0  0  0  0  0  0
   -3.4926   -0.3971    0.5954 H   0  0  0  0  0  0  0  0  0  0  0  0
   -1.4216   -0.1071    1.0434 C   0  0  1  0  0  0  0  0  0  0  0  0
   -0.6709   -0.6930    0.5106 H   0  0  0  0  0  0  0  0  0  0  0  0
   -1.6221    1.2315    0.3051 C   0  0  0  0  0  0  0  0  0  0  0  0
   -1.3962    1.0832   -0.7528 H   0  0  0  0  0  0  0  0  0  0  0  0
   -2.6686    1.5323    0.3894 H   0  0  0  0  0  0  0  0  0  0  0  0
   -0.7282    2.3620    0.8354 C   0  0  0  0  0  0  0  0  0  0  0  0
    0.2023    1.9454    1.2236 H   0  0  0  0  0  0  0  0  0  0  0  0
   -0.5021    3.0541    0.0236 H   0  0  0  0  0  0  0  0  0  0  0  0
   -1.4503    3.1145    1.9614 C   0  0  0  0  0  0  0  0  0  0  0  0
   -2.3928    3.5052    1.5712 H   0  0  0  0  0  0  0  0  0  0  0  0
   -1.6676    2.4093    2.7672 H   0  0  0  0  0  0  0  0  0  0  0  0
   -0.6349    4.2288    2.4870 N   0  3  0  0  0  0  0  0  0  0  0  0
    0.2860    4.3374    2.0979 H   0  0  0  0  0  0  0  0  0  0  0  0
   -1.0011    5.0940    3.4178 C   0  0  0  0  0  0  0  0  0  0  0  0
   -2.1722    5.0442    3.9883 N   0  0  0  0  0  0  0  0  0  0  0  0
   -2.8161    4.3252    3.7092 H   0  0  0  0  0  0  0  0  0  0  0  0
   -2.4342    5.7084    4.6933 H   0  0  0  0  0  0  0  0  0  0  0  0
   -0.1872    6.0372    3.7988 N   0  0  0  0  0  0  0  0  0  0  0  0
    0.7269    6.1163    3.3875 H   0  0  0  0  0  0  0  0  0  0  0  0
   -0.4691    6.6916    4.5052 H   0  0  0  0  0  0  0  0  0  0  0  0
   -0.9523    0.1012    2.4848 C   0  0  0  0  0  0  0  0  0  0  0  0
    0.2133   -0.1319    2.7814 O   0  0  0  0  0  0  0  0  0  0  0  0
   -1.8684    0.5006    3.3725 N   0  0  0  0  0  0  0  0  0  0  0  0
   -2.7946    0.7048    3.0343 H   0  0  0  0  0  0  0  0  0  0  0  0
   -1.5848    0.7472    4.7873 C   0  0  0  0  0  0  0  0  0  0  0  0
   -0.8819    1.5774    4.8838 H   0  0  0  0  0  0  0  0  0  0  0  0
   -2.5030    0.9948    5.3214 H   0  0  0  0  0  0  0  0  0  0  0  0
   -1.1344   -0.1399    5.2381 H   0  0  0  0  0  0  0  0  0  0  0  0
  5  6  2  0  0  0  0
  5  7  1  0  0  0  0
  2  3  1  0  0  0  0
  2  4  1  0  0  0  0
  2  5  1  0  0  0  0
  1  2  1  0  0  0  0
 29 30  2  0  0  0  0
 29 31  1  0  0  0  0
 26 27  1  0  0  0  0
 26 28  1  0  0  0  0
 23 24  1  0  0  0  0
 23 25  1  0  0  0  0
 22 23  1  0  0  0  0
 22 26  1  0  0  0  0
 20 21  1  0  0  0  0
 20 22  2  0  0  0  0
 17 18  1  0  0  0  0
 17 19  1  0  0  0  0
 17 20  1  0  0  0  0
 14 15  1  0  0  0  0
 14 16  1  0  0  0  0
 14 17  1  0  0  0  0
 11 12  1  0  0  0  0
 11 13  1  0  0  0  0
 11 14  1  0  0  0  0
  9 10  1  0  0  0  0
  9 11  1  0  0  0  0
  9 29  1  0  0  0  0
  7  8  1  0  0  0  0
  7  9  1  0  0  0  0
 33 34  1  0  0  0  0
 33 35  1  0  0  0  0
 33 36  1  0  0  0  0
 31 32  1  0  0  0  0
 31 33  1  0  0  0  0
M  CHG  1  20   1
M  END
$$$$
default_name
  -OEChem-02102213163D

 36 35  0     1  0  0  0  0  0999 V2000
   -4.2256   -3.6731    1.8584 H   0  0  0  0  0  0  0  0  0  0  0  0
   -4.2396   -2.6781    1.4144 C   0  0  0  0  0  0  0  0  0  0  0  0
   -4.9506   -2.0521    1.9514 H   0  0  0  0  0  0  0  0  0  0  0  0
   -4.5266   -2.7521    0.3674 H   0  0  0  0  0  0  0  0  0  0  0  0
   -2.8576   -2.0761    1.5184 C   0  0  0  0  0  0  0  0  0  0  0  0
   -1.9456   -2.7051    2.0404 O   0  0  0  0  0  0  0  0  0  0  0  0
   -2.6926   -0.8481    1.0174 N   0  0  0  0  0  0  0  0  0  0  0  0
   -3.4926   -0.3971    0.5954 H   0  0  0  0  0  0  0  0  0  0  0  0
   -1.4216   -0.1071    1.0434 C   0  0  1  0  0  0  0  0  0  0  0  0
   -0.6709   -0.6930    0.5106 H   0  0  0  0  0  0  0  0  0  0  0  0
   -1.6221    1.2315    0.3051 C   0  0  0  0  0  0  0  0  0  0  0  0
   -1.3962    1.0832   -0.7528 H   0  0  0  0  0  0  0  0  0  0  0  0
   -2.6686    1.5323    0.3894 H   0  0  0  0  0  0  0  0  0  0  0  0
   -0.7282    2.3620    0.8354 C   0  0  0  0  0  0  0  0  0  0  0  0
    0.2891    1.9935    0.9746 H   0  0  0  0  0  0  0  0  0  0  0  0
   -0.7192    3.1821    0.1167 H   0  0  0  0  0  0  0  0  0  0  0  0
   -1.2680    2.8678    2.1802 C   0  0  0  0  0  0  0  0  0  0  0  0
   -2.2956    3.2098    2.0370 H   0  0  0  0  0  0  0  0  0  0  0  0
   -1.2687    2.0366    2.8893 H   0  0  0  0  0  0  0  0  0  0  0  0
   -0.4506    3.9748    2.7177 N   0  3  0  0  0  0  0  0  0  0  0  0
    0.3647    4.2328    2.1884 H   0  0  0  0  0  0  0  0  0  0  0  0
   -0.6896    4.6564    3.8256 C   0  0  0  0  0  0  0  0  0  0  0  0
   -1.7179    4.4045    4.5862 N   0  0  0  0  0  0  0  0  0  0  0  0
   -2.3486    3.6694    4.3192 H   0  0  0  0  0  0  0  0  0  0  0  0
   -1.8845    4.9310    5.4240 H   0  0  0  0  0  0  0  0  0  0  0  0
    0.1107    5.6153    4.1960 N   0  0  0  0  0  0  0  0  0  0  0  0
    0.9171    5.8467    3.6418 H   0  0  0  0  0  0  0  0  0  0  0  0
   -0.0743    6.1299    5.0372 H   0  0  0  0  0  0  0  0  0  0  0  0
   -0.9523    0.1012    2.4848 C   0  0  0  0  0  0  0  0  0  0  0  0
    0.2133   -0.1319    2.7814 O   0  0  0  0  0  0  0  0  0  0  0  0
   -1.8684    0.5006    3.3725 N   0  0  0  0  0  0  0  0  0  0  0  0
   -2.7946    0.7048    3.0343 H   0  0  0  0  0  0  0  0  0  0  0  0
   -1.5848    0.7472    4.7873 C   0  0  0  0  0  0  0  0  0  0  0  0
   -0.8819    1.5774    4.8838 H   0  0  0  0  0  0  0  0  0  0  0  0
   -2.5030    0.9948    5.3214 H   0  0  0  0  0  0  0  0  0  0  0  0
   -1.1344   -0.1399    5.2381 H   0  0  0  0  0  0  0  0  0  0  0  0
  5  6  2  0  0  0  0
  5  7  1  0  0  0  0
  2  3  1  0  0  0  0
  2  4  1  0  0  0  0
  2  5  1  0  0  0  0
  1  2  1  0  0  0  0
 29 30  2  0  0  0  0
 29 31  1  0  0  0  0
 26 27  1  0  0  0  0
 26 28  1  0  0  0  0
 23 24  1  0  0  0  0
 23 25  1  0  0  0  0
 22 23  1  0  0  0  0
 22 26  1  0  0  0  0
 20 21  1  0  0  0  0
 20 22  2  0  0  0  0
 17 18  1  0  0  0  0
 17 19  1  0  0  0  0
 17 20  1  0  0  0  0
 14 15  1  0  0  0  0
 14 16  1  0  0  0  0
 14 17  1  0  0  0  0
 11 12  1  0  0  0  0
 11 13  1  0  0  0  0
 11 14  1  0  0  0  0
  9 10  1  0  0  0  0
  9 11  1  0  0  0  0
  9 29  1  0  0  0  0
  7  8  1  0  0  0  0
  7  9  1  0  0  0  0
 33 34  1  0  0  0  0
 33 35  1  0  0  0  0
 33 36  1  0  0  0  0
 31 32  1  0  0  0  0
 31 33  1  0  0  0  0
M  CHG  1  20   1
M  END
$$$$
default_name
  -OEChem-02102213163D

 36 35  0     1  0  0  0  0  0999 V2000
   -4.2256   -3.6731    1.8584 H   0  0  0  0  0  0  0  0  0  0  0  0
   -4.2396   -2.6781    1.4144 C   0  0  0  0  0  0  0  0  0  0  0  0
   -4.9506   -2.0521    1.9514 H   0  0  0  0  0  0  0  0  0  0  0  0
   -4.5266   -2.7521    0.3674 H   0  0  0  0  0  0  0  0  0  0  0  0
   -2.8576   -2.0761    1.5184 C   0  0  0  0  0  0  0  0  0  0  0  0
   -1.9456   -2.7051    2.0404 O   0  0  0  0  0  0  0  0  0  0  0  0
   -2.6926   -0.8481    1.0174 N   0  0  0  0  0  0  0  0  0  0  0  0
   -3.4926   -0.3971    0.5954 H   0  0  0  0  0  0  0  0  0  0  0  0
   -1.4216   -0.1071    1.0434 C   0  0  1  0  0  0  0  0  0  0  0  0
   -0.6709   -0.6930    0.5106 H   0  0  0  0  0  0  0  0  0  0  0  0
   -1.6221    1.2315    0.3051 C   0  0  0  0  0  0  0  0  0  0  0  0
   -1.3962    1.0832   -0.7528 H   0  0  0  0  0  0  0  0  0  0  0  0
   -2.6686    1.5323    0.3894 H   0  0  0  0  0  0  0  0  0  0  0  0
   -0.7282    2.3620    0.8354 C   0  0  0  0  0  0  0  0  0  0  0  0
    0.3212    2.0853    0.7249 H   0  0  0  0  0  0  0  0  0  0  0  0
   -0.9226    3.2722    0.2673 H   0  0  0  0  0  0  0  0  0  0  0  0
   -1.0282    2.6128    2.3195 C   0  0  0  0  0  0  0  0  0  0  0  0
   -2.0865    2.8630    2.4239 H   0  0  0  0  0  0  0  0  0  0  0  0
   -0.8268    1.6939    2.8751 H   0  0  0  0  0  0  0  0  0  0  0  0
   -0.2059    3.7113    2.8672 N   0  3  0  0  0  0  0  0  0  0  0  0
    0.4672    4.1251    2.2451 H   0  0  0  0  0  0  0  0  0  0  0  0
   -0.2718    4.2000    4.0943 C   0  0  0  0  0  0  0  0  0  0  0  0
   -1.1080    3.7372    4.9808 N   0  0  0  0  0  0  0  0  0  0  0  0
   -1.7222    2.9859    4.7206 H   0  0  0  0  0  0  0  0  0  0  0  0
   -1.1449    4.1191    5.9079 H   0  0  0  0  0  0  0  0  0  0  0  0
    0.5119    5.1746    4.4594 N   0  0  0  0  0  0  0  0  0  0  0  0
    1.1734    5.5649    3.8105 H   0  0  0  0  0  0  0  0  0  0  0  0
    0.4586    5.5425    5.3912 H   0  0  0  0  0  0  0  0  0  0  0  0
   -0.9523    0.1012    2.4848 C   0  0  0  0  0  0  0  0  0  0  0  0
    0.2133   -0.1319    2.7814 O   0  0  0  0  0  0  0  0  0  0  0  0
   -1.8684    0.5006    3.3725 N   0  0  0  0  0  0  0  0  0  0  0  0
   -2.7946    0.7048    3.0343 H   0  0  0  0  0  0  0  0  0  0  0  0
   -1.5848    0.7472    4.7873 C   0  0  0  0  0  0  0  0  0  0  0  0
   -0.8819    1.5774    4.8838 H   0  0  0  0  0  0  0  0  0  0  0  0
   -2.5030    0.9948    5.3214 H   0  0  0  0  0  0  0  0  0  0  0  0
   -1.1344   -0.1399    5.2381 H   0  0  0  0  0  0  0  0  0  0  0  0
  5  6  2  0  0  0  0
  5  7  1  0  0  0  0
  2  3  1  0  0  0  0
  2  4  1  0  0  0  0
  2  5  1  0  0  0  0
  1  2  1  0  0  0  0
 29 30  2  0  0  0  0
 29 31  1  0  0  0  0
 26 27  1  0  0  0  0
 26 28  1  0  0  0  0
 23 24  1  0  0  0  0
 23 25  1  0  0  0  0
 22 23  1  0  0  0  0
 22 26  1  0  0  0  0
 20 21  1  0  0  0  0
 20 22  2  0  0  0  0
 17 18  1  0  0  0  0
 17 19  1  0  0  0  0
 17 20  1  0  0  0  0
 14 15  1  0  0  0  0
 14 16  1  0  0  0  0
 14 17  1  0  0  0  0
 11 12  1  0  0  0  0
 11 13  1  0  0  0  0
 11 14  1  0  0  0  0
  9 10  1  0  0  0  0
  9 11  1  0  0  0  0
  9 29  1  0  0  0  0
  7  8  1  0  0  0  0
  7  9  1  0  0  0  0
 33 34  1  0  0  0  0
 33 35  1  0  0  0  0
 33 36  1  0  0  0  0
 31 32  1  0  0  0  0
 31 33  1  0  0  0  0
M  CHG  1  20   1
M  END
$$$$
default_name
  -OEChem-02102213163D

 36 35  0     1  0  0  0  0  0999 V2000
   -4.2256   -3.6731    1.8584 H   0  0  0  0  0  0  0  0  0  0  0  0
   -4.2396   -2.6781    1.4144 C   0  0  0  0  0  0  0  0  0  0  0  0
   -4.9506   -2.0521    1.9514 H   0  0  0  0  0  0  0  0  0  0  0  0
   -4.5266   -2.7521    0.3674 H   0  0  0  0  0  0  0  0  0  0  0  0
   -2.8576   -2.0761    1.5184 C   0  0  0  0  0  0  0  0  0  0  0  0
   -1.9456   -2.7051    2.0404 O   0  0  0  0  0  0  0  0  0  0  0  0
   -2.6926   -0.8481    1.0174 N   0  0  0  0  0  0  0  0  0  0  0  0
   -3.4926   -0.3971    0.5954 H   0  0  0  0  0  0  0  0  0  0  0  0
   -1.4216   -0.1071    1.0434 C   0  0  1  0  0  0  0  0  0  0  0  0
   -0.6709   -0.6930    0.5106 H   0  0  0  0  0  0  0  0  0  0  0  0
   -1.6221    1.2315    0.3051 C   0  0  0  0  0  0  0  0  0  0  0  0
   -1.3962    1.0832   -0.7528 H   0  0  0  0  0  0  0  0  0  0  0  0
   -2.6686    1.5323    0.3894 H   0  0  0  0  0  0  0  0  0  0  0  0
   -0.7282    2.3620    0.8354 C   0  0  0  0  0  0  0  0  0  0  0  0
    0.2964    2.2144    0.4914 H   0  0  0  0  0  0  0  0  0  0  0  0
   -1.0984    3.3185    0.4651 H   0  0  0  0  0  0  0  0  0  0  0  0
   -0.7473    2.3670    2.3701 C   0  0  0  0  0  0  0  0  0  0  0  0
   -1.7798    2.4884    2.7055 H   0  0  0  0  0  0  0  0  0  0  0  0
   -0.3720    1.4045    2.7256 H   0  0  0  0  0  0  0  0  0  0  0  0
    0.0825    3.4560    2.9252 N   0  3  0  0  0  0  0  0  0  0  0  0
    0.5867    4.0217    2.2641 H   0  0  0  0  0  0  0  0  0  0  0  0
    0.2237    3.7560    4.2055 C   0  0  0  0  0  0  0  0  0  0  0  0
   -0.3840    3.0876    5.1452 N   0  0  0  0  0  0  0  0  0  0  0  0
   -0.9796    2.3212    4.8860 H   0  0  0  0  0  0  0  0  0  0  0  0
   -0.2656    3.3282    6.1122 H   0  0  0  0  0  0  0  0  0  0  0  0
    0.9889    4.7451    4.5709 N   0  0  0  0  0  0  0  0  0  0  0  0
    1.4783    5.2902    3.8821 H   0  0  0  0  0  0  0  0  0  0  0  0
    1.0933    4.9694    5.5432 H   0  0  0  0  0  0  0  0  0  0  0  0
   -0.9523    0.1012    2.4848 C   0  0  0  0  0  0  0  0  0  0  0  0
    0.2133   -0.1319    2.7814 O   0  0  0  0  0  0  0  0  0  0  0  0
   -1.8684    0.5006    3.3725 N   0  0  0  0  0  0  0  0  0  0  0  0
   -2.7946    0.7048    3.0343 H   0  0  0  0  0  0  0  0  0  0  0  0
   -1.5848    0.7472    4.7873 C   0  0  0  0  0  0  0  0  0  0  0  0
   -0.8819    1.5774    4.8838 H   0  0  0  0  0  0  0  0  0  0  0  0
   -2.5030    0.9948    5.3214 H   0  0  0  0  0  0  0  0  0  0  0  0
   -1.1344   -0.1399    5.2381 H   0  0  0  0  0  0  0  0  0  0  0  0
  5  6  2  0  0  0  0
  5  7  1  0  0  0  0
  2  3  1  0  0  0  0
  2  4  1  0  0  0  0
  2  5  1  0  0  0  0
  1  2  1  0  0  0  0
 29 30  2  0  0  0  0
 29 31  1  0  0  0  0
 26 27  1  0  0  0  0
 26 28  1  0  0  0  0
 23 24  1  0  0  0  0
 23 25  1  0  0  0  0
 22 23  1  0  0  0  0
 22 26  1  0  0  0  0
 20 21  1  0  0  0  0
 20 22  2  0  0  0  0
 17 18  1  0  0  0  0
 17 19  1  0  0  0  0
 17 20  1  0  0  0  0
 14 15  1  0  0  0  0
 14 16  1  0  0  0  0
 14 17  1  0  0  0  0
 11 12  1  0  0  0  0
 11 13  1  0  0  0  0
 11 14  1  0  0  0  0
  9 10  1  0  0  0  0
  9 11  1  0  0  0  0
  9 29  1  0  0  0  0
  7  8  1  0  0  0  0
  7  9  1  0  0  0  0
 33 34  1  0  0  0  0
 33 35  1  0  0  0  0
 33 36  1  0  0  0  0
 31 32  1  0  0  0  0
 31 33  1  0  0  0  0
M  CHG  1  20   1
M  END
$$$$
default_name
  -OEChem-02102213163D

 36 35  0     1  0  0  0  0  0999 V2000
   -4.2256   -3.6731    1.8584 H   0  0  0  0  0  0  0  0  0  0  0  0
   -4.2396   -2.6781    1.4144 C   0  0  0  0  0  0  0  0  0  0  0  0
   -4.9506   -2.0521    1.9514 H   0  0  0  0  0  0  0  0  0  0  0  0
   -4.5266   -2.7521    0.3674 H   0  0  0  0  0  0  0  0  0  0  0  0
   -2.8576   -2.0761    1.5184 C   0  0  0  0  0  0  0  0  0  0  0  0
   -1.9456   -2.7051    2.0404 O   0  0  0  0  0  0  0  0  0  0  0  0
   -2.6926   -0.8481    1.0174 N   0  0  0  0  0  0  0  0  0  0  0  0
   -3.4926   -0.3971    0.5954 H   0  0  0  0  0  0  0  0  0  0  0  0
   -1.4216   -0.1071    1.0434 C   0  0  1  0  0  0  0  0  0  0  0  0
   -0.6709   -0.6930    0.5106 H   0  0  0  0  0  0  0  0  0  0  0  0
   -1.6221    1.2315    0.3051 C   0  0  0  0  0  0  0  0  0  0  0  0
   -1.3962    1.0832   -0.7528 H   0  0  0  0  0  0  0  0  0  0  0  0
   -2.6686    1.5323    0.3894 H   0  0  0  0  0  0  0  0  0  0  0  0
   -0.7282    2.3620    0.8354 C   0  0  0  0  0  0  0  0  0  0  0  0
    0.2165    2.3721    0.2900 H   0  0  0  0  0  0  0  0  0  0  0  0
   -1.2347    3.3177    0.6966 H   0  0  0  0  0  0  0  0  0  0  0  0
   -0.4443    2.1470    2.3283 C   0  0  0  0  0  0  0  0  0  0  0  0
   -1.3965    2.1116    2.8627 H   0  0  0  0  0  0  0  0  0  0  0  0
    0.0647    1.1881    2.4509 H   0  0  0  0  0  0  0  0  0  0  0  0
    0.3949    3.2265    2.8879 N   0  3  0  0  0  0  0  0  0  0  0  0
    0.7149    3.9297    2.2441 H   0  0  0  0  0  0  0  0  0  0  0  0
    0.7633    3.3548    4.1516 C   0  0  0  0  0  0  0  0  0  0  0  0
    0.4047    2.5002    5.0683 N   0  0  0  0  0  0  0  0  0  0  0  0
   -0.1714    1.7206    4.8041 H   0  0  0  0  0  0  0  0  0  0  0  0
    0.6932    2.6120    6.0228 H   0  0  0  0  0  0  0  0  0  0  0  0
    1.5094    4.3561    4.5230 N   0  0  0  0  0  0  0  0  0  0  0  0
    1.8110    5.0414    3.8519 H   0  0  0  0  0  0  0  0  0  0  0  0
    1.7865    4.4496    5.4827 H   0  0  0  0  0  0  0  0  0  0  0  0
   -0.9523    0.1012    2.4848 C   0  0  0  0  0  0  0  0  0  0  0  0
    0.2133   -0.1319    2.7814 O   0  0  0  0  0  0  0  0  0  0  0  0
   -1.8684    0.5006    3.3725 N   0  0  0  0  0  0  0  0  0  0  0  0
   -2.7946    0.7048    3.0343 H   0  0  0  0  0  0  0  0  0  0  0  0
   -1.5848    0.7472    4.7873 C   0  0  0  0  0  0  0  0  0  0  0  0
   -0.8819    1.5774    4.8838 H   0  0  0  0  0  0  0  0  0  0  0  0
   -2.5030    0.9948    5.3214 H   0  0  0  0  0  0  0  0  0  0  0  0
   -1.1344   -0.1399    5.2381 H   0  0  0  0  0  0  0  0  0  0  0  0
  5  6  2  0  0  0  0
  5  7  1  0  0  0  0
  2  3  1  0  0  0  0
  2  4  1  0  0  0  0
  2  5  1  0  0  0  0
  1  2  1  0  0  0  0
 29 30  2  0  0  0  0
 29 31  1  0  0  0  0
 26 27  1  0  0  0  0
 26 28  1  0  0  0  0
 23 24  1  0  0  0  0
 23 25  1  0  0  0  0
 22 23  1  0  0  0  0
 22 26  1  0  0  0  0
 20 21  1  0  0  0  0
 20 22  2  0  0  0  0
 17 18  1  0  0  0  0
 17 19  1  0  0  0  0
 17 20  1  0  0  0  0
 14 15  1  0  0  0  0
 14 16  1  0  0  0  0
 14 17  1  0  0  0  0
 11 12  1  0  0  0  0
 11 13  1  0  0  0  0
 11 14  1  0  0  0  0
  9 10  1  0  0  0  0
  9 11  1  0  0  0  0
  9 29  1  0  0  0  0
  7  8  1  0  0  0  0
  7  9  1  0  0  0  0
 33 34  1  0  0  0  0
 33 35  1  0  0  0  0
 33 36  1  0  0  0  0
 31 32  1  0  0  0  0
 31 33  1  0  0  0  0
M  CHG  1  20   1
M  END
$$$$
default_name
  -OEChem-02102213163D

 36 35  0     1  0  0  0  0  0999 V2000
   -4.2256   -3.6731    1.8584 H   0  0  0  0  0  0  0  0  0  0  0  0
   -4.2396   -2.6781    1.4144 C   0  0  0  0  0  0  0  0  0  0  0  0
   -4.9506   -2.0521    1.9514 H   0  0  0  0  0  0  0  0  0  0  0  0
   -4.5266   -2.7521    0.3674 H   0  0  0  0  0  0  0  0  0  0  0  0
   -2.8576   -2.0761    1.5184 C   0  0  0  0  0  0  0  0  0  0  0  0
   -1.9456   -2.7051    2.0404 O   0  0  0  0  0  0  0  0  0  0  0  0
   -2.6926   -0.8481    1.0174 N   0  0  0  0  0  0  0  0  0  0  0  0
   -3.4926   -0.3971    0.5954 H   0  0  0  0  0  0  0  0  0  0  0  0
   -1.4216   -0.1071    1.0434 C   0  0  1  0  0  0  0  0  0  0  0  0
   -0.6709   -0.6930    0.5106 H   0  0  0  0  0  0  0  0  0  0  0  0
   -1.6221    1.2315    0.3051 C   0  0  0  0  0  0  0  0  0  0  0  0
   -1.3962    1.0832   -0.7528 H   0  0  0  0  0  0  0  0  0  0  0  0
   -2.6686    1.5323    0.3894 H   0  0  0  0  0  0  0  0  0  0  0  0
   -0.7282    2.3620    0.8354 C   0  0  0  0  0  0  0  0  0  0  0  0
    0.0868    2.5476    0.1344 H   0  0  0  0  0  0  0  0  0  0  0  0
   -1.3222    3.2698    0.9460 H   0  0  0  0  0  0  0  0  0  0  0  0
   -0.1400    1.9679    2.1971 C   0  0  0  0  0  0  0  0  0  0  0  0
   -0.9625    1.7581    2.8847 H   0  0  0  0  0  0  0  0  0  0  0  0
    0.4535    1.0595    2.0697 H   0  0  0  0  0  0  0  0  0  0  0  0
    0.7101    3.0384    2.7577 N   0  3  0  0  0  0  0  0  0  0  0  0
    0.8432    3.8553    2.1865 H   0  0  0  0  0  0  0  0  0  0  0  0
    1.3100    3.0235    3.9363 C   0  0  0  0  0  0  0  0  0  0  0  0
    1.2043    2.0148    4.7552 N   0  0  0  0  0  0  0  0  0  0  0  0
    0.6474    1.2250    4.4805 H   0  0  0  0  0  0  0  0  0  0  0  0
    1.6664    2.0193    5.6458 H   0  0  0  0  0  0  0  0  0  0  0  0
    2.0377    4.0340    4.3190 N   0  0  0  0  0  0  0  0  0  0  0  0
    2.1488    4.8353    3.7218 H   0  0  0  0  0  0  0  0  0  0  0  0
    2.4910    4.0187    5.2139 H   0  0  0  0  0  0  0  0  0  0  0  0
   -0.9523    0.1012    2.4848 C   0  0  0  0  0  0  0  0  0  0  0  0
    0.2133   -0.1319    2.7814 O   0  0  0  0  0  0  0  0  0  0  0  0
   -1.8684    0.5006    3.3725 N   0  0  0  0  0  0  0  0  0  0  0  0
   -2.7946    0.7048    3.0343 H   0  0  0  0  0  0  0  0  0  0  0  0
   -1.5848    0.7472    4.7873 C   0  0  0  0  0  0  0  0  0  0  0  0
   -0.8819    1.5774    4.8838 H   0  0  0  0  0  0  0  0  0  0  0  0
   -2.5030    0.9948    5.3214 H   0  0  0  0  0  0  0  0  0  0  0  0
   -1.1344   -0.1399    5.2381 H   0  0  0  0  0  0  0  0  0  0  0  0
  5  6  2  0  0  0  0
  5  7  1  0  0  0  0
  2  3  1  0  0  0  0
  2  4  1  0  0  0  0
  2  5  1  0  0  0  0
  1  2  1  0  0  0  0
 29 30  2  0  0  0  0
 29 31  1  0  0  0  0
 26 27  1  0  0  0  0
 26 28  1  0  0  0  0
 23 24  1  0  0  0  0
 23 25  1  0  0  0  0
 22 23  1  0  0  0  0
 22 26  1  0  0  0  0
 20 21  1  0  0  0  0
 20 22  2  0  0  0  0
 17 18  1  0  0  0  0
 17 19  1  0  0  0  0
 17 20  1  0  0  0  0
 14 15  1  0  0  0  0
 14 16  1  0  0  0  0
 14 17  1  0  0  0  0
 11 12  1  0  0  0  0
 11 13  1  0  0  0  0
 11 14  1  0  0  0  0
  9 10  1  0  0  0  0
  9 11  1  0  0  0  0
  9 29  1  0  0  0  0
  7  8  1  0  0  0  0
  7  9  1  0  0  0  0
 33 34  1  0  0  0  0
 33 35  1  0  0  0  0
 33 36  1  0  0  0  0
 31 32  1  0  0  0  0
 31 33  1  0  0  0  0
M  CHG  1  20   1
M  END
$$$$
default_name
  -OEChem-02102213163D

 36 35  0     1  0  0  0  0  0999 V2000
   -4.2256   -3.6731    1.8584 H   0  0  0  0  0  0  0  0  0  0  0  0
   -4.2396   -2.6781    1.4144 C   0  0  0  0  0  0  0  0  0  0  0  0
   -4.9506   -2.0521    1.9514 H   0  0  0  0  0  0  0  0  0  0  0  0
   -4.5266   -2.7521    0.3674 H   0  0  0  0  0  0  0  0  0  0  0  0
   -2.8576   -2.0761    1.5184 C   0  0  0  0  0  0  0  0  0  0  0  0
   -1.9456   -2.7051    2.0404 O   0  0  0  0  0  0  0  0  0  0  0  0
   -2.6926   -0.8481    1.0174 N   0  0  0  0  0  0  0  0  0  0  0  0
   -3.4926   -0.3971    0.5954 H   0  0  0  0  0  0  0  0  0  0  0  0
   -1.4216   -0.1071    1.0434 C   0  0  1  0  0  0  0  0  0  0  0  0
   -0.6709   -0.6930    0.5106 H   0  0  0  0  0  0  0  0  0  0  0  0
   -1.6221    1.2315    0.3051 C   0  0  0  0  0  0  0  0  0  0  0  0
   -1.3962    1.0832   -0.7528 H   0  0  0  0  0  0  0  0  0  0  0  0
   -2.6686    1.5323    0.3894 H   0  0  0  0  0  0  0  0  0  0  0  0
   -0.7282    2.3620    0.8354 C   0  0  0  0  0  0  0  0  0  0  0  0
   -0.0839    2.7290    0.0353 H   0  0  0  0  0  0  0  0  0  0  0  0
   -1.3548    3.1782    1.1964 H   0  0  0  0  0  0  0  0  0  0  0  0
    0.1450    1.8419    1.9854 C   0  0  0  0  0  0  0  0  0  0  0  0
   -0.5076    1.4522    2.7701 H   0  0  0  0  0  0  0  0  0  0  0  0
    0.7679    1.0274    1.6081 H   0  0  0  0  0  0  0  0  0  0  0  0
    1.0065    2.9045    2.5436 N   0  3  0  0  0  0  0  0  0  0  0  0
    0.9628    3.8035    2.0952 H   0  0  0  0  0  0  0  0  0  0  0  0
    1.8266    2.7848    3.5742 C   0  0  0  0  0  0  0  0  0  0  0  0
    1.9604    1.6646    4.2272 N   0  0  0  0  0  0  0  0  0  0  0  0
    1.4209    0.8682    3.9373 H   0  0  0  0  0  0  0  0  0  0  0  0
    2.5876    1.5907    5.0070 H   0  0  0  0  0  0  0  0  0  0  0  0
    2.5380    3.8009    3.9728 N   0  0  0  0  0  0  0  0  0  0  0  0
    2.4688    4.6860    3.5007 H   0  0  0  0  0  0  0  0  0  0  0  0
    3.1589    3.7059    4.7551 H   0  0  0  0  0  0  0  0  0  0  0  0
   -0.9523    0.1012    2.4848 C   0  0  0  0  0  0  0  0  0  0  0  0
    0.2133   -0.1319    2.7814 O   0  0  0  0  0  0  0  0  0  0  0  0
   -1.8684    0.5006    3.3725 N   0  0  0  0  0  0  0  0  0  0  0  0
   -2.7946    0.7048    3.0343 H   0  0  0  0  0  0  0  0  0  0  0  0
   -1.5848    0.7472    4.7873 C   0  0  0  0  0  0  0  0  0  0  0  0
   -0.8819    1.5774    4.8838 H   0  0  0  0  0  0  0  0  0  0  0  0
   -2.5030    0.9948    5.3214 H   0  0  0  0  0  0  0  0  0  0  0  0
   -1.1344   -0.1399    5.2381 H   0  0  0  0  0  0  0  0  0  0  0  0
  5  6  2  0  0  0  0
  5  7  1  0  0  0  0
  2  3  1  0  0  0  0
  2  4  1  0  0  0  0
  2  5  1  0  0  0  0
  1  2  1  0  0  0  0
 29 30  2  0  0  0  0
 29 31  1  0  0  0  0
 26 27  1  0  0  0  0
 26 28  1  0  0  0  0
 23 24  1  0  0  0  0
 23 25  1  0  0  0  0
 22 23  1  0  0  0  0
 22 26  1  0  0  0  0
 20 21  1  0  0  0  0
 20 22  2  0  0  0  0
 17 18  1  0  0  0  0
 17 19  1  0  0  0  0
 17 20  1  0  0  0  0
 14 15  1  0  0  0  0
 14 16  1  0  0  0  0
 14 17  1  0  0  0  0
 11 12  1  0  0  0  0
 11 13  1  0  0  0  0
 11 14  1  0  0  0  0
  9 10  1  0  0  0  0
  9 11  1  0  0  0  0
  9 29  1  0  0  0  0
  7  8  1  0  0  0  0
  7  9  1  0  0  0  0
 33 34  1  0  0  0  0
 33 35  1  0  0  0  0
 33 36  1  0  0  0  0
 31 32  1  0  0  0  0
 31 33  1  0  0  0  0
M  CHG  1  20   1
M  END
$$$$
default_name
  -OEChem-02102213163D

 36 35  0     1  0  0  0  0  0999 V2000
   -4.2256   -3.6731    1.8584 H   0  0  0  0  0  0  0  0  0  0  0  0
   -4.2396   -2.6781    1.4144 C   0  0  0  0  0  0  0  0  0  0  0  0
   -4.9506   -2.0521    1.9514 H   0  0  0  0  0  0  0  0  0  0  0  0
   -4.5266   -2.7521    0.3674 H   0  0  0  0  0  0  0  0  0  0  0  0
   -2.8576   -2.0761    1.5184 C   0  0  0  0  0  0  0  0  0  0  0  0
   -1.9456   -2.7051    2.0404 O   0  0  0  0  0  0  0  0  0  0  0  0
   -2.6926   -0.8481    1.0174 N   0  0  0  0  0  0  0  0  0  0  0  0
   -3.4926   -0.3971    0.5954 H   0  0  0  0  0  0  0  0  0  0  0  0
   -1.4216   -0.1071    1.0434 C   0  0  1  0  0  0  0  0  0  0  0  0
   -0.6709   -0.6930    0.5106 H   0  0  0  0  0  0  0  0  0  0  0  0
   -1.6221    1.2315    0.3051 C   0  0  0  0  0  0  0  0  0  0  0  0
   -1.3962    1.0832   -0.7528 H   0  0  0  0  0  0  0  0  0  0  0  0
   -2.6686    1.5323    0.3894 H   0  0  0  0  0  0  0  0  0  0  0  0
   -0.7282    2.3620    0.8354 C   0  0  0  0  0  0  0  0  0  0  0  0
   -0.2837    2.9039   -0.0005 H   0  0  0  0  0  0  0  0  0  0  0  0
   -1.3305    3.0490    1.4307 H   0  0  0  0  0  0  0  0  0  0  0  0
    0.3912    1.7775    1.7077 C   0  0  0  0  0  0  0  0  0  0  0  0
   -0.0627    1.2147    2.5265 H   0  0  0  0  0  0  0  0  0  0  0  0
    0.9865    1.0941    1.0975 H   0  0  0  0  0  0  0  0  0  0  0  0
    1.2640    2.8338    2.2601 N   0  3  0  0  0  0  0  0  0  0  0  0
    1.0656    3.7780    1.9764 H   0  0  0  0  0  0  0  0  0  0  0  0
    2.2780    2.6550    3.0901 C   0  0  0  0  0  0  0  0  0  0  0  0
    2.6215    1.4735    3.5205 N   0  0  0  0  0  0  0  0  0  0  0  0
    2.0964    0.6746    3.2115 H   0  0  0  0  0  0  0  0  0  0  0  0
    3.3940    1.3552    4.1499 H   0  0  0  0  0  0  0  0  0  0  0  0
    2.9761    3.6726    3.5079 N   0  0  0  0  0  0  0  0  0  0  0  0
    2.7490    4.6037    3.2038 H   0  0  0  0  0  0  0  0  0  0  0  0
    3.7445    3.5325    4.1376 H   0  0  0  0  0  0  0  0  0  0  0  0
   -0.9523    0.1012    2.4848 C   0  0  0  0  0  0  0  0  0  0  0  0
    0.2133   -0.1319    2.7814 O   0  0  0  0  0  0  0  0  0  0  0  0
   -1.8684    0.5006    3.3725 N   0  0  0  0  0  0  0  0  0  0  0  0
   -2.7946    0.7048    3.0343 H   0  0  0  0  0  0  0  0  0  0  0  0
   -1.5848    0.7472    4.7873 C   0  0  0  0  0  0  0  0  0  0  0  0
   -0.8819    1.5774    4.8838 H   0  0  0  0  0  0  0  0  0  0  0  0
   -2.5030    0.9948    5.3214 H   0  0  0  0  0  0  0  0  0  0  0  0
   -1.1344   -0.1399    5.2381 H   0  0  0  0  0  0  0  0  0  0  0  0
  5  6  2  0  0  0  0
  5  7  1  0  0  0  0
  2  3  1  0  0  0  0
  2  4  1  0  0  0  0
  2  5  1  0  0  0  0
  1  2  1  0  0  0  0
 29 30  2  0  0  0  0
 29 31  1  0  0  0  0
 26 27  1  0  0  0  0
 26 28  1  0  0  0  0
 23 24  1  0  0  0  0
 23 25  1  0  0  0  0
 22 23  1  0  0  0  0
 22 26  1  0  0  0  0
 20 21  1  0  0  0  0
 20 22  2  0  0  0  0
 17 18  1  0  0  0  0
 17 19  1  0  0  0  0
 17 20  1  0  0  0  0
 14 15  1  0  0  0  0
 14 16  1  0  0  0  0
 14 17  1  0  0  0  0
 11 12  1  0  0  0  0
 11 13  1  0  0  0  0
 11 14  1  0  0  0  0
  9 10  1  0  0  0  0
  9 11  1  0  0  0  0
  9 29  1  0  0  0  0
  7  8  1  0  0  0  0
  7  9  1  0  0  0  0
 33 34  1  0  0  0  0
 33 35  1  0  0  0  0
 33 36  1  0  0  0  0
 31 32  1  0  0  0  0
 31 33  1  0  0  0  0
M  CHG  1  20   1
M  END
$$$$
default_name
  -OEChem-02102213163D

 36 35  0     1  0  0  0  0  0999 V2000
   -4.2256   -3.6731    1.8584 H   0  0  0  0  0  0  0  0  0  0  0  0
   -4.2396   -2.6781    1.4144 C   0  0  0  0  0  0  0  0  0  0  0  0
   -4.9506   -2.0521    1.9514 H   0  0  0  0  0  0  0  0  0  0  0  0
   -4.5266   -2.7521    0.3674 H   0  0  0  0  0  0  0  0  0  0  0  0
   -2.8576   -2.0761    1.5184 C   0  0  0  0  0  0  0  0  0  0  0  0
   -1.9456   -2.7051    2.0404 O   0  0  0  0  0  0  0  0  0  0  0  0
   -2.6926   -0.8481    1.0174 N   0  0  0  0  0  0  0  0  0  0  0  0
   -3.4926   -0.3971    0.5954 H   0  0  0  0  0  0  0  0  0  0  0  0
   -1.4216   -0.1071    1.0434 C   0  0  1  0  0  0  0  0  0  0  0  0
   -0.6709   -0.6930    0.5106 H   0  0  0  0  0  0  0  0  0  0  0  0
   -1.6221    1.2315    0.3051 C   0  0  0  0  0  0  0  0  0  0  0  0
   -1.3962    1.0832   -0.7528 H   0  0  0  0  0  0  0  0  0  0  0  0
   -2.6686    1.5323    0.3894 H   0  0  0  0  0  0  0  0  0  0  0  0
   -0.7282    2.3620    0.8354 C   0  0  0  0  0  0  0  0  0  0  0  0
   -0.4993    3.0603    0.0292 H   0  0  0  0  0  0  0  0  0  0  0  0
   -1.2508    2.8911    1.6329 H   0  0  0  0  0  0  0  0  0  0  0  0
    0.5819    1.7792    1.3828 C   0  0  0  0  0  0  0  0  0  0  0  0
    0.3419    1.0617    2.1708 H   0  0  0  0  0  0  0  0  0  0  0  0
    1.0944    1.2550    0.5727 H   0  0  0  0  0  0  0  0  0  0  0  0
    1.4651    2.8313    1.9266 N   0  3  0  0  0  0  0  0  0  0  0  0
    1.1445    3.7804    1.8382 H   0  0  0  0  0  0  0  0  0  0  0  0
    2.6334    2.6429    2.5169 C   0  0  0  0  0  0  0  0  0  0  0  0
    3.1424    1.4544    2.6830 N   0  0  0  0  0  0  0  0  0  0  0  0
    2.6280    0.6572    2.3525 H   0  0  0  0  0  0  0  0  0  0  0  0
    4.0306    1.3289    3.1328 H   0  0  0  0  0  0  0  0  0  0  0  0
    3.3221    3.6579    2.9561 N   0  0  0  0  0  0  0  0  0  0  0  0
    2.9705    4.5940    2.8511 H   0  0  0  0  0  0  0  0  0  0  0  0
    4.2080    3.5105    3.4034 H   0  0  0  0  0  0  0  0  0  0  0  0
   -0.9523    0.1012    2.4848 C   0  0  0  0  0  0  0  0  0  0  0  0
    0.2133   -0.1319    2.7814 O   0  0  0  0  0  0  0  0  0  0  0  0
   -1.8684    0.5006    3.3725 N   0  0  0  0  0  0  0  0  0  0  0  0
   -2.7946    0.7048    3.0343 H   0  0  0  0  0  0  0  0  0  0  0  0
   -1.5848    0.7472    4.7873 C   0  0  0  0  0  0  0  0  0  0  0  0
   -0.8819    1.5774    4.8838 H   0  0  0  0  0  0  0  0  0  0  0  0
   -2.5030    0.9948    5.3214 H   0  0  0  0  0  0  0  0  0  0  0  0
   -1.1344   -0.1399    5.2381 H   0  0  0  0  0  0  0  0  0  0  0  0
  5  6  2  0  0  0  0
  5  7  1  0  0  0  0
  2  3  1  0  0  0  0
  2  4  1  0  0  0  0
  2  5  1  0  0  0  0
  1  2  1  0  0  0  0
 29 30  2  0  0  0  0
 29 31  1  0  0  0  0
 26 27  1  0  0  0  0
 26 28  1  0  0  0  0
 23 24  1  0  0  0  0
 23 25  1  0  0  0  0
 22 23  1  0  0  0  0
 22 26  1  0  0  0  0
 20 21  1  0  0  0  0
 20 22  2  0  0  0  0
 17 18  1  0  0  0  0
 17 19  1  0  0  0  0
 17 20  1  0  0  0  0
 14 15  1  0  0  0  0
 14 16  1  0  0  0  0
 14 17  1  0  0  0  0
 11 12  1  0  0  0  0
 11 13  1  0  0  0  0
 11 14  1  0  0  0  0
  9 10  1  0  0  0  0
  9 11  1  0  0  0  0
  9 29  1  0  0  0  0
  7  8  1  0  0  0  0
  7  9  1  0  0  0  0
 33 34  1  0  0  0  0
 33 35  1  0  0  0  0
 33 36  1  0  0  0  0
 31 32  1  0  0  0  0
 31 33  1  0  0  0  0
M  CHG  1  20   1
M  END
$$$$
default_name
  -OEChem-02102213163D

 36 35  0     1  0  0  0  0  0999 V2000
   -4.2256   -3.6731    1.8584 H   0  0  0  0  0  0  0  0  0  0  0  0
   -4.2396   -2.6781    1.4144 C   0  0  0  0  0  0  0  0  0  0  0  0
   -4.9506   -2.0521    1.9514 H   0  0  0  0  0  0  0  0  0  0  0  0
   -4.5266   -2.7521    0.3674 H   0  0  0  0  0  0  0  0  0  0  0  0
   -2.8576   -2.0761    1.5184 C   0  0  0  0  0  0  0  0  0  0  0  0
   -1.9456   -2.7051    2.0404 O   0  0  0  0  0  0  0  0  0  0  0  0
   -2.6926   -0.8481    1.0174 N   0  0  0  0  0  0  0  0  0  0  0  0
   -3.4926   -0.3971    0.5954 H   0  0  0  0  0  0  0  0  0  0  0  0
   -1.4216   -0.1071    1.0434 C   0  0  1  0  0  0  0  0  0  0  0  0
   -0.6709   -0.6930    0.5106 H   0  0  0  0  0  0  0  0  0  0  0  0
   -1.6221    1.2315    0.3051 C   0  0  0  0  0  0  0  0  0  0  0  0
   -1.3962    1.0832   -0.7528 H   0  0  0  0  0  0  0  0  0  0  0  0
   -2.6686    1.5323    0.3894 H   0  0  0  0  0  0  0  0  0  0  0  0
   -0.7282    2.3620    0.8354 C   0  0  0  0  0  0  0  0  0  0  0  0
   -0.7158    3.1877    0.1226 H   0  0  0  0  0  0  0  0  0  0  0  0
   -1.1212    2.7153    1.7893 H   0  0  0  0  0  0  0  0  0  0  0  0
    0.7040    1.8468    1.0328 C   0  0  0  0  0  0  0  0  0  0  0  0
    0.6786    1.0037    1.7270 H   0  0  0  0  0  0  0  0  0  0  0  0
    1.0842    1.4991    0.0694 H   0  0  0  0  0  0  0  0  0  0  0  0
    1.5959    2.8971    1.5657 N   0  3  0  0  0  0  0  0  0  0  0  0
    1.1942    3.8106    1.6901 H   0  0  0  0  0  0  0  0  0  0  0  0
    2.8686    2.7493    1.8937 C   0  0  0  0  0  0  0  0  0  0  0  0
    3.4878    1.6087    1.7720 N   0  0  0  0  0  0  0  0  0  0  0  0
    2.9793    0.8174    1.4189 H   0  0  0  0  0  0  0  0  0  0  0  0
    4.4541    1.5137    2.0251 H   0  0  0  0  0  0  0  0  0  0  0  0
    3.5525    3.7577    2.3549 N   0  0  0  0  0  0  0  0  0  0  0  0
    3.1182    4.6576    2.4668 H   0  0  0  0  0  0  0  0  0  0  0  0
    4.5178    3.6412    2.6026 H   0  0  0  0  0  0  0  0  0  0  0  0
   -0.9523    0.1012    2.4848 C   0  0  0  0  0  0  0  0  0  0  0  0
    0.2133   -0.1319    2.7814 O   0  0  0  0  0  0  0  0  0  0  0  0
   -1.8684    0.5006    3.3725 N   0  0  0  0  0  0  0  0  0  0  0  0
   -2.7946    0.7048    3.0343 H   0  0  0  0  0  0  0  0  0  0  0  0
   -1.5848    0.7472    4.7873 C   0  0  0  0  0  0  0  0  0  0  0  0
   -0.8819    1.5774    4.8838 H   0  0  0  0  0  0  0  0  0  0  0  0
   -2.5030    0.9948    5.3214 H   0  0  0  0  0  0  0  0  0  0  0  0
   -1.1344   -0.1399    5.2381 H   0  0  0  0  0  0  0  0  0  0  0  0
  5  6  2  0  0  0  0
  5  7  1  0  0  0  0
  2  3  1  0  0  0  0
  2  4  1  0  0  0  0
  2  5  1  0  0  0  0
  1  2  1  0  0  0  0
 29 30  2  0  0  0  0
 29 31  1  0  0  0  0
 26 27  1  0  0  0  0
 26 28  1  0  0  0  0
 23 24  1  0  0  0  0
 23 25  1  0  0  0  0
 22 23  1  0  0  0  0
 22 26  1  0  0  0  0
 20 21  1  0  0  0  0
 20 22  2  0  0  0  0
 17 18  1  0  0  0  0
 17 19  1  0  0  0  0
 17 20  1  0  0  0  0
 14 15  1  0  0  0  0
 14 16  1  0  0  0  0
 14 17  1  0  0  0  0
 11 12  1  0  0  0  0
 11 13  1  0  0  0  0
 11 14  1  0  0  0  0
  9 10  1  0  0  0  0
  9 11  1  0  0  0  0
  9 29  1  0  0  0  0
  7  8  1  0  0  0  0
  7  9  1  0  0  0  0
 33 34  1  0  0  0  0
 33 35  1  0  0  0  0
 33 36  1  0  0  0  0
 31 32  1  0  0  0  0
 31 33  1  0  0  0  0
M  CHG  1  20   1
M  END
$$$$
default_name
  -OEChem-02102213163D

 36 35  0     1  0  0  0  0  0999 V2000
   -4.2256   -3.6731    1.8584 H   0  0  0  0  0  0  0  0  0  0  0  0
   -4.2396   -2.6781    1.4144 C   0  0  0  0  0  0  0  0  0  0  0  0
   -4.9506   -2.0521    1.9514 H   0  0  0  0  0  0  0  0  0  0  0  0
   -4.5266   -2.7521    0.3674 H   0  0  0  0  0  0  0  0  0  0  0  0
   -2.8576   -2.0761    1.5184 C   0  0  0  0  0  0  0  0  0  0  0  0
   -1.9456   -2.7051    2.0404 O   0  0  0  0  0  0  0  0  0  0  0  0
   -2.6926   -0.8481    1.0174 N   0  0  0  0  0  0  0  0  0  0  0  0
   -3.4926   -0.3971    0.5954 H   0  0  0  0  0  0  0  0  0  0  0  0
   -1.4216   -0.1071    1.0434 C   0  0  1  0  0  0  0  0  0  0  0  0
   -0.6709   -0.6930    0.5106 H   0  0  0  0  0  0  0  0  0  0  0  0
   -1.6221    1.2315    0.3051 C   0  0  0  0  0  0  0  0  0  0  0  0
   -1.3962    1.0832   -0.7528 H   0  0  0  0  0  0  0  0  0  0  0  0
   -2.6686    1.5323    0.3894 H   0  0  0  0  0  0  0  0  0  0  0  0
   -0.7282    2.3620    0.8354 C   0  0  0  0  0  0  0  0  0  0  0  0
   -0.9185    3.2773    0.2733 H   0  0  0  0  0  0  0  0  0  0  0  0
   -0.9505    2.5335    1.8891 H   0  0  0  0  0  0  0  0  0  0  0  0
    0.7492    1.9758    0.6818 C   0  0  0  0  0  0  0  0  0  0  0  0
    0.9245    1.0445    1.2254 H   0  0  0  0  0  0  0  0  0  0  0  0
    0.9567    1.8098   -0.3780 H   0  0  0  0  0  0  0  0  0  0  0  0
    1.6477    3.0268    1.2021 N   0  3  0  0  0  0  0  0  0  0  0  0
    1.2112    3.8665    1.5421 H   0  0  0  0  0  0  0  0  0  0  0  0
    2.9675    2.9670    1.2629 C   0  0  0  0  0  0  0  0  0  0  0  0
    3.6340    1.9258    0.8495 N   0  0  0  0  0  0  0  0  0  0  0  0
    3.1264    1.1442    0.4743 H   0  0  0  0  0  0  0  0  0  0  0  0
    4.6356    1.8968    0.9024 H   0  0  0  0  0  0  0  0  0  0  0  0
    3.6516    3.9653    1.7453 N   0  0  0  0  0  0  0  0  0  0  0  0
    3.1819    4.7900    2.0770 H   0  0  0  0  0  0  0  0  0  0  0  0
    4.6527    3.9158    1.7897 H   0  0  0  0  0  0  0  0  0  0  0  0
   -0.9523    0.1012    2.4848 C   0  0  0  0  0  0  0  0  0  0  0  0
    0.2133   -0.1319    2.7814 O   0  0  0  0  0  0  0  0  0  0  0  0
   -1.8684    0.5006    3.3725 N   0  0  0  0  0  0  0  0  0  0  0  0
   -2.7946    0.7048    3.0343 H   0  0  0  0  0  0  0  0  0  0  0  0
   -1.5848    0.7472    4.7873 C   0  0  0  0  0  0  0  0  0  0  0  0
   -0.8819    1.5774    4.8838 H   0  0  0  0  0  0  0  0  0  0  0  0
   -2.5030    0.9948    5.3214 H   0  0  0  0  0  0  0  0  0  0  0  0
   -1.1344   -0.1399    5.2381 H   0  0  0  0  0  0  0  0  0  0  0  0
  5  6  2  0  0  0  0
  5  7  1  0  0  0  0
  2  3  1  0  0  0  0
  2  4  1  0  0  0  0
  2  5  1  0  0  0  0
  1  2  1  0  0  0  0
 29 30  2  0  0  0  0
 29 31  1  0  0  0  0
 26 27  1  0  0  0  0
 26 28  1  0  0  0  0
 23 24  1  0  0  0  0
 23 25  1  0  0  0  0
 22 23  1  0  0  0  0
 22 26  1  0  0  0  0
 20 21  1  0  0  0  0
 20 22  2  0  0  0  0
 17 18  1  0  0  0  0
 17 19  1  0  0  0  0
 17 20  1  0  0  0  0
 14 15  1  0  0  0  0
 14 16  1  0  0  0  0
 14 17  1  0  0  0  0
 11 12  1  0  0  0  0
 11 13  1  0  0  0  0
 11 14  1  0  0  0  0
  9 10  1  0  0  0  0
  9 11  1  0  0  0  0
  9 29  1  0  0  0  0
  7  8  1  0  0  0  0
  7  9  1  0  0  0  0
 33 34  1  0  0  0  0
 33 35  1  0  0  0  0
 33 36  1  0  0  0  0
 31 32  1  0  0  0  0
 31 33  1  0  0  0  0
M  CHG  1  20   1
M  END
$$$$
default_name
  -OEChem-02102213163D

 36 35  0     1  0  0  0  0  0999 V2000
   -4.2256   -3.6731    1.8584 H   0  0  0  0  0  0  0  0  0  0  0  0
   -4.2396   -2.6781    1.4144 C   0  0  0  0  0  0  0  0  0  0  0  0
   -4.9506   -2.0521    1.9514 H   0  0  0  0  0  0  0  0  0  0  0  0
   -4.5266   -2.7521    0.3674 H   0  0  0  0  0  0  0  0  0  0  0  0
   -2.8576   -2.0761    1.5184 C   0  0  0  0  0  0  0  0  0  0  0  0
   -1.9456   -2.7051    2.0404 O   0  0  0  0  0  0  0  0  0  0  0  0
   -2.6926   -0.8481    1.0174 N   0  0  0  0  0  0  0  0  0  0  0  0
   -3.4926   -0.3971    0.5954 H   0  0  0  0  0  0  0  0  0  0  0  0
   -1.4216   -0.1071    1.0434 C   0  0  1  0  0  0  0  0  0  0  0  0
   -0.6709   -0.6930    0.5106 H   0  0  0  0  0  0  0  0  0  0  0  0
   -1.6221    1.2315    0.3051 C   0  0  0  0  0  0  0  0  0  0  0  0
   -1.3962    1.0832   -0.7528 H   0  0  0  0  0  0  0  0  0  0  0  0
   -2.6686    1.5323    0.3894 H   0  0  0  0  0  0  0  0  0  0  0  0
   -0.7282    2.3620    0.8354 C   0  0  0  0  0  0  0  0  0  0  0  0
   -1.0936    3.3231    0.4709 H   0  0  0  0  0  0  0  0  0  0  0  0
   -0.7503    2.3581    1.9257 H   0  0  0  0  0  0  0  0  0  0  0  0
    0.7144    2.1572    0.3535 C   0  0  0  0  0  0  0  0  0  0  0  0
    1.0627    1.1816    0.7002 H   0  0  0  0  0  0  0  0  0  0  0  0
    0.7205    2.1659   -0.7390 H   0  0  0  0  0  0  0  0  0  0  0  0
    1.6169    3.2114    0.8606 N   0  3  0  0  0  0  0  0  0  0  0  0
    1.1945    3.9444    1.4044 H   0  0  0  0  0  0  0  0  0  0  0  0
    2.9233    3.2811    0.6677 C   0  0  0  0  0  0  0  0  0  0  0  0
    3.5711    2.3842   -0.0217 N   0  0  0  0  0  0  0  0  0  0  0  0
    3.0593    1.6153   -0.4169 H   0  0  0  0  0  0  0  0  0  0  0  0
    4.5628    2.4523   -0.1590 H   0  0  0  0  0  0  0  0  0  0  0  0
    3.6127    4.2665    1.1689 N   0  0  0  0  0  0  0  0  0  0  0  0
    3.1573    4.9824    1.7083 H   0  0  0  0  0  0  0  0  0  0  0  0
    4.6037    4.3155    1.0202 H   0  0  0  0  0  0  0  0  0  0  0  0
   -0.9523    0.1012    2.4848 C   0  0  0  0  0  0  0  0  0  0  0  0
    0.2133   -0.1319    2.7814 O   0  0  0  0  0  0  0  0  0  0  0  0
   -1.8684    0.5006    3.3725 N   0  0  0  0  0  0  0  0  0  0  0  0
   -2.7946    0.7048    3.0343 H   0  0  0  0  0  0  0  0  0  0  0  0
   -1.5848    0.7472    4.7873 C   0  0  0  0  0  0  0  0  0  0  0  0
   -0.8819    1.5774    4.8838 H   0  0  0  0  0  0  0  0  0  0  0  0
   -2.5030    0.9948    5.3214 H   0  0  0  0  0  0  0  0  0  0  0  0
   -1.1344   -0.1399    5.2381 H   0  0  0  0  0  0  0  0  0  0  0  0
  5  6  2  0  0  0  0
  5  7  1  0  0  0  0
  2  3  1  0  0  0  0
  2  4  1  0  0  0  0
  2  5  1  0  0  0  0
  1  2  1  0  0  0  0
 29 30  2  0  0  0  0
 29 31  1  0  0  0  0
 26 27  1  0  0  0  0
 26 28  1  0  0  0  0
 23 24  1  0  0  0  0
 23 25  1  0  0  0  0
 22 23  1  0  0  0  0
 22 26  1  0  0  0  0
 20 21  1  0  0  0  0
 20 22  2  0  0  0  0
 17 18  1  0  0  0  0
 17 19  1  0  0  0  0
 17 20  1  0  0  0  0
 14 15  1  0  0  0  0
 14 16  1  0  0  0  0
 14 17  1  0  0  0  0
 11 12  1  0  0  0  0
 11 13  1  0  0  0  0
 11 14  1  0  0  0  0
  9 10  1  0  0  0  0
  9 11  1  0  0  0  0
  9 29  1  0  0  0  0
  7  8  1  0  0  0  0
  7  9  1  0  0  0  0
 33 34  1  0  0  0  0
 33 35  1  0  0  0  0
 33 36  1  0  0  0  0
 31 32  1  0  0  0  0
 31 33  1  0  0  0  0
M  CHG  1  20   1
M  END
$$$$
default_name
  -OEChem-02102213163D

 36 35  0     1  0  0  0  0  0999 V2000
   -4.2256   -3.6731    1.8584 H   0  0  0  0  0  0  0  0  0  0  0  0
   -4.2396   -2.6781    1.4144 C   0  0  0  0  0  0  0  0  0  0  0  0
   -4.9506   -2.0521    1.9514 H   0  0  0  0  0  0  0  0  0  0  0  0
   -4.5266   -2.7521    0.3674 H   0  0  0  0  0  0  0  0  0  0  0  0
   -2.8576   -2.0761    1.5184 C   0  0  0  0  0  0  0  0  0  0  0  0
   -1.9456   -2.7051    2.0404 O   0  0  0  0  0  0  0  0  0  0  0  0
   -2.6926   -0.8481    1.0174 N   0  0  0  0  0  0  0  0  0  0  0  0
   -3.4926   -0.3971    0.5954 H   0  0  0  0  0  0  0  0  0  0  0  0
   -1.4216   -0.1071    1.0434 C   0  0  1  0  0  0  0  0  0  0  0  0
   -0.6709   -0.6930    0.5106 H   0  0  0  0  0  0  0  0  0  0  0  0
   -1.6221    1.2315    0.3051 C   0  0  0  0  0  0  0  0  0  0  0  0
   -1.3962    1.0832   -0.7528 H   0  0  0  0  0  0  0  0  0  0  0  0
   -2.6686    1.5323    0.3894 H   0  0  0  0  0  0  0  0  0  0  0  0
   -0.7282    2.3620    0.8354 C   0  0  0  0  0  0  0  0  0  0  0  0
   -1.2292    3.3218    0.7021 H   0  0  0  0  0  0  0  0  0  0  0  0
   -0.5343    2.2011    1.8964 H   0  0  0  0  0  0  0  0  0  0  0  0
    0.6021    2.3789    0.0703 C   0  0  0  0  0  0  0  0  0  0  0  0
    1.0840    1.4054    0.1873 H   0  0  0  0  0  0  0  0  0  0  0  0
    0.3918    2.5431   -0.9891 H   0  0  0  0  0  0  0  0  0  0  0  0
    1.5055    3.4384    0.5644 N   0  3  0  0  0  0  0  0  0  0  0  0
    1.1452    4.0388    1.2862 H   0  0  0  0  0  0  0  0  0  0  0  0
    2.7392    3.6703    0.1484 C   0  0  0  0  0  0  0  0  0  0  0  0
    3.3034    2.9526   -0.7822 N   0  0  0  0  0  0  0  0  0  0  0  0
    2.7826    2.1986   -1.1940 H   0  0  0  0  0  0  0  0  0  0  0  0
    4.2405    3.1422   -1.0867 H   0  0  0  0  0  0  0  0  0  0  0  0
    3.4383    4.6407    0.6650 N   0  0  0  0  0  0  0  0  0  0  0  0
    3.0461    5.2216    1.3859 H   0  0  0  0  0  0  0  0  0  0  0  0
    4.3739    4.8132    0.3465 H   0  0  0  0  0  0  0  0  0  0  0  0
   -0.9523    0.1012    2.4848 C   0  0  0  0  0  0  0  0  0  0  0  0
    0.2133   -0.1319    2.7814 O   0  0  0  0  0  0  0  0  0  0  0  0
   -1.8684    0.5006    3.3725 N   0  0  0  0  0  0  0  0  0  0  0  0
   -2.7946    0.7048    3.0343 H   0  0  0  0  0  0  0  0  0  0  0  0
   -1.5848    0.7472    4.7873 C   0  0  0  0  0  0  0  0  0  0  0  0
   -0.8819    1.5774    4.8838 H   0  0  0  0  0  0  0  0  0  0  0  0
   -2.5030    0.9948    5.3214 H   0  0  0  0  0  0  0  0  0  0  0  0
   -1.1344   -0.1399    5.2381 H   0  0  0  0  0  0  0  0  0  0  0  0
  5  6  2  0  0  0  0
  5  7  1  0  0  0  0
  2  3  1  0  0  0  0
  2  4  1  0  0  0  0
  2  5  1  0  0  0  0
  1  2  1  0  0  0  0
 29 30  2  0  0  0  0
 29 31  1  0  0  0  0
 26 27  1  0  0  0  0
 26 28  1  0  0  0  0
 23 24  1  0  0  0  0
 23 25  1  0  0  0  0
 22 23  1  0  0  0  0
 22 26  1  0  0  0  0
 20 21  1  0  0  0  0
 20 22  2  0  0  0  0
 17 18  1  0  0  0  0
 17 19  1  0  0  0  0
 17 20  1  0  0  0  0
 14 15  1  0  0  0  0
 14 16  1  0  0  0  0
 14 17  1  0  0  0  0
 11 12  1  0  0  0  0
 11 13  1  0  0  0  0
 11 14  1  0  0  0  0
  9 10  1  0  0  0  0
  9 11  1  0  0  0  0
  9 29  1  0  0  0  0
  7  8  1  0  0  0  0
  7  9  1  0  0  0  0
 33 34  1  0  0  0  0
 33 35  1  0  0  0  0
 33 36  1  0  0  0  0
 31 32  1  0  0  0  0
 31 33  1  0  0  0  0
M  CHG  1  20   1
M  END
$$$$
default_name
  -OEChem-02102213163D

 36 35  0     1  0  0  0  0  0999 V2000
   -4.2256   -3.6731    1.8584 H   0  0  0  0  0  0  0  0  0  0  0  0
   -4.2396   -2.6781    1.4144 C   0  0  0  0  0  0  0  0  0  0  0  0
   -4.9506   -2.0521    1.9514 H   0  0  0  0  0  0  0  0  0  0  0  0
   -4.5266   -2.7521    0.3674 H   0  0  0  0  0  0  0  0  0  0  0  0
   -2.8576   -2.0761    1.5184 C   0  0  0  0  0  0  0  0  0  0  0  0
   -1.9456   -2.7051    2.0404 O   0  0  0  0  0  0  0  0  0  0  0  0
   -2.6926   -0.8481    1.0174 N   0  0  0  0  0  0  0  0  0  0  0  0
   -3.4926   -0.3971    0.5954 H   0  0  0  0  0  0  0  0  0  0  0  0
   -1.4216   -0.1071    1.0434 C   0  0  1  0  0  0  0  0  0  0  0  0
   -0.6709   -0.6930    0.5106 H   0  0  0  0  0  0  0  0  0  0  0  0
   -1.6221    1.2315    0.3051 C   0  0  0  0  0  0  0  0  0  0  0  0
   -1.3962    1.0832   -0.7528 H   0  0  0  0  0  0  0  0  0  0  0  0
   -2.6686    1.5323    0.3894 H   0  0  0  0  0  0  0  0  0  0  0  0
   -0.7282    2.3620    0.8354 C   0  0  0  0  0  0  0  0  0  0  0  0
   -1.3160    3.2737    0.9511 H   0  0  0  0  0  0  0  0  0  0  0  0
   -0.3172    2.0731    1.8033 H   0  0  0  0  0  0  0  0  0  0  0  0
    0.4199    2.6256   -0.1484 C   0  0  0  0  0  0  0  0  0  0  0  0
    0.9867    1.7008   -0.2786 H   0  0  0  0  0  0  0  0  0  0  0  0
   -0.0071    2.9158   -1.1113 H   0  0  0  0  0  0  0  0  0  0  0  0
    1.3212    3.6923    0.3337 N   0  3  0  0  0  0  0  0  0  0  0  0
    1.0666    4.1435    1.1957 H   0  0  0  0  0  0  0  0  0  0  0  0
    2.4277    4.1080   -0.2595 C   0  0  0  0  0  0  0  0  0  0  0  0
    2.8491    3.5923   -1.3801 N   0  0  0  0  0  0  0  0  0  0  0  0
    2.3152    2.8543   -1.8041 H   0  0  0  0  0  0  0  0  0  0  0  0
    3.6908    3.9196   -1.8174 H   0  0  0  0  0  0  0  0  0  0  0  0
    3.1404    5.0626    0.2678 N   0  0  0  0  0  0  0  0  0  0  0  0
    2.8558    5.4913    1.1316 H   0  0  0  0  0  0  0  0  0  0  0  0
    3.9792    5.3749   -0.1855 H   0  0  0  0  0  0  0  0  0  0  0  0
   -0.9523    0.1012    2.4848 C   0  0  0  0  0  0  0  0  0  0  0  0
    0.2133   -0.1319    2.7814 O   0  0  0  0  0  0  0  0  0  0  0  0
   -1.8684    0.5006    3.3725 N   0  0  0  0  0  0  0  0  0  0  0  0
   -2.7946    0.7048    3.0343 H   0  0  0  0  0  0  0  0  0  0  0  0
   -1.5848    0.7472    4.7873 C   0  0  0  0  0  0  0  0  0  0  0  0
   -0.8819    1.5774    4.8838 H   0  0  0  0  0  0  0  0  0  0  0  0
   -2.5030    0.9948    5.3214 H   0  0  0  0  0  0  0  0  0  0  0  0
   -1.1344   -0.1399    5.2381 H   0  0  0  0  0  0  0  0  0  0  0  0
  5  6  2  0  0  0  0
  5  7  1  0  0  0  0
  2  3  1  0  0  0  0
  2  4  1  0  0  0  0
  2  5  1  0  0  0  0
  1  2  1  0  0  0  0
 29 30  2  0  0  0  0
 29 31  1  0  0  0  0
 26 27  1  0  0  0  0
 26 28  1  0  0  0  0
 23 24  1  0  0  0  0
 23 25  1  0  0  0  0
 22 23  1  0  0  0  0
 22 26  1  0  0  0  0
 20 21  1  0  0  0  0
 20 22  2  0  0  0  0
 17 18  1  0  0  0  0
 17 19  1  0  0  0  0
 17 20  1  0  0  0  0
 14 15  1  0  0  0  0
 14 16  1  0  0  0  0
 14 17  1  0  0  0  0
 11 12  1  0  0  0  0
 11 13  1  0  0  0  0
 11 14  1  0  0  0  0
  9 10  1  0  0  0  0
  9 11  1  0  0  0  0
  9 29  1  0  0  0  0
  7  8  1  0  0  0  0
  7  9  1  0  0  0  0
 33 34  1  0  0  0  0
 33 35  1  0  0  0  0
 33 36  1  0  0  0  0
 31 32  1  0  0  0  0
 31 33  1  0  0  0  0
M  CHG  1  20   1
M  END
$$$$
default_name
  -OEChem-02102213163D

 36 35  0     1  0  0  0  0  0999 V2000
   -4.2256   -3.6731    1.8584 H   0  0  0  0  0  0  0  0  0  0  0  0
   -4.2396   -2.6781    1.4144 C   0  0  0  0  0  0  0  0  0  0  0  0
   -4.9506   -2.0521    1.9514 H   0  0  0  0  0  0  0  0  0  0  0  0
   -4.5266   -2.7521    0.3674 H   0  0  0  0  0  0  0  0  0  0  0  0
   -2.8576   -2.0761    1.5184 C   0  0  0  0  0  0  0  0  0  0  0  0
   -1.9456   -2.7051    2.0404 O   0  0  0  0  0  0  0  0  0  0  0  0
   -2.6926   -0.8481    1.0174 N   0  0  0  0  0  0  0  0  0  0  0  0
   -3.4926   -0.3971    0.5954 H   0  0  0  0  0  0  0  0  0  0  0  0
   -1.4216   -0.1071    1.0434 C   0  0  1  0  0  0  0  0  0  0  0  0
   -0.6709   -0.6930    0.5106 H   0  0  0  0  0  0  0  0  0  0  0  0
   -1.6221    1.2315    0.3051 C   0  0  0  0  0  0  0  0  0  0  0  0
   -1.3962    1.0832   -0.7528 H   0  0  0  0  0  0  0  0  0  0  0  0
   -2.6686    1.5323    0.3894 H   0  0  0  0  0  0  0  0  0  0  0  0
   -0.7282    2.3620    0.8354 C   0  0  0  0  0  0  0  0  0  0  0  0
   -1.3481    3.1819    1.2008 H   0  0  0  0  0  0  0  0  0  0  0  0
   -0.1139    1.9829    1.6527 H   0  0  0  0  0  0  0  0  0  0  0  0
    0.1801    2.8805   -0.2878 C   0  0  0  0  0  0  0  0  0  0  0  0
    0.7776    2.0476   -0.6655 H   0  0  0  0  0  0  0  0  0  0  0  0
   -0.4490    3.2585   -1.0971 H   0  0  0  0  0  0  0  0  0  0  0  0
    1.0765    3.9559    0.1843 N   0  3  0  0  0  0  0  0  0  0  0  0
    0.9640    4.2511    1.1390 H   0  0  0  0  0  0  0  0  0  0  0  0
    2.0099    4.5643   -0.5282 C   0  0  0  0  0  0  0  0  0  0  0  0
    2.2392    4.2596   -1.7747 N   0  0  0  0  0  0  0  0  0  0  0  0
    1.6888    3.5379   -2.2054 H   0  0  0  0  0  0  0  0  0  0  0  0
    2.9512    4.7315   -2.3013 H   0  0  0  0  0  0  0  0  0  0  0  0
    2.7392    5.5033    0.0044 N   0  0  0  0  0  0  0  0  0  0  0  0
    2.5996    5.7730    0.9629 H   0  0  0  0  0  0  0  0  0  0  0  0
    3.4463    5.9623   -0.5396 H   0  0  0  0  0  0  0  0  0  0  0  0
   -0.9523    0.1012    2.4848 C   0  0  0  0  0  0  0  0  0  0  0  0
    0.2133   -0.1319    2.7814 O   0  0  0  0  0  0  0  0  0  0  0  0
   -1.8684    0.5006    3.3725 N   0  0  0  0  0  0  0  0  0  0  0  0
   -2.7946    0.7048    3.0343 H   0  0  0  0  0  0  0  0  0  0  0  0
   -1.5848    0.7472    4.7873 C   0  0  0  0  0  0  0  0  0  0  0  0
   -0.8819    1.5774    4.8838 H   0  0  0  0  0  0  0  0  0  0  0  0
   -2.5030    0.9948    5.3214 H   0  0  0  0  0  0  0  0  0  0  0  0
   -1.1344   -0.1399    5.2381 H   0  0  0  0  0  0  0  0  0  0  0  0
  5  6  2  0  0  0  0
  5  7  1  0  0  0  0
  2  3  1  0  0  0  0
  2  4  1  0  0  0  0
  2  5  1  0  0  0  0
  1  2  1  0  0  0  0
 29 30  2  0  0  0  0
 29 31  1  0  0  0  0
 26 27  1  0  0  0  0
 26 28  1  0  0  0  0
 23 24  1  0  0  0  0
 23 25  1  0  0  0  0
 22 23  1  0  0  0  0
 22 26  1  0  0  0  0
 20 21  1  0  0  0  0
 20 22  2  0  0  0  0
 17 18  1  0  0  0  0
 17 19  1  0  0  0  0
 17 20  1  0  0  0  0
 14 15  1  0  0  0  0
 14 16  1  0  0  0  0
 14 17  1  0  0  0  0
 11 12  1  0  0  0  0
 11 13  1  0  0  0  0
 11 14  1  0  0  0  0
  9 10  1  0  0  0  0
  9 11  1  0  0  0  0
  9 29  1  0  0  0  0
  7  8  1  0  0  0  0
  7  9  1  0  0  0  0
 33 34  1  0  0  0  0
 33 35  1  0  0  0  0
 33 36  1  0  0  0  0
 31 32  1  0  0  0  0
 31 33  1  0  0  0  0
M  CHG  1  20   1
M  END
$$$$
default_name
  -OEChem-02102213163D

 36 35  0     1  0  0  0  0  0999 V2000
   -4.2256   -3.6731    1.8584 H   0  0  0  0  0  0  0  0  0  0  0  0
   -4.2396   -2.6781    1.4144 C   0  0  0  0  0  0  0  0  0  0  0  0
   -4.9506   -2.0521    1.9514 H   0  0  0  0  0  0  0  0  0  0  0  0
   -4.5266   -2.7521    0.3674 H   0  0  0  0  0  0  0  0  0  0  0  0
   -2.8576   -2.0761    1.5184 C   0  0  0  0  0  0  0  0  0  0  0  0
   -1.9456   -2.7051    2.0404 O   0  0  0  0  0  0  0  0  0  0  0  0
   -2.6926   -0.8481    1.0174 N   0  0  0  0  0  0  0  0  0  0  0  0
   -3.4926   -0.3971    0.5954 H   0  0  0  0  0  0  0  0  0  0  0  0
   -1.4216   -0.1071    1.0434 C   0  0  1  0  0  0  0  0  0  0  0  0
   -0.6709   -0.6930    0.5106 H   0  0  0  0  0  0  0  0  0  0  0  0
   -1.6221    1.2315    0.3051 C   0  0  0  0  0  0  0  0  0  0  0  0
   -1.3962    1.0832   -0.7528 H   0  0  0  0  0  0  0  0  0  0  0  0
   -2.6686    1.5323    0.3894 H   0  0  0  0  0  0  0  0  0  0  0  0
   -0.7282    2.3620    0.8354 C   0  0  0  0  0  0  0  0  0  0  0  0
   -1.3234    3.0528    1.4343 H   0  0  0  0  0  0  0  0  0  0  0  0
    0.0620    1.9367    1.4550 H   0  0  0  0  0  0  0  0  0  0  0  0
   -0.1008    3.1263   -0.3383 C   0  0  0  0  0  0  0  0  0  0  0  0
    0.4710    2.4222   -0.9471 H   0  0  0  0  0  0  0  0  0  0  0  0
   -0.9038    3.5480   -0.9475 H   0  0  0  0  0  0  0  0  0  0  0  0
    0.7881    4.2111    0.1262 N   0  3  0  0  0  0  0  0  0  0  0  0
    0.8446    4.3545    1.1200 H   0  0  0  0  0  0  0  0  0  0  0  0
    1.5143    5.0083   -0.6394 C   0  0  0  0  0  0  0  0  0  0  0  0
    1.5152    4.9091   -1.9391 N   0  0  0  0  0  0  0  0  0  0  0  0
    0.9462    4.2026   -2.3708 H   0  0  0  0  0  0  0  0  0  0  0  0
    2.0719    5.5224   -2.5056 H   0  0  0  0  0  0  0  0  0  0  0  0
    2.2622    5.9328   -0.1071 N   0  0  0  0  0  0  0  0  0  0  0  0
    2.2947    6.0477    0.8912 H   0  0  0  0  0  0  0  0  0  0  0  0
    2.8116    6.5354   -0.6916 H   0  0  0  0  0  0  0  0  0  0  0  0
   -0.9523    0.1012    2.4848 C   0  0  0  0  0  0  0  0  0  0  0  0
    0.2133   -0.1319    2.7814 O   0  0  0  0  0  0  0  0  0  0  0  0
   -1.8684    0.5006    3.3725 N   0  0  0  0  0  0  0  0  0  0  0  0
   -2.7946    0.7048    3.0343 H   0  0  0  0  0  0  0  0  0  0  0  0
   -1.5848    0.7472    4.7873 C   0  0  0  0  0  0  0  0  0  0  0  0
   -0.8819    1.5774    4.8838 H   0  0  0  0  0  0  0  0  0  0  0  0
   -2.5030    0.9948    5.3214 H   0  0  0  0  0  0  0  0  0  0  0  0
   -1.1344   -0.1399    5.2381 H   0  0  0  0  0  0  0  0  0  0  0  0
  5  6  2  0  0  0  0
  5  7  1  0  0  0  0
  2  3  1  0  0  0  0
  2  4  1  0  0  0  0
  2  5  1  0  0  0  0
  1  2  1  0  0  0  0
 29 30  2  0  0  0  0
 29 31  1  0  0  0  0
 26 27  1  0  0  0  0
 26 28  1  0  0  0  0
 23 24  1  0  0  0  0
 23 25  1  0  0  0  0
 22 23  1  0  0  0  0
 22 26  1  0  0  0  0
 20 21  1  0  0  0  0
 20 22  2  0  0  0  0
 17 18  1  0  0  0  0
 17 19  1  0  0  0  0
 17 20  1  0  0  0  0
 14 15  1  0  0  0  0
 14 16  1  0  0  0  0
 14 17  1  0  0  0  0
 11 12  1  0  0  0  0
 11 13  1  0  0  0  0
 11 14  1  0  0  0  0
  9 10  1  0  0  0  0
  9 11  1  0  0  0  0
  9 29  1  0  0  0  0
  7  8  1  0  0  0  0
  7  9  1  0  0  0  0
 33 34  1  0  0  0  0
 33 35  1  0  0  0  0
 33 36  1  0  0  0  0
 31 32  1  0  0  0  0
 31 33  1  0  0  0  0
M  CHG  1  20   1
M  END
$$$$
default_name
  -OEChem-02102213163D

 36 35  0     1  0  0  0  0  0999 V2000
   -4.2256   -3.6731    1.8584 H   0  0  0  0  0  0  0  0  0  0  0  0
   -4.2396   -2.6781    1.4144 C   0  0  0  0  0  0  0  0  0  0  0  0
   -4.9506   -2.0521    1.9514 H   0  0  0  0  0  0  0  0  0  0  0  0
   -4.5266   -2.7521    0.3674 H   0  0  0  0  0  0  0  0  0  0  0  0
   -2.8576   -2.0761    1.5184 C   0  0  0  0  0  0  0  0  0  0  0  0
   -1.9456   -2.7051    2.0404 O   0  0  0  0  0  0  0  0  0  0  0  0
   -2.6926   -0.8481    1.0174 N   0  0  0  0  0  0  0  0  0  0  0  0
   -3.4926   -0.3971    0.5954 H   0  0  0  0  0  0  0  0  0  0  0  0
   -1.4216   -0.1071    1.0434 C   0  0  1  0  0  0  0  0  0  0  0  0
   -0.6709   -0.6930    0.5106 H   0  0  0  0  0  0  0  0  0  0  0  0
   -1.6221    1.2315    0.3051 C   0  0  0  0  0  0  0  0  0  0  0  0
   -1.3962    1.0832   -0.7528 H   0  0  0  0  0  0  0  0  0  0  0  0
   -2.6686    1.5323    0.3894 H   0  0  0  0  0  0  0  0  0  0  0  0
   -0.7282    2.3620    0.8354 C   0  0  0  0  0  0  0  0  0  0  0  0
   -1.2434    2.8951    1.6357 H   0  0  0  0  0  0  0  0  0  0  0  0
    0.1983    1.9375    1.2235 H   0  0  0  0  0  0  0  0  0  0  0  0
   -0.4038    3.3463   -0.2966 C   0  0  0  0  0  0  0  0  0  0  0  0
    0.0876    2.7991   -1.1043 H   0  0  0  0  0  0  0  0  0  0  0  0
   -1.3405    3.7644   -0.6728 H   0  0  0  0  0  0  0  0  0  0  0  0
    0.4757    4.4406    0.1636 N   0  3  0  0  0  0  0  0  0  0  0  0
    0.7163    4.4465    1.1400 H   0  0  0  0  0  0  0  0  0  0  0  0
    0.9748    5.4096   -0.5854 C   0  0  0  0  0  0  0  0  0  0  0  0
    0.7266    5.4966   -1.8622 N   0  0  0  0  0  0  0  0  0  0  0  0
    0.1380    4.8032   -2.2889 H   0  0  0  0  0  0  0  0  0  0  0  0
    1.1131    6.2386   -2.4162 H   0  0  0  0  0  0  0  0  0  0  0  0
    1.7417    6.3218   -0.0592 N   0  0  0  0  0  0  0  0  0  0  0  0
    1.9620    6.2966    0.9215 H   0  0  0  0  0  0  0  0  0  0  0  0
    2.1184    7.0551   -0.6311 H   0  0  0  0  0  0  0  0  0  0  0  0
   -0.9523    0.1012    2.4848 C   0  0  0  0  0  0  0  0  0  0  0  0
    0.2133   -0.1319    2.7814 O   0  0  0  0  0  0  0  0  0  0  0  0
   -1.8684    0.5006    3.3725 N   0  0  0  0  0  0  0  0  0  0  0  0
   -2.7946    0.7048    3.0343 H   0  0  0  0  0  0  0  0  0  0  0  0
   -1.5848    0.7472    4.7873 C   0  0  0  0  0  0  0  0  0  0  0  0
   -0.8819    1.5774    4.8838 H   0  0  0  0  0  0  0  0  0  0  0  0
   -2.5030    0.9948    5.3214 H   0  0  0  0  0  0  0  0  0  0  0  0
   -1.1344   -0.1399    5.2381 H   0  0  0  0  0  0  0  0  0  0  0  0
  5  6  2  0  0  0  0
  5  7  1  0  0  0  0
  2  3  1  0  0  0  0
  2  4  1  0  0  0  0
  2  5  1  0  0  0  0
  1  2  1  0  0  0  0
 29 30  2  0  0  0  0
 29 31  1  0  0  0  0
 26 27  1  0  0  0  0
 26 28  1  0  0  0  0
 23 24  1  0  0  0  0
 23 25  1  0  0  0  0
 22 23  1  0  0  0  0
 22 26  1  0  0  0  0
 20 21  1  0  0  0  0
 20 22  2  0  0  0  0
 17 18  1  0  0  0  0
 17 19  1  0  0  0  0
 17 20  1  0  0  0  0
 14 15  1  0  0  0  0
 14 16  1  0  0  0  0
 14 17  1  0  0  0  0
 11 12  1  0  0  0  0
 11 13  1  0  0  0  0
 11 14  1  0  0  0  0
  9 10  1  0  0  0  0
  9 11  1  0  0  0  0
  9 29  1  0  0  0  0
  7  8  1  0  0  0  0
  7  9  1  0  0  0  0
 33 34  1  0  0  0  0
 33 35  1  0  0  0  0
 33 36  1  0  0  0  0
 31 32  1  0  0  0  0
 31 33  1  0  0  0  0
M  CHG  1  20   1
M  END
$$$$
default_name
  -OEChem-02102213163D

 36 35  0     1  0  0  0  0  0999 V2000
   -4.2256   -3.6731    1.8584 H   0  0  0  0  0  0  0  0  0  0  0  0
   -4.2396   -2.6781    1.4144 C   0  0  0  0  0  0  0  0  0  0  0  0
   -4.9506   -2.0521    1.9514 H   0  0  0  0  0  0  0  0  0  0  0  0
   -4.5266   -2.7521    0.3674 H   0  0  0  0  0  0  0  0  0  0  0  0
   -2.8576   -2.0761    1.5184 C   0  0  0  0  0  0  0  0  0  0  0  0
   -1.9456   -2.7051    2.0404 O   0  0  0  0  0  0  0  0  0  0  0  0
   -2.6926   -0.8481    1.0174 N   0  0  0  0  0  0  0  0  0  0  0  0
   -3.4926   -0.3971    0.5954 H   0  0  0  0  0  0  0  0  0  0  0  0
   -1.4216   -0.1071    1.0434 C   0  0  1  0  0  0  0  0  0  0  0  0
   -0.6709   -0.6930    0.5106 H   0  0  0  0  0  0  0  0  0  0  0  0
   -1.6221    1.2315    0.3051 C   0  0  0  0  0  0  0  0  0  0  0  0
   -1.3962    1.0832   -0.7528 H   0  0  0  0  0  0  0  0  0  0  0  0
   -2.6686    1.5323    0.3894 H   0  0  0  0  0  0  0  0  0  0  0  0
   -0.7282    2.3620    0.8354 C   0  0  0  0  0  0  0  0  0  0  0  0
   -1.1137    2.7196    1.7913 H   0  0  0  0  0  0  0  0  0  0  0  0
    0.2857    1.9854    0.9740 H   0  0  0  0  0  0  0  0  0  0  0  0
   -0.7082    3.5254   -0.1654 C   0  0  0  0  0  0  0  0  0  0  0  0
   -0.3463    3.1525   -1.1263 H   0  0  0  0  0  0  0  0  0  0  0  0
   -1.7293    3.8930   -0.2917 H   0  0  0  0  0  0  0  0  0  0  0  0
    0.1605    4.6287    0.2937 N   0  3  0  0  0  0  0  0  0  0  0  0
    0.5880    4.5209    1.1976 H   0  0  0  0  0  0  0  0  0  0  0  0
    0.4281    5.7408   -0.3701 C   0  0  0  0  0  0  0  0  0  0  0  0
   -0.0731    5.9820   -1.5491 N   0  0  0  0  0  0  0  0  0  0  0  0
   -0.6808    5.2988   -1.9654 H   0  0  0  0  0  0  0  0  0  0  0  0
    0.1399    6.8313   -2.0392 H   0  0  0  0  0  0  0  0  0  0  0  0
    1.2134    6.6439    0.1448 N   0  0  0  0  0  0  0  0  0  0  0  0
    1.6241    6.5027    1.0516 H   0  0  0  0  0  0  0  0  0  0  0  0
    1.4138    7.4861   -0.3623 H   0  0  0  0  0  0  0  0  0  0  0  0
   -0.9523    0.1012    2.4848 C   0  0  0  0  0  0  0  0  0  0  0  0
    0.2133   -0.1319    2.7814 O   0  0  0  0  0  0  0  0  0  0  0  0
   -1.8684    0.5006    3.3725 N   0  0  0  0  0  0  0  0  0  0  0  0
   -2.7946    0.7048    3.0343 H   0  0  0  0  0  0  0  0  0  0  0  0
   -1.5848    0.7472    4.7873 C   0  0  0  0  0  0  0  0  0  0  0  0
   -0.8819    1.5774    4.8838 H   0  0  0  0  0  0  0  0  0  0  0  0
   -2.5030    0.9948    5.3214 H   0  0  0  0  0  0  0  0  0  0  0  0
   -1.1344   -0.1399    5.2381 H   0  0  0  0  0  0  0  0  0  0  0  0
  5  6  2  0  0  0  0
  5  7  1  0  0  0  0
  2  3  1  0  0  0  0
  2  4  1  0  0  0  0
  2  5  1  0  0  0  0
  1  2  1  0  0  0  0
 29 30  2  0  0  0  0
 29 31  1  0  0  0  0
 26 27  1  0  0  0  0
 26 28  1  0  0  0  0
 23 24  1  0  0  0  0
 23 25  1  0  0  0  0
 22 23  1  0  0  0  0
 22 26  1  0  0  0  0
 20 21  1  0  0  0  0
 20 22  2  0  0  0  0
 17 18  1  0  0  0  0
 17 19  1  0  0  0  0
 17 20  1  0  0  0  0
 14 15  1  0  0  0  0
 14 16  1  0  0  0  0
 14 17  1  0  0  0  0
 11 12  1  0  0  0  0
 11 13  1  0  0  0  0
 11 14  1  0  0  0  0
  9 10  1  0  0  0  0
  9 11  1  0  0  0  0
  9 29  1  0  0  0  0
  7  8  1  0  0  0  0
  7  9  1  0  0  0  0
 33 34  1  0  0  0  0
 33 35  1  0  0  0  0
 33 36  1  0  0  0  0
 31 32  1  0  0  0  0
 31 33  1  0  0  0  0
M  CHG  1  20   1
M  END
$$$$
default_name
  -OEChem-02102213163D

 36 35  0     1  0  0  0  0  0999 V2000
   -4.2256   -3.6731    1.8584 H   0  0  0  0  0  0  0  0  0  0  0  0
   -4.2396   -2.6781    1.4144 C   0  0  0  0  0  0  0  0  0  0  0  0
   -4.9506   -2.0521    1.9514 H   0  0  0  0  0  0  0  0  0  0  0  0
   -4.5266   -2.7521    0.3674 H   0  0  0  0  0  0  0  0  0  0  0  0
   -2.8576   -2.0761    1.5184 C   0  0  0  0  0  0  0  0  0  0  0  0
   -1.9456   -2.7051    2.0404 O   0  0  0  0  0  0  0  0  0  0  0  0
   -2.6926   -0.8481    1.0174 N   0  0  0  0  0  0  0  0  0  0  0  0
   -3.4926   -0.3971    0.5954 H   0  0  0  0  0  0  0  0  0  0  0  0
   -1.4216   -0.1071    1.0434 C   0  0  1  0  0  0  0  0  0  0  0  0
   -0.6709   -0.6930    0.5106 H   0  0  0  0  0  0  0  0  0  0  0  0
   -1.6221    1.2315    0.3051 C   0  0  0  0  0  0  0  0  0  0  0  0
   -1.6615    1.0349   -0.7682 H   0  0  0  0  0  0  0  0  0  0  0  0
   -2.5783    1.6652    0.6058 H   0  0  0  0  0  0  0  0  0  0  0  0
   -0.5021    2.2486    0.5685 C   0  0  0  0  0  0  0  0  0  0  0  0
   -0.4493    2.4714    1.6351 H   0  0  0  0  0  0  0  0  0  0  0  0
    0.4499    1.8301    0.2403 H   0  0  0  0  0  0  0  0  0  0  0  0
   -0.7823    3.5457   -0.2026 C   0  0  0  0  0  0  0  0  0  0  0  0
   -0.8600    3.3092   -1.2663 H   0  0  0  0  0  0  0  0  0  0  0  0
   -1.7367    3.9537    0.1385 H   0  0  0  0  0  0  0  0  0  0  0  0
    0.2843    4.5471    0.0029 N   0  3  0  0  0  0  0  0  0  0  0  0
    1.0227    4.2967    0.6380 H   0  0  0  0  0  0  0  0  0  0  0  0
    0.3592    5.7376   -0.5682 C   0  0  0  0  0  0  0  0  0  0  0  0
   -0.5441    6.1622   -1.4067 N   0  0  0  0  0  0  0  0  0  0  0  0
   -1.3205    5.5633   -1.6257 H   0  0  0  0  0  0  0  0  0  0  0  0
   -0.4724    7.0687   -1.8310 H   0  0  0  0  0  0  0  0  0  0  0  0
    1.3550    6.5349   -0.3037 N   0  0  0  0  0  0  0  0  0  0  0  0
    2.0765    6.2514    0.3367 H   0  0  0  0  0  0  0  0  0  0  0  0
    1.4080    7.4372   -0.7392 H   0  0  0  0  0  0  0  0  0  0  0  0
   -0.9523    0.1012    2.4848 C   0  0  0  0  0  0  0  0  0  0  0  0
    0.2133   -0.1319    2.7814 O   0  0  0  0  0  0  0  0  0  0  0  0
   -1.8684    0.5006    3.3725 N   0  0  0  0  0  0  0  0  0  0  0  0
   -2.7946    0.7048    3.0343 H   0  0  0  0  0  0  0  0  0  0  0  0
   -1.5848    0.7472    4.7873 C   0  0  0  0  0  0  0  0  0  0  0  0
   -0.8819    1.5774    4.8838 H   0  0  0  0  0  0  0  0  0  0  0  0
   -2.5030    0.9948    5.3214 H   0  0  0  0  0  0  0  0  0  0  0  0
   -1.1344   -0.1399    5.2381 H   0  0  0  0  0  0  0  0  0  0  0  0
  5  6  2  0  0  0  0
  5  7  1  0  0  0  0
  2  3  1  0  0  0  0
  2  4  1  0  0  0  0
  2  5  1  0  0  0  0
  1  2  1  0  0  0  0
 29 30  2  0  0  0  0
 29 31  1  0  0  0  0
 26 27  1  0  0  0  0
 26 28  1  0  0  0  0
 23 24  1  0  0  0  0
 23 25  1  0  0  0  0
 22 23  1  0  0  0  0
 22 26  1  0  0  0  0
 20 21  1  0  0  0  0
 20 22  2  0  0  0  0
 17 18  1  0  0  0  0
 17 19  1  0  0  0  0
 17 20  1  0  0  0  0
 14 15  1  0  0  0  0
 14 16  1  0  0  0  0
 14 17  1  0  0  0  0
 11 12  1  0  0  0  0
 11 13  1  0  0  0  0
 11 14  1  0  0  0  0
  9 10  1  0  0  0  0
  9 11  1  0  0  0  0
  9 29  1  0  0  0  0
  7  8  1  0  0  0  0
  7  9  1  0  0  0  0
 33 34  1  0  0  0  0
 33 35  1  0  0  0  0
 33 36  1  0  0  0  0
 31 32  1  0  0  0  0
 31 33  1  0  0  0  0
M  CHG  1  20   1
M  END
$$$$
default_name
  -OEChem-02102213163D

 36 35  0     1  0  0  0  0  0999 V2000
   -4.2256   -3.6731    1.8584 H   0  0  0  0  0  0  0  0  0  0  0  0
   -4.2396   -2.6781    1.4144 C   0  0  0  0  0  0  0  0  0  0  0  0
   -4.9506   -2.0521    1.9514 H   0  0  0  0  0  0  0  0  0  0  0  0
   -4.5266   -2.7521    0.3674 H   0  0  0  0  0  0  0  0  0  0  0  0
   -2.8576   -2.0761    1.5184 C   0  0  0  0  0  0  0  0  0  0  0  0
   -1.9456   -2.7051    2.0404 O   0  0  0  0  0  0  0  0  0  0  0  0
   -2.6926   -0.8481    1.0174 N   0  0  0  0  0  0  0  0  0  0  0  0
   -3.4926   -0.3971    0.5954 H   0  0  0  0  0  0  0  0  0  0  0  0
   -1.4216   -0.1071    1.0434 C   0  0  1  0  0  0  0  0  0  0  0  0
   -0.6709   -0.6930    0.5106 H   0  0  0  0  0  0  0  0  0  0  0  0
   -1.6221    1.2315    0.3051 C   0  0  0  0  0  0  0  0  0  0  0  0
   -1.6615    1.0349   -0.7682 H   0  0  0  0  0  0  0  0  0  0  0  0
   -2.5783    1.6652    0.6058 H   0  0  0  0  0  0  0  0  0  0  0  0
   -0.5021    2.2486    0.5685 C   0  0  0  0  0  0  0  0  0  0  0  0
   -0.2690    2.2731    1.6339 H   0  0  0  0  0  0  0  0  0  0  0  0
    0.3887    1.9567    0.0114 H   0  0  0  0  0  0  0  0  0  0  0  0
   -0.9495    3.6464    0.1196 C   0  0  0  0  0  0  0  0  0  0  0  0
   -1.2063    3.6063   -0.9415 H   0  0  0  0  0  0  0  0  0  0  0  0
   -1.8402    3.9254    0.6876 H   0  0  0  0  0  0  0  0  0  0  0  0
    0.1082    4.6556    0.3329 N   0  3  0  0  0  0  0  0  0  0  0  0
    0.9534    4.3375    0.7753 H   0  0  0  0  0  0  0  0  0  0  0  0
    0.0483    5.9334   -0.0026 C   0  0  0  0  0  0  0  0  0  0  0  0
   -0.9997    6.4500   -0.5805 N   0  0  0  0  0  0  0  0  0  0  0  0
   -1.7855    5.8558   -0.7778 H   0  0  0  0  0  0  0  0  0  0  0  0
   -1.0290    7.4219   -0.8282 H   0  0  0  0  0  0  0  0  0  0  0  0
    1.0525    6.7272    0.2404 N   0  0  0  0  0  0  0  0  0  0  0  0
    1.8829    6.3746    0.6843 H   0  0  0  0  0  0  0  0  0  0  0  0
    1.0029    7.6959   -0.0158 H   0  0  0  0  0  0  0  0  0  0  0  0
   -0.9523    0.1012    2.4848 C   0  0  0  0  0  0  0  0  0  0  0  0
    0.2133   -0.1319    2.7814 O   0  0  0  0  0  0  0  0  0  0  0  0
   -1.8684    0.5006    3.3725 N   0  0  0  0  0  0  0  0  0  0  0  0
   -2.7946    0.7048    3.0343 H   0  0  0  0  0  0  0  0  0  0  0  0
   -1.5848    0.7472    4.7873 C   0  0  0  0  0  0  0  0  0  0  0  0
   -0.8819    1.5774    4.8838 H   0  0  0  0  0  0  0  0  0  0  0  0
   -2.5030    0.9948    5.3214 H   0  0  0  0  0  0  0  0  0  0  0  0
   -1.1344   -0.1399    5.2381 H   0  0  0  0  0  0  0  0  0  0  0  0
  5  6  2  0  0  0  0
  5  7  1  0  0  0  0
  2  3  1  0  0  0  0
  2  4  1  0  0  0  0
  2  5  1  0  0  0  0
  1  2  1  0  0  0  0
 29 30  2  0  0  0  0
 29 31  1  0  0  0  0
 26 27  1  0  0  0  0
 26 28  1  0  0  0  0
 23 24  1  0  0  0  0
 23 25  1  0  0  0  0
 22 23  1  0  0  0  0
 22 26  1  0  0  0  0
 20 21  1  0  0  0  0
 20 22  2  0  0  0  0
 17 18  1  0  0  0  0
 17 19  1  0  0  0  0
 17 20  1  0  0  0  0
 14 15  1  0  0  0  0
 14 16  1  0  0  0  0
 14 17  1  0  0  0  0
 11 12  1  0  0  0  0
 11 13  1  0  0  0  0
 11 14  1  0  0  0  0
  9 10  1  0  0  0  0
  9 11  1  0  0  0  0
  9 29  1  0  0  0  0
  7  8  1  0  0  0  0
  7  9  1  0  0  0  0
 33 34  1  0  0  0  0
 33 35  1  0  0  0  0
 33 36  1  0  0  0  0
 31 32  1  0  0  0  0
 31 33  1  0  0  0  0
M  CHG  1  20   1
M  END
$$$$
default_name
  -OEChem-02102213163D

 36 35  0     1  0  0  0  0  0999 V2000
   -4.2256   -3.6731    1.8584 H   0  0  0  0  0  0  0  0  0  0  0  0
   -4.2396   -2.6781    1.4144 C   0  0  0  0  0  0  0  0  0  0  0  0
   -4.9506   -2.0521    1.9514 H   0  0  0  0  0  0  0  0  0  0  0  0
   -4.5266   -2.7521    0.3674 H   0  0  0  0  0  0  0  0  0  0  0  0
   -2.8576   -2.0761    1.5184 C   0  0  0  0  0  0  0  0  0  0  0  0
   -1.9456   -2.7051    2.0404 O   0  0  0  0  0  0  0  0  0  0  0  0
   -2.6926   -0.8481    1.0174 N   0  0  0  0  0  0  0  0  0  0  0  0
   -3.4926   -0.3971    0.5954 H   0  0  0  0  0  0  0  0  0  0  0  0
   -1.4216   -0.1071    1.0434 C   0  0  1  0  0  0  0  0  0  0  0  0
   -0.6709   -0.6930    0.5106 H   0  0  0  0  0  0  0  0  0  0  0  0
   -1.6221    1.2315    0.3051 C   0  0  0  0  0  0  0  0  0  0  0  0
   -1.6615    1.0349   -0.7682 H   0  0  0  0  0  0  0  0  0  0  0  0
   -2.5783    1.6652    0.6058 H   0  0  0  0  0  0  0  0  0  0  0  0
   -0.5021    2.2486    0.5685 C   0  0  0  0  0  0  0  0  0  0  0  0
   -0.0862    2.0899    1.5644 H   0  0  0  0  0  0  0  0  0  0  0  0
    0.2848    2.1195   -0.1753 H   0  0  0  0  0  0  0  0  0  0  0  0
   -1.0603    3.6755    0.4785 C   0  0  0  0  0  0  0  0  0  0  0  0
   -1.4983    3.8167   -0.5123 H   0  0  0  0  0  0  0  0  0  0  0  0
   -1.8448    3.7899    1.2303 H   0  0  0  0  0  0  0  0  0  0  0  0
   -0.0101    4.6902    0.7023 N   0  3  0  0  0  0  0  0  0  0  0  0
    0.9082    4.3478    0.9275 H   0  0  0  0  0  0  0  0  0  0  0  0
   -0.1637    6.0020    0.6341 C   0  0  0  0  0  0  0  0  0  0  0  0
   -1.3110    6.5518    0.3500 N   0  0  0  0  0  0  0  0  0  0  0  0
   -2.1023    5.9577    0.1761 H   0  0  0  0  0  0  0  0  0  0  0  0
   -1.4105    7.5492    0.3026 H   0  0  0  0  0  0  0  0  0  0  0  0
    0.8450    6.7968    0.8540 N   0  0  0  0  0  0  0  0  0  0  0  0
    1.7500    6.4194    1.0766 H   0  0  0  0  0  0  0  0  0  0  0  0
    0.7241    7.7913    0.8013 H   0  0  0  0  0  0  0  0  0  0  0  0
   -0.9523    0.1012    2.4848 C   0  0  0  0  0  0  0  0  0  0  0  0
    0.2133   -0.1319    2.7814 O   0  0  0  0  0  0  0  0  0  0  0  0
   -1.8684    0.5006    3.3725 N   0  0  0  0  0  0  0  0  0  0  0  0
   -2.7946    0.7048    3.0343 H   0  0  0  0  0  0  0  0  0  0  0  0
   -1.5848    0.7472    4.7873 C   0  0  0  0  0  0  0  0  0  0  0  0
   -0.8819    1.5774    4.8838 H   0  0  0  0  0  0  0  0  0  0  0  0
   -2.5030    0.9948    5.3214 H   0  0  0  0  0  0  0  0  0  0  0  0
   -1.1344   -0.1399    5.2381 H   0  0  0  0  0  0  0  0  0  0  0  0
  5  6  2  0  0  0  0
  5  7  1  0  0  0  0
  2  3  1  0  0  0  0
  2  4  1  0  0  0  0
  2  5  1  0  0  0  0
  1  2  1  0  0  0  0
 29 30  2  0  0  0  0
 29 31  1  0  0  0  0
 26 27  1  0  0  0  0
 26 28  1  0  0  0  0
 23 24  1  0  0  0  0
 23 25  1  0  0  0  0
 22 23  1  0  0  0  0
 22 26  1  0  0  0  0
 20 21  1  0  0  0  0
 20 22  2  0  0  0  0
 17 18  1  0  0  0  0
 17 19  1  0  0  0  0
 17 20  1  0  0  0  0
 14 15  1  0  0  0  0
 14 16  1  0  0  0  0
 14 17  1  0  0  0  0
 11 12  1  0  0  0  0
 11 13  1  0  0  0  0
 11 14  1  0  0  0  0
  9 10  1  0  0  0  0
  9 11  1  0  0  0  0
  9 29  1  0  0  0  0
  7  8  1  0  0  0  0
  7  9  1  0  0  0  0
 33 34  1  0  0  0  0
 33 35  1  0  0  0  0
 33 36  1  0  0  0  0
 31 32  1  0  0  0  0
 31 33  1  0  0  0  0
M  CHG  1  20   1
M  END
$$$$
default_name
  -OEChem-02102213163D

 36 35  0     1  0  0  0  0  0999 V2000
   -4.2256   -3.6731    1.8584 H   0  0  0  0  0  0  0  0  0  0  0  0
   -4.2396   -2.6781    1.4144 C   0  0  0  0  0  0  0  0  0  0  0  0
   -4.9506   -2.0521    1.9514 H   0  0  0  0  0  0  0  0  0  0  0  0
   -4.5266   -2.7521    0.3674 H   0  0  0  0  0  0  0  0  0  0  0  0
   -2.8576   -2.0761    1.5184 C   0  0  0  0  0  0  0  0  0  0  0  0
   -1.9456   -2.7051    2.0404 O   0  0  0  0  0  0  0  0  0  0  0  0
   -2.6926   -0.8481    1.0174 N   0  0  0  0  0  0  0  0  0  0  0  0
   -3.4926   -0.3971    0.5954 H   0  0  0  0  0  0  0  0  0  0  0  0
   -1.4216   -0.1071    1.0434 C   0  0  1  0  0  0  0  0  0  0  0  0
   -0.6709   -0.6930    0.5106 H   0  0  0  0  0  0  0  0  0  0  0  0
   -1.6221    1.2315    0.3051 C   0  0  0  0  0  0  0  0  0  0  0  0
   -1.6615    1.0349   -0.7682 H   0  0  0  0  0  0  0  0  0  0  0  0
   -2.5783    1.6652    0.6058 H   0  0  0  0  0  0  0  0  0  0  0  0
   -0.5021    2.2486    0.5685 C   0  0  0  0  0  0  0  0  0  0  0  0
    0.0866    1.9341    1.4314 H   0  0  0  0  0  0  0  0  0  0  0  0
    0.1451    2.3074   -0.3072 H   0  0  0  0  0  0  0  0  0  0  0  0
   -1.1071    3.6308    0.8496 C   0  0  0  0  0  0  0  0  0  0  0  0
   -1.7160    3.9259   -0.0080 H   0  0  0  0  0  0  0  0  0  0  0  0
   -1.7501    3.5564    1.7298 H   0  0  0  0  0  0  0  0  0  0  0  0
   -0.0627    4.6487    1.0859 N   0  3  0  0  0  0  0  0  0  0  0  0
    0.8902    4.3271    1.0842 H   0  0  0  0  0  0  0  0  0  0  0  0
   -0.2624    5.9387    1.2984 C   0  0  0  0  0  0  0  0  0  0  0  0
   -1.4566    6.4607    1.3213 N   0  0  0  0  0  0  0  0  0  0  0  0
   -2.2493    5.8619    1.1710 H   0  0  0  0  0  0  0  0  0  0  0  0
   -1.5907    7.4417    1.4843 H   0  0  0  0  0  0  0  0  0  0  0  0
    0.7466    6.7389    1.4955 N   0  0  0  0  0  0  0  0  0  0  0  0
    1.6868    6.3827    1.4867 H   0  0  0  0  0  0  0  0  0  0  0  0
    0.5907    7.7169    1.6562 H   0  0  0  0  0  0  0  0  0  0  0  0
   -0.9523    0.1012    2.4848 C   0  0  0  0  0  0  0  0  0  0  0  0
    0.2133   -0.1319    2.7814 O   0  0  0  0  0  0  0  0  0  0  0  0
   -1.8684    0.5006    3.3725 N   0  0  0  0  0  0  0  0  0  0  0  0
   -2.7946    0.7048    3.0343 H   0  0  0  0  0  0  0  0  0  0  0  0
   -1.5848    0.7472    4.7873 C   0  0  0  0  0  0  0  0  0  0  0  0
   -0.8819    1.5774    4.8838 H   0  0  0  0  0  0  0  0  0  0  0  0
   -2.5030    0.9948    5.3214 H   0  0  0  0  0  0  0  0  0  0  0  0
   -1.1344   -0.1399    5.2381 H   0  0  0  0  0  0  0  0  0  0  0  0
  5  6  2  0  0  0  0
  5  7  1  0  0  0  0
  2  3  1  0  0  0  0
  2  4  1  0  0  0  0
  2  5  1  0  0  0  0
  1  2  1  0  0  0  0
 29 30  2  0  0  0  0
 29 31  1  0  0  0  0
 26 27  1  0  0  0  0
 26 28  1  0  0  0  0
 23 24  1  0  0  0  0
 23 25  1  0  0  0  0
 22 23  1  0  0  0  0
 22 26  1  0  0  0  0
 20 21  1  0  0  0  0
 20 22  2  0  0  0  0
 17 18  1  0  0  0  0
 17 19  1  0  0  0  0
 17 20  1  0  0  0  0
 14 15  1  0  0  0  0
 14 16  1  0  0  0  0
 14 17  1  0  0  0  0
 11 12  1  0  0  0  0
 11 13  1  0  0  0  0
 11 14  1  0  0  0  0
  9 10  1  0  0  0  0
  9 11  1  0  0  0  0
  9 29  1  0  0  0  0
  7  8  1  0  0  0  0
  7  9  1  0  0  0  0
 33 34  1  0  0  0  0
 33 35  1  0  0  0  0
 33 36  1  0  0  0  0
 31 32  1  0  0  0  0
 31 33  1  0  0  0  0
M  CHG  1  20   1
M  END
$$$$
default_name
  -OEChem-02102213163D

 36 35  0     1  0  0  0  0  0999 V2000
   -4.2256   -3.6731    1.8584 H   0  0  0  0  0  0  0  0  0  0  0  0
   -4.2396   -2.6781    1.4144 C   0  0  0  0  0  0  0  0  0  0  0  0
   -4.9506   -2.0521    1.9514 H   0  0  0  0  0  0  0  0  0  0  0  0
   -4.5266   -2.7521    0.3674 H   0  0  0  0  0  0  0  0  0  0  0  0
   -2.8576   -2.0761    1.5184 C   0  0  0  0  0  0  0  0  0  0  0  0
   -1.9456   -2.7051    2.0404 O   0  0  0  0  0  0  0  0  0  0  0  0
   -2.6926   -0.8481    1.0174 N   0  0  0  0  0  0  0  0  0  0  0  0
   -3.4926   -0.3971    0.5954 H   0  0  0  0  0  0  0  0  0  0  0  0
   -1.4216   -0.1071    1.0434 C   0  0  1  0  0  0  0  0  0  0  0  0
   -0.6709   -0.6930    0.5106 H   0  0  0  0  0  0  0  0  0  0  0  0
   -1.6221    1.2315    0.3051 C   0  0  0  0  0  0  0  0  0  0  0  0
   -1.6615    1.0349   -0.7682 H   0  0  0  0  0  0  0  0  0  0  0  0
   -2.5783    1.6652    0.6058 H   0  0  0  0  0  0  0  0  0  0  0  0
   -0.5021    2.2486    0.5685 C   0  0  0  0  0  0  0  0  0  0  0  0
    0.2376    1.8164    1.2438 H   0  0  0  0  0  0  0  0  0  0  0  0
   -0.0207    2.5075   -0.3751 H   0  0  0  0  0  0  0  0  0  0  0  0
   -1.0866    3.5156    1.2077 C   0  0  0  0  0  0  0  0  0  0  0  0
   -1.8448    3.9265    0.5371 H   0  0  0  0  0  0  0  0  0  0  0  0
   -1.5627    3.2407    2.1519 H   0  0  0  0  0  0  0  0  0  0  0  0
   -0.0458    4.5339    1.4577 N   0  3  0  0  0  0  0  0  0  0  0  0
    0.9005    4.2767    1.2348 H   0  0  0  0  0  0  0  0  0  0  0  0
   -0.2410    5.7478    1.9450 C   0  0  0  0  0  0  0  0  0  0  0  0
   -1.4268    6.1829    2.2673 N   0  0  0  0  0  0  0  0  0  0  0  0
   -2.2165    5.5751    2.1392 H   0  0  0  0  0  0  0  0  0  0  0  0
   -1.5575    7.1068    2.6363 H   0  0  0  0  0  0  0  0  0  0  0  0
    0.7642    6.5576    2.1211 N   0  0  0  0  0  0  0  0  0  0  0  0
    1.6978    6.2671    1.8868 H   0  0  0  0  0  0  0  0  0  0  0  0
    0.6117    7.4777    2.4909 H   0  0  0  0  0  0  0  0  0  0  0  0
   -0.9523    0.1012    2.4848 C   0  0  0  0  0  0  0  0  0  0  0  0
    0.2133   -0.1319    2.7814 O   0  0  0  0  0  0  0  0  0  0  0  0
   -1.8684    0.5006    3.3725 N   0  0  0  0  0  0  0  0  0  0  0  0
   -2.7946    0.7048    3.0343 H   0  0  0  0  0  0  0  0  0  0  0  0
   -1.5848    0.7472    4.7873 C   0  0  0  0  0  0  0  0  0  0  0  0
   -0.8819    1.5774    4.8838 H   0  0  0  0  0  0  0  0  0  0  0  0
   -2.5030    0.9948    5.3214 H   0  0  0  0  0  0  0  0  0  0  0  0
   -1.1344   -0.1399    5.2381 H   0  0  0  0  0  0  0  0  0  0  0  0
  5  6  2  0  0  0  0
  5  7  1  0  0  0  0
  2  3  1  0  0  0  0
  2  4  1  0  0  0  0
  2  5  1  0  0  0  0
  1  2  1  0  0  0  0
 29 30  2  0  0  0  0
 29 31  1  0  0  0  0
 26 27  1  0  0  0  0
 26 28  1  0  0  0  0
 23 24  1  0  0  0  0
 23 25  1  0  0  0  0
 22 23  1  0  0  0  0
 22 26  1  0  0  0  0
 20 21  1  0  0  0  0
 20 22  2  0  0  0  0
 17 18  1  0  0  0  0
 17 19  1  0  0  0  0
 17 20  1  0  0  0  0
 14 15  1  0  0  0  0
 14 16  1  0  0  0  0
 14 17  1  0  0  0  0
 11 12  1  0  0  0  0
 11 13  1  0  0  0  0
 11 14  1  0  0  0  0
  9 10  1  0  0  0  0
  9 11  1  0  0  0  0
  9 29  1  0  0  0  0
  7  8  1  0  0  0  0
  7  9  1  0  0  0  0
 33 34  1  0  0  0  0
 33 35  1  0  0  0  0
 33 36  1  0  0  0  0
 31 32  1  0  0  0  0
 31 33  1  0  0  0  0
M  CHG  1  20   1
M  END
$$$$
default_name
  -OEChem-02102213163D

 36 35  0     1  0  0  0  0  0999 V2000
   -4.2256   -3.6731    1.8584 H   0  0  0  0  0  0  0  0  0  0  0  0
   -4.2396   -2.6781    1.4144 C   0  0  0  0  0  0  0  0  0  0  0  0
   -4.9506   -2.0521    1.9514 H   0  0  0  0  0  0  0  0  0  0  0  0
   -4.5266   -2.7521    0.3674 H   0  0  0  0  0  0  0  0  0  0  0  0
   -2.8576   -2.0761    1.5184 C   0  0  0  0  0  0  0  0  0  0  0  0
   -1.9456   -2.7051    2.0404 O   0  0  0  0  0  0  0  0  0  0  0  0
   -2.6926   -0.8481    1.0174 N   0  0  0  0  0  0  0  0  0  0  0  0
   -3.4926   -0.3971    0.5954 H   0  0  0  0  0  0  0  0  0  0  0  0
   -1.4216   -0.1071    1.0434 C   0  0  1  0  0  0  0  0  0  0  0  0
   -0.6709   -0.6930    0.5106 H   0  0  0  0  0  0  0  0  0  0  0  0
   -1.6221    1.2315    0.3051 C   0  0  0  0  0  0  0  0  0  0  0  0
   -1.6615    1.0349   -0.7682 H   0  0  0  0  0  0  0  0  0  0  0  0
   -2.5783    1.6652    0.6058 H   0  0  0  0  0  0  0  0  0  0  0  0
   -0.5021    2.2486    0.5685 C   0  0  0  0  0  0  0  0  0  0  0  0
    0.3565    1.7448    1.0146 H   0  0  0  0  0  0  0  0  0  0  0  0
   -0.2014    2.7063   -0.3745 H   0  0  0  0  0  0  0  0  0  0  0  0
   -1.0004    3.3376    1.5283 C   0  0  0  0  0  0  0  0  0  0  0  0
   -1.8757    3.8185    1.0858 H   0  0  0  0  0  0  0  0  0  0  0  0
   -1.2953    2.8645    2.4679 H   0  0  0  0  0  0  0  0  0  0  0  0
    0.0393    4.3536    1.7922 N   0  3  0  0  0  0  0  0  0  0  0  0
    0.9386    4.2001    1.3690 H   0  0  0  0  0  0  0  0  0  0  0  0
   -0.1011    5.4422    2.5298 C   0  0  0  0  0  0  0  0  0  0  0  0
   -1.2234    5.7373    3.1236 N   0  0  0  0  0  0  0  0  0  0  0  0
   -2.0061    5.1168    3.0146 H   0  0  0  0  0  0  0  0  0  0  0  0
   -1.3130    6.5674    3.6802 H   0  0  0  0  0  0  0  0  0  0  0  0
    0.8964    6.2652    2.6881 N   0  0  0  0  0  0  0  0  0  0  0  0
    1.7821    6.0804    2.2495 H   0  0  0  0  0  0  0  0  0  0  0  0
    0.7856    7.0900    3.2484 H   0  0  0  0  0  0  0  0  0  0  0  0
   -0.9523    0.1012    2.4848 C   0  0  0  0  0  0  0  0  0  0  0  0
    0.2133   -0.1319    2.7814 O   0  0  0  0  0  0  0  0  0  0  0  0
   -1.8684    0.5006    3.3725 N   0  0  0  0  0  0  0  0  0  0  0  0
   -2.7946    0.7048    3.0343 H   0  0  0  0  0  0  0  0  0  0  0  0
   -1.5848    0.7472    4.7873 C   0  0  0  0  0  0  0  0  0  0  0  0
   -0.8819    1.5774    4.8838 H   0  0  0  0  0  0  0  0  0  0  0  0
   -2.5030    0.9948    5.3214 H   0  0  0  0  0  0  0  0  0  0  0  0
   -1.1344   -0.1399    5.2381 H   0  0  0  0  0  0  0  0  0  0  0  0
  5  6  2  0  0  0  0
  5  7  1  0  0  0  0
  2  3  1  0  0  0  0
  2  4  1  0  0  0  0
  2  5  1  0  0  0  0
  1  2  1  0  0  0  0
 29 30  2  0  0  0  0
 29 31  1  0  0  0  0
 26 27  1  0  0  0  0
 26 28  1  0  0  0  0
 23 24  1  0  0  0  0
 23 25  1  0  0  0  0
 22 23  1  0  0  0  0
 22 26  1  0  0  0  0
 20 21  1  0  0  0  0
 20 22  2  0  0  0  0
 17 18  1  0  0  0  0
 17 19  1  0  0  0  0
 17 20  1  0  0  0  0
 14 15  1  0  0  0  0
 14 16  1  0  0  0  0
 14 17  1  0  0  0  0
 11 12  1  0  0  0  0
 11 13  1  0  0  0  0
 11 14  1  0  0  0  0
  9 10  1  0  0  0  0
  9 11  1  0  0  0  0
  9 29  1  0  0  0  0
  7  8  1  0  0  0  0
  7  9  1  0  0  0  0
 33 34  1  0  0  0  0
 33 35  1  0  0  0  0
 33 36  1  0  0  0  0
 31 32  1  0  0  0  0
 31 33  1  0  0  0  0
M  CHG  1  20   1
M  END
$$$$
default_name
  -OEChem-02102213163D

 36 35  0     1  0  0  0  0  0999 V2000
   -4.2256   -3.6731    1.8584 H   0  0  0  0  0  0  0  0  0  0  0  0
   -4.2396   -2.6781    1.4144 C   0  0  0  0  0  0  0  0  0  0  0  0
   -4.9506   -2.0521    1.9514 H   0  0  0  0  0  0  0  0  0  0  0  0
   -4.5266   -2.7521    0.3674 H   0  0  0  0  0  0  0  0  0  0  0  0
   -2.8576   -2.0761    1.5184 C   0  0  0  0  0  0  0  0  0  0  0  0
   -1.9456   -2.7051    2.0404 O   0  0  0  0  0  0  0  0  0  0  0  0
   -2.6926   -0.8481    1.0174 N   0  0  0  0  0  0  0  0  0  0  0  0
   -3.4926   -0.3971    0.5954 H   0  0  0  0  0  0  0  0  0  0  0  0
   -1.4216   -0.1071    1.0434 C   0  0  1  0  0  0  0  0  0  0  0  0
   -0.6709   -0.6930    0.5106 H   0  0  0  0  0  0  0  0  0  0  0  0
   -1.6221    1.2315    0.3051 C   0  0  0  0  0  0  0  0  0  0  0  0
   -1.6615    1.0349   -0.7682 H   0  0  0  0  0  0  0  0  0  0  0  0
   -2.5783    1.6652    0.6058 H   0  0  0  0  0  0  0  0  0  0  0  0
   -0.5021    2.2486    0.5685 C   0  0  0  0  0  0  0  0  0  0  0  0
    0.4352    1.7242    0.7592 H   0  0  0  0  0  0  0  0  0  0  0  0
   -0.3846    2.8902   -0.3054 H   0  0  0  0  0  0  0  0  0  0  0  0
   -0.8542    3.1090    1.7897 C   0  0  0  0  0  0  0  0  0  0  0  0
   -1.8068    3.6093    1.6008 H   0  0  0  0  0  0  0  0  0  0  0  0
   -0.9661    2.4533    2.6563 H   0  0  0  0  0  0  0  0  0  0  0  0
    0.1869    4.1200    2.0667 N   0  3  0  0  0  0  0  0  0  0  0  0
    1.0017    4.1024    1.4776 H   0  0  0  0  0  0  0  0  0  0  0  0
    0.1479    5.0429    3.0131 C   0  0  0  0  0  0  0  0  0  0  0  0
   -0.8604    5.1543    3.8317 N   0  0  0  0  0  0  0  0  0  0  0  0
   -1.6324    4.5182    3.7376 H   0  0  0  0  0  0  0  0  0  0  0  0
   -0.8740    5.8601    4.5447 H   0  0  0  0  0  0  0  0  0  0  0  0
    1.1343    5.8816    3.1579 N   0  0  0  0  0  0  0  0  0  0  0  0
    1.9340    5.8353    2.5501 H   0  0  0  0  0  0  0  0  0  0  0  0
    1.1007    6.5803    3.8771 H   0  0  0  0  0  0  0  0  0  0  0  0
   -0.9523    0.1012    2.4848 C   0  0  0  0  0  0  0  0  0  0  0  0
    0.2133   -0.1319    2.7814 O   0  0  0  0  0  0  0  0  0  0  0  0
   -1.8684    0.5006    3.3725 N   0  0  0  0  0  0  0  0  0  0  0  0
   -2.7946    0.7048    3.0343 H   0  0  0  0  0  0  0  0  0  0  0  0
   -1.5848    0.7472    4.7873 C   0  0  0  0  0  0  0  0  0  0  0  0
   -0.8819    1.5774    4.8838 H   0  0  0  0  0  0  0  0  0  0  0  0
   -2.5030    0.9948    5.3214 H   0  0  0  0  0  0  0  0  0  0  0  0
   -1.1344   -0.1399    5.2381 H   0  0  0  0  0  0  0  0  0  0  0  0
  5  6  2  0  0  0  0
  5  7  1  0  0  0  0
  2  3  1  0  0  0  0
  2  4  1  0  0  0  0
  2  5  1  0  0  0  0
  1  2  1  0  0  0  0
 29 30  2  0  0  0  0
 29 31  1  0  0  0  0
 26 27  1  0  0  0  0
 26 28  1  0  0  0  0
 23 24  1  0  0  0  0
 23 25  1  0  0  0  0
 22 23  1  0  0  0  0
 22 26  1  0  0  0  0
 20 21  1  0  0  0  0
 20 22  2  0  0  0  0
 17 18  1  0  0  0  0
 17 19  1  0  0  0  0
 17 20  1  0  0  0  0
 14 15  1  0  0  0  0
 14 16  1  0  0  0  0
 14 17  1  0  0  0  0
 11 12  1  0  0  0  0
 11 13  1  0  0  0  0
 11 14  1  0  0  0  0
  9 10  1  0  0  0  0
  9 11  1  0  0  0  0
  9 29  1  0  0  0  0
  7  8  1  0  0  0  0
  7  9  1  0  0  0  0
 33 34  1  0  0  0  0
 33 35  1  0  0  0  0
 33 36  1  0  0  0  0
 31 32  1  0  0  0  0
 31 33  1  0  0  0  0
M  CHG  1  20   1
M  END
$$$$
default_name
  -OEChem-02102213163D

 36 35  0     1  0  0  0  0  0999 V2000
   -4.2256   -3.6731    1.8584 H   0  0  0  0  0  0  0  0  0  0  0  0
   -4.2396   -2.6781    1.4144 C   0  0  0  0  0  0  0  0  0  0  0  0
   -4.9506   -2.0521    1.9514 H   0  0  0  0  0  0  0  0  0  0  0  0
   -4.5266   -2.7521    0.3674 H   0  0  0  0  0  0  0  0  0  0  0  0
   -2.8576   -2.0761    1.5184 C   0  0  0  0  0  0  0  0  0  0  0  0
   -1.9456   -2.7051    2.0404 O   0  0  0  0  0  0  0  0  0  0  0  0
   -2.6926   -0.8481    1.0174 N   0  0  0  0  0  0  0  0  0  0  0  0
   -3.4926   -0.3971    0.5954 H   0  0  0  0  0  0  0  0  0  0  0  0
   -1.4216   -0.1071    1.0434 C   0  0  1  0  0  0  0  0  0  0  0  0
   -0.6709   -0.6930    0.5106 H   0  0  0  0  0  0  0  0  0  0  0  0
   -1.6221    1.2315    0.3051 C   0  0  0  0  0  0  0  0  0  0  0  0
   -1.6615    1.0349   -0.7682 H   0  0  0  0  0  0  0  0  0  0  0  0
   -2.5783    1.6652    0.6058 H   0  0  0  0  0  0  0  0  0  0  0  0
   -0.5021    2.2486    0.5685 C   0  0  0  0  0  0  0  0  0  0  0  0
    0.4684    1.7560    0.4952 H   0  0  0  0  0  0  0  0  0  0  0  0
   -0.5579    3.0467   -0.1726 H   0  0  0  0  0  0  0  0  0  0  0  0
   -0.6581    2.8454    1.9739 C   0  0  0  0  0  0  0  0  0  0  0  0
   -1.6426    3.3130    2.0468 H   0  0  0  0  0  0  0  0  0  0  0  0
   -0.5976    2.0351    2.7043 H   0  0  0  0  0  0  0  0  0  0  0  0
    0.3869    3.8492    2.2624 N   0  3  0  0  0  0  0  0  0  0  0  0
    1.0857    3.9904    1.5532 H   0  0  0  0  0  0  0  0  0  0  0  0
    0.4890    4.5771    3.3618 C   0  0  0  0  0  0  0  0  0  0  0  0
   -0.3626    4.4736    4.3433 N   0  0  0  0  0  0  0  0  0  0  0  0
   -1.1210    3.8201    4.2589 H   0  0  0  0  0  0  0  0  0  0  0  0
   -0.2703    5.0333    5.1711 H   0  0  0  0  0  0  0  0  0  0  0  0
    1.4617    5.4330    3.4985 N   0  0  0  0  0  0  0  0  0  0  0  0
    2.1431    5.5485    2.7682 H   0  0  0  0  0  0  0  0  0  0  0  0
    1.5355    5.9833    4.3342 H   0  0  0  0  0  0  0  0  0  0  0  0
   -0.9523    0.1012    2.4848 C   0  0  0  0  0  0  0  0  0  0  0  0
    0.2133   -0.1319    2.7814 O   0  0  0  0  0  0  0  0  0  0  0  0
   -1.8684    0.5006    3.3725 N   0  0  0  0  0  0  0  0  0  0  0  0
   -2.7946    0.7048    3.0343 H   0  0  0  0  0  0  0  0  0  0  0  0
   -1.5848    0.7472    4.7873 C   0  0  0  0  0  0  0  0  0  0  0  0
   -0.8819    1.5774    4.8838 H   0  0  0  0  0  0  0  0  0  0  0  0
   -2.5030    0.9948    5.3214 H   0  0  0  0  0  0  0  0  0  0  0  0
   -1.1344   -0.1399    5.2381 H   0  0  0  0  0  0  0  0  0  0  0  0
  5  6  2  0  0  0  0
  5  7  1  0  0  0  0
  2  3  1  0  0  0  0
  2  4  1  0  0  0  0
  2  5  1  0  0  0  0
  1  2  1  0  0  0  0
 29 30  2  0  0  0  0
 29 31  1  0  0  0  0
 26 27  1  0  0  0  0
 26 28  1  0  0  0  0
 23 24  1  0  0  0  0
 23 25  1  0  0  0  0
 22 23  1  0  0  0  0
 22 26  1  0  0  0  0
 20 21  1  0  0  0  0
 20 22  2  0  0  0  0
 17 18  1  0  0  0  0
 17 19  1  0  0  0  0
 17 20  1  0  0  0  0
 14 15  1  0  0  0  0
 14 16  1  0  0  0  0
 14 17  1  0  0  0  0
 11 12  1  0  0  0  0
 11 13  1  0  0  0  0
 11 14  1  0  0  0  0
  9 10  1  0  0  0  0
  9 11  1  0  0  0  0
  9 29  1  0  0  0  0
  7  8  1  0  0  0  0
  7  9  1  0  0  0  0
 33 34  1  0  0  0  0
 33 35  1  0  0  0  0
 33 36  1  0  0  0  0
 31 32  1  0  0  0  0
 31 33  1  0  0  0  0
M  CHG  1  20   1
M  END
$$$$
default_name
  -OEChem-02102213163D

 36 35  0     1  0  0  0  0  0999 V2000
   -4.2256   -3.6731    1.8584 H   0  0  0  0  0  0  0  0  0  0  0  0
   -4.2396   -2.6781    1.4144 C   0  0  0  0  0  0  0  0  0  0  0  0
   -4.9506   -2.0521    1.9514 H   0  0  0  0  0  0  0  0  0  0  0  0
   -4.5266   -2.7521    0.3674 H   0  0  0  0  0  0  0  0  0  0  0  0
   -2.8576   -2.0761    1.5184 C   0  0  0  0  0  0  0  0  0  0  0  0
   -1.9456   -2.7051    2.0404 O   0  0  0  0  0  0  0  0  0  0  0  0
   -2.6926   -0.8481    1.0174 N   0  0  0  0  0  0  0  0  0  0  0  0
   -3.4926   -0.3971    0.5954 H   0  0  0  0  0  0  0  0  0  0  0  0
   -1.4216   -0.1071    1.0434 C   0  0  1  0  0  0  0  0  0  0  0  0
   -0.6709   -0.6930    0.5106 H   0  0  0  0  0  0  0  0  0  0  0  0
   -1.6221    1.2315    0.3051 C   0  0  0  0  0  0  0  0  0  0  0  0
   -1.6615    1.0349   -0.7682 H   0  0  0  0  0  0  0  0  0  0  0  0
   -2.5783    1.6652    0.6058 H   0  0  0  0  0  0  0  0  0  0  0  0
   -0.5021    2.2486    0.5685 C   0  0  0  0  0  0  0  0  0  0  0  0
    0.4539    1.8380    0.2405 H   0  0  0  0  0  0  0  0  0  0  0  0
   -0.7095    3.1650    0.0150 H   0  0  0  0  0  0  0  0  0  0  0  0
   -0.4253    2.5646    2.0684 C   0  0  0  0  0  0  0  0  0  0  0  0
   -1.3944    2.9500    2.3936 H   0  0  0  0  0  0  0  0  0  0  0  0
   -0.2149    1.6385    2.6085 H   0  0  0  0  0  0  0  0  0  0  0  0
    0.6256    3.5594    2.3661 N   0  3  0  0  0  0  0  0  0  0  0  0
    1.1847    3.8717    1.5907 H   0  0  0  0  0  0  0  0  0  0  0  0
    0.8990    4.0764    3.5523 C   0  0  0  0  0  0  0  0  0  0  0  0
    0.2363    3.7416    4.6238 N   0  0  0  0  0  0  0  0  0  0  0  0
   -0.5066    3.0700    4.5430 H   0  0  0  0  0  0  0  0  0  0  0  0
    0.4568    4.1431    5.5165 H   0  0  0  0  0  0  0  0  0  0  0  0
    1.8562    4.9498    3.6867 N   0  0  0  0  0  0  0  0  0  0  0  0
    2.3953    5.2397    2.8889 H   0  0  0  0  0  0  0  0  0  0  0  0
    2.0603    5.3396    4.5884 H   0  0  0  0  0  0  0  0  0  0  0  0
   -0.9523    0.1012    2.4848 C   0  0  0  0  0  0  0  0  0  0  0  0
    0.2133   -0.1319    2.7814 O   0  0  0  0  0  0  0  0  0  0  0  0
   -1.8684    0.5006    3.3725 N   0  0  0  0  0  0  0  0  0  0  0  0
   -2.7946    0.7048    3.0343 H   0  0  0  0  0  0  0  0  0  0  0  0
   -1.5848    0.7472    4.7873 C   0  0  0  0  0  0  0  0  0  0  0  0
   -0.8819    1.5774    4.8838 H   0  0  0  0  0  0  0  0  0  0  0  0
   -2.5030    0.9948    5.3214 H   0  0  0  0  0  0  0  0  0  0  0  0
   -1.1344   -0.1399    5.2381 H   0  0  0  0  0  0  0  0  0  0  0  0
  5  6  2  0  0  0  0
  5  7  1  0  0  0  0
  2  3  1  0  0  0  0
  2  4  1  0  0  0  0
  2  5  1  0  0  0  0
  1  2  1  0  0  0  0
 29 30  2  0  0  0  0
 29 31  1  0  0  0  0
 26 27  1  0  0  0  0
 26 28  1  0  0  0  0
 23 24  1  0  0  0  0
 23 25  1  0  0  0  0
 22 23  1  0  0  0  0
 22 26  1  0  0  0  0
 20 21  1  0  0  0  0
 20 22  2  0  0  0  0
 17 18  1  0  0  0  0
 17 19  1  0  0  0  0
 17 20  1  0  0  0  0
 14 15  1  0  0  0  0
 14 16  1  0  0  0  0
 14 17  1  0  0  0  0
 11 12  1  0  0  0  0
 11 13  1  0  0  0  0
 11 14  1  0  0  0  0
  9 10  1  0  0  0  0
  9 11  1  0  0  0  0
  9 29  1  0  0  0  0
  7  8  1  0  0  0  0
  7  9  1  0  0  0  0
 33 34  1  0  0  0  0
 33 35  1  0  0  0  0
 33 36  1  0  0  0  0
 31 32  1  0  0  0  0
 31 33  1  0  0  0  0
M  CHG  1  20   1
M  END
$$$$
default_name
  -OEChem-02102213163D

 36 35  0     1  0  0  0  0  0999 V2000
   -4.2256   -3.6731    1.8584 H   0  0  0  0  0  0  0  0  0  0  0  0
   -4.2396   -2.6781    1.4144 C   0  0  0  0  0  0  0  0  0  0  0  0
   -4.9506   -2.0521    1.9514 H   0  0  0  0  0  0  0  0  0  0  0  0
   -4.5266   -2.7521    0.3674 H   0  0  0  0  0  0  0  0  0  0  0  0
   -2.8576   -2.0761    1.5184 C   0  0  0  0  0  0  0  0  0  0  0  0
   -1.9456   -2.7051    2.0404 O   0  0  0  0  0  0  0  0  0  0  0  0
   -2.6926   -0.8481    1.0174 N   0  0  0  0  0  0  0  0  0  0  0  0
   -3.4926   -0.3971    0.5954 H   0  0  0  0  0  0  0  0  0  0  0  0
   -1.4216   -0.1071    1.0434 C   0  0  1  0  0  0  0  0  0  0  0  0
   -0.6709   -0.6930    0.5106 H   0  0  0  0  0  0  0  0  0  0  0  0
   -1.6221    1.2315    0.3051 C   0  0  0  0  0  0  0  0  0  0  0  0
   -1.6615    1.0349   -0.7682 H   0  0  0  0  0  0  0  0  0  0  0  0
   -2.5783    1.6652    0.6058 H   0  0  0  0  0  0  0  0  0  0  0  0
   -0.5021    2.2486    0.5685 C   0  0  0  0  0  0  0  0  0  0  0  0
    0.3924    1.9647    0.0124 H   0  0  0  0  0  0  0  0  0  0  0  0
   -0.8291    3.2372    0.2445 H   0  0  0  0  0  0  0  0  0  0  0  0
   -0.1718    2.2859    2.0668 C   0  0  0  0  0  0  0  0  0  0  0  0
   -1.0791    2.5448    2.6175 H   0  0  0  0  0  0  0  0  0  0  0  0
    0.1559    1.2905    2.3755 H   0  0  0  0  0  0  0  0  0  0  0  0
    0.8868    3.2706    2.3706 N   0  3  0  0  0  0  0  0  0  0  0  0
    1.2921    3.7543    1.5876 H   0  0  0  0  0  0  0  0  0  0  0  0
    1.3498    3.5750    3.5715 C   0  0  0  0  0  0  0  0  0  0  0  0
    0.8953    3.0082    4.6538 N   0  0  0  0  0  0  0  0  0  0  0  0
    0.1688    2.3192    4.5705 H   0  0  0  0  0  0  0  0  0  0  0  0
    1.2579    3.2504    5.5575 H   0  0  0  0  0  0  0  0  0  0  0  0
    2.2910    4.4652    3.7097 N   0  0  0  0  0  0  0  0  0  0  0  0
    2.6732    4.9297    2.9040 H   0  0  0  0  0  0  0  0  0  0  0  0
    2.6393    4.6931    4.6225 H   0  0  0  0  0  0  0  0  0  0  0  0
   -0.9523    0.1012    2.4848 C   0  0  0  0  0  0  0  0  0  0  0  0
    0.2133   -0.1319    2.7814 O   0  0  0  0  0  0  0  0  0  0  0  0
   -1.8684    0.5006    3.3725 N   0  0  0  0  0  0  0  0  0  0  0  0
   -2.7946    0.7048    3.0343 H   0  0  0  0  0  0  0  0  0  0  0  0
   -1.5848    0.7472    4.7873 C   0  0  0  0  0  0  0  0  0  0  0  0
   -0.8819    1.5774    4.8838 H   0  0  0  0  0  0  0  0  0  0  0  0
   -2.5030    0.9948    5.3214 H   0  0  0  0  0  0  0  0  0  0  0  0
   -1.1344   -0.1399    5.2381 H   0  0  0  0  0  0  0  0  0  0  0  0
  5  6  2  0  0  0  0
  5  7  1  0  0  0  0
  2  3  1  0  0  0  0
  2  4  1  0  0  0  0
  2  5  1  0  0  0  0
  1  2  1  0  0  0  0
 29 30  2  0  0  0  0
 29 31  1  0  0  0  0
 26 27  1  0  0  0  0
 26 28  1  0  0  0  0
 23 24  1  0  0  0  0
 23 25  1  0  0  0  0
 22 23  1  0  0  0  0
 22 26  1  0  0  0  0
 20 21  1  0  0  0  0
 20 22  2  0  0  0  0
 17 18  1  0  0  0  0
 17 19  1  0  0  0  0
 17 20  1  0  0  0  0
 14 15  1  0  0  0  0
 14 16  1  0  0  0  0
 14 17  1  0  0  0  0
 11 12  1  0  0  0  0
 11 13  1  0  0  0  0
 11 14  1  0  0  0  0
  9 10  1  0  0  0  0
  9 11  1  0  0  0  0
  9 29  1  0  0  0  0
  7  8  1  0  0  0  0
  7  9  1  0  0  0  0
 33 34  1  0  0  0  0
 33 35  1  0  0  0  0
 33 36  1  0  0  0  0
 31 32  1  0  0  0  0
 31 33  1  0  0  0  0
M  CHG  1  20   1
M  END
$$$$
default_name
  -OEChem-02102213163D

 36 35  0     1  0  0  0  0  0999 V2000
   -4.2256   -3.6731    1.8584 H   0  0  0  0  0  0  0  0  0  0  0  0
   -4.2396   -2.6781    1.4144 C   0  0  0  0  0  0  0  0  0  0  0  0
   -4.9506   -2.0521    1.9514 H   0  0  0  0  0  0  0  0  0  0  0  0
   -4.5266   -2.7521    0.3674 H   0  0  0  0  0  0  0  0  0  0  0  0
   -2.8576   -2.0761    1.5184 C   0  0  0  0  0  0  0  0  0  0  0  0
   -1.9456   -2.7051    2.0404 O   0  0  0  0  0  0  0  0  0  0  0  0
   -2.6926   -0.8481    1.0174 N   0  0  0  0  0  0  0  0  0  0  0  0
   -3.4926   -0.3971    0.5954 H   0  0  0  0  0  0  0  0  0  0  0  0
   -1.4216   -0.1071    1.0434 C   0  0  1  0  0  0  0  0  0  0  0  0
   -0.6709   -0.6930    0.5106 H   0  0  0  0  0  0  0  0  0  0  0  0
   -1.6221    1.2315    0.3051 C   0  0  0  0  0  0  0  0  0  0  0  0
   -1.6615    1.0349   -0.7682 H   0  0  0  0  0  0  0  0  0  0  0  0
   -2.5783    1.6652    0.6058 H   0  0  0  0  0  0  0  0  0  0  0  0
   -0.5021    2.2486    0.5685 C   0  0  0  0  0  0  0  0  0  0  0  0
    0.2884    2.1273   -0.1734 H   0  0  0  0  0  0  0  0  0  0  0  0
   -0.9084    3.2583    0.5003 H   0  0  0  0  0  0  0  0  0  0  0  0
    0.0851    2.0283    1.9693 C   0  0  0  0  0  0  0  0  0  0  0  0
   -0.7182    2.1252    2.7033 H   0  0  0  0  0  0  0  0  0  0  0  0
    0.4897    1.0147    2.0211 H   0  0  0  0  0  0  0  0  0  0  0  0
    1.1528    3.0024    2.2757 N   0  3  0  0  0  0  0  0  0  0  0  0
    1.4005    3.6462    1.5439 H   0  0  0  0  0  0  0  0  0  0  0  0
    1.8108    3.1071    3.4181 C   0  0  0  0  0  0  0  0  0  0  0  0
    1.5695    2.3234    4.4314 N   0  0  0  0  0  0  0  0  0  0  0  0
    0.8593    1.6188    4.3396 H   0  0  0  0  0  0  0  0  0  0  0  0
    2.0784    2.4160    5.2912 H   0  0  0  0  0  0  0  0  0  0  0  0
    2.7364    4.0119    3.5658 N   0  0  0  0  0  0  0  0  0  0  0  0
    2.9580    4.6398    2.8124 H   0  0  0  0  0  0  0  0  0  0  0  0
    3.2332    4.0880    4.4342 H   0  0  0  0  0  0  0  0  0  0  0  0
   -0.9523    0.1012    2.4848 C   0  0  0  0  0  0  0  0  0  0  0  0
    0.2133   -0.1319    2.7814 O   0  0  0  0  0  0  0  0  0  0  0  0
   -1.8684    0.5006    3.3725 N   0  0  0  0  0  0  0  0  0  0  0  0
   -2.7946    0.7048    3.0343 H   0  0  0  0  0  0  0  0  0  0  0  0
   -1.5848    0.7472    4.7873 C   0  0  0  0  0  0  0  0  0  0  0  0
   -0.8819    1.5774    4.8838 H   0  0  0  0  0  0  0  0  0  0  0  0
   -2.5030    0.9948    5.3214 H   0  0  0  0  0  0  0  0  0  0  0  0
   -1.1344   -0.1399    5.2381 H   0  0  0  0  0  0  0  0  0  0  0  0
  5  6  2  0  0  0  0
  5  7  1  0  0  0  0
  2  3  1  0  0  0  0
  2  4  1  0  0  0  0
  2  5  1  0  0  0  0
  1  2  1  0  0  0  0
 29 30  2  0  0  0  0
 29 31  1  0  0  0  0
 26 27  1  0  0  0  0
 26 28  1  0  0  0  0
 23 24  1  0  0  0  0
 23 25  1  0  0  0  0
 22 23  1  0  0  0  0
 22 26  1  0  0  0  0
 20 21  1  0  0  0  0
 20 22  2  0  0  0  0
 17 18  1  0  0  0  0
 17 19  1  0  0  0  0
 17 20  1  0  0  0  0
 14 15  1  0  0  0  0
 14 16  1  0  0  0  0
 14 17  1  0  0  0  0
 11 12  1  0  0  0  0
 11 13  1  0  0  0  0
 11 14  1  0  0  0  0
  9 10  1  0  0  0  0
  9 11  1  0  0  0  0
  9 29  1  0  0  0  0
  7  8  1  0  0  0  0
  7  9  1  0  0  0  0
 33 34  1  0  0  0  0
 33 35  1  0  0  0  0
 33 36  1  0  0  0  0
 31 32  1  0  0  0  0
 31 33  1  0  0  0  0
M  CHG  1  20   1
M  END
$$$$
default_name
  -OEChem-02102213163D

 36 35  0     1  0  0  0  0  0999 V2000
   -4.2256   -3.6731    1.8584 H   0  0  0  0  0  0  0  0  0  0  0  0
   -4.2396   -2.6781    1.4144 C   0  0  0  0  0  0  0  0  0  0  0  0
   -4.9506   -2.0521    1.9514 H   0  0  0  0  0  0  0  0  0  0  0  0
   -4.5266   -2.7521    0.3674 H   0  0  0  0  0  0  0  0  0  0  0  0
   -2.8576   -2.0761    1.5184 C   0  0  0  0  0  0  0  0  0  0  0  0
   -1.9456   -2.7051    2.0404 O   0  0  0  0  0  0  0  0  0  0  0  0
   -2.6926   -0.8481    1.0174 N   0  0  0  0  0  0  0  0  0  0  0  0
   -3.4926   -0.3971    0.5954 H   0  0  0  0  0  0  0  0  0  0  0  0
   -1.4216   -0.1071    1.0434 C   0  0  1  0  0  0  0  0  0  0  0  0
   -0.6709   -0.6930    0.5106 H   0  0  0  0  0  0  0  0  0  0  0  0
   -1.6221    1.2315    0.3051 C   0  0  0  0  0  0  0  0  0  0  0  0
   -1.6615    1.0349   -0.7682 H   0  0  0  0  0  0  0  0  0  0  0  0
   -2.5783    1.6652    0.6058 H   0  0  0  0  0  0  0  0  0  0  0  0
   -0.5021    2.2486    0.5685 C   0  0  0  0  0  0  0  0  0  0  0  0
    0.1488    2.3149   -0.3044 H   0  0  0  0  0  0  0  0  0  0  0  0
   -0.9421    3.2269    0.7650 H   0  0  0  0  0  0  0  0  0  0  0  0
    0.3280    1.8093    1.7823 C   0  0  0  0  0  0  0  0  0  0  0  0
   -0.3362    1.7197    2.6450 H   0  0  0  0  0  0  0  0  0  0  0  0
    0.7635    0.8301    1.5696 H   0  0  0  0  0  0  0  0  0  0  0  0
    1.4053    2.7730    2.0878 N   0  3  0  0  0  0  0  0  0  0  0  0
    1.5025    3.5549    1.4629 H   0  0  0  0  0  0  0  0  0  0  0  0
    2.2506    2.7046    3.1026 C   0  0  0  0  0  0  0  0  0  0  0  0
    2.2131    1.7338    3.9717 N   0  0  0  0  0  0  0  0  0  0  0  0
    1.5177    1.0164    3.8660 H   0  0  0  0  0  0  0  0  0  0  0  0
    2.8623    1.6966    4.7359 H   0  0  0  0  0  0  0  0  0  0  0  0
    3.1621    3.6211    3.2650 N   0  0  0  0  0  0  0  0  0  0  0  0
    3.2303    4.3898    2.6204 H   0  0  0  0  0  0  0  0  0  0  0  0
    3.8014    3.5654    4.0362 H   0  0  0  0  0  0  0  0  0  0  0  0
   -0.9523    0.1012    2.4848 C   0  0  0  0  0  0  0  0  0  0  0  0
    0.2133   -0.1319    2.7814 O   0  0  0  0  0  0  0  0  0  0  0  0
   -1.8684    0.5006    3.3725 N   0  0  0  0  0  0  0  0  0  0  0  0
   -2.7946    0.7048    3.0343 H   0  0  0  0  0  0  0  0  0  0  0  0
   -1.5848    0.7472    4.7873 C   0  0  0  0  0  0  0  0  0  0  0  0
   -0.8819    1.5774    4.8838 H   0  0  0  0  0  0  0  0  0  0  0  0
   -2.5030    0.9948    5.3214 H   0  0  0  0  0  0  0  0  0  0  0  0
   -1.1344   -0.1399    5.2381 H   0  0  0  0  0  0  0  0  0  0  0  0
  5  6  2  0  0  0  0
  5  7  1  0  0  0  0
  2  3  1  0  0  0  0
  2  4  1  0  0  0  0
  2  5  1  0  0  0  0
  1  2  1  0  0  0  0
 29 30  2  0  0  0  0
 29 31  1  0  0  0  0
 26 27  1  0  0  0  0
 26 28  1  0  0  0  0
 23 24  1  0  0  0  0
 23 25  1  0  0  0  0
 22 23  1  0  0  0  0
 22 26  1  0  0  0  0
 20 21  1  0  0  0  0
 20 22  2  0  0  0  0
 17 18  1  0  0  0  0
 17 19  1  0  0  0  0
 17 20  1  0  0  0  0
 14 15  1  0  0  0  0
 14 16  1  0  0  0  0
 14 17  1  0  0  0  0
 11 12  1  0  0  0  0
 11 13  1  0  0  0  0
 11 14  1  0  0  0  0
  9 10  1  0  0  0  0
  9 11  1  0  0  0  0
  9 29  1  0  0  0  0
  7  8  1  0  0  0  0
  7  9  1  0  0  0  0
 33 34  1  0  0  0  0
 33 35  1  0  0  0  0
 33 36  1  0  0  0  0
 31 32  1  0  0  0  0
 31 33  1  0  0  0  0
M  CHG  1  20   1
M  END
$$$$
default_name
  -OEChem-02102213163D

 36 35  0     1  0  0  0  0  0999 V2000
   -4.2256   -3.6731    1.8584 H   0  0  0  0  0  0  0  0  0  0  0  0
   -4.2396   -2.6781    1.4144 C   0  0  0  0  0  0  0  0  0  0  0  0
   -4.9506   -2.0521    1.9514 H   0  0  0  0  0  0  0  0  0  0  0  0
   -4.5266   -2.7521    0.3674 H   0  0  0  0  0  0  0  0  0  0  0  0
   -2.8576   -2.0761    1.5184 C   0  0  0  0  0  0  0  0  0  0  0  0
   -1.9456   -2.7051    2.0404 O   0  0  0  0  0  0  0  0  0  0  0  0
   -2.6926   -0.8481    1.0174 N   0  0  0  0  0  0  0  0  0  0  0  0
   -3.4926   -0.3971    0.5954 H   0  0  0  0  0  0  0  0  0  0  0  0
   -1.4216   -0.1071    1.0434 C   0  0  1  0  0  0  0  0  0  0  0  0
   -0.6709   -0.6930    0.5106 H   0  0  0  0  0  0  0  0  0  0  0  0
   -1.6221    1.2315    0.3051 C   0  0  0  0  0  0  0  0  0  0  0  0
   -1.6615    1.0349   -0.7682 H   0  0  0  0  0  0  0  0  0  0  0  0
   -2.5783    1.6652    0.6058 H   0  0  0  0  0  0  0  0  0  0  0  0
   -0.5021    2.2486    0.5685 C   0  0  0  0  0  0  0  0  0  0  0  0
   -0.0167    2.5146   -0.3716 H   0  0  0  0  0  0  0  0  0  0  0  0
   -0.9279    3.1451    1.0205 H   0  0  0  0  0  0  0  0  0  0  0  0
    0.5403    1.6437    1.5188 C   0  0  0  0  0  0  0  0  0  0  0  0
    0.0407    1.3560    2.4467 H   0  0  0  0  0  0  0  0  0  0  0  0
    0.9588    0.7492    1.0517 H   0  0  0  0  0  0  0  0  0  0  0  0
    1.6271    2.5982    1.8197 N   0  3  0  0  0  0  0  0  0  0  0  0
    1.5912    3.4865    1.3498 H   0  0  0  0  0  0  0  0  0  0  0  0
    2.6392    2.3948    2.6464 C   0  0  0  0  0  0  0  0  0  0  0  0
    2.7821    1.2796    3.3061 N   0  0  0  0  0  0  0  0  0  0  0  0
    2.0992    0.5532    3.1819 H   0  0  0  0  0  0  0  0  0  0  0  0
    3.5562    1.1414    3.9293 H   0  0  0  0  0  0  0  0  0  0  0  0
    3.5391    3.3193    2.8276 N   0  0  0  0  0  0  0  0  0  0  0  0
    3.4714    4.1965    2.3411 H   0  0  0  0  0  0  0  0  0  0  0  0
    4.3053    3.1609    3.4558 H   0  0  0  0  0  0  0  0  0  0  0  0
   -0.9523    0.1012    2.4848 C   0  0  0  0  0  0  0  0  0  0  0  0
    0.2133   -0.1319    2.7814 O   0  0  0  0  0  0  0  0  0  0  0  0
   -1.8684    0.5006    3.3725 N   0  0  0  0  0  0  0  0  0  0  0  0
   -2.7946    0.7048    3.0343 H   0  0  0  0  0  0  0  0  0  0  0  0
   -1.5848    0.7472    4.7873 C   0  0  0  0  0  0  0  0  0  0  0  0
   -0.8819    1.5774    4.8838 H   0  0  0  0  0  0  0  0  0  0  0  0
   -2.5030    0.9948    5.3214 H   0  0  0  0  0  0  0  0  0  0  0  0
   -1.1344   -0.1399    5.2381 H   0  0  0  0  0  0  0  0  0  0  0  0
  5  6  2  0  0  0  0
  5  7  1  0  0  0  0
  2  3  1  0  0  0  0
  2  4  1  0  0  0  0
  2  5  1  0  0  0  0
  1  2  1  0  0  0  0
 29 30  2  0  0  0  0
 29 31  1  0  0  0  0
 26 27  1  0  0  0  0
 26 28  1  0  0  0  0
 23 24  1  0  0  0  0
 23 25  1  0  0  0  0
 22 23  1  0  0  0  0
 22 26  1  0  0  0  0
 20 21  1  0  0  0  0
 20 22  2  0  0  0  0
 17 18  1  0  0  0  0
 17 19  1  0  0  0  0
 17 20  1  0  0  0  0
 14 15  1  0  0  0  0
 14 16  1  0  0  0  0
 14 17  1  0  0  0  0
 11 12  1  0  0  0  0
 11 13  1  0  0  0  0
 11 14  1  0  0  0  0
  9 10  1  0  0  0  0
  9 11  1  0  0  0  0
  9 29  1  0  0  0  0
  7  8  1  0  0  0  0
  7  9  1  0  0  0  0
 33 34  1  0  0  0  0
 33 35  1  0  0  0  0
 33 36  1  0  0  0  0
 31 32  1  0  0  0  0
 31 33  1  0  0  0  0
M  CHG  1  20   1
M  END
$$$$
default_name
  -OEChem-02102213163D

 36 35  0     1  0  0  0  0  0999 V2000
   -4.2256   -3.6731    1.8584 H   0  0  0  0  0  0  0  0  0  0  0  0
   -4.2396   -2.6781    1.4144 C   0  0  0  0  0  0  0  0  0  0  0  0
   -4.9506   -2.0521    1.9514 H   0  0  0  0  0  0  0  0  0  0  0  0
   -4.5266   -2.7521    0.3674 H   0  0  0  0  0  0  0  0  0  0  0  0
   -2.8576   -2.0761    1.5184 C   0  0  0  0  0  0  0  0  0  0  0  0
   -1.9456   -2.7051    2.0404 O   0  0  0  0  0  0  0  0  0  0  0  0
   -2.6926   -0.8481    1.0174 N   0  0  0  0  0  0  0  0  0  0  0  0
   -3.4926   -0.3971    0.5954 H   0  0  0  0  0  0  0  0  0  0  0  0
   -1.4216   -0.1071    1.0434 C   0  0  1  0  0  0  0  0  0  0  0  0
   -0.6709   -0.6930    0.5106 H   0  0  0  0  0  0  0  0  0  0  0  0
   -1.6221    1.2315    0.3051 C   0  0  0  0  0  0  0  0  0  0  0  0
   -1.6615    1.0349   -0.7682 H   0  0  0  0  0  0  0  0  0  0  0  0
   -2.5783    1.6652    0.6058 H   0  0  0  0  0  0  0  0  0  0  0  0
   -0.5021    2.2486    0.5685 C   0  0  0  0  0  0  0  0  0  0  0  0
   -0.1971    2.7129   -0.3704 H   0  0  0  0  0  0  0  0  0  0  0  0
   -0.8667    3.0185    1.2494 H   0  0  0  0  0  0  0  0  0  0  0  0
    0.7075    1.5430    1.1966 C   0  0  0  0  0  0  0  0  0  0  0  0
    0.3870    1.0589    2.1219 H   0  0  0  0  0  0  0  0  0  0  0  0
    1.0623    0.7774    0.5026 H   0  0  0  0  0  0  0  0  0  0  0  0
    1.8032    2.4897    1.4897 N   0  3  0  0  0  0  0  0  0  0  0  0
    1.6605    3.4458    1.2125 H   0  0  0  0  0  0  0  0  0  0  0  0
    2.9501    2.1990    2.0808 C   0  0  0  0  0  0  0  0  0  0  0  0
    3.2377    0.9918    2.4799 N   0  0  0  0  0  0  0  0  0  0  0  0
    2.5642    0.2607    2.3341 H   0  0  0  0  0  0  0  0  0  0  0  0
    4.1129    0.7881    2.9265 H   0  0  0  0  0  0  0  0  0  0  0  0
    3.8417    3.1270    2.2836 N   0  0  0  0  0  0  0  0  0  0  0  0
    3.6651    4.0733    1.9934 H   0  0  0  0  0  0  0  0  0  0  0  0
    4.7104    2.9022    2.7324 H   0  0  0  0  0  0  0  0  0  0  0  0
   -0.9523    0.1012    2.4848 C   0  0  0  0  0  0  0  0  0  0  0  0
    0.2133   -0.1319    2.7814 O   0  0  0  0  0  0  0  0  0  0  0  0
   -1.8684    0.5006    3.3725 N   0  0  0  0  0  0  0  0  0  0  0  0
   -2.7946    0.7048    3.0343 H   0  0  0  0  0  0  0  0  0  0  0  0
   -1.5848    0.7472    4.7873 C   0  0  0  0  0  0  0  0  0  0  0  0
   -0.8819    1.5774    4.8838 H   0  0  0  0  0  0  0  0  0  0  0  0
   -2.5030    0.9948    5.3214 H   0  0  0  0  0  0  0  0  0  0  0  0
   -1.1344   -0.1399    5.2381 H   0  0  0  0  0  0  0  0  0  0  0  0
  5  6  2  0  0  0  0
  5  7  1  0  0  0  0
  2  3  1  0  0  0  0
  2  4  1  0  0  0  0
  2  5  1  0  0  0  0
  1  2  1  0  0  0  0
 29 30  2  0  0  0  0
 29 31  1  0  0  0  0
 26 27  1  0  0  0  0
 26 28  1  0  0  0  0
 23 24  1  0  0  0  0
 23 25  1  0  0  0  0
 22 23  1  0  0  0  0
 22 26  1  0  0  0  0
 20 21  1  0  0  0  0
 20 22  2  0  0  0  0
 17 18  1  0  0  0  0
 17 19  1  0  0  0  0
 17 20  1  0  0  0  0
 14 15  1  0  0  0  0
 14 16  1  0  0  0  0
 14 17  1  0  0  0  0
 11 12  1  0  0  0  0
 11 13  1  0  0  0  0
 11 14  1  0  0  0  0
  9 10  1  0  0  0  0
  9 11  1  0  0  0  0
  9 29  1  0  0  0  0
  7  8  1  0  0  0  0
  7  9  1  0  0  0  0
 33 34  1  0  0  0  0
 33 35  1  0  0  0  0
 33 36  1  0  0  0  0
 31 32  1  0  0  0  0
 31 33  1  0  0  0  0
M  CHG  1  20   1
M  END
$$$$
default_name
  -OEChem-02102213163D

 36 35  0     1  0  0  0  0  0999 V2000
   -4.2256   -3.6731    1.8584 H   0  0  0  0  0  0  0  0  0  0  0  0
   -4.2396   -2.6781    1.4144 C   0  0  0  0  0  0  0  0  0  0  0  0
   -4.9506   -2.0521    1.9514 H   0  0  0  0  0  0  0  0  0  0  0  0
   -4.5266   -2.7521    0.3674 H   0  0  0  0  0  0  0  0  0  0  0  0
   -2.8576   -2.0761    1.5184 C   0  0  0  0  0  0  0  0  0  0  0  0
   -1.9456   -2.7051    2.0404 O   0  0  0  0  0  0  0  0  0  0  0  0
   -2.6926   -0.8481    1.0174 N   0  0  0  0  0  0  0  0  0  0  0  0
   -3.4926   -0.3971    0.5954 H   0  0  0  0  0  0  0  0  0  0  0  0
   -1.4216   -0.1071    1.0434 C   0  0  1  0  0  0  0  0  0  0  0  0
   -0.6709   -0.6930    0.5106 H   0  0  0  0  0  0  0  0  0  0  0  0
   -1.6221    1.2315    0.3051 C   0  0  0  0  0  0  0  0  0  0  0  0
   -1.6615    1.0349   -0.7682 H   0  0  0  0  0  0  0  0  0  0  0  0
   -2.5783    1.6652    0.6058 H   0  0  0  0  0  0  0  0  0  0  0  0
   -0.5021    2.2486    0.5685 C   0  0  0  0  0  0  0  0  0  0  0  0
   -0.3799    2.8962   -0.3009 H   0  0  0  0  0  0  0  0  0  0  0  0
   -0.7628    2.8557    1.4361 H   0  0  0  0  0  0  0  0  0  0  0  0
    0.8183    1.5140    0.8377 C   0  0  0  0  0  0  0  0  0  0  0  0
    0.6789    0.8485    1.6927 H   0  0  0  0  0  0  0  0  0  0  0  0
    1.0669    0.9129   -0.0401 H   0  0  0  0  0  0  0  0  0  0  0  0
    1.9216    2.4550    1.1203 N   0  3  0  0  0  0  0  0  0  0  0  0
    1.7057    3.4354    1.0603 H   0  0  0  0  0  0  0  0  0  0  0  0
    3.1621    2.1304    1.4441 C   0  0  0  0  0  0  0  0  0  0  0  0
    3.5490    0.8900    1.5494 N   0  0  0  0  0  0  0  0  0  0  0  0
    2.8810    0.1589    1.3802 H   0  0  0  0  0  0  0  0  0  0  0  0
    4.4944    0.6609    1.7957 H   0  0  0  0  0  0  0  0  0  0  0  0
    4.0492    3.0574    1.6699 N   0  0  0  0  0  0  0  0  0  0  0  0
    3.7980    4.0286    1.6012 H   0  0  0  0  0  0  0  0  0  0  0  0
    4.9891    2.8068    1.9153 H   0  0  0  0  0  0  0  0  0  0  0  0
   -0.9523    0.1012    2.4848 C   0  0  0  0  0  0  0  0  0  0  0  0
    0.2133   -0.1319    2.7814 O   0  0  0  0  0  0  0  0  0  0  0  0
   -1.8684    0.5006    3.3725 N   0  0  0  0  0  0  0  0  0  0  0  0
   -2.7946    0.7048    3.0343 H   0  0  0  0  0  0  0  0  0  0  0  0
   -1.5848    0.7472    4.7873 C   0  0  0  0  0  0  0  0  0  0  0  0
   -0.8819    1.5774    4.8838 H   0  0  0  0  0  0  0  0  0  0  0  0
   -2.5030    0.9948    5.3214 H   0  0  0  0  0  0  0  0  0  0  0  0
   -1.1344   -0.1399    5.2381 H   0  0  0  0  0  0  0  0  0  0  0  0
  5  6  2  0  0  0  0
  5  7  1  0  0  0  0
  2  3  1  0  0  0  0
  2  4  1  0  0  0  0
  2  5  1  0  0  0  0
  1  2  1  0  0  0  0
 29 30  2  0  0  0  0
 29 31  1  0  0  0  0
 26 27  1  0  0  0  0
 26 28  1  0  0  0  0
 23 24  1  0  0  0  0
 23 25  1  0  0  0  0
 22 23  1  0  0  0  0
 22 26  1  0  0  0  0
 20 21  1  0  0  0  0
 20 22  2  0  0  0  0
 17 18  1  0  0  0  0
 17 19  1  0  0  0  0
 17 20  1  0  0  0  0
 14 15  1  0  0  0  0
 14 16  1  0  0  0  0
 14 17  1  0  0  0  0
 11 12  1  0  0  0  0
 11 13  1  0  0  0  0
 11 14  1  0  0  0  0
  9 10  1  0  0  0  0
  9 11  1  0  0  0  0
  9 29  1  0  0  0  0
  7  8  1  0  0  0  0
  7  9  1  0  0  0  0
 33 34  1  0  0  0  0
 33 35  1  0  0  0  0
 33 36  1  0  0  0  0
 31 32  1  0  0  0  0
 31 33  1  0  0  0  0
M  CHG  1  20   1
M  END
$$$$
default_name
  -OEChem-02102213163D

 36 35  0     1  0  0  0  0  0999 V2000
   -4.2256   -3.6731    1.8584 H   0  0  0  0  0  0  0  0  0  0  0  0
   -4.2396   -2.6781    1.4144 C   0  0  0  0  0  0  0  0  0  0  0  0
   -4.9506   -2.0521    1.9514 H   0  0  0  0  0  0  0  0  0  0  0  0
   -4.5266   -2.7521    0.3674 H   0  0  0  0  0  0  0  0  0  0  0  0
   -2.8576   -2.0761    1.5184 C   0  0  0  0  0  0  0  0  0  0  0  0
   -1.9456   -2.7051    2.0404 O   0  0  0  0  0  0  0  0  0  0  0  0
   -2.6926   -0.8481    1.0174 N   0  0  0  0  0  0  0  0  0  0  0  0
   -3.4926   -0.3971    0.5954 H   0  0  0  0  0  0  0  0  0  0  0  0
   -1.4216   -0.1071    1.0434 C   0  0  1  0  0  0  0  0  0  0  0  0
   -0.6709   -0.6930    0.5106 H   0  0  0  0  0  0  0  0  0  0  0  0
   -1.6221    1.2315    0.3051 C   0  0  0  0  0  0  0  0  0  0  0  0
   -1.6615    1.0349   -0.7682 H   0  0  0  0  0  0  0  0  0  0  0  0
   -2.5783    1.6652    0.6058 H   0  0  0  0  0  0  0  0  0  0  0  0
   -0.5021    2.2486    0.5685 C   0  0  0  0  0  0  0  0  0  0  0  0
   -0.5526    3.0519   -0.1678 H   0  0  0  0  0  0  0  0  0  0  0  0
   -0.6231    2.6678    1.5679 H   0  0  0  0  0  0  0  0  0  0  0  0
    0.8650    1.5586    0.4666 C   0  0  0  0  0  0  0  0  0  0  0  0
    0.8967    0.7393    1.1884 H   0  0  0  0  0  0  0  0  0  0  0  0
    0.9722    1.1464   -0.5396 H   0  0  0  0  0  0  0  0  0  0  0  0
    1.9741    2.4965    0.7367 N   0  3  0  0  0  0  0  0  0  0  0  0
    1.7237    3.4561    0.9035 H   0  0  0  0  0  0  0  0  0  0  0  0
    3.2608    2.1937    0.7798 C   0  0  0  0  0  0  0  0  0  0  0  0
    3.6946    0.9812    0.5781 N   0  0  0  0  0  0  0  0  0  0  0  0
    3.0280    0.2546    0.3852 H   0  0  0  0  0  0  0  0  0  0  0  0
    4.6746    0.7684    0.6140 H   0  0  0  0  0  0  0  0  0  0  0  0
    4.1475    3.1152    1.0285 N   0  0  0  0  0  0  0  0  0  0  0  0
    3.8611    4.0652    1.1910 H   0  0  0  0  0  0  0  0  0  0  0  0
    5.1226    2.8812    1.0604 H   0  0  0  0  0  0  0  0  0  0  0  0
   -0.9523    0.1012    2.4848 C   0  0  0  0  0  0  0  0  0  0  0  0
    0.2133   -0.1319    2.7814 O   0  0  0  0  0  0  0  0  0  0  0  0
   -1.8684    0.5006    3.3725 N   0  0  0  0  0  0  0  0  0  0  0  0
   -2.7946    0.7048    3.0343 H   0  0  0  0  0  0  0  0  0  0  0  0
   -1.5848    0.7472    4.7873 C   0  0  0  0  0  0  0  0  0  0  0  0
   -0.8819    1.5774    4.8838 H   0  0  0  0  0  0  0  0  0  0  0  0
   -2.5030    0.9948    5.3214 H   0  0  0  0  0  0  0  0  0  0  0  0
   -1.1344   -0.1399    5.2381 H   0  0  0  0  0  0  0  0  0  0  0  0
  5  6  2  0  0  0  0
  5  7  1  0  0  0  0
  2  3  1  0  0  0  0
  2  4  1  0  0  0  0
  2  5  1  0  0  0  0
  1  2  1  0  0  0  0
 29 30  2  0  0  0  0
 29 31  1  0  0  0  0
 26 27  1  0  0  0  0
 26 28  1  0  0  0  0
 23 24  1  0  0  0  0
 23 25  1  0  0  0  0
 22 23  1  0  0  0  0
 22 26  1  0  0  0  0
 20 21  1  0  0  0  0
 20 22  2  0  0  0  0
 17 18  1  0  0  0  0
 17 19  1  0  0  0  0
 17 20  1  0  0  0  0
 14 15  1  0  0  0  0
 14 16  1  0  0  0  0
 14 17  1  0  0  0  0
 11 12  1  0  0  0  0
 11 13  1  0  0  0  0
 11 14  1  0  0  0  0
  9 10  1  0  0  0  0
  9 11  1  0  0  0  0
  9 29  1  0  0  0  0
  7  8  1  0  0  0  0
  7  9  1  0  0  0  0
 33 34  1  0  0  0  0
 33 35  1  0  0  0  0
 33 36  1  0  0  0  0
 31 32  1  0  0  0  0
 31 33  1  0  0  0  0
M  CHG  1  20   1
M  END
$$$$
default_name
  -OEChem-02102213163D

 36 35  0     1  0  0  0  0  0999 V2000
   -4.2256   -3.6731    1.8584 H   0  0  0  0  0  0  0  0  0  0  0  0
   -4.2396   -2.6781    1.4144 C   0  0  0  0  0  0  0  0  0  0  0  0
   -4.9506   -2.0521    1.9514 H   0  0  0  0  0  0  0  0  0  0  0  0
   -4.5266   -2.7521    0.3674 H   0  0  0  0  0  0  0  0  0  0  0  0
   -2.8576   -2.0761    1.5184 C   0  0  0  0  0  0  0  0  0  0  0  0
   -1.9456   -2.7051    2.0404 O   0  0  0  0  0  0  0  0  0  0  0  0
   -2.6926   -0.8481    1.0174 N   0  0  0  0  0  0  0  0  0  0  0  0
   -3.4926   -0.3971    0.5954 H   0  0  0  0  0  0  0  0  0  0  0  0
   -1.4216   -0.1071    1.0434 C   0  0  1  0  0  0  0  0  0  0  0  0
   -0.6709   -0.6930    0.5106 H   0  0  0  0  0  0  0  0  0  0  0  0
   -1.6221    1.2315    0.3051 C   0  0  0  0  0  0  0  0  0  0  0  0
   -1.6615    1.0349   -0.7682 H   0  0  0  0  0  0  0  0  0  0  0  0
   -2.5783    1.6652    0.6058 H   0  0  0  0  0  0  0  0  0  0  0  0
   -0.5021    2.2486    0.5685 C   0  0  0  0  0  0  0  0  0  0  0  0
   -0.7036    3.1696    0.0197 H   0  0  0  0  0  0  0  0  0  0  0  0
   -0.4573    2.4676    1.6358 H   0  0  0  0  0  0  0  0  0  0  0  0
    0.8446    1.6738    0.1085 C   0  0  0  0  0  0  0  0  0  0  0  0
    1.0255    0.7386    0.6433 H   0  0  0  0  0  0  0  0  0  0  0  0
    0.7848    1.4621   -0.9617 H   0  0  0  0  0  0  0  0  0  0  0  0
    1.9572    2.6114    0.3649 N   0  3  0  0  0  0  0  0  0  0  0  0
    1.7134    3.5065    0.7530 H   0  0  0  0  0  0  0  0  0  0  0  0
    3.2394    2.3847    0.1332 C   0  0  0  0  0  0  0  0  0  0  0  0
    3.6648    1.2590   -0.3680 N   0  0  0  0  0  0  0  0  0  0  0  0
    2.9952    0.5414   -0.5829 H   0  0  0  0  0  0  0  0  0  0  0  0
    4.6414    1.1033   -0.5380 H   0  0  0  0  0  0  0  0  0  0  0  0
    4.1300    3.2965    0.4029 N   0  0  0  0  0  0  0  0  0  0  0  0
    3.8502    4.1809    0.7910 H   0  0  0  0  0  0  0  0  0  0  0  0
    5.1016    3.1204    0.2257 H   0  0  0  0  0  0  0  0  0  0  0  0
   -0.9523    0.1012    2.4848 C   0  0  0  0  0  0  0  0  0  0  0  0
    0.2133   -0.1319    2.7814 O   0  0  0  0  0  0  0  0  0  0  0  0
   -1.8684    0.5006    3.3725 N   0  0  0  0  0  0  0  0  0  0  0  0
   -2.7946    0.7048    3.0343 H   0  0  0  0  0  0  0  0  0  0  0  0
   -1.5848    0.7472    4.7873 C   0  0  0  0  0  0  0  0  0  0  0  0
   -0.8819    1.5774    4.8838 H   0  0  0  0  0  0  0  0  0  0  0  0
   -2.5030    0.9948    5.3214 H   0  0  0  0  0  0  0  0  0  0  0  0
   -1.1344   -0.1399    5.2381 H   0  0  0  0  0  0  0  0  0  0  0  0
  5  6  2  0  0  0  0
  5  7  1  0  0  0  0
  2  3  1  0  0  0  0
  2  4  1  0  0  0  0
  2  5  1  0  0  0  0
  1  2  1  0  0  0  0
 29 30  2  0  0  0  0
 29 31  1  0  0  0  0
 26 27  1  0  0  0  0
 26 28  1  0  0  0  0
 23 24  1  0  0  0  0
 23 25  1  0  0  0  0
 22 23  1  0  0  0  0
 22 26  1  0  0  0  0
 20 21  1  0  0  0  0
 20 22  2  0  0  0  0
 17 18  1  0  0  0  0
 17 19  1  0  0  0  0
 17 20  1  0  0  0  0
 14 15  1  0  0  0  0
 14 16  1  0  0  0  0
 14 17  1  0  0  0  0
 11 12  1  0  0  0  0
 11 13  1  0  0  0  0
 11 14  1  0  0  0  0
  9 10  1  0  0  0  0
  9 11  1  0  0  0  0
  9 29  1  0  0  0  0
  7  8  1  0  0  0  0
  7  9  1  0  0  0  0
 33 34  1  0  0  0  0
 33 35  1  0  0  0  0
 33 36  1  0  0  0  0
 31 32  1  0  0  0  0
 31 33  1  0  0  0  0
M  CHG  1  20   1
M  END
$$$$
default_name
  -OEChem-02102213163D

 36 35  0     1  0  0  0  0  0999 V2000
   -4.2256   -3.6731    1.8584 H   0  0  0  0  0  0  0  0  0  0  0  0
   -4.2396   -2.6781    1.4144 C   0  0  0  0  0  0  0  0  0  0  0  0
   -4.9506   -2.0521    1.9514 H   0  0  0  0  0  0  0  0  0  0  0  0
   -4.5266   -2.7521    0.3674 H   0  0  0  0  0  0  0  0  0  0  0  0
   -2.8576   -2.0761    1.5184 C   0  0  0  0  0  0  0  0  0  0  0  0
   -1.9456   -2.7051    2.0404 O   0  0  0  0  0  0  0  0  0  0  0  0
   -2.6926   -0.8481    1.0174 N   0  0  0  0  0  0  0  0  0  0  0  0
   -3.4926   -0.3971    0.5954 H   0  0  0  0  0  0  0  0  0  0  0  0
   -1.4216   -0.1071    1.0434 C   0  0  1  0  0  0  0  0  0  0  0  0
   -0.6709   -0.6930    0.5106 H   0  0  0  0  0  0  0  0  0  0  0  0
   -1.6221    1.2315    0.3051 C   0  0  0  0  0  0  0  0  0  0  0  0
   -1.6615    1.0349   -0.7682 H   0  0  0  0  0  0  0  0  0  0  0  0
   -2.5783    1.6652    0.6058 H   0  0  0  0  0  0  0  0  0  0  0  0
   -0.5021    2.2486    0.5685 C   0  0  0  0  0  0  0  0  0  0  0  0
   -0.8226    3.2412    0.2489 H   0  0  0  0  0  0  0  0  0  0  0  0
   -0.2766    2.2688    1.6352 H   0  0  0  0  0  0  0  0  0  0  0  0
    0.7583    1.8518   -0.2121 C   0  0  0  0  0  0  0  0  0  0  0  0
    1.0564    0.8466    0.0946 H   0  0  0  0  0  0  0  0  0  0  0  0
    0.5174    1.8383   -1.2777 H   0  0  0  0  0  0  0  0  0  0  0  0
    1.8721    2.7917    0.0304 N   0  3  0  0  0  0  0  0  0  0  0  0
    1.6753    3.5831    0.6188 H   0  0  0  0  0  0  0  0  0  0  0  0
    3.0995    2.6902   -0.4516 C   0  0  0  0  0  0  0  0  0  0  0  0
    3.4614    1.7046   -1.2242 N   0  0  0  0  0  0  0  0  0  0  0  0
    2.7848    0.9998   -1.4583 H   0  0  0  0  0  0  0  0  0  0  0  0
    4.3969    1.6427   -1.5819 H   0  0  0  0  0  0  0  0  0  0  0  0
    3.9977    3.5889   -0.1641 N   0  0  0  0  0  0  0  0  0  0  0  0
    3.7659    4.3676    0.4283 H   0  0  0  0  0  0  0  0  0  0  0  0
    4.9277    3.5081   -0.5318 H   0  0  0  0  0  0  0  0  0  0  0  0
   -0.9523    0.1012    2.4848 C   0  0  0  0  0  0  0  0  0  0  0  0
    0.2133   -0.1319    2.7814 O   0  0  0  0  0  0  0  0  0  0  0  0
   -1.8684    0.5006    3.3725 N   0  0  0  0  0  0  0  0  0  0  0  0
   -2.7946    0.7048    3.0343 H   0  0  0  0  0  0  0  0  0  0  0  0
   -1.5848    0.7472    4.7873 C   0  0  0  0  0  0  0  0  0  0  0  0
   -0.8819    1.5774    4.8838 H   0  0  0  0  0  0  0  0  0  0  0  0
   -2.5030    0.9948    5.3214 H   0  0  0  0  0  0  0  0  0  0  0  0
   -1.1344   -0.1399    5.2381 H   0  0  0  0  0  0  0  0  0  0  0  0
  5  6  2  0  0  0  0
  5  7  1  0  0  0  0
  2  3  1  0  0  0  0
  2  4  1  0  0  0  0
  2  5  1  0  0  0  0
  1  2  1  0  0  0  0
 29 30  2  0  0  0  0
 29 31  1  0  0  0  0
 26 27  1  0  0  0  0
 26 28  1  0  0  0  0
 23 24  1  0  0  0  0
 23 25  1  0  0  0  0
 22 23  1  0  0  0  0
 22 26  1  0  0  0  0
 20 21  1  0  0  0  0
 20 22  2  0  0  0  0
 17 18  1  0  0  0  0
 17 19  1  0  0  0  0
 17 20  1  0  0  0  0
 14 15  1  0  0  0  0
 14 16  1  0  0  0  0
 14 17  1  0  0  0  0
 11 12  1  0  0  0  0
 11 13  1  0  0  0  0
 11 14  1  0  0  0  0
  9 10  1  0  0  0  0
  9 11  1  0  0  0  0
  9 29  1  0  0  0  0
  7  8  1  0  0  0  0
  7  9  1  0  0  0  0
 33 34  1  0  0  0  0
 33 35  1  0  0  0  0
 33 36  1  0  0  0  0
 31 32  1  0  0  0  0
 31 33  1  0  0  0  0
M  CHG  1  20   1
M  END
$$$$
default_name
  -OEChem-02102213163D

 36 35  0     1  0  0  0  0  0999 V2000
   -4.2256   -3.6731    1.8584 H   0  0  0  0  0  0  0  0  0  0  0  0
   -4.2396   -2.6781    1.4144 C   0  0  0  0  0  0  0  0  0  0  0  0
   -4.9506   -2.0521    1.9514 H   0  0  0  0  0  0  0  0  0  0  0  0
   -4.5266   -2.7521    0.3674 H   0  0  0  0  0  0  0  0  0  0  0  0
   -2.8576   -2.0761    1.5184 C   0  0  0  0  0  0  0  0  0  0  0  0
   -1.9456   -2.7051    2.0404 O   0  0  0  0  0  0  0  0  0  0  0  0
   -2.6926   -0.8481    1.0174 N   0  0  0  0  0  0  0  0  0  0  0  0
   -3.4926   -0.3971    0.5954 H   0  0  0  0  0  0  0  0  0  0  0  0
   -1.4216   -0.1071    1.0434 C   0  0  1  0  0  0  0  0  0  0  0  0
   -0.6709   -0.6930    0.5106 H   0  0  0  0  0  0  0  0  0  0  0  0
   -1.6221    1.2315    0.3051 C   0  0  0  0  0  0  0  0  0  0  0  0
   -1.6615    1.0349   -0.7682 H   0  0  0  0  0  0  0  0  0  0  0  0
   -2.5783    1.6652    0.6058 H   0  0  0  0  0  0  0  0  0  0  0  0
   -0.5021    2.2486    0.5685 C   0  0  0  0  0  0  0  0  0  0  0  0
   -0.9013    3.2618    0.5043 H   0  0  0  0  0  0  0  0  0  0  0  0
   -0.0934    2.0850    1.5661 H   0  0  0  0  0  0  0  0  0  0  0  0
    0.6121    2.0804   -0.4735 C   0  0  0  0  0  0  0  0  0  0  0  0
    0.9875    1.0559   -0.4203 H   0  0  0  0  0  0  0  0  0  0  0  0
    0.1883    2.2496   -1.4661 H   0  0  0  0  0  0  0  0  0  0  0  0
    1.7245    3.0253   -0.2441 N   0  3  0  0  0  0  0  0  0  0  0  0
    1.6122    3.6808    0.5102 H   0  0  0  0  0  0  0  0  0  0  0  0
    2.8505    3.0895   -0.9349 C   0  0  0  0  0  0  0  0  0  0  0  0
    3.0985    2.2876   -1.9323 N   0  0  0  0  0  0  0  0  0  0  0  0
    2.4112    1.5984   -2.1813 H   0  0  0  0  0  0  0  0  0  0  0  0
    3.9579    2.3500   -2.4464 H   0  0  0  0  0  0  0  0  0  0  0  0
    3.7598    3.9725   -0.6339 N   0  0  0  0  0  0  0  0  0  0  0  0
    3.6140    4.6127    0.1276 H   0  0  0  0  0  0  0  0  0  0  0  0
    4.6126    4.0178   -1.1605 H   0  0  0  0  0  0  0  0  0  0  0  0
   -0.9523    0.1012    2.4848 C   0  0  0  0  0  0  0  0  0  0  0  0
    0.2133   -0.1319    2.7814 O   0  0  0  0  0  0  0  0  0  0  0  0
   -1.8684    0.5006    3.3725 N   0  0  0  0  0  0  0  0  0  0  0  0
   -2.7946    0.7048    3.0343 H   0  0  0  0  0  0  0  0  0  0  0  0
   -1.5848    0.7472    4.7873 C   0  0  0  0  0  0  0  0  0  0  0  0
   -0.8819    1.5774    4.8838 H   0  0  0  0  0  0  0  0  0  0  0  0
   -2.5030    0.9948    5.3214 H   0  0  0  0  0  0  0  0  0  0  0  0
   -1.1344   -0.1399    5.2381 H   0  0  0  0  0  0  0  0  0  0  0  0
  5  6  2  0  0  0  0
  5  7  1  0  0  0  0
  2  3  1  0  0  0  0
  2  4  1  0  0  0  0
  2  5  1  0  0  0  0
  1  2  1  0  0  0  0
 29 30  2  0  0  0  0
 29 31  1  0  0  0  0
 26 27  1  0  0  0  0
 26 28  1  0  0  0  0
 23 24  1  0  0  0  0
 23 25  1  0  0  0  0
 22 23  1  0  0  0  0
 22 26  1  0  0  0  0
 20 21  1  0  0  0  0
 20 22  2  0  0  0  0
 17 18  1  0  0  0  0
 17 19  1  0  0  0  0
 17 20  1  0  0  0  0
 14 15  1  0  0  0  0
 14 16  1  0  0  0  0
 14 17  1  0  0  0  0
 11 12  1  0  0  0  0
 11 13  1  0  0  0  0
 11 14  1  0  0  0  0
  9 10  1  0  0  0  0
  9 11  1  0  0  0  0
  9 29  1  0  0  0  0
  7  8  1  0  0  0  0
  7  9  1  0  0  0  0
 33 34  1  0  0  0  0
 33 35  1  0  0  0  0
 33 36  1  0  0  0  0
 31 32  1  0  0  0  0
 31 33  1  0  0  0  0
M  CHG  1  20   1
M  END
$$$$
default_name
  -OEChem-02102213163D

 36 35  0     1  0  0  0  0  0999 V2000
   -4.2256   -3.6731    1.8584 H   0  0  0  0  0  0  0  0  0  0  0  0
   -4.2396   -2.6781    1.4144 C   0  0  0  0  0  0  0  0  0  0  0  0
   -4.9506   -2.0521    1.9514 H   0  0  0  0  0  0  0  0  0  0  0  0
   -4.5266   -2.7521    0.3674 H   0  0  0  0  0  0  0  0  0  0  0  0
   -2.8576   -2.0761    1.5184 C   0  0  0  0  0  0  0  0  0  0  0  0
   -1.9456   -2.7051    2.0404 O   0  0  0  0  0  0  0  0  0  0  0  0
   -2.6926   -0.8481    1.0174 N   0  0  0  0  0  0  0  0  0  0  0  0
   -3.4926   -0.3971    0.5954 H   0  0  0  0  0  0  0  0  0  0  0  0
   -1.4216   -0.1071    1.0434 C   0  0  1  0  0  0  0  0  0  0  0  0
   -0.6709   -0.6930    0.5106 H   0  0  0  0  0  0  0  0  0  0  0  0
   -1.6221    1.2315    0.3051 C   0  0  0  0  0  0  0  0  0  0  0  0
   -1.6615    1.0349   -0.7682 H   0  0  0  0  0  0  0  0  0  0  0  0
   -2.5783    1.6652    0.6058 H   0  0  0  0  0  0  0  0  0  0  0  0
   -0.5021    2.2486    0.5685 C   0  0  0  0  0  0  0  0  0  0  0  0
   -0.9345    3.2300    0.7683 H   0  0  0  0  0  0  0  0  0  0  0  0
    0.0799    1.9285    1.4333 H   0  0  0  0  0  0  0  0  0  0  0  0
    0.4160    2.3441   -0.6577 C   0  0  0  0  0  0  0  0  0  0  0  0
    0.8233    1.3521   -0.8664 H   0  0  0  0  0  0  0  0  0  0  0  0
   -0.1802    2.6677   -1.5141 H   0  0  0  0  0  0  0  0  0  0  0  0
    1.5246    3.2961   -0.4398 N   0  3  0  0  0  0  0  0  0  0  0  0
    1.5282    3.7928    0.4346 H   0  0  0  0  0  0  0  0  0  0  0  0
    2.5094    3.5554   -1.2837 C   0  0  0  0  0  0  0  0  0  0  0  0
    2.6006    2.9683   -2.4440 N   0  0  0  0  0  0  0  0  0  0  0  0
    1.8997    2.2965   -2.7027 H   0  0  0  0  0  0  0  0  0  0  0  0
    3.3542    3.1768   -3.0728 H   0  0  0  0  0  0  0  0  0  0  0  0
    3.4324    4.4212   -0.9745 N   0  0  0  0  0  0  0  0  0  0  0  0
    3.4049    4.8994   -0.0905 H   0  0  0  0  0  0  0  0  0  0  0  0
    4.1778    4.6148   -1.6176 H   0  0  0  0  0  0  0  0  0  0  0  0
   -0.9523    0.1012    2.4848 C   0  0  0  0  0  0  0  0  0  0  0  0
    0.2133   -0.1319    2.7814 O   0  0  0  0  0  0  0  0  0  0  0  0
   -1.8684    0.5006    3.3725 N   0  0  0  0  0  0  0  0  0  0  0  0
   -2.7946    0.7048    3.0343 H   0  0  0  0  0  0  0  0  0  0  0  0
   -1.5848    0.7472    4.7873 C   0  0  0  0  0  0  0  0  0  0  0  0
   -0.8819    1.5774    4.8838 H   0  0  0  0  0  0  0  0  0  0  0  0
   -2.5030    0.9948    5.3214 H   0  0  0  0  0  0  0  0  0  0  0  0
   -1.1344   -0.1399    5.2381 H   0  0  0  0  0  0  0  0  0  0  0  0
  5  6  2  0  0  0  0
  5  7  1  0  0  0  0
  2  3  1  0  0  0  0
  2  4  1  0  0  0  0
  2  5  1  0  0  0  0
  1  2  1  0  0  0  0
 29 30  2  0  0  0  0
 29 31  1  0  0  0  0
 26 27  1  0  0  0  0
 26 28  1  0  0  0  0
 23 24  1  0  0  0  0
 23 25  1  0  0  0  0
 22 23  1  0  0  0  0
 22 26  1  0  0  0  0
 20 21  1  0  0  0  0
 20 22  2  0  0  0  0
 17 18  1  0  0  0  0
 17 19  1  0  0  0  0
 17 20  1  0  0  0  0
 14 15  1  0  0  0  0
 14 16  1  0  0  0  0
 14 17  1  0  0  0  0
 11 12  1  0  0  0  0
 11 13  1  0  0  0  0
 11 14  1  0  0  0  0
  9 10  1  0  0  0  0
  9 11  1  0  0  0  0
  9 29  1  0  0  0  0
  7  8  1  0  0  0  0
  7  9  1  0  0  0  0
 33 34  1  0  0  0  0
 33 35  1  0  0  0  0
 33 36  1  0  0  0  0
 31 32  1  0  0  0  0
 31 33  1  0  0  0  0
M  CHG  1  20   1
M  END
$$$$
default_name
  -OEChem-02102213163D

 36 35  0     1  0  0  0  0  0999 V2000
   -4.2256   -3.6731    1.8584 H   0  0  0  0  0  0  0  0  0  0  0  0
   -4.2396   -2.6781    1.4144 C   0  0  0  0  0  0  0  0  0  0  0  0
   -4.9506   -2.0521    1.9514 H   0  0  0  0  0  0  0  0  0  0  0  0
   -4.5266   -2.7521    0.3674 H   0  0  0  0  0  0  0  0  0  0  0  0
   -2.8576   -2.0761    1.5184 C   0  0  0  0  0  0  0  0  0  0  0  0
   -1.9456   -2.7051    2.0404 O   0  0  0  0  0  0  0  0  0  0  0  0
   -2.6926   -0.8481    1.0174 N   0  0  0  0  0  0  0  0  0  0  0  0
   -3.4926   -0.3971    0.5954 H   0  0  0  0  0  0  0  0  0  0  0  0
   -1.4216   -0.1071    1.0434 C   0  0  1  0  0  0  0  0  0  0  0  0
   -0.6709   -0.6930    0.5106 H   0  0  0  0  0  0  0  0  0  0  0  0
   -1.6221    1.2315    0.3051 C   0  0  0  0  0  0  0  0  0  0  0  0
   -1.6615    1.0349   -0.7682 H   0  0  0  0  0  0  0  0  0  0  0  0
   -2.5783    1.6652    0.6058 H   0  0  0  0  0  0  0  0  0  0  0  0
   -0.5021    2.2486    0.5685 C   0  0  0  0  0  0  0  0  0  0  0  0
   -0.9199    3.1480    1.0230 H   0  0  0  0  0  0  0  0  0  0  0  0
    0.2315    1.8102    1.2457 H   0  0  0  0  0  0  0  0  0  0  0  0
    0.1833    2.6248   -0.7522 C   0  0  0  0  0  0  0  0  0  0  0  0
    0.5751    1.7152   -1.2132 H   0  0  0  0  0  0  0  0  0  0  0  0
   -0.5630    3.0643   -1.4183 H   0  0  0  0  0  0  0  0  0  0  0  0
    1.2858    3.5858   -0.5435 N   0  3  0  0  0  0  0  0  0  0  0  0
    1.4292    3.9116    0.3971 H   0  0  0  0  0  0  0  0  0  0  0  0
    2.0994    4.0560   -1.4741 C   0  0  0  0  0  0  0  0  0  0  0  0
    2.0017    3.7003   -2.7244 N   0  0  0  0  0  0  0  0  0  0  0  0
    1.2854    3.0465   -2.9868 H   0  0  0  0  0  0  0  0  0  0  0  0
    2.6271    4.0669   -3.4182 H   0  0  0  0  0  0  0  0  0  0  0  0
    3.0379    4.9043   -1.1627 N   0  0  0  0  0  0  0  0  0  0  0  0
    3.1527    5.2083   -0.2112 H   0  0  0  0  0  0  0  0  0  0  0  0
    3.6530    5.2585   -1.8718 H   0  0  0  0  0  0  0  0  0  0  0  0
   -0.9523    0.1012    2.4848 C   0  0  0  0  0  0  0  0  0  0  0  0
    0.2133   -0.1319    2.7814 O   0  0  0  0  0  0  0  0  0  0  0  0
   -1.8684    0.5006    3.3725 N   0  0  0  0  0  0  0  0  0  0  0  0
   -2.7946    0.7048    3.0343 H   0  0  0  0  0  0  0  0  0  0  0  0
   -1.5848    0.7472    4.7873 C   0  0  0  0  0  0  0  0  0  0  0  0
   -0.8819    1.5774    4.8838 H   0  0  0  0  0  0  0  0  0  0  0  0
   -2.5030    0.9948    5.3214 H   0  0  0  0  0  0  0  0  0  0  0  0
   -1.1344   -0.1399    5.2381 H   0  0  0  0  0  0  0  0  0  0  0  0
  5  6  2  0  0  0  0
  5  7  1  0  0  0  0
  2  3  1  0  0  0  0
  2  4  1  0  0  0  0
  2  5  1  0  0  0  0
  1  2  1  0  0  0  0
 29 30  2  0  0  0  0
 29 31  1  0  0  0  0
 26 27  1  0  0  0  0
 26 28  1  0  0  0  0
 23 24  1  0  0  0  0
 23 25  1  0  0  0  0
 22 23  1  0  0  0  0
 22 26  1  0  0  0  0
 20 21  1  0  0  0  0
 20 22  2  0  0  0  0
 17 18  1  0  0  0  0
 17 19  1  0  0  0  0
 17 20  1  0  0  0  0
 14 15  1  0  0  0  0
 14 16  1  0  0  0  0
 14 17  1  0  0  0  0
 11 12  1  0  0  0  0
 11 13  1  0  0  0  0
 11 14  1  0  0  0  0
  9 10  1  0  0  0  0
  9 11  1  0  0  0  0
  9 29  1  0  0  0  0
  7  8  1  0  0  0  0
  7  9  1  0  0  0  0
 33 34  1  0  0  0  0
 33 35  1  0  0  0  0
 33 36  1  0  0  0  0
 31 32  1  0  0  0  0
 31 33  1  0  0  0  0
M  CHG  1  20   1
M  END
$$$$
default_name
  -OEChem-02102213163D

 36 35  0     1  0  0  0  0  0999 V2000
   -4.2256   -3.6731    1.8584 H   0  0  0  0  0  0  0  0  0  0  0  0
   -4.2396   -2.6781    1.4144 C   0  0  0  0  0  0  0  0  0  0  0  0
   -4.9506   -2.0521    1.9514 H   0  0  0  0  0  0  0  0  0  0  0  0
   -4.5266   -2.7521    0.3674 H   0  0  0  0  0  0  0  0  0  0  0  0
   -2.8576   -2.0761    1.5184 C   0  0  0  0  0  0  0  0  0  0  0  0
   -1.9456   -2.7051    2.0404 O   0  0  0  0  0  0  0  0  0  0  0  0
   -2.6926   -0.8481    1.0174 N   0  0  0  0  0  0  0  0  0  0  0  0
   -3.4926   -0.3971    0.5954 H   0  0  0  0  0  0  0  0  0  0  0  0
   -1.4216   -0.1071    1.0434 C   0  0  1  0  0  0  0  0  0  0  0  0
   -0.6709   -0.6930    0.5106 H   0  0  0  0  0  0  0  0  0  0  0  0
   -1.6221    1.2315    0.3051 C   0  0  0  0  0  0  0  0  0  0  0  0
   -1.6615    1.0349   -0.7682 H   0  0  0  0  0  0  0  0  0  0  0  0
   -2.5783    1.6652    0.6058 H   0  0  0  0  0  0  0  0  0  0  0  0
   -0.5021    2.2486    0.5685 C   0  0  0  0  0  0  0  0  0  0  0  0
   -0.8585    3.0214    1.2511 H   0  0  0  0  0  0  0  0  0  0  0  0
    0.3511    1.7380    1.0162 H   0  0  0  0  0  0  0  0  0  0  0  0
   -0.0702    2.9035   -0.7506 C   0  0  0  0  0  0  0  0  0  0  0  0
    0.2598    2.1204   -1.4371 H   0  0  0  0  0  0  0  0  0  0  0  0
   -0.9338    3.4123   -1.1853 H   0  0  0  0  0  0  0  0  0  0  0  0
    1.0246    3.8746   -0.5480 N   0  3  0  0  0  0  0  0  0  0  0  0
    1.3218    4.0290    0.4002 H   0  0  0  0  0  0  0  0  0  0  0  0
    1.6486    4.5574   -1.4933 C   0  0  0  0  0  0  0  0  0  0  0  0
    1.3427    4.4337   -2.7544 N   0  0  0  0  0  0  0  0  0  0  0  0
    0.6100    3.7973   -3.0143 H   0  0  0  0  0  0  0  0  0  0  0  0
    1.8259    4.9596   -3.4592 H   0  0  0  0  0  0  0  0  0  0  0  0
    2.6031    5.3890   -1.1857 N   0  0  0  0  0  0  0  0  0  0  0  0
    2.8748    5.5182   -0.2263 H   0  0  0  0  0  0  0  0  0  0  0  0
    3.0739    5.9049   -1.9059 H   0  0  0  0  0  0  0  0  0  0  0  0
   -0.9523    0.1012    2.4848 C   0  0  0  0  0  0  0  0  0  0  0  0
    0.2133   -0.1319    2.7814 O   0  0  0  0  0  0  0  0  0  0  0  0
   -1.8684    0.5006    3.3725 N   0  0  0  0  0  0  0  0  0  0  0  0
   -2.7946    0.7048    3.0343 H   0  0  0  0  0  0  0  0  0  0  0  0
   -1.5848    0.7472    4.7873 C   0  0  0  0  0  0  0  0  0  0  0  0
   -0.8819    1.5774    4.8838 H   0  0  0  0  0  0  0  0  0  0  0  0
   -2.5030    0.9948    5.3214 H   0  0  0  0  0  0  0  0  0  0  0  0
   -1.1344   -0.1399    5.2381 H   0  0  0  0  0  0  0  0  0  0  0  0
  5  6  2  0  0  0  0
  5  7  1  0  0  0  0
  2  3  1  0  0  0  0
  2  4  1  0  0  0  0
  2  5  1  0  0  0  0
  1  2  1  0  0  0  0
 29 30  2  0  0  0  0
 29 31  1  0  0  0  0
 26 27  1  0  0  0  0
 26 28  1  0  0  0  0
 23 24  1  0  0  0  0
 23 25  1  0  0  0  0
 22 23  1  0  0  0  0
 22 26  1  0  0  0  0
 20 21  1  0  0  0  0
 20 22  2  0  0  0  0
 17 18  1  0  0  0  0
 17 19  1  0  0  0  0
 17 20  1  0  0  0  0
 14 15  1  0  0  0  0
 14 16  1  0  0  0  0
 14 17  1  0  0  0  0
 11 12  1  0  0  0  0
 11 13  1  0  0  0  0
 11 14  1  0  0  0  0
  9 10  1  0  0  0  0
  9 11  1  0  0  0  0
  9 29  1  0  0  0  0
  7  8  1  0  0  0  0
  7  9  1  0  0  0  0
 33 34  1  0  0  0  0
 33 35  1  0  0  0  0
 33 36  1  0  0  0  0
 31 32  1  0  0  0  0
 31 33  1  0  0  0  0
M  CHG  1  20   1
M  END
$$$$
default_name
  -OEChem-02102213163D

 36 35  0     1  0  0  0  0  0999 V2000
   -4.2256   -3.6731    1.8584 H   0  0  0  0  0  0  0  0  0  0  0  0
   -4.2396   -2.6781    1.4144 C   0  0  0  0  0  0  0  0  0  0  0  0
   -4.9506   -2.0521    1.9514 H   0  0  0  0  0  0  0  0  0  0  0  0
   -4.5266   -2.7521    0.3674 H   0  0  0  0  0  0  0  0  0  0  0  0
   -2.8576   -2.0761    1.5184 C   0  0  0  0  0  0  0  0  0  0  0  0
   -1.9456   -2.7051    2.0404 O   0  0  0  0  0  0  0  0  0  0  0  0
   -2.6926   -0.8481    1.0174 N   0  0  0  0  0  0  0  0  0  0  0  0
   -3.4926   -0.3971    0.5954 H   0  0  0  0  0  0  0  0  0  0  0  0
   -1.4216   -0.1071    1.0434 C   0  0  1  0  0  0  0  0  0  0  0  0
   -0.6709   -0.6930    0.5106 H   0  0  0  0  0  0  0  0  0  0  0  0
   -1.6221    1.2315    0.3051 C   0  0  0  0  0  0  0  0  0  0  0  0
   -1.6615    1.0349   -0.7682 H   0  0  0  0  0  0  0  0  0  0  0  0
   -2.5783    1.6652    0.6058 H   0  0  0  0  0  0  0  0  0  0  0  0
   -0.5021    2.2486    0.5685 C   0  0  0  0  0  0  0  0  0  0  0  0
   -0.7545    2.8587    1.4369 H   0  0  0  0  0  0  0  0  0  0  0  0
    0.4304    1.7169    0.7604 H   0  0  0  0  0  0  0  0  0  0  0  0
   -0.3271    3.1612   -0.6531 C   0  0  0  0  0  0  0  0  0  0  0  0
   -0.1011    2.5400   -1.5228 H   0  0  0  0  0  0  0  0  0  0  0  0
   -1.2676    3.6881   -0.8309 H   0  0  0  0  0  0  0  0  0  0  0  0
    0.7587    4.1429   -0.4531 N   0  3  0  0  0  0  0  0  0  0  0  0
    1.2134    4.1370    0.4438 H   0  0  0  0  0  0  0  0  0  0  0  0
    1.1876    5.0253   -1.3399 C   0  0  0  0  0  0  0  0  0  0  0  0
    0.6685    5.1185   -2.5320 N   0  0  0  0  0  0  0  0  0  0  0  0
   -0.0805    4.4978   -2.7834 H   0  0  0  0  0  0  0  0  0  0  0  0
    1.0055    5.7941   -3.1930 H   0  0  0  0  0  0  0  0  0  0  0  0
    2.1577    5.8422   -1.0419 N   0  0  0  0  0  0  0  0  0  0  0  0
    2.5900    5.8081   -0.1347 H   0  0  0  0  0  0  0  0  0  0  0  0
    2.4801    6.5101   -1.7176 H   0  0  0  0  0  0  0  0  0  0  0  0
   -0.9523    0.1012    2.4848 C   0  0  0  0  0  0  0  0  0  0  0  0
    0.2133   -0.1319    2.7814 O   0  0  0  0  0  0  0  0  0  0  0  0
   -1.8684    0.5006    3.3725 N   0  0  0  0  0  0  0  0  0  0  0  0
   -2.7946    0.7048    3.0343 H   0  0  0  0  0  0  0  0  0  0  0  0
   -1.5848    0.7472    4.7873 C   0  0  0  0  0  0  0  0  0  0  0  0
   -0.8819    1.5774    4.8838 H   0  0  0  0  0  0  0  0  0  0  0  0
   -2.5030    0.9948    5.3214 H   0  0  0  0  0  0  0  0  0  0  0  0
   -1.1344   -0.1399    5.2381 H   0  0  0  0  0  0  0  0  0  0  0  0
  5  6  2  0  0  0  0
  5  7  1  0  0  0  0
  2  3  1  0  0  0  0
  2  4  1  0  0  0  0
  2  5  1  0  0  0  0
  1  2  1  0  0  0  0
 29 30  2  0  0  0  0
 29 31  1  0  0  0  0
 26 27  1  0  0  0  0
 26 28  1  0  0  0  0
 23 24  1  0  0  0  0
 23 25  1  0  0  0  0
 22 23  1  0  0  0  0
 22 26  1  0  0  0  0
 20 21  1  0  0  0  0
 20 22  2  0  0  0  0
 17 18  1  0  0  0  0
 17 19  1  0  0  0  0
 17 20  1  0  0  0  0
 14 15  1  0  0  0  0
 14 16  1  0  0  0  0
 14 17  1  0  0  0  0
 11 12  1  0  0  0  0
 11 13  1  0  0  0  0
 11 14  1  0  0  0  0
  9 10  1  0  0  0  0
  9 11  1  0  0  0  0
  9 29  1  0  0  0  0
  7  8  1  0  0  0  0
  7  9  1  0  0  0  0
 33 34  1  0  0  0  0
 33 35  1  0  0  0  0
 33 36  1  0  0  0  0
 31 32  1  0  0  0  0
 31 33  1  0  0  0  0
M  CHG  1  20   1
M  END
$$$$
default_name
  -OEChem-02102213163D

 36 35  0     1  0  0  0  0  0999 V2000
   -4.2256   -3.6731    1.8584 H   0  0  0  0  0  0  0  0  0  0  0  0
   -4.2396   -2.6781    1.4144 C   0  0  0  0  0  0  0  0  0  0  0  0
   -4.9506   -2.0521    1.9514 H   0  0  0  0  0  0  0  0  0  0  0  0
   -4.5266   -2.7521    0.3674 H   0  0  0  0  0  0  0  0  0  0  0  0
   -2.8576   -2.0761    1.5184 C   0  0  0  0  0  0  0  0  0  0  0  0
   -1.9456   -2.7051    2.0404 O   0  0  0  0  0  0  0  0  0  0  0  0
   -2.6926   -0.8481    1.0174 N   0  0  0  0  0  0  0  0  0  0  0  0
   -3.4926   -0.3971    0.5954 H   0  0  0  0  0  0  0  0  0  0  0  0
   -1.4216   -0.1071    1.0434 C   0  0  1  0  0  0  0  0  0  0  0  0
   -0.6709   -0.6930    0.5106 H   0  0  0  0  0  0  0  0  0  0  0  0
   -1.6221    1.2315    0.3051 C   0  0  0  0  0  0  0  0  0  0  0  0
   -1.6615    1.0349   -0.7682 H   0  0  0  0  0  0  0  0  0  0  0  0
   -2.5783    1.6652    0.6058 H   0  0  0  0  0  0  0  0  0  0  0  0
   -0.5021    2.2486    0.5685 C   0  0  0  0  0  0  0  0  0  0  0  0
   -0.6149    2.6711    1.5679 H   0  0  0  0  0  0  0  0  0  0  0  0
    0.4641    1.7483    0.4958 H   0  0  0  0  0  0  0  0  0  0  0  0
   -0.5700    3.3802   -0.4661 C   0  0  0  0  0  0  0  0  0  0  0  0
   -0.4831    2.9455   -1.4645 H   0  0  0  0  0  0  0  0  0  0  0  0
   -1.5414    3.8727   -0.3794 H   0  0  0  0  0  0  0  0  0  0  0  0
    0.5062    4.3722   -0.2652 N   0  3  0  0  0  0  0  0  0  0  0  0
    1.1114    4.2283    0.5249 H   0  0  0  0  0  0  0  0  0  0  0  0
    0.7478    5.4278   -1.0244 C   0  0  0  0  0  0  0  0  0  0  0  0
    0.0249    5.7081   -2.0723 N   0  0  0  0  0  0  0  0  0  0  0  0
   -0.7389    5.1001   -2.3098 H   0  0  0  0  0  0  0  0  0  0  0  0
    0.2216    6.5134   -2.6376 H   0  0  0  0  0  0  0  0  0  0  0  0
    1.7320    6.2330   -0.7410 N   0  0  0  0  0  0  0  0  0  0  0  0
    2.3177    6.0582    0.0573 H   0  0  0  0  0  0  0  0  0  0  0  0
    1.9119    7.0327   -1.3196 H   0  0  0  0  0  0  0  0  0  0  0  0
   -0.9523    0.1012    2.4848 C   0  0  0  0  0  0  0  0  0  0  0  0
    0.2133   -0.1319    2.7814 O   0  0  0  0  0  0  0  0  0  0  0  0
   -1.8684    0.5006    3.3725 N   0  0  0  0  0  0  0  0  0  0  0  0
   -2.7946    0.7048    3.0343 H   0  0  0  0  0  0  0  0  0  0  0  0
   -1.5848    0.7472    4.7873 C   0  0  0  0  0  0  0  0  0  0  0  0
   -0.8819    1.5774    4.8838 H   0  0  0  0  0  0  0  0  0  0  0  0
   -2.5030    0.9948    5.3214 H   0  0  0  0  0  0  0  0  0  0  0  0
   -1.1344   -0.1399    5.2381 H   0  0  0  0  0  0  0  0  0  0  0  0
  5  6  2  0  0  0  0
  5  7  1  0  0  0  0
  2  3  1  0  0  0  0
  2  4  1  0  0  0  0
  2  5  1  0  0  0  0
  1  2  1  0  0  0  0
 29 30  2  0  0  0  0
 29 31  1  0  0  0  0
 26 27  1  0  0  0  0
 26 28  1  0  0  0  0
 23 24  1  0  0  0  0
 23 25  1  0  0  0  0
 22 23  1  0  0  0  0
 22 26  1  0  0  0  0
 20 21  1  0  0  0  0
 20 22  2  0  0  0  0
 17 18  1  0  0  0  0
 17 19  1  0  0  0  0
 17 20  1  0  0  0  0
 14 15  1  0  0  0  0
 14 16  1  0  0  0  0
 14 17  1  0  0  0  0
 11 12  1  0  0  0  0
 11 13  1  0  0  0  0
 11 14  1  0  0  0  0
  9 10  1  0  0  0  0
  9 11  1  0  0  0  0
  9 29  1  0  0  0  0
  7  8  1  0  0  0  0
  7  9  1  0  0  0  0
 33 34  1  0  0  0  0
 33 35  1  0  0  0  0
 33 36  1  0  0  0  0
 31 32  1  0  0  0  0
 31 33  1  0  0  0  0
M  CHG  1  20   1
M  END
$$$$
