
  -OEChem-04042215563D

 36 35  0     1  0  0  0  0  0999 V2000
   -2.9028   -5.4419    0.8745 H   0  0  0  0  0  0  0  0  0  0  0  0
   -2.9801   -4.4451    0.4306 C   0  0  0  0  0  0  0  0  0  0  0  0
   -3.7994   -3.9089    0.9147 H   0  0  0  0  0  0  0  0  0  0  0  0
   -3.2005   -4.5525   -0.6340 H   0  0  0  0  0  0  0  0  0  0  0  0
   -1.6789   -3.6889    0.6198 C   0  0  0  0  0  0  0  0  0  0  0  0
   -0.7595   -4.2039    1.2293 O   0  0  0  0  0  0  0  0  0  0  0  0
   -1.5392   -2.4112    0.1076 N   0  0  0  0  0  0  0  0  0  0  0  0
   -2.3041   -2.0675   -0.4661 H   0  0  0  0  0  0  0  0  0  0  0  0
   -0.2782   -1.6452    0.1401 C   0  0  1  0  0  0  0  0  0  0  0  0
    0.4901   -2.2352   -0.3730 H   0  0  0  0  0  0  0  0  0  0  0  0
   -0.4881   -0.3322   -0.6461 C   0  0  0  0  0  0  0  0  0  0  0  0
   -0.7826   -0.5752   -1.6726 H   0  0  0  0  0  0  0  0  0  0  0  0
   -1.3056    0.2338   -0.1867 H   0  0  0  0  0  0  0  0  0  0  0  0
    0.7746    0.5467   -0.6769 C   0  0  0  0  0  0  0  0  0  0  0  0
    1.0667    0.8186    0.3430 H   0  0  0  0  0  0  0  0  0  0  0  0
    1.5991   -0.0192   -1.1252 H   0  0  0  0  0  0  0  0  0  0  0  0
    0.5352    1.8335   -1.4613 C   0  0  0  0  0  0  0  0  0  0  0  0
    0.2766    1.5863   -2.4970 H   0  0  0  0  0  0  0  0  0  0  0  0
   -0.2996    2.3814   -1.0107 H   0  0  0  0  0  0  0  0  0  0  0  0
    1.7641    2.6473   -1.4169 N   0  3  0  0  0  0  0  0  0  0  0  0
    2.5257    2.2968   -0.8356 H   0  0  0  0  0  0  0  0  0  0  0  0
    1.9182    3.7725   -2.0519 C   0  0  0  0  0  0  0  0  0  0  0  0
    0.9181    4.3104   -2.8296 N   0  0  0  0  0  0  0  0  0  0  0  0
   -0.0097    3.8973   -2.7646 H   0  0  0  0  0  0  0  0  0  0  0  0
    0.9907    5.2852   -3.1137 H   0  0  0  0  0  0  0  0  0  0  0  0
    3.1093    4.4501   -1.9447 N   0  0  0  0  0  0  0  0  0  0  0  0
    3.9048    3.9774   -1.5189 H   0  0  0  0  0  0  0  0  0  0  0  0
    3.2982    5.2103   -2.5954 H   0  0  0  0  0  0  0  0  0  0  0  0
    0.2521   -1.3957    1.5736 C   0  0  0  0  0  0  0  0  0  0  0  0
    1.4589   -1.2842    1.7539 O   0  0  0  0  0  0  0  0  0  0  0  0
   -0.6153   -0.9852    2.5702 N   0  0  0  0  0  0  0  0  0  0  0  0
   -1.5945   -1.2070    2.4160 H   0  0  0  0  0  0  0  0  0  0  0  0
   -0.1719   -0.7573    3.9417 C   0  0  0  0  0  0  0  0  0  0  0  0
    0.5909    0.0276    3.9751 H   0  0  0  0  0  0  0  0  0  0  0  0
   -1.0142   -0.4436    4.5659 H   0  0  0  0  0  0  0  0  0  0  0  0
    0.2509   -1.6751    4.3648 H   0  0  0  0  0  0  0  0  0  0  0  0
  1  2  1  0  0  0  0
  2  3  1  0  0  0  0
  2  4  1  0  0  0  0
  2  5  1  0  0  0  0
  5  6  2  0  0  0  0
  5  7  1  0  0  0  0
  7  8  1  0  0  0  0
  7  9  1  0  0  0  0
  9 10  1  0  0  0  0
  9 11  1  0  0  0  0
  9 29  1  0  0  0  0
 11 12  1  0  0  0  0
 11 13  1  0  0  0  0
 11 14  1  0  0  0  0
 14 15  1  0  0  0  0
 14 16  1  0  0  0  0
 14 17  1  0  0  0  0
 17 18  1  0  0  0  0
 17 19  1  0  0  0  0
 17 20  1  0  0  0  0
 20 21  1  0  0  0  0
 20 22  2  0  0  0  0
 22 23  1  0  0  0  0
 22 26  1  0  0  0  0
 23 24  1  0  0  0  0
 23 25  1  0  0  0  0
 26 27  1  0  0  0  0
 26 28  1  0  0  0  0
 29 30  2  0  0  0  0
 29 31  1  0  0  0  0
 31 32  1  0  0  0  0
 31 33  1  0  0  0  0
 33 34  1  0  0  0  0
 33 35  1  0  0  0  0
 33 36  1  0  0  0  0
M  CHG  1  20   1
M  END
$$$$

  -OEChem-04042215563D

 36 35  0     1  0  0  0  0  0999 V2000
   -2.9338   -5.4128    0.8545 H   0  0  0  0  0  0  0  0  0  0  0  0
   -2.9944   -4.4128    0.4147 C   0  0  0  0  0  0  0  0  0  0  0  0
   -3.8153   -3.8704    0.8893 H   0  0  0  0  0  0  0  0  0  0  0  0
   -3.1989   -4.5122   -0.6539 H   0  0  0  0  0  0  0  0  0  0  0  0
   -1.6887   -3.6716    0.6281 C   0  0  0  0  0  0  0  0  0  0  0  0
   -0.7878   -4.1970    1.2557 O   0  0  0  0  0  0  0  0  0  0  0  0
   -1.5243   -2.3969    0.1160 N   0  0  0  0  0  0  0  0  0  0  0  0
   -2.2718   -2.0495   -0.4782 H   0  0  0  0  0  0  0  0  0  0  0  0
   -0.2512   -1.6513    0.1595 C   0  0  1  0  0  0  0  0  0  0  0  0
    0.5157   -2.2483   -0.3476 H   0  0  0  0  0  0  0  0  0  0  0  0
   -0.4470   -0.3362   -0.6285 C   0  0  0  0  0  0  0  0  0  0  0  0
   -0.7549   -0.5689   -1.6536 H   0  0  0  0  0  0  0  0  0  0  0  0
   -1.2589    0.2272   -0.1560 H   0  0  0  0  0  0  0  0  0  0  0  0
    0.8125    0.5506   -0.6712 C   0  0  0  0  0  0  0  0  0  0  0  0
    1.2625    0.6308    0.3218 H   0  0  0  0  0  0  0  0  0  0  0  0
    1.5538    0.0961   -1.3381 H   0  0  0  0  0  0  0  0  0  0  0  0
    0.4711    1.9654   -1.1296 C   0  0  0  0  0  0  0  0  0  0  0  0
    0.0672    1.9305   -2.1475 H   0  0  0  0  0  0  0  0  0  0  0  0
   -0.2895    2.3862   -0.4627 H   0  0  0  0  0  0  0  0  0  0  0  0
    1.6959    2.7855   -1.0865 N   0  3  0  0  0  0  0  0  0  0  0  0
    2.5297    2.3446   -0.6978 H   0  0  0  0  0  0  0  0  0  0  0  0
    1.7582    4.0257   -1.4751 C   0  0  0  0  0  0  0  0  0  0  0  0
    0.6583    4.6887   -1.9694 N   0  0  0  0  0  0  0  0  0  0  0  0
   -0.2508    4.2437   -1.8641 H   0  0  0  0  0  0  0  0  0  0  0  0
    0.6897    5.7043   -2.0307 H   0  0  0  0  0  0  0  0  0  0  0  0
    2.9517    4.7016   -1.3877 N   0  0  0  0  0  0  0  0  0  0  0  0
    3.7997    4.1743   -1.1871 H   0  0  0  0  0  0  0  0  0  0  0  0
    3.0458    5.5898   -1.8767 H   0  0  0  0  0  0  0  0  0  0  0  0
    0.2586   -1.4156    1.6036 C   0  0  0  0  0  0  0  0  0  0  0  0
    1.4632   -1.3475    1.8149 O   0  0  0  0  0  0  0  0  0  0  0  0
   -0.6198   -0.9940    2.5859 N   0  0  0  0  0  0  0  0  0  0  0  0
   -1.5992   -1.1969    2.4089 H   0  0  0  0  0  0  0  0  0  0  0  0
   -0.2010   -0.8047    3.9711 C   0  0  0  0  0  0  0  0  0  0  0  0
    0.5771   -0.0370    4.0375 H   0  0  0  0  0  0  0  0  0  0  0  0
   -1.0499   -0.4870    4.5844 H   0  0  0  0  0  0  0  0  0  0  0  0
    0.1937   -1.7402    4.3828 H   0  0  0  0  0  0  0  0  0  0  0  0
  1  2  1  0  0  0  0
  2  3  1  0  0  0  0
  2  4  1  0  0  0  0
  2  5  1  0  0  0  0
  5  6  2  0  0  0  0
  5  7  1  0  0  0  0
  7  8  1  0  0  0  0
  7  9  1  0  0  0  0
  9 10  1  0  0  0  0
  9 11  1  0  0  0  0
  9 29  1  0  0  0  0
 11 12  1  0  0  0  0
 11 13  1  0  0  0  0
 11 14  1  0  0  0  0
 14 15  1  0  0  0  0
 14 16  1  0  0  0  0
 14 17  1  0  0  0  0
 17 18  1  0  0  0  0
 17 19  1  0  0  0  0
 17 20  1  0  0  0  0
 20 21  1  0  0  0  0
 20 22  2  0  0  0  0
 22 23  1  0  0  0  0
 22 26  1  0  0  0  0
 23 24  1  0  0  0  0
 23 25  1  0  0  0  0
 26 27  1  0  0  0  0
 26 28  1  0  0  0  0
 29 30  2  0  0  0  0
 29 31  1  0  0  0  0
 31 32  1  0  0  0  0
 31 33  1  0  0  0  0
 33 34  1  0  0  0  0
 33 35  1  0  0  0  0
 33 36  1  0  0  0  0
M  CHG  1  20   1
M  END
$$$$

  -OEChem-04042215563D

 36 35  0     1  0  0  0  0  0999 V2000
   -2.9447   -5.4041    0.8468 H   0  0  0  0  0  0  0  0  0  0  0  0
   -2.9970   -4.4030    0.4089 C   0  0  0  0  0  0  0  0  0  0  0  0
   -3.8274   -3.8621    0.8686 H   0  0  0  0  0  0  0  0  0  0  0  0
   -3.1807   -4.5007   -0.6636 H   0  0  0  0  0  0  0  0  0  0  0  0
   -1.6955   -3.6618    0.6493 C   0  0  0  0  0  0  0  0  0  0  0  0
   -0.8127   -4.1839    1.3046 O   0  0  0  0  0  0  0  0  0  0  0  0
   -1.5151   -2.3928    0.1276 N   0  0  0  0  0  0  0  0  0  0  0  0
   -2.2432   -2.0589   -0.4976 H   0  0  0  0  0  0  0  0  0  0  0  0
   -0.2337   -1.6596    0.1678 C   0  0  1  0  0  0  0  0  0  0  0  0
    0.5313   -2.2598   -0.3387 H   0  0  0  0  0  0  0  0  0  0  0  0
   -0.4317   -0.3408   -0.6153 C   0  0  0  0  0  0  0  0  0  0  0  0
   -0.7595   -0.5649   -1.6361 H   0  0  0  0  0  0  0  0  0  0  0  0
   -1.2384    0.2156   -0.1255 H   0  0  0  0  0  0  0  0  0  0  0  0
    0.8237    0.5560   -0.6785 C   0  0  0  0  0  0  0  0  0  0  0  0
    1.4442    0.4313    0.2111 H   0  0  0  0  0  0  0  0  0  0  0  0
    1.4317    0.2613   -1.5413 H   0  0  0  0  0  0  0  0  0  0  0  0
    0.4458    2.0328   -0.7672 C   0  0  0  0  0  0  0  0  0  0  0  0
   -0.0979    2.2145   -1.7009 H   0  0  0  0  0  0  0  0  0  0  0  0
   -0.2066    2.2889    0.0749 H   0  0  0  0  0  0  0  0  0  0  0  0
    1.6771    2.8429   -0.7182 N   0  3  0  0  0  0  0  0  0  0  0  0
    2.5498    2.3419   -0.5505 H   0  0  0  0  0  0  0  0  0  0  0  0
    1.7026    4.1395   -0.8260 C   0  0  0  0  0  0  0  0  0  0  0  0
    0.5544    4.8770   -1.0055 N   0  0  0  0  0  0  0  0  0  0  0  0
   -0.3375    4.4046   -0.8750 H   0  0  0  0  0  0  0  0  0  0  0  0
    0.5914    5.8814   -0.8431 H   0  0  0  0  0  0  0  0  0  0  0  0
    2.9062    4.7998   -0.7563 N   0  0  0  0  0  0  0  0  0  0  0  0
    3.7668    4.2561   -0.7907 H   0  0  0  0  0  0  0  0  0  0  0  0
    2.9455    5.7750   -1.0468 H   0  0  0  0  0  0  0  0  0  0  0  0
    0.2656   -1.4234    1.6167 C   0  0  0  0  0  0  0  0  0  0  0  0
    1.4676   -1.3860    1.8488 O   0  0  0  0  0  0  0  0  0  0  0  0
   -0.6188   -0.9883    2.5878 N   0  0  0  0  0  0  0  0  0  0  0  0
   -1.5976   -1.1802    2.3958 H   0  0  0  0  0  0  0  0  0  0  0  0
   -0.2175   -0.8282    3.9815 C   0  0  0  0  0  0  0  0  0  0  0  0
    0.5755   -0.0783    4.0707 H   0  0  0  0  0  0  0  0  0  0  0  0
   -1.0691   -0.5023    4.5868 H   0  0  0  0  0  0  0  0  0  0  0  0
    0.1508   -1.7779    4.3849 H   0  0  0  0  0  0  0  0  0  0  0  0
  1  2  1  0  0  0  0
  2  3  1  0  0  0  0
  2  4  1  0  0  0  0
  2  5  1  0  0  0  0
  5  6  2  0  0  0  0
  5  7  1  0  0  0  0
  7  8  1  0  0  0  0
  7  9  1  0  0  0  0
  9 10  1  0  0  0  0
  9 11  1  0  0  0  0
  9 29  1  0  0  0  0
 11 12  1  0  0  0  0
 11 13  1  0  0  0  0
 11 14  1  0  0  0  0
 14 15  1  0  0  0  0
 14 16  1  0  0  0  0
 14 17  1  0  0  0  0
 17 18  1  0  0  0  0
 17 19  1  0  0  0  0
 17 20  1  0  0  0  0
 20 21  1  0  0  0  0
 20 22  2  0  0  0  0
 22 23  1  0  0  0  0
 22 26  1  0  0  0  0
 23 24  1  0  0  0  0
 23 25  1  0  0  0  0
 26 27  1  0  0  0  0
 26 28  1  0  0  0  0
 29 30  2  0  0  0  0
 29 31  1  0  0  0  0
 31 32  1  0  0  0  0
 31 33  1  0  0  0  0
 33 34  1  0  0  0  0
 33 35  1  0  0  0  0
 33 36  1  0  0  0  0
M  CHG  1  20   1
M  END
$$$$

  -OEChem-04042215563D

 36 35  0     1  0  0  0  0  0999 V2000
   -2.9170   -5.4201    0.8617 H   0  0  0  0  0  0  0  0  0  0  0  0
   -2.9747   -4.4247    0.4113 C   0  0  0  0  0  0  0  0  0  0  0  0
   -3.8201   -3.8898    0.8504 H   0  0  0  0  0  0  0  0  0  0  0  0
   -3.1390   -4.5367   -0.6631 H   0  0  0  0  0  0  0  0  0  0  0  0
   -1.6869   -3.6639    0.6645 C   0  0  0  0  0  0  0  0  0  0  0  0
   -0.8069   -4.1683    1.3370 O   0  0  0  0  0  0  0  0  0  0  0  0
   -1.5138   -2.3985    0.1312 N   0  0  0  0  0  0  0  0  0  0  0  0
   -2.2364   -2.0835   -0.5103 H   0  0  0  0  0  0  0  0  0  0  0  0
   -0.2349   -1.6596    0.1602 C   0  0  1  0  0  0  0  0  0  0  0  0
    0.5321   -2.2529   -0.3511 H   0  0  0  0  0  0  0  0  0  0  0  0
   -0.4487   -0.3358   -0.6087 C   0  0  0  0  0  0  0  0  0  0  0  0
   -0.7803   -0.5596   -1.6282 H   0  0  0  0  0  0  0  0  0  0  0  0
   -1.2599    0.2120   -0.1171 H   0  0  0  0  0  0  0  0  0  0  0  0
    0.8047    0.5658   -0.6815 C   0  0  0  0  0  0  0  0  0  0  0  0
    1.5775    0.2359    0.0154 H   0  0  0  0  0  0  0  0  0  0  0  0
    1.2367    0.4871   -1.6852 H   0  0  0  0  0  0  0  0  0  0  0  0
    0.4641    2.0236   -0.3804 C   0  0  0  0  0  0  0  0  0  0  0  0
   -0.2058    2.4107   -1.1561 H   0  0  0  0  0  0  0  0  0  0  0  0
   -0.0483    2.0774    0.5866 H   0  0  0  0  0  0  0  0  0  0  0  0
    1.7130    2.8058   -0.3311 N   0  3  0  0  0  0  0  0  0  0  0  0
    2.5855    2.2804   -0.3824 H   0  0  0  0  0  0  0  0  0  0  0  0
    1.7605    4.0940   -0.1541 C   0  0  0  0  0  0  0  0  0  0  0  0
    0.6198    4.8506   -0.0136 N   0  0  0  0  0  0  0  0  0  0  0  0
   -0.2588    4.3580    0.1312 H   0  0  0  0  0  0  0  0  0  0  0  0
    0.7062    5.7932    0.3611 H   0  0  0  0  0  0  0  0  0  0  0  0
    2.9807    4.7240   -0.1004 N   0  0  0  0  0  0  0  0  0  0  0  0
    3.8147    4.2019   -0.3632 H   0  0  0  0  0  0  0  0  0  0  0  0
    3.0096    5.7395   -0.1700 H   0  0  0  0  0  0  0  0  0  0  0  0
    0.2633   -1.4124    1.6093 C   0  0  0  0  0  0  0  0  0  0  0  0
    1.4639   -1.3587    1.8459 O   0  0  0  0  0  0  0  0  0  0  0  0
   -0.6268   -0.9750    2.5747 N   0  0  0  0  0  0  0  0  0  0  0  0
   -1.6018   -1.1858    2.3823 H   0  0  0  0  0  0  0  0  0  0  0  0
   -0.2312   -0.8103    3.9699 C   0  0  0  0  0  0  0  0  0  0  0  0
    0.5685   -0.0677    4.0609 H   0  0  0  0  0  0  0  0  0  0  0  0
   -1.0828   -0.4723    4.5681 H   0  0  0  0  0  0  0  0  0  0  0  0
    0.1254   -1.7615    4.3804 H   0  0  0  0  0  0  0  0  0  0  0  0
  1  2  1  0  0  0  0
  2  3  1  0  0  0  0
  2  4  1  0  0  0  0
  2  5  1  0  0  0  0
  5  6  2  0  0  0  0
  5  7  1  0  0  0  0
  7  8  1  0  0  0  0
  7  9  1  0  0  0  0
  9 10  1  0  0  0  0
  9 11  1  0  0  0  0
  9 29  1  0  0  0  0
 11 12  1  0  0  0  0
 11 13  1  0  0  0  0
 11 14  1  0  0  0  0
 14 15  1  0  0  0  0
 14 16  1  0  0  0  0
 14 17  1  0  0  0  0
 17 18  1  0  0  0  0
 17 19  1  0  0  0  0
 17 20  1  0  0  0  0
 20 21  1  0  0  0  0
 20 22  2  0  0  0  0
 22 23  1  0  0  0  0
 22 26  1  0  0  0  0
 23 24  1  0  0  0  0
 23 25  1  0  0  0  0
 26 27  1  0  0  0  0
 26 28  1  0  0  0  0
 29 30  2  0  0  0  0
 29 31  1  0  0  0  0
 31 32  1  0  0  0  0
 31 33  1  0  0  0  0
 33 34  1  0  0  0  0
 33 35  1  0  0  0  0
 33 36  1  0  0  0  0
M  CHG  1  20   1
M  END
$$$$

  -OEChem-04042215563D

 36 35  0     1  0  0  0  0  0999 V2000
   -2.8405   -5.4043    1.0670 H   0  0  0  0  0  0  0  0  0  0  0  0
   -2.9004   -4.4709    0.4997 C   0  0  0  0  0  0  0  0  0  0  0  0
   -3.7651   -3.9026    0.8502 H   0  0  0  0  0  0  0  0  0  0  0  0
   -3.0336   -4.7119   -0.5577 H   0  0  0  0  0  0  0  0  0  0  0  0
   -1.6308   -3.6640    0.6922 C   0  0  0  0  0  0  0  0  0  0  0  0
   -0.7137   -4.1231    1.3479 O   0  0  0  0  0  0  0  0  0  0  0  0
   -1.5193   -2.4043    0.1304 N   0  0  0  0  0  0  0  0  0  0  0  0
   -2.2694   -2.1319   -0.4992 H   0  0  0  0  0  0  0  0  0  0  0  0
   -0.2649   -1.6260    0.0974 C   0  0  1  0  0  0  0  0  0  0  0  0
    0.4995   -2.2002   -0.4389 H   0  0  0  0  0  0  0  0  0  0  0  0
   -0.5439   -0.3079   -0.6567 C   0  0  0  0  0  0  0  0  0  0  0  0
   -0.8890   -0.5504   -1.6676 H   0  0  0  0  0  0  0  0  0  0  0  0
   -1.3581    0.2285   -0.1570 H   0  0  0  0  0  0  0  0  0  0  0  0
    0.7012    0.5993   -0.7661 C   0  0  0  0  0  0  0  0  0  0  0  0
    1.5864    0.1094   -0.3522 H   0  0  0  0  0  0  0  0  0  0  0  0
    0.9182    0.7720   -1.8261 H   0  0  0  0  0  0  0  0  0  0  0  0
    0.4680    1.9504   -0.0935 C   0  0  0  0  0  0  0  0  0  0  0  0
   -0.1870    2.5660   -0.7198 H   0  0  0  0  0  0  0  0  0  0  0  0
   -0.0211    1.7851    0.8731 H   0  0  0  0  0  0  0  0  0  0  0  0
    1.7693    2.6080    0.1225 N   0  3  0  0  0  0  0  0  0  0  0  0
    2.5998    2.0272    0.0054 H   0  0  0  0  0  0  0  0  0  0  0  0
    1.9055    3.8187    0.5780 C   0  0  0  0  0  0  0  0  0  0  0  0
    0.8182    4.6180    0.8489 N   0  0  0  0  0  0  0  0  0  0  0  0
   -0.0991    4.1774    0.8613 H   0  0  0  0  0  0  0  0  0  0  0  0
    0.9568    5.4477    1.4220 H   0  0  0  0  0  0  0  0  0  0  0  0
    3.1660    4.3184    0.8030 N   0  0  0  0  0  0  0  0  0  0  0  0
    3.9704    3.7973    0.4580 H   0  0  0  0  0  0  0  0  0  0  0  0
    3.2753    5.3175    0.9657 H   0  0  0  0  0  0  0  0  0  0  0  0
    0.2804   -1.3361    1.5229 C   0  0  0  0  0  0  0  0  0  0  0  0
    1.4841   -1.1973    1.7077 O   0  0  0  0  0  0  0  0  0  0  0  0
   -0.5890   -0.9092    2.5119 N   0  0  0  0  0  0  0  0  0  0  0  0
   -1.5599   -1.1712    2.3654 H   0  0  0  0  0  0  0  0  0  0  0  0
   -0.1467   -0.6968    3.8867 C   0  0  0  0  0  0  0  0  0  0  0  0
    0.6095    0.0936    3.9326 H   0  0  0  0  0  0  0  0  0  0  0  0
   -0.9915   -0.4010    4.5163 H   0  0  0  0  0  0  0  0  0  0  0  0
    0.2841   -1.6174    4.2960 H   0  0  0  0  0  0  0  0  0  0  0  0
  1  2  1  0  0  0  0
  2  3  1  0  0  0  0
  2  4  1  0  0  0  0
  2  5  1  0  0  0  0
  5  6  2  0  0  0  0
  5  7  1  0  0  0  0
  7  8  1  0  0  0  0
  7  9  1  0  0  0  0
  9 10  1  0  0  0  0
  9 11  1  0  0  0  0
  9 29  1  0  0  0  0
 11 12  1  0  0  0  0
 11 13  1  0  0  0  0
 11 14  1  0  0  0  0
 14 15  1  0  0  0  0
 14 16  1  0  0  0  0
 14 17  1  0  0  0  0
 17 18  1  0  0  0  0
 17 19  1  0  0  0  0
 17 20  1  0  0  0  0
 20 21  1  0  0  0  0
 20 22  2  0  0  0  0
 22 23  1  0  0  0  0
 22 26  1  0  0  0  0
 23 24  1  0  0  0  0
 23 25  1  0  0  0  0
 26 27  1  0  0  0  0
 26 28  1  0  0  0  0
 29 30  2  0  0  0  0
 29 31  1  0  0  0  0
 31 32  1  0  0  0  0
 31 33  1  0  0  0  0
 33 34  1  0  0  0  0
 33 35  1  0  0  0  0
 33 36  1  0  0  0  0
M  CHG  1  20   1
M  END
$$$$

  -OEChem-04042215563D

 36 35  0     1  0  0  0  0  0999 V2000
   -2.0659   -5.4263    1.3951 H   0  0  0  0  0  0  0  0  0  0  0  0
   -2.3563   -4.5060    0.8799 C   0  0  0  0  0  0  0  0  0  0  0  0
   -3.1871   -4.0482    1.4219 H   0  0  0  0  0  0  0  0  0  0  0  0
   -2.6843   -4.7605   -0.1308 H   0  0  0  0  0  0  0  0  0  0  0  0
   -1.1810   -3.5491    0.8205 C   0  0  0  0  0  0  0  0  0  0  0  0
   -0.1142   -3.8627    1.3173 O   0  0  0  0  0  0  0  0  0  0  0  0
   -1.3252   -2.3104    0.2190 N   0  0  0  0  0  0  0  0  0  0  0  0
   -2.1987   -2.1620   -0.2807 H   0  0  0  0  0  0  0  0  0  0  0  0
   -0.2000   -1.3972   -0.0671 C   0  0  1  0  0  0  0  0  0  0  0  0
    0.5216   -1.9065   -0.7165 H   0  0  0  0  0  0  0  0  0  0  0  0
   -0.7738   -0.1674   -0.8077 C   0  0  0  0  0  0  0  0  0  0  0  0
   -1.2489   -0.5266   -1.7274 H   0  0  0  0  0  0  0  0  0  0  0  0
   -1.5592    0.2940   -0.1994 H   0  0  0  0  0  0  0  0  0  0  0  0
    0.2731    0.9011   -1.1984 C   0  0  0  0  0  0  0  0  0  0  0  0
    1.2786    0.4667   -1.2458 H   0  0  0  0  0  0  0  0  0  0  0  0
    0.0331    1.2247   -2.2171 H   0  0  0  0  0  0  0  0  0  0  0  0
    0.2515    2.1609   -0.3230 C   0  0  0  0  0  0  0  0  0  0  0  0
    0.5073    3.0270   -0.9429 H   0  0  0  0  0  0  0  0  0  0  0  0
   -0.7503    2.3139    0.0930 H   0  0  0  0  0  0  0  0  0  0  0  0
    1.2516    2.0075    0.7446 N   0  3  0  0  0  0  0  0  0  0  0  0
    1.6509    1.0693    0.8595 H   0  0  0  0  0  0  0  0  0  0  0  0
    1.6584    2.9370    1.5506 C   0  0  0  0  0  0  0  0  0  0  0  0
    1.1736    4.2231    1.4955 N   0  0  0  0  0  0  0  0  0  0  0  0
    0.6088    4.4802    0.6892 H   0  0  0  0  0  0  0  0  0  0  0  0
    1.6950    4.9574    1.9699 H   0  0  0  0  0  0  0  0  0  0  0  0
    2.6098    2.6060    2.4838 N   0  0  0  0  0  0  0  0  0  0  0  0
    2.8658    1.6226    2.5835 H   0  0  0  0  0  0  0  0  0  0  0  0
    2.7827    3.2364    3.2637 H   0  0  0  0  0  0  0  0  0  0  0  0
    0.5398   -1.0017    1.2365 C   0  0  0  0  0  0  0  0  0  0  0  0
    1.7312   -0.7020    1.2211 O   0  0  0  0  0  0  0  0  0  0  0  0
   -0.2009   -0.6457    2.3497 N   0  0  0  0  0  0  0  0  0  0  0  0
   -1.1563   -0.9959    2.3390 H   0  0  0  0  0  0  0  0  0  0  0  0
    0.4119   -0.4406    3.6577 C   0  0  0  0  0  0  0  0  0  0  0  0
    1.1110    0.3998    3.6340 H   0  0  0  0  0  0  0  0  0  0  0  0
   -0.3581   -0.2242    4.4049 H   0  0  0  0  0  0  0  0  0  0  0  0
    0.9533   -1.3405    3.9703 H   0  0  0  0  0  0  0  0  0  0  0  0
  1  2  1  0  0  0  0
  2  3  1  0  0  0  0
  2  4  1  0  0  0  0
  2  5  1  0  0  0  0
  5  6  2  0  0  0  0
  5  7  1  0  0  0  0
  7  8  1  0  0  0  0
  7  9  1  0  0  0  0
  9 10  1  0  0  0  0
  9 11  1  0  0  0  0
  9 29  1  0  0  0  0
 11 12  1  0  0  0  0
 11 13  1  0  0  0  0
 11 14  1  0  0  0  0
 14 15  1  0  0  0  0
 14 16  1  0  0  0  0
 14 17  1  0  0  0  0
 17 18  1  0  0  0  0
 17 19  1  0  0  0  0
 17 20  1  0  0  0  0
 20 21  1  0  0  0  0
 20 22  2  0  0  0  0
 22 23  1  0  0  0  0
 22 26  1  0  0  0  0
 23 24  1  0  0  0  0
 23 25  1  0  0  0  0
 26 27  1  0  0  0  0
 26 28  1  0  0  0  0
 29 30  2  0  0  0  0
 29 31  1  0  0  0  0
 31 32  1  0  0  0  0
 31 33  1  0  0  0  0
 33 34  1  0  0  0  0
 33 35  1  0  0  0  0
 33 36  1  0  0  0  0
M  CHG  1  20   1
M  END
$$$$

  -OEChem-04042215563D

 36 35  0     1  0  0  0  0  0999 V2000
   -2.5131   -5.4552    1.1643 H   0  0  0  0  0  0  0  0  0  0  0  0
   -2.5867   -4.5599    0.5399 C   0  0  0  0  0  0  0  0  0  0  0  0
   -3.5448   -4.0731    0.7373 H   0  0  0  0  0  0  0  0  0  0  0  0
   -2.5466   -4.8612   -0.5096 H   0  0  0  0  0  0  0  0  0  0  0  0
   -1.4446   -3.6121    0.8522 C   0  0  0  0  0  0  0  0  0  0  0  0
   -0.6181   -3.9085    1.6965 O   0  0  0  0  0  0  0  0  0  0  0  0
   -1.3462   -2.4002    0.1919 N   0  0  0  0  0  0  0  0  0  0  0  0
   -2.0007   -2.2488   -0.5716 H   0  0  0  0  0  0  0  0  0  0  0  0
   -0.1893   -1.4935    0.3158 C   0  0  1  0  0  0  0  0  0  0  0  0
    0.7098   -2.0425    0.0126 H   0  0  0  0  0  0  0  0  0  0  0  0
   -0.3952   -0.3125   -0.6584 C   0  0  0  0  0  0  0  0  0  0  0  0
   -0.4664   -0.7223   -1.6719 H   0  0  0  0  0  0  0  0  0  0  0  0
   -1.3452    0.1886   -0.4424 H   0  0  0  0  0  0  0  0  0  0  0  0
    0.7503    0.7206   -0.6365 C   0  0  0  0  0  0  0  0  0  0  0  0
    1.7017    0.2133   -0.4405 H   0  0  0  0  0  0  0  0  0  0  0  0
    0.8257    1.1774   -1.6290 H   0  0  0  0  0  0  0  0  0  0  0  0
    0.5170    1.8362    0.3900 C   0  0  0  0  0  0  0  0  0  0  0  0
   -0.3720    2.4088    0.1030 H   0  0  0  0  0  0  0  0  0  0  0  0
    0.3228    1.4129    1.3799 H   0  0  0  0  0  0  0  0  0  0  0  0
    1.6898    2.7300    0.4433 N   0  3  0  0  0  0  0  0  0  0  0  0
    1.7521    3.4492   -0.2756 H   0  0  0  0  0  0  0  0  0  0  0  0
    2.6174    2.6694    1.3579 C   0  0  0  0  0  0  0  0  0  0  0  0
    2.6253    1.7207    2.3532 N   0  0  0  0  0  0  0  0  0  0  0  0
    2.0156    0.9039    2.2360 H   0  0  0  0  0  0  0  0  0  0  0  0
    3.4873    1.5716    2.8707 H   0  0  0  0  0  0  0  0  0  0  0  0
    3.6372    3.5905    1.3393 N   0  0  0  0  0  0  0  0  0  0  0  0
    3.5439    4.4099    0.7430 H   0  0  0  0  0  0  0  0  0  0  0  0
    4.2298    3.6663    2.1639 H   0  0  0  0  0  0  0  0  0  0  0  0
    0.0462   -1.0189    1.7690 C   0  0  0  0  0  0  0  0  0  0  0  0
    1.1773   -0.7063    2.1309 O   0  0  0  0  0  0  0  0  0  0  0  0
   -1.0253   -0.6021    2.5368 N   0  0  0  0  0  0  0  0  0  0  0  0
   -1.9295   -0.9670    2.2467 H   0  0  0  0  0  0  0  0  0  0  0  0
   -0.8790   -0.1800    3.9259 C   0  0  0  0  0  0  0  0  0  0  0  0
   -0.2709    0.7279    3.9925 H   0  0  0  0  0  0  0  0  0  0  0  0
   -1.8603    0.0324    4.3619 H   0  0  0  0  0  0  0  0  0  0  0  0
   -0.4016   -0.9690    4.5177 H   0  0  0  0  0  0  0  0  0  0  0  0
  1  2  1  0  0  0  0
  2  3  1  0  0  0  0
  2  4  1  0  0  0  0
  2  5  1  0  0  0  0
  5  6  2  0  0  0  0
  5  7  1  0  0  0  0
  7  8  1  0  0  0  0
  7  9  1  0  0  0  0
  9 10  1  0  0  0  0
  9 11  1  0  0  0  0
  9 29  1  0  0  0  0
 11 12  1  0  0  0  0
 11 13  1  0  0  0  0
 11 14  1  0  0  0  0
 14 15  1  0  0  0  0
 14 16  1  0  0  0  0
 14 17  1  0  0  0  0
 17 18  1  0  0  0  0
 17 19  1  0  0  0  0
 17 20  1  0  0  0  0
 20 21  1  0  0  0  0
 20 22  2  0  0  0  0
 22 23  1  0  0  0  0
 22 26  1  0  0  0  0
 23 24  1  0  0  0  0
 23 25  1  0  0  0  0
 26 27  1  0  0  0  0
 26 28  1  0  0  0  0
 29 30  2  0  0  0  0
 29 31  1  0  0  0  0
 31 32  1  0  0  0  0
 31 33  1  0  0  0  0
 33 34  1  0  0  0  0
 33 35  1  0  0  0  0
 33 36  1  0  0  0  0
M  CHG  1  20   1
M  END
$$$$

  -OEChem-04042215563D

 36 35  0     1  0  0  0  0  0999 V2000
   -2.5128   -5.5141    0.9899 H   0  0  0  0  0  0  0  0  0  0  0  0
   -2.5716   -4.5893    0.4085 C   0  0  0  0  0  0  0  0  0  0  0  0
   -3.5274   -4.1036    0.6191 H   0  0  0  0  0  0  0  0  0  0  0  0
   -2.5226   -4.8401   -0.6539 H   0  0  0  0  0  0  0  0  0  0  0  0
   -1.4247   -3.6684    0.7784 C   0  0  0  0  0  0  0  0  0  0  0  0
   -0.5961   -4.0239    1.5974 O   0  0  0  0  0  0  0  0  0  0  0  0
   -1.3211   -2.4184    0.1942 N   0  0  0  0  0  0  0  0  0  0  0  0
   -1.9770   -2.2168   -0.5563 H   0  0  0  0  0  0  0  0  0  0  0  0
   -0.1644   -1.5212    0.3783 C   0  0  1  0  0  0  0  0  0  0  0  0
    0.7363   -2.0594    0.0606 H   0  0  0  0  0  0  0  0  0  0  0  0
   -0.3611   -0.3179   -0.5766 C   0  0  0  0  0  0  0  0  0  0  0  0
   -0.4266   -0.7101   -1.5977 H   0  0  0  0  0  0  0  0  0  0  0  0
   -1.3189    0.1637   -0.3510 H   0  0  0  0  0  0  0  0  0  0  0  0
    0.7437    0.7621   -0.5558 C   0  0  0  0  0  0  0  0  0  0  0  0
    1.7148    0.2573   -0.6103 H   0  0  0  0  0  0  0  0  0  0  0  0
    0.6443    1.3778   -1.4562 H   0  0  0  0  0  0  0  0  0  0  0  0
    0.7220    1.6916    0.6675 C   0  0  0  0  0  0  0  0  0  0  0  0
   -0.1600    2.3383    0.6053 H   0  0  0  0  0  0  0  0  0  0  0  0
    0.6351    1.1311    1.5978 H   0  0  0  0  0  0  0  0  0  0  0  0
    1.9448    2.5170    0.6952 N   0  3  0  0  0  0  0  0  0  0  0  0
    1.9978    3.2834    0.0261 H   0  0  0  0  0  0  0  0  0  0  0  0
    2.9323    2.3346    1.5275 C   0  0  0  0  0  0  0  0  0  0  0  0
    2.9529    1.3160    2.4511 N   0  0  0  0  0  0  0  0  0  0  0  0
    2.2653    0.5611    2.3495 H   0  0  0  0  0  0  0  0  0  0  0  0
    3.8377    1.0728    2.8882 H   0  0  0  0  0  0  0  0  0  0  0  0
    4.0059    3.1915    1.4912 N   0  0  0  0  0  0  0  0  0  0  0  0
    3.9200    4.0584    0.9653 H   0  0  0  0  0  0  0  0  0  0  0  0
    4.6625    3.1694    2.2691 H   0  0  0  0  0  0  0  0  0  0  0  0
    0.0641   -1.1363    1.8564 C   0  0  0  0  0  0  0  0  0  0  0  0
    1.2049   -0.9150    2.2540 O   0  0  0  0  0  0  0  0  0  0  0  0
   -1.0051   -0.7641    2.6495 N   0  0  0  0  0  0  0  0  0  0  0  0
   -1.9162   -1.0756    2.3217 H   0  0  0  0  0  0  0  0  0  0  0  0
   -0.8618   -0.4596    4.0694 C   0  0  0  0  0  0  0  0  0  0  0  0
   -0.1907    0.3927    4.2172 H   0  0  0  0  0  0  0  0  0  0  0  0
   -1.8351   -0.2081    4.5024 H   0  0  0  0  0  0  0  0  0  0  0  0
   -0.4573   -1.3243    4.6070 H   0  0  0  0  0  0  0  0  0  0  0  0
  1  2  1  0  0  0  0
  2  3  1  0  0  0  0
  2  4  1  0  0  0  0
  2  5  1  0  0  0  0
  5  6  2  0  0  0  0
  5  7  1  0  0  0  0
  7  8  1  0  0  0  0
  7  9  1  0  0  0  0
  9 10  1  0  0  0  0
  9 11  1  0  0  0  0
  9 29  1  0  0  0  0
 11 12  1  0  0  0  0
 11 13  1  0  0  0  0
 11 14  1  0  0  0  0
 14 15  1  0  0  0  0
 14 16  1  0  0  0  0
 14 17  1  0  0  0  0
 17 18  1  0  0  0  0
 17 19  1  0  0  0  0
 17 20  1  0  0  0  0
 20 21  1  0  0  0  0
 20 22  2  0  0  0  0
 22 23  1  0  0  0  0
 22 26  1  0  0  0  0
 23 24  1  0  0  0  0
 23 25  1  0  0  0  0
 26 27  1  0  0  0  0
 26 28  1  0  0  0  0
 29 30  2  0  0  0  0
 29 31  1  0  0  0  0
 31 32  1  0  0  0  0
 31 33  1  0  0  0  0
 33 34  1  0  0  0  0
 33 35  1  0  0  0  0
 33 36  1  0  0  0  0
M  CHG  1  20   1
M  END
$$$$

  -OEChem-04042215563D

 36 35  0     1  0  0  0  0  0999 V2000
   -2.4561   -5.5616    0.8313 H   0  0  0  0  0  0  0  0  0  0  0  0
   -2.4973   -4.6131    0.2876 C   0  0  0  0  0  0  0  0  0  0  0  0
   -3.4612   -4.1381    0.4848 H   0  0  0  0  0  0  0  0  0  0  0  0
   -2.4108   -4.8187   -0.7821 H   0  0  0  0  0  0  0  0  0  0  0  0
   -1.3669   -3.7068    0.7360 C   0  0  0  0  0  0  0  0  0  0  0  0
   -0.5633   -4.0975    1.5638 O   0  0  0  0  0  0  0  0  0  0  0  0
   -1.2429   -2.4359    0.2028 N   0  0  0  0  0  0  0  0  0  0  0  0
   -1.8801   -2.1994   -0.5535 H   0  0  0  0  0  0  0  0  0  0  0  0
   -0.1048   -1.5367    0.4752 C   0  0  1  0  0  0  0  0  0  0  0  0
    0.8176   -2.0559    0.1902 H   0  0  0  0  0  0  0  0  0  0  0  0
   -0.2785   -0.3238   -0.4777 C   0  0  0  0  0  0  0  0  0  0  0  0
   -0.3099   -0.7070   -1.5036 H   0  0  0  0  0  0  0  0  0  0  0  0
   -1.2554    0.1267   -0.2713 H   0  0  0  0  0  0  0  0  0  0  0  0
    0.7685    0.8164   -0.4419 C   0  0  0  0  0  0  0  0  0  0  0  0
    1.7308    0.3710   -0.7175 H   0  0  0  0  0  0  0  0  0  0  0  0
    0.5157    1.5457   -1.2190 H   0  0  0  0  0  0  0  0  0  0  0  0
    0.9474    1.5688    0.8859 C   0  0  0  0  0  0  0  0  0  0  0  0
    0.1106    2.2648    1.0105 H   0  0  0  0  0  0  0  0  0  0  0  0
    0.9239    0.9037    1.7421 H   0  0  0  0  0  0  0  0  0  0  0  0
    2.2218    2.3115    0.8907 N   0  3  0  0  0  0  0  0  0  0  0  0
    2.2294    3.2203    0.4307 H   0  0  0  0  0  0  0  0  0  0  0  0
    3.3129    1.8754    1.4574 C   0  0  0  0  0  0  0  0  0  0  0  0
    3.3912    0.6468    2.0743 N   0  0  0  0  0  0  0  0  0  0  0  0
    2.5412    0.0856    2.2011 H   0  0  0  0  0  0  0  0  0  0  0  0
    4.2239    0.3824    2.5938 H   0  0  0  0  0  0  0  0  0  0  0  0
    4.4423    2.6589    1.4276 N   0  0  0  0  0  0  0  0  0  0  0  0
    4.3672    3.6326    1.1415 H   0  0  0  0  0  0  0  0  0  0  0  0
    5.2540    2.3729    1.9715 H   0  0  0  0  0  0  0  0  0  0  0  0
    0.0336   -1.2102    1.9791 C   0  0  0  0  0  0  0  0  0  0  0  0
    1.1527   -1.0863    2.4710 O   0  0  0  0  0  0  0  0  0  0  0  0
   -1.0792   -0.8777    2.7285 N   0  0  0  0  0  0  0  0  0  0  0  0
   -1.9745   -1.1287    2.3171 H   0  0  0  0  0  0  0  0  0  0  0  0
   -1.0237   -0.6844    4.1736 C   0  0  0  0  0  0  0  0  0  0  0  0
   -0.3131    0.1074    4.4322 H   0  0  0  0  0  0  0  0  0  0  0  0
   -2.0087   -0.3981    4.5556 H   0  0  0  0  0  0  0  0  0  0  0  0
   -0.7146   -1.6101    4.6711 H   0  0  0  0  0  0  0  0  0  0  0  0
  1  2  1  0  0  0  0
  2  3  1  0  0  0  0
  2  4  1  0  0  0  0
  2  5  1  0  0  0  0
  5  6  2  0  0  0  0
  5  7  1  0  0  0  0
  7  8  1  0  0  0  0
  7  9  1  0  0  0  0
  9 10  1  0  0  0  0
  9 11  1  0  0  0  0
  9 29  1  0  0  0  0
 11 12  1  0  0  0  0
 11 13  1  0  0  0  0
 11 14  1  0  0  0  0
 14 15  1  0  0  0  0
 14 16  1  0  0  0  0
 14 17  1  0  0  0  0
 17 18  1  0  0  0  0
 17 19  1  0  0  0  0
 17 20  1  0  0  0  0
 20 21  1  0  0  0  0
 20 22  2  0  0  0  0
 22 23  1  0  0  0  0
 22 26  1  0  0  0  0
 23 24  1  0  0  0  0
 23 25  1  0  0  0  0
 26 27  1  0  0  0  0
 26 28  1  0  0  0  0
 29 30  2  0  0  0  0
 29 31  1  0  0  0  0
 31 32  1  0  0  0  0
 31 33  1  0  0  0  0
 33 34  1  0  0  0  0
 33 35  1  0  0  0  0
 33 36  1  0  0  0  0
M  CHG  1  20   1
M  END
$$$$

  -OEChem-04042215563D

 36 35  0     1  0  0  0  0  0999 V2000
   -2.5625   -5.5158    0.8448 H   0  0  0  0  0  0  0  0  0  0  0  0
   -2.5570   -4.5806    0.2774 C   0  0  0  0  0  0  0  0  0  0  0  0
   -3.5006   -4.0590    0.4528 H   0  0  0  0  0  0  0  0  0  0  0  0
   -2.4696   -4.8169   -0.7858 H   0  0  0  0  0  0  0  0  0  0  0  0
   -1.3917   -3.7140    0.7145 C   0  0  0  0  0  0  0  0  0  0  0  0
   -0.5715   -4.1485    1.5032 O   0  0  0  0  0  0  0  0  0  0  0  0
   -1.2485   -2.4347    0.2062 N   0  0  0  0  0  0  0  0  0  0  0  0
   -1.9054   -2.1596   -0.5198 H   0  0  0  0  0  0  0  0  0  0  0  0
   -0.0873   -1.5643    0.4780 C   0  0  1  0  0  0  0  0  0  0  0  0
    0.8233   -2.0879    0.1654 H   0  0  0  0  0  0  0  0  0  0  0  0
   -0.2757   -0.3319   -0.4500 C   0  0  0  0  0  0  0  0  0  0  0  0
   -0.3644   -0.6972   -1.4794 H   0  0  0  0  0  0  0  0  0  0  0  0
   -1.2395    0.1173   -0.1851 H   0  0  0  0  0  0  0  0  0  0  0  0
    0.7555    0.8282   -0.4631 C   0  0  0  0  0  0  0  0  0  0  0  0
    1.6189    0.4465   -1.0191 H   0  0  0  0  0  0  0  0  0  0  0  0
    0.3417    1.6568   -1.0479 H   0  0  0  0  0  0  0  0  0  0  0  0
    1.2775    1.3884    0.8689 C   0  0  0  0  0  0  0  0  0  0  0  0
    0.6315    2.2176    1.1781 H   0  0  0  0  0  0  0  0  0  0  0  0
    1.2309    0.6532    1.6584 H   0  0  0  0  0  0  0  0  0  0  0  0
    2.6685    1.8614    0.7319 N   0  3  0  0  0  0  0  0  0  0  0  0
    2.8348    2.6255    0.0790 H   0  0  0  0  0  0  0  0  0  0  0  0
    3.6723    1.3716    1.4070 C   0  0  0  0  0  0  0  0  0  0  0  0
    3.5386    0.3425    2.3118 N   0  0  0  0  0  0  0  0  0  0  0  0
    2.6473   -0.1649    2.3512 H   0  0  0  0  0  0  0  0  0  0  0  0
    4.3694   -0.1575    2.6170 H   0  0  0  0  0  0  0  0  0  0  0  0
    4.9275    1.8986    1.2171 N   0  0  0  0  0  0  0  0  0  0  0  0
    5.0164    2.7799    0.7161 H   0  0  0  0  0  0  0  0  0  0  0  0
    5.6535    1.6580    1.8895 H   0  0  0  0  0  0  0  0  0  0  0  0
    0.0648   -1.2836    1.9912 C   0  0  0  0  0  0  0  0  0  0  0  0
    1.1844   -1.2663    2.4966 O   0  0  0  0  0  0  0  0  0  0  0  0
   -1.0351   -0.9502    2.7587 N   0  0  0  0  0  0  0  0  0  0  0  0
   -1.9404   -1.1332    2.3341 H   0  0  0  0  0  0  0  0  0  0  0  0
   -0.9730   -0.8303    4.2115 C   0  0  0  0  0  0  0  0  0  0  0  0
   -0.2547   -0.0582    4.5062 H   0  0  0  0  0  0  0  0  0  0  0  0
   -1.9542   -0.5555    4.6111 H   0  0  0  0  0  0  0  0  0  0  0  0
   -0.6707   -1.7824    4.6610 H   0  0  0  0  0  0  0  0  0  0  0  0
  1  2  1  0  0  0  0
  2  3  1  0  0  0  0
  2  4  1  0  0  0  0
  2  5  1  0  0  0  0
  5  6  2  0  0  0  0
  5  7  1  0  0  0  0
  7  8  1  0  0  0  0
  7  9  1  0  0  0  0
  9 10  1  0  0  0  0
  9 11  1  0  0  0  0
  9 29  1  0  0  0  0
 11 12  1  0  0  0  0
 11 13  1  0  0  0  0
 11 14  1  0  0  0  0
 14 15  1  0  0  0  0
 14 16  1  0  0  0  0
 14 17  1  0  0  0  0
 17 18  1  0  0  0  0
 17 19  1  0  0  0  0
 17 20  1  0  0  0  0
 20 21  1  0  0  0  0
 20 22  2  0  0  0  0
 22 23  1  0  0  0  0
 22 26  1  0  0  0  0
 23 24  1  0  0  0  0
 23 25  1  0  0  0  0
 26 27  1  0  0  0  0
 26 28  1  0  0  0  0
 29 30  2  0  0  0  0
 29 31  1  0  0  0  0
 31 32  1  0  0  0  0
 31 33  1  0  0  0  0
 33 34  1  0  0  0  0
 33 35  1  0  0  0  0
 33 36  1  0  0  0  0
M  CHG  1  20   1
M  END
$$$$

  -OEChem-04042215563D

 36 35  0     1  0  0  0  0  0999 V2000
   -3.1037   -5.3135    0.8917 H   0  0  0  0  0  0  0  0  0  0  0  0
   -3.0328   -4.3545    0.3703 C   0  0  0  0  0  0  0  0  0  0  0  0
   -3.8639   -3.7208    0.6883 H   0  0  0  0  0  0  0  0  0  0  0  0
   -3.1090   -4.5340   -0.7047 H   0  0  0  0  0  0  0  0  0  0  0  0
   -1.7114   -3.6836    0.6923 C   0  0  0  0  0  0  0  0  0  0  0  0
   -0.8976   -4.2506    1.3989 O   0  0  0  0  0  0  0  0  0  0  0  0
   -1.4237   -2.4340    0.1702 N   0  0  0  0  0  0  0  0  0  0  0  0
   -2.0946   -2.0587   -0.4955 H   0  0  0  0  0  0  0  0  0  0  0  0
   -0.1235   -1.7493    0.3245 C   0  0  1  0  0  0  0  0  0  0  0  0
    0.6756   -2.3781   -0.0842 H   0  0  0  0  0  0  0  0  0  0  0  0
   -0.2471   -0.4516   -0.5373 C   0  0  0  0  0  0  0  0  0  0  0  0
   -0.5159   -0.7397   -1.5597 H   0  0  0  0  0  0  0  0  0  0  0  0
   -1.0927    0.1155   -0.1326 H   0  0  0  0  0  0  0  0  0  0  0  0
    0.9466    0.5390   -0.6318 C   0  0  0  0  0  0  0  0  0  0  0  0
    1.5719    0.2410   -1.4805 H   0  0  0  0  0  0  0  0  0  0  0  0
    0.5646    1.5441   -0.8406 H   0  0  0  0  0  0  0  0  0  0  0  0
    1.8198    0.5639    0.6059 C   0  0  0  0  0  0  0  0  0  0  0  0
    1.2063    0.8384    1.4717 H   0  0  0  0  0  0  0  0  0  0  0  0
    2.1840   -0.4574    0.7353 H   0  0  0  0  0  0  0  0  0  0  0  0
    3.0039    1.4288    0.5534 N   0  3  0  0  0  0  0  0  0  0  0  0
    2.9885    2.2451   -0.0557 H   0  0  0  0  0  0  0  0  0  0  0  0
    4.0092    1.2054    1.3531 C   0  0  0  0  0  0  0  0  0  0  0  0
    4.0080    0.1344    2.2269 N   0  0  0  0  0  0  0  0  0  0  0  0
    3.1560   -0.4315    2.3126 H   0  0  0  0  0  0  0  0  0  0  0  0
    4.6832    0.1031    2.9866 H   0  0  0  0  0  0  0  0  0  0  0  0
    5.0964    2.0461    1.3375 N   0  0  0  0  0  0  0  0  0  0  0  0
    5.1874    2.7109    0.5723 H   0  0  0  0  0  0  0  0  0  0  0  0
    5.9462    1.7418    1.8088 H   0  0  0  0  0  0  0  0  0  0  0  0
    0.1748   -1.5314    1.8405 C   0  0  0  0  0  0  0  0  0  0  0  0
    1.3143   -1.6397    2.2942 O   0  0  0  0  0  0  0  0  0  0  0  0
   -0.8239   -1.0598    2.6734 N   0  0  0  0  0  0  0  0  0  0  0  0
   -1.7680   -1.1218    2.3017 H   0  0  0  0  0  0  0  0  0  0  0  0
   -0.6656   -0.9724    4.1214 C   0  0  0  0  0  0  0  0  0  0  0  0
    0.1556   -0.2965    4.3808 H   0  0  0  0  0  0  0  0  0  0  0  0
   -1.5826   -0.5894    4.5798 H   0  0  0  0  0  0  0  0  0  0  0  0
   -0.4546   -1.9614    4.5431 H   0  0  0  0  0  0  0  0  0  0  0  0
  1  2  1  0  0  0  0
  2  3  1  0  0  0  0
  2  4  1  0  0  0  0
  2  5  1  0  0  0  0
  5  6  2  0  0  0  0
  5  7  1  0  0  0  0
  7  8  1  0  0  0  0
  7  9  1  0  0  0  0
  9 10  1  0  0  0  0
  9 11  1  0  0  0  0
  9 29  1  0  0  0  0
 11 12  1  0  0  0  0
 11 13  1  0  0  0  0
 11 14  1  0  0  0  0
 14 15  1  0  0  0  0
 14 16  1  0  0  0  0
 14 17  1  0  0  0  0
 17 18  1  0  0  0  0
 17 19  1  0  0  0  0
 17 20  1  0  0  0  0
 20 21  1  0  0  0  0
 20 22  2  0  0  0  0
 22 23  1  0  0  0  0
 22 26  1  0  0  0  0
 23 24  1  0  0  0  0
 23 25  1  0  0  0  0
 26 27  1  0  0  0  0
 26 28  1  0  0  0  0
 29 30  2  0  0  0  0
 29 31  1  0  0  0  0
 31 32  1  0  0  0  0
 31 33  1  0  0  0  0
 33 34  1  0  0  0  0
 33 35  1  0  0  0  0
 33 36  1  0  0  0  0
M  CHG  1  20   1
M  END
$$$$

  -OEChem-04042215563D

 36 35  0     1  0  0  0  0  0999 V2000
   -3.1667   -5.3008    0.8276 H   0  0  0  0  0  0  0  0  0  0  0  0
   -3.1209   -4.2995    0.3894 C   0  0  0  0  0  0  0  0  0  0  0  0
   -3.9058   -3.6849    0.8366 H   0  0  0  0  0  0  0  0  0  0  0  0
   -3.2973   -4.3802   -0.6859 H   0  0  0  0  0  0  0  0  0  0  0  0
   -1.7612   -3.6799    0.6493 C   0  0  0  0  0  0  0  0  0  0  0  0
   -0.9253   -4.2909    1.2906 O   0  0  0  0  0  0  0  0  0  0  0  0
   -1.4651   -2.4238    0.1491 N   0  0  0  0  0  0  0  0  0  0  0  0
   -2.1635   -2.0012   -0.4572 H   0  0  0  0  0  0  0  0  0  0  0  0
   -0.1453   -1.7723    0.2708 C   0  0  1  0  0  0  0  0  0  0  0  0
    0.6178   -2.4149   -0.1829 H   0  0  0  0  0  0  0  0  0  0  0  0
   -0.2629   -0.4575   -0.5647 C   0  0  0  0  0  0  0  0  0  0  0  0
   -0.5684   -0.7255   -1.5823 H   0  0  0  0  0  0  0  0  0  0  0  0
   -1.0844    0.1221   -0.1291 H   0  0  0  0  0  0  0  0  0  0  0  0
    0.9510    0.5079   -0.6816 C   0  0  0  0  0  0  0  0  0  0  0  0
    1.3839    0.3908   -1.6808 H   0  0  0  0  0  0  0  0  0  0  0  0
    0.6044    1.5432   -0.5919 H   0  0  0  0  0  0  0  0  0  0  0  0
    2.0393    0.2400    0.3381 C   0  0  0  0  0  0  0  0  0  0  0  0
    1.6218    0.4367    1.3316 H   0  0  0  0  0  0  0  0  0  0  0  0
    2.2985   -0.8223    0.2707 H   0  0  0  0  0  0  0  0  0  0  0  0
    3.2798    1.0102    0.2021 N   0  3  0  0  0  0  0  0  0  0  0  0
    3.3774    1.6539   -0.5812 H   0  0  0  0  0  0  0  0  0  0  0  0
    4.2637    0.7984    1.0304 C   0  0  0  0  0  0  0  0  0  0  0  0
    4.1421   -0.1067    2.0676 N   0  0  0  0  0  0  0  0  0  0  0  0
    3.3014   -0.6946    2.1038 H   0  0  0  0  0  0  0  0  0  0  0  0
    4.9816   -0.4517    2.5261 H   0  0  0  0  0  0  0  0  0  0  0  0
    5.4488    1.4770    0.8777 N   0  0  0  0  0  0  0  0  0  0  0  0
    5.4795    2.2702    0.2408 H   0  0  0  0  0  0  0  0  0  0  0  0
    6.1203    1.4508    1.6427 H   0  0  0  0  0  0  0  0  0  0  0  0
    0.2307   -1.5937    1.7735 C   0  0  0  0  0  0  0  0  0  0  0  0
    1.3888   -1.7496    2.1633 O   0  0  0  0  0  0  0  0  0  0  0  0
   -0.7120   -1.1185    2.6667 N   0  0  0  0  0  0  0  0  0  0  0  0
   -1.6753   -1.1391    2.3430 H   0  0  0  0  0  0  0  0  0  0  0  0
   -0.4747   -1.0555    4.1050 C   0  0  0  0  0  0  0  0  0  0  0  0
    0.3606   -0.3845    4.3297 H   0  0  0  0  0  0  0  0  0  0  0  0
   -1.3642   -0.6796    4.6202 H   0  0  0  0  0  0  0  0  0  0  0  0
   -0.2427   -2.0514    4.4979 H   0  0  0  0  0  0  0  0  0  0  0  0
  1  2  1  0  0  0  0
  2  3  1  0  0  0  0
  2  4  1  0  0  0  0
  2  5  1  0  0  0  0
  5  6  2  0  0  0  0
  5  7  1  0  0  0  0
  7  8  1  0  0  0  0
  7  9  1  0  0  0  0
  9 10  1  0  0  0  0
  9 11  1  0  0  0  0
  9 29  1  0  0  0  0
 11 12  1  0  0  0  0
 11 13  1  0  0  0  0
 11 14  1  0  0  0  0
 14 15  1  0  0  0  0
 14 16  1  0  0  0  0
 14 17  1  0  0  0  0
 17 18  1  0  0  0  0
 17 19  1  0  0  0  0
 17 20  1  0  0  0  0
 20 21  1  0  0  0  0
 20 22  2  0  0  0  0
 22 23  1  0  0  0  0
 22 26  1  0  0  0  0
 23 24  1  0  0  0  0
 23 25  1  0  0  0  0
 26 27  1  0  0  0  0
 26 28  1  0  0  0  0
 29 30  2  0  0  0  0
 29 31  1  0  0  0  0
 31 32  1  0  0  0  0
 31 33  1  0  0  0  0
 33 34  1  0  0  0  0
 33 35  1  0  0  0  0
 33 36  1  0  0  0  0
M  CHG  1  20   1
M  END
$$$$

  -OEChem-04042215563D

 36 35  0     1  0  0  0  0  0999 V2000
   -3.2007   -5.2884    0.7905 H   0  0  0  0  0  0  0  0  0  0  0  0
   -3.1549   -4.2827    0.3623 C   0  0  0  0  0  0  0  0  0  0  0  0
   -3.9249   -3.6661    0.8319 H   0  0  0  0  0  0  0  0  0  0  0  0
   -3.3531   -4.3503   -0.7102 H   0  0  0  0  0  0  0  0  0  0  0  0
   -1.7853   -3.6768    0.6012 C   0  0  0  0  0  0  0  0  0  0  0  0
   -0.9343   -4.3090    1.2007 O   0  0  0  0  0  0  0  0  0  0  0  0
   -1.4940   -2.4112    0.1235 N   0  0  0  0  0  0  0  0  0  0  0  0
   -2.2087   -1.9631   -0.4444 H   0  0  0  0  0  0  0  0  0  0  0  0
   -0.1701   -1.7688    0.2380 C   0  0  1  0  0  0  0  0  0  0  0  0
    0.5748   -2.4122   -0.2435 H   0  0  0  0  0  0  0  0  0  0  0  0
   -0.2823   -0.4387   -0.5681 C   0  0  0  0  0  0  0  0  0  0  0  0
   -0.5820   -0.6965   -1.5899 H   0  0  0  0  0  0  0  0  0  0  0  0
   -1.1031    0.1432   -0.1345 H   0  0  0  0  0  0  0  0  0  0  0  0
    0.9457    0.5096   -0.6708 C   0  0  0  0  0  0  0  0  0  0  0  0
    1.1952    0.6344   -1.7300 H   0  0  0  0  0  0  0  0  0  0  0  0
    0.6775    1.4965   -0.2783 H   0  0  0  0  0  0  0  0  0  0  0  0
    2.1712   -0.0018    0.0666 C   0  0  0  0  0  0  0  0  0  0  0  0
    1.9607    0.0935    1.1355 H   0  0  0  0  0  0  0  0  0  0  0  0
    2.3064   -1.0623   -0.1738 H   0  0  0  0  0  0  0  0  0  0  0  0
    3.4326    0.7012   -0.1940 N   0  3  0  0  0  0  0  0  0  0  0  0
    3.4979    1.3066   -1.0106 H   0  0  0  0  0  0  0  0  0  0  0  0
    4.4780    0.4527    0.5438 C   0  0  0  0  0  0  0  0  0  0  0  0
    4.4055   -0.4133    1.6178 N   0  0  0  0  0  0  0  0  0  0  0  0
    3.5370   -0.9393    1.7615 H   0  0  0  0  0  0  0  0  0  0  0  0
    5.2634   -0.7919    2.0116 H   0  0  0  0  0  0  0  0  0  0  0  0
    5.6813    1.0507    0.2553 N   0  0  0  0  0  0  0  0  0  0  0  0
    5.6974    1.8221   -0.4084 H   0  0  0  0  0  0  0  0  0  0  0  0
    6.4215    1.0040    0.9531 H   0  0  0  0  0  0  0  0  0  0  0  0
    0.2516   -1.6152    1.7290 C   0  0  0  0  0  0  0  0  0  0  0  0
    1.4166   -1.8102    2.0766 O   0  0  0  0  0  0  0  0  0  0  0  0
   -0.6580   -1.1504    2.6609 N   0  0  0  0  0  0  0  0  0  0  0  0
   -1.6304   -1.1435    2.3659 H   0  0  0  0  0  0  0  0  0  0  0  0
   -0.3748   -1.1165    4.0919 C   0  0  0  0  0  0  0  0  0  0  0  0
    0.4765   -0.4605    4.3014 H   0  0  0  0  0  0  0  0  0  0  0  0
   -1.2429   -0.7383    4.6407 H   0  0  0  0  0  0  0  0  0  0  0  0
   -0.1439   -2.1218    4.4611 H   0  0  0  0  0  0  0  0  0  0  0  0
  1  2  1  0  0  0  0
  2  3  1  0  0  0  0
  2  4  1  0  0  0  0
  2  5  1  0  0  0  0
  5  6  2  0  0  0  0
  5  7  1  0  0  0  0
  7  8  1  0  0  0  0
  7  9  1  0  0  0  0
  9 10  1  0  0  0  0
  9 11  1  0  0  0  0
  9 29  1  0  0  0  0
 11 12  1  0  0  0  0
 11 13  1  0  0  0  0
 11 14  1  0  0  0  0
 14 15  1  0  0  0  0
 14 16  1  0  0  0  0
 14 17  1  0  0  0  0
 17 18  1  0  0  0  0
 17 19  1  0  0  0  0
 17 20  1  0  0  0  0
 20 21  1  0  0  0  0
 20 22  2  0  0  0  0
 22 23  1  0  0  0  0
 22 26  1  0  0  0  0
 23 24  1  0  0  0  0
 23 25  1  0  0  0  0
 26 27  1  0  0  0  0
 26 28  1  0  0  0  0
 29 30  2  0  0  0  0
 29 31  1  0  0  0  0
 31 32  1  0  0  0  0
 31 33  1  0  0  0  0
 33 34  1  0  0  0  0
 33 35  1  0  0  0  0
 33 36  1  0  0  0  0
M  CHG  1  20   1
M  END
$$$$

  -OEChem-04042215563D

 36 35  0     1  0  0  0  0  0999 V2000
   -3.3744   -5.0431    1.2397 H   0  0  0  0  0  0  0  0  0  0  0  0
   -3.3079   -4.0752    0.7341 C   0  0  0  0  0  0  0  0  0  0  0  0
   -3.9477   -3.3617    1.2585 H   0  0  0  0  0  0  0  0  0  0  0  0
   -3.6656   -4.1913   -0.2919 H   0  0  0  0  0  0  0  0  0  0  0  0
   -1.8719   -3.5865    0.7324 C   0  0  0  0  0  0  0  0  0  0  0  0
   -0.9956   -4.2702    1.2304 O   0  0  0  0  0  0  0  0  0  0  0  0
   -1.5535   -2.3695    0.1542 N   0  0  0  0  0  0  0  0  0  0  0  0
   -2.3054   -1.8941   -0.3388 H   0  0  0  0  0  0  0  0  0  0  0  0
   -0.1762   -1.8550    0.0062 C   0  0  1  0  0  0  0  0  0  0  0  0
    0.4212   -2.5420   -0.6035 H   0  0  0  0  0  0  0  0  0  0  0  0
   -0.3037   -0.4748   -0.6837 C   0  0  0  0  0  0  0  0  0  0  0  0
   -0.8089   -0.6487   -1.6400 H   0  0  0  0  0  0  0  0  0  0  0  0
   -0.9679    0.1595   -0.0860 H   0  0  0  0  0  0  0  0  0  0  0  0
    0.9785    0.3405   -0.9997 C   0  0  0  0  0  0  0  0  0  0  0  0
    0.8719    0.8231   -1.9773 H   0  0  0  0  0  0  0  0  0  0  0  0
    1.0235    1.1406   -0.2523 H   0  0  0  0  0  0  0  0  0  0  0  0
    2.3178   -0.4123   -0.9485 C   0  0  0  0  0  0  0  0  0  0  0  0
    2.2745   -1.2444   -0.2552 H   0  0  0  0  0  0  0  0  0  0  0  0
    2.5073   -0.8469   -1.9364 H   0  0  0  0  0  0  0  0  0  0  0  0
    3.4276    0.4923   -0.5891 N   0  3  0  0  0  0  0  0  0  0  0  0
    3.5393    1.3326   -1.1538 H   0  0  0  0  0  0  0  0  0  0  0  0
    4.3039    0.2336    0.3420 C   0  0  0  0  0  0  0  0  0  0  0  0
    4.2377   -0.8855    1.1387 N   0  0  0  0  0  0  0  0  0  0  0  0
    3.3442   -1.3897    1.1719 H   0  0  0  0  0  0  0  0  0  0  0  0
    4.8051   -0.9130    1.9811 H   0  0  0  0  0  0  0  0  0  0  0  0
    5.3489    1.1039    0.5419 N   0  0  0  0  0  0  0  0  0  0  0  0
    5.5296    1.8187   -0.1595 H   0  0  0  0  0  0  0  0  0  0  0  0
    6.1307    0.7891    1.1133 H   0  0  0  0  0  0  0  0  0  0  0  0
    0.4762   -1.7162    1.4134 C   0  0  0  0  0  0  0  0  0  0  0  0
    1.6603   -1.9764    1.6030 O   0  0  0  0  0  0  0  0  0  0  0  0
   -0.2427   -1.1474    2.4496 N   0  0  0  0  0  0  0  0  0  0  0  0
   -1.2451   -1.0755    2.2982 H   0  0  0  0  0  0  0  0  0  0  0  0
    0.2436   -1.1132    3.8250 C   0  0  0  0  0  0  0  0  0  0  0  0
    1.1790   -0.5482    3.8906 H   0  0  0  0  0  0  0  0  0  0  0  0
   -0.4931   -0.6316    4.4756 H   0  0  0  0  0  0  0  0  0  0  0  0
    0.4186   -2.1300    4.1936 H   0  0  0  0  0  0  0  0  0  0  0  0
  1  2  1  0  0  0  0
  2  3  1  0  0  0  0
  2  4  1  0  0  0  0
  2  5  1  0  0  0  0
  5  6  2  0  0  0  0
  5  7  1  0  0  0  0
  7  8  1  0  0  0  0
  7  9  1  0  0  0  0
  9 10  1  0  0  0  0
  9 11  1  0  0  0  0
  9 29  1  0  0  0  0
 11 12  1  0  0  0  0
 11 13  1  0  0  0  0
 11 14  1  0  0  0  0
 14 15  1  0  0  0  0
 14 16  1  0  0  0  0
 14 17  1  0  0  0  0
 17 18  1  0  0  0  0
 17 19  1  0  0  0  0
 17 20  1  0  0  0  0
 20 21  1  0  0  0  0
 20 22  2  0  0  0  0
 22 23  1  0  0  0  0
 22 26  1  0  0  0  0
 23 24  1  0  0  0  0
 23 25  1  0  0  0  0
 26 27  1  0  0  0  0
 26 28  1  0  0  0  0
 29 30  2  0  0  0  0
 29 31  1  0  0  0  0
 31 32  1  0  0  0  0
 31 33  1  0  0  0  0
 33 34  1  0  0  0  0
 33 35  1  0  0  0  0
 33 36  1  0  0  0  0
M  CHG  1  20   1
M  END
$$$$

  -OEChem-04042215563D

 36 35  0     1  0  0  0  0  0999 V2000
   -3.2454   -5.1535    1.1417 H   0  0  0  0  0  0  0  0  0  0  0  0
   -3.2300   -4.1814    0.6401 C   0  0  0  0  0  0  0  0  0  0  0  0
   -3.8913   -3.4989    1.1794 H   0  0  0  0  0  0  0  0  0  0  0  0
   -3.5999   -4.3075   -0.3803 H   0  0  0  0  0  0  0  0  0  0  0  0
   -1.8169   -3.6310    0.6162 C   0  0  0  0  0  0  0  0  0  0  0  0
   -0.8927   -4.3013    1.0413 O   0  0  0  0  0  0  0  0  0  0  0  0
   -1.5702   -2.3695    0.1031 N   0  0  0  0  0  0  0  0  0  0  0  0
   -2.3585   -1.8890   -0.3235 H   0  0  0  0  0  0  0  0  0  0  0  0
   -0.2212   -1.7896   -0.0439 C   0  0  1  0  0  0  0  0  0  0  0  0
    0.3746   -2.4346   -0.6992 H   0  0  0  0  0  0  0  0  0  0  0  0
   -0.3841   -0.3875   -0.6732 C   0  0  0  0  0  0  0  0  0  0  0  0
   -0.8859   -0.5228   -1.6374 H   0  0  0  0  0  0  0  0  0  0  0  0
   -1.0496    0.2162   -0.0462 H   0  0  0  0  0  0  0  0  0  0  0  0
    0.9083    0.4232   -0.9346 C   0  0  0  0  0  0  0  0  0  0  0  0
    0.7324    1.1393   -1.7445 H   0  0  0  0  0  0  0  0  0  0  0  0
    1.1139    1.0022   -0.0271 H   0  0  0  0  0  0  0  0  0  0  0  0
    2.1567   -0.4190   -1.2444 C   0  0  0  0  0  0  0  0  0  0  0  0
    2.2077   -1.2971   -0.6023 H   0  0  0  0  0  0  0  0  0  0  0  0
    2.0844   -0.7878   -2.2737 H   0  0  0  0  0  0  0  0  0  0  0  0
    3.3817    0.3901   -1.0931 N   0  3  0  0  0  0  0  0  0  0  0  0
    3.4914    1.1822   -1.7238 H   0  0  0  0  0  0  0  0  0  0  0  0
    4.3412    0.1115   -0.2545 C   0  0  0  0  0  0  0  0  0  0  0  0
    4.2766   -0.9364    0.6332 N   0  0  0  0  0  0  0  0  0  0  0  0
    3.3551   -1.3550    0.8038 H   0  0  0  0  0  0  0  0  0  0  0  0
    4.9343   -0.9552    1.4076 H   0  0  0  0  0  0  0  0  0  0  0  0
    5.4752    0.8880   -0.2499 N   0  0  0  0  0  0  0  0  0  0  0  0
    5.6302    1.5273   -1.0262 H   0  0  0  0  0  0  0  0  0  0  0  0
    6.2916    0.5370    0.2473 H   0  0  0  0  0  0  0  0  0  0  0  0
    0.4908   -1.6889    1.3340 C   0  0  0  0  0  0  0  0  0  0  0  0
    1.7065   -1.8313    1.4255 O   0  0  0  0  0  0  0  0  0  0  0  0
   -0.1999   -1.2054    2.4304 N   0  0  0  0  0  0  0  0  0  0  0  0
   -1.2129   -1.2023    2.3462 H   0  0  0  0  0  0  0  0  0  0  0  0
    0.3760   -1.1488    3.7698 C   0  0  0  0  0  0  0  0  0  0  0  0
    1.2701   -0.5170    3.7801 H   0  0  0  0  0  0  0  0  0  0  0  0
   -0.3477   -0.7287    4.4752 H   0  0  0  0  0  0  0  0  0  0  0  0
    0.6493   -2.1532    4.1112 H   0  0  0  0  0  0  0  0  0  0  0  0
  1  2  1  0  0  0  0
  2  3  1  0  0  0  0
  2  4  1  0  0  0  0
  2  5  1  0  0  0  0
  5  6  2  0  0  0  0
  5  7  1  0  0  0  0
  7  8  1  0  0  0  0
  7  9  1  0  0  0  0
  9 10  1  0  0  0  0
  9 11  1  0  0  0  0
  9 29  1  0  0  0  0
 11 12  1  0  0  0  0
 11 13  1  0  0  0  0
 11 14  1  0  0  0  0
 14 15  1  0  0  0  0
 14 16  1  0  0  0  0
 14 17  1  0  0  0  0
 17 18  1  0  0  0  0
 17 19  1  0  0  0  0
 17 20  1  0  0  0  0
 20 21  1  0  0  0  0
 20 22  2  0  0  0  0
 22 23  1  0  0  0  0
 22 26  1  0  0  0  0
 23 24  1  0  0  0  0
 23 25  1  0  0  0  0
 26 27  1  0  0  0  0
 26 28  1  0  0  0  0
 29 30  2  0  0  0  0
 29 31  1  0  0  0  0
 31 32  1  0  0  0  0
 31 33  1  0  0  0  0
 33 34  1  0  0  0  0
 33 35  1  0  0  0  0
 33 36  1  0  0  0  0
M  CHG  1  20   1
M  END
$$$$

  -OEChem-04042215563D

 36 35  0     1  0  0  0  0  0999 V2000
   -3.1061   -5.2847    0.9471 H   0  0  0  0  0  0  0  0  0  0  0  0
   -3.1547   -4.2711    0.5382 C   0  0  0  0  0  0  0  0  0  0  0  0
   -3.8191   -3.6719    1.1653 H   0  0  0  0  0  0  0  0  0  0  0  0
   -3.5652   -4.3213   -0.4732 H   0  0  0  0  0  0  0  0  0  0  0  0
   -1.7690   -3.6553    0.5077 C   0  0  0  0  0  0  0  0  0  0  0  0
   -0.8036   -4.3019    0.8748 O   0  0  0  0  0  0  0  0  0  0  0  0
   -1.5898   -2.3598    0.0567 N   0  0  0  0  0  0  0  0  0  0  0  0
   -2.4085   -1.8857   -0.3165 H   0  0  0  0  0  0  0  0  0  0  0  0
   -0.2689   -1.7213   -0.0865 C   0  0  1  0  0  0  0  0  0  0  0  0
    0.3208   -2.3393   -0.7717 H   0  0  0  0  0  0  0  0  0  0  0  0
   -0.4671   -0.3197   -0.7033 C   0  0  0  0  0  0  0  0  0  0  0  0
   -0.9628   -0.4416   -1.6723 H   0  0  0  0  0  0  0  0  0  0  0  0
   -1.1371    0.2659   -0.0644 H   0  0  0  0  0  0  0  0  0  0  0  0
    0.8308    0.4878   -0.9231 C   0  0  0  0  0  0  0  0  0  0  0  0
    0.6132    1.3564   -1.5539 H   0  0  0  0  0  0  0  0  0  0  0  0
    1.1720    0.8662    0.0471 H   0  0  0  0  0  0  0  0  0  0  0  0
    1.9586   -0.3405   -1.5538 C   0  0  0  0  0  0  0  0  0  0  0  0
    2.0847   -1.2838   -1.0159 H   0  0  0  0  0  0  0  0  0  0  0  0
    1.6869   -0.5905   -2.5852 H   0  0  0  0  0  0  0  0  0  0  0  0
    3.2245    0.4170   -1.5396 N   0  3  0  0  0  0  0  0  0  0  0  0
    3.2979    1.2048   -2.1811 H   0  0  0  0  0  0  0  0  0  0  0  0
    4.2537    0.1003   -0.8039 C   0  0  0  0  0  0  0  0  0  0  0  0
    4.2350   -0.9409    0.0946 N   0  0  0  0  0  0  0  0  0  0  0  0
    3.3171   -1.3036    0.3765 H   0  0  0  0  0  0  0  0  0  0  0  0
    4.9741   -0.9916    0.7901 H   0  0  0  0  0  0  0  0  0  0  0  0
    5.4141    0.8269   -0.9257 N   0  0  0  0  0  0  0  0  0  0  0  0
    5.5124    1.4580   -1.7179 H   0  0  0  0  0  0  0  0  0  0  0  0
    6.2634    0.4439   -0.5145 H   0  0  0  0  0  0  0  0  0  0  0  0
    0.5147   -1.6376    1.2476 C   0  0  0  0  0  0  0  0  0  0  0  0
    1.7423   -1.6817    1.2334 O   0  0  0  0  0  0  0  0  0  0  0  0
   -0.1262   -1.2272    2.4015 N   0  0  0  0  0  0  0  0  0  0  0  0
   -1.1412   -1.2834    2.3907 H   0  0  0  0  0  0  0  0  0  0  0  0
    0.5450   -1.1235    3.6925 C   0  0  0  0  0  0  0  0  0  0  0  0
    1.3647   -0.3992    3.6444 H   0  0  0  0  0  0  0  0  0  0  0  0
   -0.1611   -0.7907    4.4596 H   0  0  0  0  0  0  0  0  0  0  0  0
    0.9496   -2.0959    3.9936 H   0  0  0  0  0  0  0  0  0  0  0  0
  1  2  1  0  0  0  0
  2  3  1  0  0  0  0
  2  4  1  0  0  0  0
  2  5  1  0  0  0  0
  5  6  2  0  0  0  0
  5  7  1  0  0  0  0
  7  8  1  0  0  0  0
  7  9  1  0  0  0  0
  9 10  1  0  0  0  0
  9 11  1  0  0  0  0
  9 29  1  0  0  0  0
 11 12  1  0  0  0  0
 11 13  1  0  0  0  0
 11 14  1  0  0  0  0
 14 15  1  0  0  0  0
 14 16  1  0  0  0  0
 14 17  1  0  0  0  0
 17 18  1  0  0  0  0
 17 19  1  0  0  0  0
 17 20  1  0  0  0  0
 20 21  1  0  0  0  0
 20 22  2  0  0  0  0
 22 23  1  0  0  0  0
 22 26  1  0  0  0  0
 23 24  1  0  0  0  0
 23 25  1  0  0  0  0
 26 27  1  0  0  0  0
 26 28  1  0  0  0  0
 29 30  2  0  0  0  0
 29 31  1  0  0  0  0
 31 32  1  0  0  0  0
 31 33  1  0  0  0  0
 33 34  1  0  0  0  0
 33 35  1  0  0  0  0
 33 36  1  0  0  0  0
M  CHG  1  20   1
M  END
$$$$

  -OEChem-04042215563D

 36 35  0     1  0  0  0  0  0999 V2000
   -3.0053   -5.3478    0.7862 H   0  0  0  0  0  0  0  0  0  0  0  0
   -3.0947   -4.3112    0.4480 C   0  0  0  0  0  0  0  0  0  0  0  0
   -3.7442   -3.7716    1.1413 H   0  0  0  0  0  0  0  0  0  0  0  0
   -3.5477   -4.3049   -0.5464 H   0  0  0  0  0  0  0  0  0  0  0  0
   -1.7261   -3.6596    0.4000 C   0  0  0  0  0  0  0  0  0  0  0  0
   -0.7322   -4.2960    0.7032 O   0  0  0  0  0  0  0  0  0  0  0  0
   -1.5955   -2.3401    0.0072 N   0  0  0  0  0  0  0  0  0  0  0  0
   -2.4405   -1.8648   -0.3003 H   0  0  0  0  0  0  0  0  0  0  0  0
   -0.2980   -1.6582   -0.1401 C   0  0  1  0  0  0  0  0  0  0  0  0
    0.2861   -2.2485   -0.8543 H   0  0  0  0  0  0  0  0  0  0  0  0
   -0.5392   -0.2602   -0.7498 C   0  0  0  0  0  0  0  0  0  0  0  0
   -1.0461   -0.3750   -1.7141 H   0  0  0  0  0  0  0  0  0  0  0  0
   -1.2086    0.3035   -0.0908 H   0  0  0  0  0  0  0  0  0  0  0  0
    0.7479    0.5628   -0.9557 C   0  0  0  0  0  0  0  0  0  0  0  0
    0.4810    1.5350   -1.3834 H   0  0  0  0  0  0  0  0  0  0  0  0
    1.2258    0.7598    0.0097 H   0  0  0  0  0  0  0  0  0  0  0  0
    1.7284   -0.1448   -1.8953 C   0  0  0  0  0  0  0  0  0  0  0  0
    1.9015   -1.1701   -1.5518 H   0  0  0  0  0  0  0  0  0  0  0  0
    1.2918   -0.2042   -2.8986 H   0  0  0  0  0  0  0  0  0  0  0  0
    3.0091    0.5852   -1.9455 N   0  3  0  0  0  0  0  0  0  0  0  0
    3.0619    1.3806   -2.5800 H   0  0  0  0  0  0  0  0  0  0  0  0
    4.0722    0.2368   -1.2750 C   0  0  0  0  0  0  0  0  0  0  0  0
    4.0834   -0.8135   -0.3865 N   0  0  0  0  0  0  0  0  0  0  0  0
    3.1789   -1.1556   -0.0426 H   0  0  0  0  0  0  0  0  0  0  0  0
    4.8674   -0.8937    0.2552 H   0  0  0  0  0  0  0  0  0  0  0  0
    5.2395    0.9385   -1.4586 N   0  0  0  0  0  0  0  0  0  0  0  0
    5.3061    1.5736   -2.2509 H   0  0  0  0  0  0  0  0  0  0  0  0
    6.1021    0.5340   -1.0993 H   0  0  0  0  0  0  0  0  0  0  0  0
    0.5438   -1.5980    1.1553 C   0  0  0  0  0  0  0  0  0  0  0  0
    1.7695   -1.5984    1.0630 O   0  0  0  0  0  0  0  0  0  0  0  0
   -0.0457   -1.2538    2.3566 N   0  0  0  0  0  0  0  0  0  0  0  0
   -1.0570   -1.3477    2.4014 H   0  0  0  0  0  0  0  0  0  0  0  0
    0.6965   -1.1705    3.6096 C   0  0  0  0  0  0  0  0  0  0  0  0
    1.4825   -0.4108    3.5434 H   0  0  0  0  0  0  0  0  0  0  0  0
    0.0249   -0.8973    4.4295 H   0  0  0  0  0  0  0  0  0  0  0  0
    1.1576   -2.1355    3.8466 H   0  0  0  0  0  0  0  0  0  0  0  0
  1  2  1  0  0  0  0
  2  3  1  0  0  0  0
  2  4  1  0  0  0  0
  2  5  1  0  0  0  0
  5  6  2  0  0  0  0
  5  7  1  0  0  0  0
  7  8  1  0  0  0  0
  7  9  1  0  0  0  0
  9 10  1  0  0  0  0
  9 11  1  0  0  0  0
  9 29  1  0  0  0  0
 11 12  1  0  0  0  0
 11 13  1  0  0  0  0
 11 14  1  0  0  0  0
 14 15  1  0  0  0  0
 14 16  1  0  0  0  0
 14 17  1  0  0  0  0
 17 18  1  0  0  0  0
 17 19  1  0  0  0  0
 17 20  1  0  0  0  0
 20 21  1  0  0  0  0
 20 22  2  0  0  0  0
 22 23  1  0  0  0  0
 22 26  1  0  0  0  0
 23 24  1  0  0  0  0
 23 25  1  0  0  0  0
 26 27  1  0  0  0  0
 26 28  1  0  0  0  0
 29 30  2  0  0  0  0
 29 31  1  0  0  0  0
 31 32  1  0  0  0  0
 31 33  1  0  0  0  0
 33 34  1  0  0  0  0
 33 35  1  0  0  0  0
 33 36  1  0  0  0  0
M  CHG  1  20   1
M  END
$$$$

  -OEChem-04042215563D

 36 35  0     1  0  0  0  0  0999 V2000
   -2.8297   -5.4067    0.6454 H   0  0  0  0  0  0  0  0  0  0  0  0
   -2.9710   -4.3689    0.3293 C   0  0  0  0  0  0  0  0  0  0  0  0
   -3.6320   -3.8726    1.0437 H   0  0  0  0  0  0  0  0  0  0  0  0
   -3.4411   -4.3643   -0.6572 H   0  0  0  0  0  0  0  0  0  0  0  0
   -1.6338   -3.6554    0.2718 C   0  0  0  0  0  0  0  0  0  0  0  0
   -0.6063   -4.2550    0.5358 O   0  0  0  0  0  0  0  0  0  0  0  0
   -1.5687   -2.3209   -0.0857 N   0  0  0  0  0  0  0  0  0  0  0  0
   -2.4405   -1.8706   -0.3530 H   0  0  0  0  0  0  0  0  0  0  0  0
   -0.3063   -1.5729   -0.2145 C   0  0  1  0  0  0  0  0  0  0  0  0
    0.3098   -2.1233   -0.9341 H   0  0  0  0  0  0  0  0  0  0  0  0
   -0.6108   -0.1906   -0.8320 C   0  0  0  0  0  0  0  0  0  0  0  0
   -1.1123   -0.3210   -1.7971 H   0  0  0  0  0  0  0  0  0  0  0  0
   -1.3059    0.3366   -0.1696 H   0  0  0  0  0  0  0  0  0  0  0  0
    0.6388    0.6923   -1.0162 C   0  0  0  0  0  0  0  0  0  0  0  0
    0.3125    1.7162   -1.2282 H   0  0  0  0  0  0  0  0  0  0  0  0
    1.2330    0.7426   -0.0999 H   0  0  0  0  0  0  0  0  0  0  0  0
    1.4758    0.2021   -2.1982 C   0  0  0  0  0  0  0  0  0  0  0  0
    1.6225   -0.8810   -2.1251 H   0  0  0  0  0  0  0  0  0  0  0  0
    0.9374    0.3971   -3.1324 H   0  0  0  0  0  0  0  0  0  0  0  0
    2.7878    0.8759   -2.2175 N   0  3  0  0  0  0  0  0  0  0  0  0
    2.8650    1.7175   -2.7866 H   0  0  0  0  0  0  0  0  0  0  0  0
    3.8520    0.4166   -1.6185 C   0  0  0  0  0  0  0  0  0  0  0  0
    3.8362   -0.7022   -0.8167 N   0  0  0  0  0  0  0  0  0  0  0  0
    2.9350   -0.9950   -0.4244 H   0  0  0  0  0  0  0  0  0  0  0  0
    4.6504   -0.8857   -0.2366 H   0  0  0  0  0  0  0  0  0  0  0  0
    5.0506    1.0662   -1.7932 N   0  0  0  0  0  0  0  0  0  0  0  0
    5.1257    1.7622   -2.5319 H   0  0  0  0  0  0  0  0  0  0  0  0
    5.9015    0.5912   -1.4976 H   0  0  0  0  0  0  0  0  0  0  0  0
    0.5357   -1.5036    1.0797 C   0  0  0  0  0  0  0  0  0  0  0  0
    1.7603   -1.4697    0.9778 O   0  0  0  0  0  0  0  0  0  0  0  0
   -0.0577   -1.2198    2.2946 N   0  0  0  0  0  0  0  0  0  0  0  0
   -1.0648   -1.3487    2.3433 H   0  0  0  0  0  0  0  0  0  0  0  0
    0.6917   -1.1528    3.5445 C   0  0  0  0  0  0  0  0  0  0  0  0
    1.4619   -0.3760    3.4918 H   0  0  0  0  0  0  0  0  0  0  0  0
    0.0212   -0.9145    4.3761 H   0  0  0  0  0  0  0  0  0  0  0  0
    1.1741   -2.1136    3.7536 H   0  0  0  0  0  0  0  0  0  0  0  0
  1  2  1  0  0  0  0
  2  3  1  0  0  0  0
  2  4  1  0  0  0  0
  2  5  1  0  0  0  0
  5  6  2  0  0  0  0
  5  7  1  0  0  0  0
  7  8  1  0  0  0  0
  7  9  1  0  0  0  0
  9 10  1  0  0  0  0
  9 11  1  0  0  0  0
  9 29  1  0  0  0  0
 11 12  1  0  0  0  0
 11 13  1  0  0  0  0
 11 14  1  0  0  0  0
 14 15  1  0  0  0  0
 14 16  1  0  0  0  0
 14 17  1  0  0  0  0
 17 18  1  0  0  0  0
 17 19  1  0  0  0  0
 17 20  1  0  0  0  0
 20 21  1  0  0  0  0
 20 22  2  0  0  0  0
 22 23  1  0  0  0  0
 22 26  1  0  0  0  0
 23 24  1  0  0  0  0
 23 25  1  0  0  0  0
 26 27  1  0  0  0  0
 26 28  1  0  0  0  0
 29 30  2  0  0  0  0
 29 31  1  0  0  0  0
 31 32  1  0  0  0  0
 31 33  1  0  0  0  0
 33 34  1  0  0  0  0
 33 35  1  0  0  0  0
 33 36  1  0  0  0  0
M  CHG  1  20   1
M  END
$$$$

  -OEChem-04042215563D

 36 35  0     1  0  0  0  0  0999 V2000
   -2.6208   -5.4464    0.5359 H   0  0  0  0  0  0  0  0  0  0  0  0
   -2.8262   -4.3989    0.2968 C   0  0  0  0  0  0  0  0  0  0  0  0
   -3.4718   -3.9824    1.0735 H   0  0  0  0  0  0  0  0  0  0  0  0
   -3.3461   -4.3551   -0.6631 H   0  0  0  0  0  0  0  0  0  0  0  0
   -1.5280   -3.6180    0.2221 C   0  0  0  0  0  0  0  0  0  0  0  0
   -0.4647   -4.1743    0.4335 O   0  0  0  0  0  0  0  0  0  0  0  0
   -1.5381   -2.2729   -0.1003 N   0  0  0  0  0  0  0  0  0  0  0  0
   -2.4397   -1.8546   -0.3157 H   0  0  0  0  0  0  0  0  0  0  0  0
   -0.3177   -1.4593   -0.2343 C   0  0  1  0  0  0  0  0  0  0  0  0
    0.3115   -1.9646   -0.9756 H   0  0  0  0  0  0  0  0  0  0  0  0
   -0.7030   -0.0907   -0.8382 C   0  0  0  0  0  0  0  0  0  0  0  0
   -1.2232   -0.2354   -1.7913 H   0  0  0  0  0  0  0  0  0  0  0  0
   -1.4101    0.3897   -0.1529 H   0  0  0  0  0  0  0  0  0  0  0  0
    0.4937    0.8634   -1.0289 C   0  0  0  0  0  0  0  0  0  0  0  0
    0.1231    1.8934   -0.9844 H   0  0  0  0  0  0  0  0  0  0  0  0
    1.2302    0.7789   -0.2292 H   0  0  0  0  0  0  0  0  0  0  0  0
    1.1193    0.6587   -2.4072 C   0  0  0  0  0  0  0  0  0  0  0  0
    1.1650   -0.4123   -2.6348 H   0  0  0  0  0  0  0  0  0  0  0  0
    0.4873    1.1282   -3.1693 H   0  0  0  0  0  0  0  0  0  0  0  0
    2.4826    1.2232   -2.4513 N   0  3  0  0  0  0  0  0  0  0  0  0
    2.5976    2.1063   -2.9468 H   0  0  0  0  0  0  0  0  0  0  0  0
    3.5436    0.6114   -1.9975 C   0  0  0  0  0  0  0  0  0  0  0  0
    3.4883   -0.5747   -1.2983 N   0  0  0  0  0  0  0  0  0  0  0  0
    2.6159   -0.7972   -0.8103 H   0  0  0  0  0  0  0  0  0  0  0  0
    4.3368   -0.8908   -0.8353 H   0  0  0  0  0  0  0  0  0  0  0  0
    4.7815    1.1633   -2.2268 N   0  0  0  0  0  0  0  0  0  0  0  0
    4.8632    1.9220   -2.9001 H   0  0  0  0  0  0  0  0  0  0  0  0
    5.6049    0.5908   -2.0498 H   0  0  0  0  0  0  0  0  0  0  0  0
    0.5492   -1.3798    1.0429 C   0  0  0  0  0  0  0  0  0  0  0  0
    1.7698   -1.3146    0.9105 O   0  0  0  0  0  0  0  0  0  0  0  0
   -0.0251   -1.1567    2.2795 N   0  0  0  0  0  0  0  0  0  0  0  0
   -1.0267   -1.3157    2.3480 H   0  0  0  0  0  0  0  0  0  0  0  0
    0.7519   -1.0982    3.5128 C   0  0  0  0  0  0  0  0  0  0  0  0
    1.4873   -0.2881    3.4674 H   0  0  0  0  0  0  0  0  0  0  0  0
    0.0931   -0.9148    4.3675 H   0  0  0  0  0  0  0  0  0  0  0  0
    1.2792   -2.0440    3.6791 H   0  0  0  0  0  0  0  0  0  0  0  0
  1  2  1  0  0  0  0
  2  3  1  0  0  0  0
  2  4  1  0  0  0  0
  2  5  1  0  0  0  0
  5  6  2  0  0  0  0
  5  7  1  0  0  0  0
  7  8  1  0  0  0  0
  7  9  1  0  0  0  0
  9 10  1  0  0  0  0
  9 11  1  0  0  0  0
  9 29  1  0  0  0  0
 11 12  1  0  0  0  0
 11 13  1  0  0  0  0
 11 14  1  0  0  0  0
 14 15  1  0  0  0  0
 14 16  1  0  0  0  0
 14 17  1  0  0  0  0
 17 18  1  0  0  0  0
 17 19  1  0  0  0  0
 17 20  1  0  0  0  0
 20 21  1  0  0  0  0
 20 22  2  0  0  0  0
 22 23  1  0  0  0  0
 22 26  1  0  0  0  0
 23 24  1  0  0  0  0
 23 25  1  0  0  0  0
 26 27  1  0  0  0  0
 26 28  1  0  0  0  0
 29 30  2  0  0  0  0
 29 31  1  0  0  0  0
 31 32  1  0  0  0  0
 31 33  1  0  0  0  0
 33 34  1  0  0  0  0
 33 35  1  0  0  0  0
 33 36  1  0  0  0  0
M  CHG  1  20   1
M  END
$$$$

  -OEChem-04042215563D

 36 35  0     1  0  0  0  0  0999 V2000
   -2.9770   -5.3665    0.9490 H   0  0  0  0  0  0  0  0  0  0  0  0
   -3.0299   -4.3701    0.5003 C   0  0  0  0  0  0  0  0  0  0  0  0
   -3.7820   -3.7850    1.0345 H   0  0  0  0  0  0  0  0  0  0  0  0
   -3.3304   -4.4724   -0.5452 H   0  0  0  0  0  0  0  0  0  0  0  0
   -1.6783   -3.6877    0.5895 C   0  0  0  0  0  0  0  0  0  0  0  0
   -0.7382   -4.2625    1.1069 O   0  0  0  0  0  0  0  0  0  0  0  0
   -1.5085   -2.4146    0.0762 N   0  0  0  0  0  0  0  0  0  0  0  0
   -2.3128   -1.9901   -0.3772 H   0  0  0  0  0  0  0  0  0  0  0  0
   -0.2353   -1.6706    0.1200 C   0  0  1  0  0  0  0  0  0  0  0  0
    0.5310   -2.2719   -0.3824 H   0  0  0  0  0  0  0  0  0  0  0  0
   -0.4323   -0.3648   -0.6822 C   0  0  0  0  0  0  0  0  0  0  0  0
   -0.7673   -0.6075   -1.6964 H   0  0  0  0  0  0  0  0  0  0  0  0
   -1.2384    0.2034   -0.2051 H   0  0  0  0  0  0  0  0  0  0  0  0
    0.8154    0.5443   -0.7429 C   0  0  0  0  0  0  0  0  0  0  0  0
    0.5045    1.5796   -0.5629 H   0  0  0  0  0  0  0  0  0  0  0  0
    1.5424    0.2907    0.0315 H   0  0  0  0  0  0  0  0  0  0  0  0
    1.4839    0.4639   -2.1141 C   0  0  0  0  0  0  0  0  0  0  0  0
    1.6793   -0.5874   -2.3538 H   0  0  0  0  0  0  0  0  0  0  0  0
    0.8115    0.8777   -2.8736 H   0  0  0  0  0  0  0  0  0  0  0  0
    2.7527    1.2147   -2.0798 N   0  3  0  0  0  0  0  0  0  0  0  0
    3.0403    1.5913   -1.1767 H   0  0  0  0  0  0  0  0  0  0  0  0
    3.5437    1.3520   -3.1042 C   0  0  0  0  0  0  0  0  0  0  0  0
    3.2433    0.8082   -4.3322 N   0  0  0  0  0  0  0  0  0  0  0  0
    2.4746    0.1427   -4.3782 H   0  0  0  0  0  0  0  0  0  0  0  0
    3.9902    0.7213   -5.0184 H   0  0  0  0  0  0  0  0  0  0  0  0
    4.7161    2.0559   -2.9651 N   0  0  0  0  0  0  0  0  0  0  0  0
    4.8676    2.5940   -2.1139 H   0  0  0  0  0  0  0  0  0  0  0  0
    5.2193    2.3367   -3.8048 H   0  0  0  0  0  0  0  0  0  0  0  0
    0.2721   -1.4320    1.5645 C   0  0  0  0  0  0  0  0  0  0  0  0
    1.4767   -1.4198    1.7868 O   0  0  0  0  0  0  0  0  0  0  0  0
   -0.6018   -1.0064    2.5488 N   0  0  0  0  0  0  0  0  0  0  0  0
   -1.5901   -1.1381    2.3567 H   0  0  0  0  0  0  0  0  0  0  0  0
   -0.1873   -0.8125    3.9344 C   0  0  0  0  0  0  0  0  0  0  0  0
    0.5929   -0.0468    3.9999 H   0  0  0  0  0  0  0  0  0  0  0  0
   -1.0374   -0.4892    4.5432 H   0  0  0  0  0  0  0  0  0  0  0  0
    0.2022   -1.7476    4.3518 H   0  0  0  0  0  0  0  0  0  0  0  0
  1  2  1  0  0  0  0
  2  3  1  0  0  0  0
  2  4  1  0  0  0  0
  2  5  1  0  0  0  0
  5  6  2  0  0  0  0
  5  7  1  0  0  0  0
  7  8  1  0  0  0  0
  7  9  1  0  0  0  0
  9 10  1  0  0  0  0
  9 11  1  0  0  0  0
  9 29  1  0  0  0  0
 11 12  1  0  0  0  0
 11 13  1  0  0  0  0
 11 14  1  0  0  0  0
 14 15  1  0  0  0  0
 14 16  1  0  0  0  0
 14 17  1  0  0  0  0
 17 18  1  0  0  0  0
 17 19  1  0  0  0  0
 17 20  1  0  0  0  0
 20 21  1  0  0  0  0
 20 22  2  0  0  0  0
 22 23  1  0  0  0  0
 22 26  1  0  0  0  0
 23 24  1  0  0  0  0
 23 25  1  0  0  0  0
 26 27  1  0  0  0  0
 26 28  1  0  0  0  0
 29 30  2  0  0  0  0
 29 31  1  0  0  0  0
 31 32  1  0  0  0  0
 31 33  1  0  0  0  0
 33 34  1  0  0  0  0
 33 35  1  0  0  0  0
 33 36  1  0  0  0  0
M  CHG  1  20   1
M  END
$$$$

  -OEChem-04042215563D

 36 35  0     1  0  0  0  0  0999 V2000
   -2.9680   -5.3786    0.9527 H   0  0  0  0  0  0  0  0  0  0  0  0
   -3.0267   -4.3830    0.5030 C   0  0  0  0  0  0  0  0  0  0  0  0
   -3.7883   -3.8047    1.0312 H   0  0  0  0  0  0  0  0  0  0  0  0
   -3.3176   -4.4891   -0.5447 H   0  0  0  0  0  0  0  0  0  0  0  0
   -1.6819   -3.6883    0.6013 C   0  0  0  0  0  0  0  0  0  0  0  0
   -0.7430   -4.2516    1.1333 O   0  0  0  0  0  0  0  0  0  0  0  0
   -1.5159   -2.4174    0.0810 N   0  0  0  0  0  0  0  0  0  0  0  0
   -2.3168   -2.0033   -0.3877 H   0  0  0  0  0  0  0  0  0  0  0  0
   -0.2439   -1.6709    0.1178 C   0  0  1  0  0  0  0  0  0  0  0  0
    0.5222   -2.2710   -0.3868 H   0  0  0  0  0  0  0  0  0  0  0  0
   -0.4432   -0.3600   -0.6734 C   0  0  0  0  0  0  0  0  0  0  0  0
   -0.7641   -0.6122   -1.6899 H   0  0  0  0  0  0  0  0  0  0  0  0
   -1.2553    0.2117   -0.2112 H   0  0  0  0  0  0  0  0  0  0  0  0
    0.8148    0.5356   -0.7275 C   0  0  0  0  0  0  0  0  0  0  0  0
    0.5969    1.4950   -0.2454 H   0  0  0  0  0  0  0  0  0  0  0  0
    1.6450    0.0766   -0.1842 H   0  0  0  0  0  0  0  0  0  0  0  0
    1.2707    0.7684   -2.1666 C   0  0  0  0  0  0  0  0  0  0  0  0
    1.4128   -0.2005   -2.6582 H   0  0  0  0  0  0  0  0  0  0  0  0
    0.4988    1.3268   -2.7080 H   0  0  0  0  0  0  0  0  0  0  0  0
    2.5400    1.5187   -2.1538 N   0  3  0  0  0  0  0  0  0  0  0  0
    2.9559    1.7038   -1.2409 H   0  0  0  0  0  0  0  0  0  0  0  0
    3.1727    1.8956   -3.2265 C   0  0  0  0  0  0  0  0  0  0  0  0
    2.6892    1.6272   -4.4868 N   0  0  0  0  0  0  0  0  0  0  0  0
    1.9145    0.9722   -4.5671 H   0  0  0  0  0  0  0  0  0  0  0  0
    3.3210    1.7196   -5.2797 H   0  0  0  0  0  0  0  0  0  0  0  0
    4.3590    2.5789   -3.1067 N   0  0  0  0  0  0  0  0  0  0  0  0
    4.6357    2.9246   -2.1896 H   0  0  0  0  0  0  0  0  0  0  0  0
    4.7383    3.0457   -3.9283 H   0  0  0  0  0  0  0  0  0  0  0  0
    0.2654   -1.4249    1.5614 C   0  0  0  0  0  0  0  0  0  0  0  0
    1.4698   -1.3911    1.7815 O   0  0  0  0  0  0  0  0  0  0  0  0
   -0.6094   -0.9968    2.5440 N   0  0  0  0  0  0  0  0  0  0  0  0
   -1.5960   -1.1482    2.3580 H   0  0  0  0  0  0  0  0  0  0  0  0
   -0.1926   -0.7957    3.9279 C   0  0  0  0  0  0  0  0  0  0  0  0
    0.5793   -0.0214    3.9898 H   0  0  0  0  0  0  0  0  0  0  0  0
   -1.0441   -0.4812    4.5391 H   0  0  0  0  0  0  0  0  0  0  0  0
    0.2086   -1.7256    4.3455 H   0  0  0  0  0  0  0  0  0  0  0  0
  1  2  1  0  0  0  0
  2  3  1  0  0  0  0
  2  4  1  0  0  0  0
  2  5  1  0  0  0  0
  5  6  2  0  0  0  0
  5  7  1  0  0  0  0
  7  8  1  0  0  0  0
  7  9  1  0  0  0  0
  9 10  1  0  0  0  0
  9 11  1  0  0  0  0
  9 29  1  0  0  0  0
 11 12  1  0  0  0  0
 11 13  1  0  0  0  0
 11 14  1  0  0  0  0
 14 15  1  0  0  0  0
 14 16  1  0  0  0  0
 14 17  1  0  0  0  0
 17 18  1  0  0  0  0
 17 19  1  0  0  0  0
 17 20  1  0  0  0  0
 20 21  1  0  0  0  0
 20 22  2  0  0  0  0
 22 23  1  0  0  0  0
 22 26  1  0  0  0  0
 23 24  1  0  0  0  0
 23 25  1  0  0  0  0
 26 27  1  0  0  0  0
 26 28  1  0  0  0  0
 29 30  2  0  0  0  0
 29 31  1  0  0  0  0
 31 32  1  0  0  0  0
 31 33  1  0  0  0  0
 33 34  1  0  0  0  0
 33 35  1  0  0  0  0
 33 36  1  0  0  0  0
M  CHG  1  20   1
M  END
$$$$

  -OEChem-04042215563D

 36 35  0     1  0  0  0  0  0999 V2000
   -2.9381   -5.4122    0.9519 H   0  0  0  0  0  0  0  0  0  0  0  0
   -3.0122   -4.4180    0.5013 C   0  0  0  0  0  0  0  0  0  0  0  0
   -3.7914   -3.8552    1.0203 H   0  0  0  0  0  0  0  0  0  0  0  0
   -3.2897   -4.5295   -0.5494 H   0  0  0  0  0  0  0  0  0  0  0  0
   -1.6840   -3.6944    0.6145 C   0  0  0  0  0  0  0  0  0  0  0  0
   -0.7417   -4.2333    1.1654 O   0  0  0  0  0  0  0  0  0  0  0  0
   -1.5384   -2.4234    0.0884 N   0  0  0  0  0  0  0  0  0  0  0  0
   -2.3366   -2.0375   -0.4083 H   0  0  0  0  0  0  0  0  0  0  0  0
   -0.2732   -1.6647    0.1070 C   0  0  1  0  0  0  0  0  0  0  0  0
    0.4893   -2.2603   -0.4085 H   0  0  0  0  0  0  0  0  0  0  0  0
   -0.4829   -0.3504   -0.6730 C   0  0  0  0  0  0  0  0  0  0  0  0
   -0.7903   -0.6082   -1.6922 H   0  0  0  0  0  0  0  0  0  0  0  0
   -1.2973    0.2250   -0.2196 H   0  0  0  0  0  0  0  0  0  0  0  0
    0.7859    0.5263   -0.7202 C   0  0  0  0  0  0  0  0  0  0  0  0
    0.6983    1.3380    0.0107 H   0  0  0  0  0  0  0  0  0  0  0  0
    1.6616   -0.0724   -0.4486 H   0  0  0  0  0  0  0  0  0  0  0  0
    1.0388    1.0816   -2.1199 C   0  0  0  0  0  0  0  0  0  0  0  0
    1.0858    0.2520   -2.8341 H   0  0  0  0  0  0  0  0  0  0  0  0
    0.2135    1.7442   -2.4038 H   0  0  0  0  0  0  0  0  0  0  0  0
    2.3154    1.8192   -2.1141 N   0  3  0  0  0  0  0  0  0  0  0  0
    2.8488    1.8072   -1.2446 H   0  0  0  0  0  0  0  0  0  0  0  0
    2.8053    2.4354   -3.1502 C   0  0  0  0  0  0  0  0  0  0  0  0
    2.1535    2.4506   -4.3621 N   0  0  0  0  0  0  0  0  0  0  0  0
    1.3609    1.8238   -4.4822 H   0  0  0  0  0  0  0  0  0  0  0  0
    2.6744    2.7282   -5.1916 H   0  0  0  0  0  0  0  0  0  0  0  0
    4.0084    3.0903   -3.0407 N   0  0  0  0  0  0  0  0  0  0  0  0
    4.4088    3.2273   -2.1143 H   0  0  0  0  0  0  0  0  0  0  0  0
    4.2791    3.7379   -3.7785 H   0  0  0  0  0  0  0  0  0  0  0  0
    0.2605   -1.4050    1.5389 C   0  0  0  0  0  0  0  0  0  0  0  0
    1.4682   -1.3208    1.7265 O   0  0  0  0  0  0  0  0  0  0  0  0
   -0.6023   -0.9800    2.5333 N   0  0  0  0  0  0  0  0  0  0  0  0
   -1.5874   -1.1678    2.3734 H   0  0  0  0  0  0  0  0  0  0  0  0
   -0.1603   -0.7505    3.9049 C   0  0  0  0  0  0  0  0  0  0  0  0
    0.6054    0.0316    3.9381 H   0  0  0  0  0  0  0  0  0  0  0  0
   -1.0025   -0.4324    4.5271 H   0  0  0  0  0  0  0  0  0  0  0  0
    0.2580   -1.6692    4.3302 H   0  0  0  0  0  0  0  0  0  0  0  0
  1  2  1  0  0  0  0
  2  3  1  0  0  0  0
  2  4  1  0  0  0  0
  2  5  1  0  0  0  0
  5  6  2  0  0  0  0
  5  7  1  0  0  0  0
  7  8  1  0  0  0  0
  7  9  1  0  0  0  0
  9 10  1  0  0  0  0
  9 11  1  0  0  0  0
  9 29  1  0  0  0  0
 11 12  1  0  0  0  0
 11 13  1  0  0  0  0
 11 14  1  0  0  0  0
 14 15  1  0  0  0  0
 14 16  1  0  0  0  0
 14 17  1  0  0  0  0
 17 18  1  0  0  0  0
 17 19  1  0  0  0  0
 17 20  1  0  0  0  0
 20 21  1  0  0  0  0
 20 22  2  0  0  0  0
 22 23  1  0  0  0  0
 22 26  1  0  0  0  0
 23 24  1  0  0  0  0
 23 25  1  0  0  0  0
 26 27  1  0  0  0  0
 26 28  1  0  0  0  0
 29 30  2  0  0  0  0
 29 31  1  0  0  0  0
 31 32  1  0  0  0  0
 31 33  1  0  0  0  0
 33 34  1  0  0  0  0
 33 35  1  0  0  0  0
 33 36  1  0  0  0  0
M  CHG  1  20   1
M  END
$$$$

  -OEChem-04042215563D

 36 35  0     1  0  0  0  0  0999 V2000
   -2.9027   -5.4389    0.9333 H   0  0  0  0  0  0  0  0  0  0  0  0
   -2.9928   -4.4446    0.4864 C   0  0  0  0  0  0  0  0  0  0  0  0
   -3.7896   -3.9007    0.9993 H   0  0  0  0  0  0  0  0  0  0  0  0
   -3.2554   -4.5580   -0.5681 H   0  0  0  0  0  0  0  0  0  0  0  0
   -1.6809   -3.6954    0.6182 C   0  0  0  0  0  0  0  0  0  0  0  0
   -0.7359   -4.2167    1.1814 O   0  0  0  0  0  0  0  0  0  0  0  0
   -1.5538   -2.4211    0.0960 N   0  0  0  0  0  0  0  0  0  0  0  0
   -2.3502   -2.0550   -0.4179 H   0  0  0  0  0  0  0  0  0  0  0  0
   -0.2970   -1.6495    0.1086 C   0  0  1  0  0  0  0  0  0  0  0  0
    0.4652   -2.2412   -0.4118 H   0  0  0  0  0  0  0  0  0  0  0  0
   -0.5134   -0.3376   -0.6722 C   0  0  0  0  0  0  0  0  0  0  0  0
   -0.8082   -0.5970   -1.6947 H   0  0  0  0  0  0  0  0  0  0  0  0
   -1.3308    0.2379   -0.2246 H   0  0  0  0  0  0  0  0  0  0  0  0
    0.7597    0.5278   -0.7072 C   0  0  0  0  0  0  0  0  0  0  0  0
    0.7954    1.1656    0.1835 H   0  0  0  0  0  0  0  0  0  0  0  0
    1.6409   -0.1242   -0.6872 H   0  0  0  0  0  0  0  0  0  0  0  0
    0.8309    1.3727   -1.9759 C   0  0  0  0  0  0  0  0  0  0  0  0
    0.7689    0.7165   -2.8512 H   0  0  0  0  0  0  0  0  0  0  0  0
   -0.0152    2.0685   -1.9970 H   0  0  0  0  0  0  0  0  0  0  0  0
    2.1069    2.1117   -1.9817 N   0  3  0  0  0  0  0  0  0  0  0  0
    2.7461    1.9296   -1.2076 H   0  0  0  0  0  0  0  0  0  0  0  0
    2.4620    2.9459   -2.9153 C   0  0  0  0  0  0  0  0  0  0  0  0
    1.6555    3.2085   -3.9993 N   0  0  0  0  0  0  0  0  0  0  0  0
    0.8455    2.6096   -4.1448 H   0  0  0  0  0  0  0  0  0  0  0  0
    2.0646    3.6662   -4.8115 H   0  0  0  0  0  0  0  0  0  0  0  0
    3.6760    3.5842   -2.8265 N   0  0  0  0  0  0  0  0  0  0  0  0
    4.1984    3.5242   -1.9543 H   0  0  0  0  0  0  0  0  0  0  0  0
    3.8549    4.3795   -3.4368 H   0  0  0  0  0  0  0  0  0  0  0  0
    0.2540   -1.3839    1.5317 C   0  0  0  0  0  0  0  0  0  0  0  0
    1.4622   -1.2573    1.6921 O   0  0  0  0  0  0  0  0  0  0  0  0
   -0.6011   -0.9685    2.5364 N   0  0  0  0  0  0  0  0  0  0  0  0
   -1.5827   -1.1877    2.3955 H   0  0  0  0  0  0  0  0  0  0  0  0
   -0.1417   -0.7261    3.9000 C   0  0  0  0  0  0  0  0  0  0  0  0
    0.6168    0.0636    3.9179 H   0  0  0  0  0  0  0  0  0  0  0  0
   -0.9783   -0.4127    4.5322 H   0  0  0  0  0  0  0  0  0  0  0  0
    0.2912   -1.6381    4.3254 H   0  0  0  0  0  0  0  0  0  0  0  0
  1  2  1  0  0  0  0
  2  3  1  0  0  0  0
  2  4  1  0  0  0  0
  2  5  1  0  0  0  0
  5  6  2  0  0  0  0
  5  7  1  0  0  0  0
  7  8  1  0  0  0  0
  7  9  1  0  0  0  0
  9 10  1  0  0  0  0
  9 11  1  0  0  0  0
  9 29  1  0  0  0  0
 11 12  1  0  0  0  0
 11 13  1  0  0  0  0
 11 14  1  0  0  0  0
 14 15  1  0  0  0  0
 14 16  1  0  0  0  0
 14 17  1  0  0  0  0
 17 18  1  0  0  0  0
 17 19  1  0  0  0  0
 17 20  1  0  0  0  0
 20 21  1  0  0  0  0
 20 22  2  0  0  0  0
 22 23  1  0  0  0  0
 22 26  1  0  0  0  0
 23 24  1  0  0  0  0
 23 25  1  0  0  0  0
 26 27  1  0  0  0  0
 26 28  1  0  0  0  0
 29 30  2  0  0  0  0
 29 31  1  0  0  0  0
 31 32  1  0  0  0  0
 31 33  1  0  0  0  0
 33 34  1  0  0  0  0
 33 35  1  0  0  0  0
 33 36  1  0  0  0  0
M  CHG  1  20   1
M  END
$$$$

  -OEChem-04042215563D

 36 35  0     1  0  0  0  0  0999 V2000
   -2.8802   -5.4580    0.9308 H   0  0  0  0  0  0  0  0  0  0  0  0
   -2.9731   -4.4730    0.4640 C   0  0  0  0  0  0  0  0  0  0  0  0
   -3.7937   -3.9341    0.9430 H   0  0  0  0  0  0  0  0  0  0  0  0
   -3.2018   -4.6082   -0.5957 H   0  0  0  0  0  0  0  0  0  0  0  0
   -1.6781   -3.6998    0.6212 C   0  0  0  0  0  0  0  0  0  0  0  0
   -0.7346   -4.2054    1.2011 O   0  0  0  0  0  0  0  0  0  0  0  0
   -1.5650   -2.4216    0.1041 N   0  0  0  0  0  0  0  0  0  0  0  0
   -2.3549   -2.0742   -0.4325 H   0  0  0  0  0  0  0  0  0  0  0  0
   -0.3126   -1.6427    0.1122 C   0  0  1  0  0  0  0  0  0  0  0  0
    0.4490   -2.2286   -0.4158 H   0  0  0  0  0  0  0  0  0  0  0  0
   -0.5399   -0.3294   -0.6653 C   0  0  0  0  0  0  0  0  0  0  0  0
   -0.8382   -0.5784   -1.6893 H   0  0  0  0  0  0  0  0  0  0  0  0
   -1.3551    0.2399   -0.2058 H   0  0  0  0  0  0  0  0  0  0  0  0
    0.7306    0.5365   -0.6997 C   0  0  0  0  0  0  0  0  0  0  0  0
    0.8975    0.9865    0.2858 H   0  0  0  0  0  0  0  0  0  0  0  0
    1.5922   -0.1021   -0.9279 H   0  0  0  0  0  0  0  0  0  0  0  0
    0.6379    1.6378   -1.7503 C   0  0  0  0  0  0  0  0  0  0  0  0
    0.4528    1.1902   -2.7330 H   0  0  0  0  0  0  0  0  0  0  0  0
   -0.1948    2.3064   -1.5048 H   0  0  0  0  0  0  0  0  0  0  0  0
    1.9123    2.3791   -1.7543 N   0  3  0  0  0  0  0  0  0  0  0  0
    2.6345    2.0510   -1.1125 H   0  0  0  0  0  0  0  0  0  0  0  0
    2.1656    3.3942   -2.5273 C   0  0  0  0  0  0  0  0  0  0  0  0
    1.2415    3.8679   -3.4298 N   0  0  0  0  0  0  0  0  0  0  0  0
    0.4095    3.3062   -3.5959 H   0  0  0  0  0  0  0  0  0  0  0  0
    1.5589    4.4866   -4.1733 H   0  0  0  0  0  0  0  0  0  0  0  0
    3.3906    4.0119   -2.4490 N   0  0  0  0  0  0  0  0  0  0  0  0
    4.0098    3.7765   -1.6752 H   0  0  0  0  0  0  0  0  0  0  0  0
    3.5104    4.9175   -2.8988 H   0  0  0  0  0  0  0  0  0  0  0  0
    0.2499   -1.3797    1.5311 C   0  0  0  0  0  0  0  0  0  0  0  0
    1.4588   -1.2408    1.6766 O   0  0  0  0  0  0  0  0  0  0  0  0
   -0.5971   -0.9732    2.5464 N   0  0  0  0  0  0  0  0  0  0  0  0
   -1.5772   -1.2095    2.4228 H   0  0  0  0  0  0  0  0  0  0  0  0
   -0.1208   -0.6964    3.8976 C   0  0  0  0  0  0  0  0  0  0  0  0
    0.6249    0.1057    3.8873 H   0  0  0  0  0  0  0  0  0  0  0  0
   -0.9519   -0.3831    4.5368 H   0  0  0  0  0  0  0  0  0  0  0  0
    0.3336   -1.5927    4.3334 H   0  0  0  0  0  0  0  0  0  0  0  0
  1  2  1  0  0  0  0
  2  3  1  0  0  0  0
  2  4  1  0  0  0  0
  2  5  1  0  0  0  0
  5  6  2  0  0  0  0
  5  7  1  0  0  0  0
  7  8  1  0  0  0  0
  7  9  1  0  0  0  0
  9 10  1  0  0  0  0
  9 11  1  0  0  0  0
  9 29  1  0  0  0  0
 11 12  1  0  0  0  0
 11 13  1  0  0  0  0
 11 14  1  0  0  0  0
 14 15  1  0  0  0  0
 14 16  1  0  0  0  0
 14 17  1  0  0  0  0
 17 18  1  0  0  0  0
 17 19  1  0  0  0  0
 17 20  1  0  0  0  0
 20 21  1  0  0  0  0
 20 22  2  0  0  0  0
 22 23  1  0  0  0  0
 22 26  1  0  0  0  0
 23 24  1  0  0  0  0
 23 25  1  0  0  0  0
 26 27  1  0  0  0  0
 26 28  1  0  0  0  0
 29 30  2  0  0  0  0
 29 31  1  0  0  0  0
 31 32  1  0  0  0  0
 31 33  1  0  0  0  0
 33 34  1  0  0  0  0
 33 35  1  0  0  0  0
 33 36  1  0  0  0  0
M  CHG  1  20   1
M  END
$$$$

  -OEChem-04042215563D

 36 35  0     1  0  0  0  0  0999 V2000
   -2.8697   -5.4691    0.8842 H   0  0  0  0  0  0  0  0  0  0  0  0
   -2.9697   -4.4724    0.4443 C   0  0  0  0  0  0  0  0  0  0  0  0
   -3.7788   -3.9441    0.9539 H   0  0  0  0  0  0  0  0  0  0  0  0
   -3.2211   -4.5812   -0.6132 H   0  0  0  0  0  0  0  0  0  0  0  0
   -1.6703   -3.7046    0.5947 C   0  0  0  0  0  0  0  0  0  0  0  0
   -0.7236   -4.2160    1.1640 O   0  0  0  0  0  0  0  0  0  0  0  0
   -1.5604   -2.4205    0.0923 N   0  0  0  0  0  0  0  0  0  0  0  0
   -2.3546   -2.0656   -0.4326 H   0  0  0  0  0  0  0  0  0  0  0  0
   -0.3132   -1.6332    0.1173 C   0  0  1  0  0  0  0  0  0  0  0  0
    0.4481   -2.2178   -0.4127 H   0  0  0  0  0  0  0  0  0  0  0  0
   -0.5385   -0.3151   -0.6510 C   0  0  0  0  0  0  0  0  0  0  0  0
   -1.0663   -0.5289   -1.5867 H   0  0  0  0  0  0  0  0  0  0  0  0
   -1.1690    0.3536   -0.0549 H   0  0  0  0  0  0  0  0  0  0  0  0
    0.7931    0.3782   -0.9837 C   0  0  0  0  0  0  0  0  0  0  0  0
    1.3337    0.6063   -0.0592 H   0  0  0  0  0  0  0  0  0  0  0  0
    1.4176   -0.2962   -1.5804 H   0  0  0  0  0  0  0  0  0  0  0  0
    0.5599    1.6805   -1.7443 C   0  0  0  0  0  0  0  0  0  0  0  0
    0.0574    1.4629   -2.6934 H   0  0  0  0  0  0  0  0  0  0  0  0
   -0.0837    2.3373   -1.1481 H   0  0  0  0  0  0  0  0  0  0  0  0
    1.8634    2.3262   -1.9872 N   0  3  0  0  0  0  0  0  0  0  0  0
    2.6792    1.8906   -1.5566 H   0  0  0  0  0  0  0  0  0  0  0  0
    2.0211    3.4104   -2.6896 C   0  0  0  0  0  0  0  0  0  0  0  0
    0.9556    4.0630   -3.2667 N   0  0  0  0  0  0  0  0  0  0  0  0
    0.0187    3.7825   -2.9851 H   0  0  0  0  0  0  0  0  0  0  0  0
    1.0904    5.0157   -3.5999 H   0  0  0  0  0  0  0  0  0  0  0  0
    3.2832    3.9264   -2.8628 N   0  0  0  0  0  0  0  0  0  0  0  0
    4.0853    3.3649   -2.5822 H   0  0  0  0  0  0  0  0  0  0  0  0
    3.4253    4.6395   -3.5759 H   0  0  0  0  0  0  0  0  0  0  0  0
    0.2471   -1.3752    1.5363 C   0  0  0  0  0  0  0  0  0  0  0  0
    1.4558   -1.2439    1.6857 O   0  0  0  0  0  0  0  0  0  0  0  0
   -0.6027   -0.9814    2.5542 N   0  0  0  0  0  0  0  0  0  0  0  0
   -1.5824   -1.2149    2.4239 H   0  0  0  0  0  0  0  0  0  0  0  0
   -0.1304   -0.7362    3.9127 C   0  0  0  0  0  0  0  0  0  0  0  0
    0.6221    0.0594    3.9222 H   0  0  0  0  0  0  0  0  0  0  0  0
   -0.9621   -0.4285    4.5540 H   0  0  0  0  0  0  0  0  0  0  0  0
    0.3143   -1.6450    4.3327 H   0  0  0  0  0  0  0  0  0  0  0  0
  1  2  1  0  0  0  0
  2  3  1  0  0  0  0
  2  4  1  0  0  0  0
  2  5  1  0  0  0  0
  5  6  2  0  0  0  0
  5  7  1  0  0  0  0
  7  8  1  0  0  0  0
  7  9  1  0  0  0  0
  9 10  1  0  0  0  0
  9 11  1  0  0  0  0
  9 29  1  0  0  0  0
 11 12  1  0  0  0  0
 11 13  1  0  0  0  0
 11 14  1  0  0  0  0
 14 15  1  0  0  0  0
 14 16  1  0  0  0  0
 14 17  1  0  0  0  0
 17 18  1  0  0  0  0
 17 19  1  0  0  0  0
 17 20  1  0  0  0  0
 20 21  1  0  0  0  0
 20 22  2  0  0  0  0
 22 23  1  0  0  0  0
 22 26  1  0  0  0  0
 23 24  1  0  0  0  0
 23 25  1  0  0  0  0
 26 27  1  0  0  0  0
 26 28  1  0  0  0  0
 29 30  2  0  0  0  0
 29 31  1  0  0  0  0
 31 32  1  0  0  0  0
 31 33  1  0  0  0  0
 33 34  1  0  0  0  0
 33 35  1  0  0  0  0
 33 36  1  0  0  0  0
M  CHG  1  20   1
M  END
$$$$

  -OEChem-04042215563D

 36 35  0     1  0  0  0  0  0999 V2000
   -2.8777   -5.4571    0.8696 H   0  0  0  0  0  0  0  0  0  0  0  0
   -2.9691   -4.4609    0.4267 C   0  0  0  0  0  0  0  0  0  0  0  0
   -3.7940   -3.9354    0.9136 H   0  0  0  0  0  0  0  0  0  0  0  0
   -3.1907   -4.5703   -0.6376 H   0  0  0  0  0  0  0  0  0  0  0  0
   -1.6760   -3.6902    0.6129 C   0  0  0  0  0  0  0  0  0  0  0  0
   -0.7449   -4.2010    1.2078 O   0  0  0  0  0  0  0  0  0  0  0  0
   -1.5505   -2.4098    0.1040 N   0  0  0  0  0  0  0  0  0  0  0  0
   -2.3268   -2.0641   -0.4529 H   0  0  0  0  0  0  0  0  0  0  0  0
   -0.2944   -1.6358    0.1290 C   0  0  1  0  0  0  0  0  0  0  0  0
    0.4659   -2.2229   -0.3994 H   0  0  0  0  0  0  0  0  0  0  0  0
   -0.5149   -0.3151   -0.6385 C   0  0  0  0  0  0  0  0  0  0  0  0
   -1.0586   -0.5144   -1.5681 H   0  0  0  0  0  0  0  0  0  0  0  0
   -1.1341    0.3492   -0.0258 H   0  0  0  0  0  0  0  0  0  0  0  0
    0.8131    0.3820   -0.9851 C   0  0  0  0  0  0  0  0  0  0  0  0
    1.4776    0.3865   -0.1164 H   0  0  0  0  0  0  0  0  0  0  0  0
    1.3162   -0.1722   -1.7853 H   0  0  0  0  0  0  0  0  0  0  0  0
    0.5807    1.8312   -1.4044 C   0  0  0  0  0  0  0  0  0  0  0  0
   -0.0305    1.8536   -2.3134 H   0  0  0  0  0  0  0  0  0  0  0  0
    0.0436    2.3559   -0.6061 H   0  0  0  0  0  0  0  0  0  0  0  0
    1.8879    2.4710   -1.6424 N   0  3  0  0  0  0  0  0  0  0  0  0
    2.7156    1.9269   -1.3985 H   0  0  0  0  0  0  0  0  0  0  0  0
    2.0370    3.6821   -2.0949 C   0  0  0  0  0  0  0  0  0  0  0  0
    0.9593    4.4838   -2.3941 N   0  0  0  0  0  0  0  0  0  0  0  0
    0.0398    4.1741   -2.0877 H   0  0  0  0  0  0  0  0  0  0  0  0
    1.1139    5.4836   -2.5080 H   0  0  0  0  0  0  0  0  0  0  0  0
    3.3034    4.1844   -2.2788 N   0  0  0  0  0  0  0  0  0  0  0  0
    4.0962    3.5475   -2.2219 H   0  0  0  0  0  0  0  0  0  0  0  0
    3.4152    5.0386   -2.8224 H   0  0  0  0  0  0  0  0  0  0  0  0
    0.2525   -1.3838    1.5563 C   0  0  0  0  0  0  0  0  0  0  0  0
    1.4604   -1.2791    1.7291 O   0  0  0  0  0  0  0  0  0  0  0  0
   -0.6067   -0.9799    2.5627 N   0  0  0  0  0  0  0  0  0  0  0  0
   -1.5868   -1.2021    2.4159 H   0  0  0  0  0  0  0  0  0  0  0  0
   -0.1532   -0.7539    3.9313 C   0  0  0  0  0  0  0  0  0  0  0  0
    0.6112    0.0296    3.9606 H   0  0  0  0  0  0  0  0  0  0  0  0
   -0.9907   -0.4391    4.5616 H   0  0  0  0  0  0  0  0  0  0  0  0
    0.2706   -1.6731    4.3505 H   0  0  0  0  0  0  0  0  0  0  0  0
  1  2  1  0  0  0  0
  2  3  1  0  0  0  0
  2  4  1  0  0  0  0
  2  5  1  0  0  0  0
  5  6  2  0  0  0  0
  5  7  1  0  0  0  0
  7  8  1  0  0  0  0
  7  9  1  0  0  0  0
  9 10  1  0  0  0  0
  9 11  1  0  0  0  0
  9 29  1  0  0  0  0
 11 12  1  0  0  0  0
 11 13  1  0  0  0  0
 11 14  1  0  0  0  0
 14 15  1  0  0  0  0
 14 16  1  0  0  0  0
 14 17  1  0  0  0  0
 17 18  1  0  0  0  0
 17 19  1  0  0  0  0
 17 20  1  0  0  0  0
 20 21  1  0  0  0  0
 20 22  2  0  0  0  0
 22 23  1  0  0  0  0
 22 26  1  0  0  0  0
 23 24  1  0  0  0  0
 23 25  1  0  0  0  0
 26 27  1  0  0  0  0
 26 28  1  0  0  0  0
 29 30  2  0  0  0  0
 29 31  1  0  0  0  0
 31 32  1  0  0  0  0
 31 33  1  0  0  0  0
 33 34  1  0  0  0  0
 33 35  1  0  0  0  0
 33 36  1  0  0  0  0
M  CHG  1  20   1
M  END
$$$$

  -OEChem-04042215563D

 36 35  0     1  0  0  0  0  0999 V2000
   -2.8763   -5.4548    0.8691 H   0  0  0  0  0  0  0  0  0  0  0  0
   -2.9615   -4.4614    0.4186 C   0  0  0  0  0  0  0  0  0  0  0  0
   -3.7991   -3.9363    0.8835 H   0  0  0  0  0  0  0  0  0  0  0  0
   -3.1583   -4.5782   -0.6497 H   0  0  0  0  0  0  0  0  0  0  0  0
   -1.6764   -3.6836    0.6280 C   0  0  0  0  0  0  0  0  0  0  0  0
   -0.7562   -4.1862    1.2463 O   0  0  0  0  0  0  0  0  0  0  0  0
   -1.5464   -2.4068    0.1110 N   0  0  0  0  0  0  0  0  0  0  0  0
   -2.3089   -2.0764   -0.4738 H   0  0  0  0  0  0  0  0  0  0  0  0
   -0.2869   -1.6379    0.1314 C   0  0  1  0  0  0  0  0  0  0  0  0
    0.4726   -2.2259   -0.3967 H   0  0  0  0  0  0  0  0  0  0  0  0
   -0.5080   -0.3138   -0.6304 C   0  0  0  0  0  0  0  0  0  0  0  0
   -1.0646   -0.5019   -1.5547 H   0  0  0  0  0  0  0  0  0  0  0  0
   -1.1204    0.3445   -0.0045 H   0  0  0  0  0  0  0  0  0  0  0  0
    0.8174    0.3877   -0.9888 C   0  0  0  0  0  0  0  0  0  0  0  0
    1.5866    0.1617   -0.2458 H   0  0  0  0  0  0  0  0  0  0  0  0
    1.1770    0.0087   -1.9518 H   0  0  0  0  0  0  0  0  0  0  0  0
    0.6458    1.9042   -1.0417 C   0  0  0  0  0  0  0  0  0  0  0  0
   -0.0492    2.1652   -1.8475 H   0  0  0  0  0  0  0  0  0  0  0  0
    0.2272    2.2516   -0.0905 H   0  0  0  0  0  0  0  0  0  0  0  0
    1.9633    2.5256   -1.2708 N   0  3  0  0  0  0  0  0  0  0  0  0
    2.7741    1.9078   -1.2391 H   0  0  0  0  0  0  0  0  0  0  0  0
    2.1464    3.8014   -1.4486 C   0  0  0  0  0  0  0  0  0  0  0  0
    1.0981    4.6928   -1.4427 N   0  0  0  0  0  0  0  0  0  0  0  0
    0.1947    4.3563   -1.1163 H   0  0  0  0  0  0  0  0  0  0  0  0
    1.3049    5.6843   -1.3382 H   0  0  0  0  0  0  0  0  0  0  0  0
    3.4194    4.2809   -1.6456 N   0  0  0  0  0  0  0  0  0  0  0  0
    4.1734    3.6169   -1.8132 H   0  0  0  0  0  0  0  0  0  0  0  0
    3.5346    5.2324   -1.9901 H   0  0  0  0  0  0  0  0  0  0  0  0
    0.2542   -1.3838    1.5616 C   0  0  0  0  0  0  0  0  0  0  0  0
    1.4609   -1.2797    1.7445 O   0  0  0  0  0  0  0  0  0  0  0  0
   -0.6103   -0.9730    2.5609 N   0  0  0  0  0  0  0  0  0  0  0  0
   -1.5886   -1.2013    2.4101 H   0  0  0  0  0  0  0  0  0  0  0  0
   -0.1639   -0.7509    3.9324 C   0  0  0  0  0  0  0  0  0  0  0  0
    0.6080    0.0252    3.9667 H   0  0  0  0  0  0  0  0  0  0  0  0
   -1.0026   -0.4280    4.5568 H   0  0  0  0  0  0  0  0  0  0  0  0
    0.2479   -1.6741    4.3544 H   0  0  0  0  0  0  0  0  0  0  0  0
  1  2  1  0  0  0  0
  2  3  1  0  0  0  0
  2  4  1  0  0  0  0
  2  5  1  0  0  0  0
  5  6  2  0  0  0  0
  5  7  1  0  0  0  0
  7  8  1  0  0  0  0
  7  9  1  0  0  0  0
  9 10  1  0  0  0  0
  9 11  1  0  0  0  0
  9 29  1  0  0  0  0
 11 12  1  0  0  0  0
 11 13  1  0  0  0  0
 11 14  1  0  0  0  0
 14 15  1  0  0  0  0
 14 16  1  0  0  0  0
 14 17  1  0  0  0  0
 17 18  1  0  0  0  0
 17 19  1  0  0  0  0
 17 20  1  0  0  0  0
 20 21  1  0  0  0  0
 20 22  2  0  0  0  0
 22 23  1  0  0  0  0
 22 26  1  0  0  0  0
 23 24  1  0  0  0  0
 23 25  1  0  0  0  0
 26 27  1  0  0  0  0
 26 28  1  0  0  0  0
 29 30  2  0  0  0  0
 29 31  1  0  0  0  0
 31 32  1  0  0  0  0
 31 33  1  0  0  0  0
 33 34  1  0  0  0  0
 33 35  1  0  0  0  0
 33 36  1  0  0  0  0
M  CHG  1  20   1
M  END
$$$$

  -OEChem-04042215563D

 36 35  0     1  0  0  0  0  0999 V2000
   -2.8513   -5.4433    0.9696 H   0  0  0  0  0  0  0  0  0  0  0  0
   -2.9319   -4.4807    0.4562 C   0  0  0  0  0  0  0  0  0  0  0  0
   -3.7824   -3.9332    0.8690 H   0  0  0  0  0  0  0  0  0  0  0  0
   -3.1042   -4.6645   -0.6070 H   0  0  0  0  0  0  0  0  0  0  0  0
   -1.6568   -3.6824    0.6459 C   0  0  0  0  0  0  0  0  0  0  0  0
   -0.7263   -4.1605    1.2686 O   0  0  0  0  0  0  0  0  0  0  0  0
   -1.5508   -2.4105    0.1129 N   0  0  0  0  0  0  0  0  0  0  0  0
   -2.3178   -2.1061   -0.4803 H   0  0  0  0  0  0  0  0  0  0  0  0
   -0.2999   -1.6286    0.1031 C   0  0  1  0  0  0  0  0  0  0  0  0
    0.4544   -2.2120   -0.4374 H   0  0  0  0  0  0  0  0  0  0  0  0
   -0.5465   -0.3057   -0.6506 C   0  0  0  0  0  0  0  0  0  0  0  0
   -1.1150   -0.5028   -1.5657 H   0  0  0  0  0  0  0  0  0  0  0  0
   -1.1605    0.3476   -0.0212 H   0  0  0  0  0  0  0  0  0  0  0  0
    0.7718    0.3995   -1.0344 C   0  0  0  0  0  0  0  0  0  0  0  0
    1.6172   -0.0396   -0.4973 H   0  0  0  0  0  0  0  0  0  0  0  0
    0.9632    0.2472   -2.1020 H   0  0  0  0  0  0  0  0  0  0  0  0
    0.7144    1.8943   -0.7267 C   0  0  0  0  0  0  0  0  0  0  0  0
    0.0037    2.3803   -1.4043 H   0  0  0  0  0  0  0  0  0  0  0  0
    0.3700    2.0334    0.3044 H   0  0  0  0  0  0  0  0  0  0  0  0
    2.0642    2.4673   -0.8826 N   0  3  0  0  0  0  0  0  0  0  0  0
    2.8290    1.8074   -1.0233 H   0  0  0  0  0  0  0  0  0  0  0  0
    2.3383    3.7328   -0.7547 C   0  0  0  0  0  0  0  0  0  0  0  0
    1.3612    4.6644   -0.4888 N   0  0  0  0  0  0  0  0  0  0  0  0
    0.4462    4.3190   -0.2078 H   0  0  0  0  0  0  0  0  0  0  0  0
    1.6462    5.5835   -0.1570 H   0  0  0  0  0  0  0  0  0  0  0  0
    3.6390    4.1583   -0.8830 N   0  0  0  0  0  0  0  0  0  0  0  0
    4.3395    3.5035   -1.2261 H   0  0  0  0  0  0  0  0  0  0  0  0
    3.8204    5.1546   -0.9892 H   0  0  0  0  0  0  0  0  0  0  0  0
    0.2649   -1.3527    1.5207 C   0  0  0  0  0  0  0  0  0  0  0  0
    1.4711   -1.2025    1.6760 O   0  0  0  0  0  0  0  0  0  0  0  0
   -0.5886   -0.9404    2.5288 N   0  0  0  0  0  0  0  0  0  0  0  0
   -1.5636   -1.1960    2.4002 H   0  0  0  0  0  0  0  0  0  0  0  0
   -0.1216   -0.6975    3.8898 C   0  0  0  0  0  0  0  0  0  0  0  0
    0.6265    0.1018    3.9043 H   0  0  0  0  0  0  0  0  0  0  0  0
   -0.9568   -0.3974    4.5299 H   0  0  0  0  0  0  0  0  0  0  0  0
    0.3270   -1.6053    4.3079 H   0  0  0  0  0  0  0  0  0  0  0  0
  1  2  1  0  0  0  0
  2  3  1  0  0  0  0
  2  4  1  0  0  0  0
  2  5  1  0  0  0  0
  5  6  2  0  0  0  0
  5  7  1  0  0  0  0
  7  8  1  0  0  0  0
  7  9  1  0  0  0  0
  9 10  1  0  0  0  0
  9 11  1  0  0  0  0
  9 29  1  0  0  0  0
 11 12  1  0  0  0  0
 11 13  1  0  0  0  0
 11 14  1  0  0  0  0
 14 15  1  0  0  0  0
 14 16  1  0  0  0  0
 14 17  1  0  0  0  0
 17 18  1  0  0  0  0
 17 19  1  0  0  0  0
 17 20  1  0  0  0  0
 20 21  1  0  0  0  0
 20 22  2  0  0  0  0
 22 23  1  0  0  0  0
 22 26  1  0  0  0  0
 23 24  1  0  0  0  0
 23 25  1  0  0  0  0
 26 27  1  0  0  0  0
 26 28  1  0  0  0  0
 29 30  2  0  0  0  0
 29 31  1  0  0  0  0
 31 32  1  0  0  0  0
 31 33  1  0  0  0  0
 33 34  1  0  0  0  0
 33 35  1  0  0  0  0
 33 36  1  0  0  0  0
M  CHG  1  20   1
M  END
$$$$

  -OEChem-04042215563D

 36 35  0     1  0  0  0  0  0999 V2000
   -2.7549   -5.4513    1.0626 H   0  0  0  0  0  0  0  0  0  0  0  0
   -2.8622   -4.5100    0.5157 C   0  0  0  0  0  0  0  0  0  0  0  0
   -3.7266   -3.9719    0.9117 H   0  0  0  0  0  0  0  0  0  0  0  0
   -3.0323   -4.7366   -0.5395 H   0  0  0  0  0  0  0  0  0  0  0  0
   -1.6075   -3.6717    0.6709 C   0  0  0  0  0  0  0  0  0  0  0  0
   -0.6563   -4.1078    1.2937 O   0  0  0  0  0  0  0  0  0  0  0  0
   -1.5437   -2.4075    0.1129 N   0  0  0  0  0  0  0  0  0  0  0  0
   -2.3276   -2.1343   -0.4739 H   0  0  0  0  0  0  0  0  0  0  0  0
   -0.3140   -1.5933    0.0679 C   0  0  1  0  0  0  0  0  0  0  0  0
    0.4424   -2.1731   -0.4746 H   0  0  0  0  0  0  0  0  0  0  0  0
   -0.5912   -0.2859   -0.6989 C   0  0  0  0  0  0  0  0  0  0  0  0
   -1.1478   -0.5211   -1.6124 H   0  0  0  0  0  0  0  0  0  0  0  0
   -1.2245    0.3716   -0.0931 H   0  0  0  0  0  0  0  0  0  0  0  0
    0.7201    0.4225   -1.0998 C   0  0  0  0  0  0  0  0  0  0  0  0
    1.5900   -0.1711   -0.7990 H   0  0  0  0  0  0  0  0  0  0  0  0
    0.7616    0.5139   -2.1908 H   0  0  0  0  0  0  0  0  0  0  0  0
    0.7987    1.8160   -0.4793 C   0  0  0  0  0  0  0  0  0  0  0  0
    0.0940    2.4851   -0.9851 H   0  0  0  0  0  0  0  0  0  0  0  0
    0.5208    1.7465    0.5787 H   0  0  0  0  0  0  0  0  0  0  0  0
    2.1795    2.3195   -0.5927 N   0  3  0  0  0  0  0  0  0  0  0  0
    2.8691    1.6823   -0.9898 H   0  0  0  0  0  0  0  0  0  0  0  0
    2.5822    3.4480   -0.0861 C   0  0  0  0  0  0  0  0  0  0  0  0
    1.7154    4.3102    0.5456 N   0  0  0  0  0  0  0  0  0  0  0  0
    0.7875    3.9593    0.7726 H   0  0  0  0  0  0  0  0  0  0  0  0
    2.1061    5.0407    1.1369 H   0  0  0  0  0  0  0  0  0  0  0  0
    3.9091    3.7949   -0.1768 N   0  0  0  0  0  0  0  0  0  0  0  0
    4.5260    3.2369   -0.7641 H   0  0  0  0  0  0  0  0  0  0  0  0
    4.1829    4.7518    0.0371 H   0  0  0  0  0  0  0  0  0  0  0  0
    0.2755   -1.2702    1.4647 C   0  0  0  0  0  0  0  0  0  0  0  0
    1.4747   -1.0401    1.5768 O   0  0  0  0  0  0  0  0  0  0  0  0
   -0.5682   -0.8585    2.4811 N   0  0  0  0  0  0  0  0  0  0  0  0
   -1.5326   -1.1644    2.3855 H   0  0  0  0  0  0  0  0  0  0  0  0
   -0.0789   -0.5722    3.8257 C   0  0  0  0  0  0  0  0  0  0  0  0
    0.6315    0.2609    3.8100 H   0  0  0  0  0  0  0  0  0  0  0  0
   -0.9114   -0.3013    4.4826 H   0  0  0  0  0  0  0  0  0  0  0  0
    0.4213   -1.4523    4.2449 H   0  0  0  0  0  0  0  0  0  0  0  0
  1  2  1  0  0  0  0
  2  3  1  0  0  0  0
  2  4  1  0  0  0  0
  2  5  1  0  0  0  0
  5  6  2  0  0  0  0
  5  7  1  0  0  0  0
  7  8  1  0  0  0  0
  7  9  1  0  0  0  0
  9 10  1  0  0  0  0
  9 11  1  0  0  0  0
  9 29  1  0  0  0  0
 11 12  1  0  0  0  0
 11 13  1  0  0  0  0
 11 14  1  0  0  0  0
 14 15  1  0  0  0  0
 14 16  1  0  0  0  0
 14 17  1  0  0  0  0
 17 18  1  0  0  0  0
 17 19  1  0  0  0  0
 17 20  1  0  0  0  0
 20 21  1  0  0  0  0
 20 22  2  0  0  0  0
 22 23  1  0  0  0  0
 22 26  1  0  0  0  0
 23 24  1  0  0  0  0
 23 25  1  0  0  0  0
 26 27  1  0  0  0  0
 26 28  1  0  0  0  0
 29 30  2  0  0  0  0
 29 31  1  0  0  0  0
 31 32  1  0  0  0  0
 31 33  1  0  0  0  0
 33 34  1  0  0  0  0
 33 35  1  0  0  0  0
 33 36  1  0  0  0  0
M  CHG  1  20   1
M  END
$$$$

  -OEChem-04042215563D

 36 35  0     1  0  0  0  0  0999 V2000
   -2.3089   -5.4498    1.2831 H   0  0  0  0  0  0  0  0  0  0  0  0
   -2.4778   -4.5669    0.6598 C   0  0  0  0  0  0  0  0  0  0  0  0
   -3.4313   -4.1156    0.9441 H   0  0  0  0  0  0  0  0  0  0  0  0
   -2.5272   -4.8808   -0.3857 H   0  0  0  0  0  0  0  0  0  0  0  0
   -1.3505   -3.5703    0.8515 C   0  0  0  0  0  0  0  0  0  0  0  0
   -0.4370   -3.8183    1.6183 O   0  0  0  0  0  0  0  0  0  0  0  0
   -1.3587   -2.3700    0.1644 N   0  0  0  0  0  0  0  0  0  0  0  0
   -2.0925   -2.2498   -0.5294 H   0  0  0  0  0  0  0  0  0  0  0  0
   -0.2347   -1.4161    0.1755 C   0  0  1  0  0  0  0  0  0  0  0  0
    0.6451   -1.9514   -0.2005 H   0  0  0  0  0  0  0  0  0  0  0  0
   -0.5488   -0.2422   -0.7714 C   0  0  0  0  0  0  0  0  0  0  0  0
   -0.9309   -0.6524   -1.7125 H   0  0  0  0  0  0  0  0  0  0  0  0
   -1.3382    0.3898   -0.3497 H   0  0  0  0  0  0  0  0  0  0  0  0
    0.7122    0.5860   -1.0909 C   0  0  0  0  0  0  0  0  0  0  0  0
    1.6202    0.0174   -0.8610 H   0  0  0  0  0  0  0  0  0  0  0  0
    0.7324    0.8048   -2.1640 H   0  0  0  0  0  0  0  0  0  0  0  0
    0.6984    1.9096   -0.3230 C   0  0  0  0  0  0  0  0  0  0  0  0
   -0.1279    2.5317   -0.6845 H   0  0  0  0  0  0  0  0  0  0  0  0
    0.5210    1.7179    0.7410 H   0  0  0  0  0  0  0  0  0  0  0  0
    1.9799    2.6181   -0.5036 N   0  3  0  0  0  0  0  0  0  0  0  0
    2.0746    3.1921   -1.3399 H   0  0  0  0  0  0  0  0  0  0  0  0
    2.9685    2.5678    0.3454 C   0  0  0  0  0  0  0  0  0  0  0  0
    2.9339    1.8001    1.4861 N   0  0  0  0  0  0  0  0  0  0  0  0
    2.2134    1.0720    1.5484 H   0  0  0  0  0  0  0  0  0  0  0  0
    3.8095    1.6105    1.9663 H   0  0  0  0  0  0  0  0  0  0  0  0
    4.0996    3.3096    0.1016 N   0  0  0  0  0  0  0  0  0  0  0  0
    4.0671    4.0271   -0.6194 H   0  0  0  0  0  0  0  0  0  0  0  0
    4.7694    3.4261    0.8597 H   0  0  0  0  0  0  0  0  0  0  0  0
    0.1289   -0.8814    1.5819 C   0  0  0  0  0  0  0  0  0  0  0  0
    1.2703   -0.4809    1.7969 O   0  0  0  0  0  0  0  0  0  0  0  0
   -0.8760   -0.4770    2.4408 N   0  0  0  0  0  0  0  0  0  0  0  0
   -1.7882   -0.8916    2.2661 H   0  0  0  0  0  0  0  0  0  0  0  0
   -0.6100    0.0396    3.7793 C   0  0  0  0  0  0  0  0  0  0  0  0
   -0.0322    0.9680    3.7285 H   0  0  0  0  0  0  0  0  0  0  0  0
   -1.5509    0.2501    4.2973 H   0  0  0  0  0  0  0  0  0  0  0  0
   -0.0486   -0.6941    4.3679 H   0  0  0  0  0  0  0  0  0  0  0  0
  1  2  1  0  0  0  0
  2  3  1  0  0  0  0
  2  4  1  0  0  0  0
  2  5  1  0  0  0  0
  5  6  2  0  0  0  0
  5  7  1  0  0  0  0
  7  8  1  0  0  0  0
  7  9  1  0  0  0  0
  9 10  1  0  0  0  0
  9 11  1  0  0  0  0
  9 29  1  0  0  0  0
 11 12  1  0  0  0  0
 11 13  1  0  0  0  0
 11 14  1  0  0  0  0
 14 15  1  0  0  0  0
 14 16  1  0  0  0  0
 14 17  1  0  0  0  0
 17 18  1  0  0  0  0
 17 19  1  0  0  0  0
 17 20  1  0  0  0  0
 20 21  1  0  0  0  0
 20 22  2  0  0  0  0
 22 23  1  0  0  0  0
 22 26  1  0  0  0  0
 23 24  1  0  0  0  0
 23 25  1  0  0  0  0
 26 27  1  0  0  0  0
 26 28  1  0  0  0  0
 29 30  2  0  0  0  0
 29 31  1  0  0  0  0
 31 32  1  0  0  0  0
 31 33  1  0  0  0  0
 33 34  1  0  0  0  0
 33 35  1  0  0  0  0
 33 36  1  0  0  0  0
M  CHG  1  20   1
M  END
$$$$

  -OEChem-04042215563D

 36 35  0     1  0  0  0  0  0999 V2000
   -2.3097   -5.4961    1.1711 H   0  0  0  0  0  0  0  0  0  0  0  0
   -2.4672   -4.5890    0.5801 C   0  0  0  0  0  0  0  0  0  0  0  0
   -3.4116   -4.1322    0.8849 H   0  0  0  0  0  0  0  0  0  0  0  0
   -2.5267   -4.8647   -0.4755 H   0  0  0  0  0  0  0  0  0  0  0  0
   -1.3229   -3.6184    0.8016 C   0  0  0  0  0  0  0  0  0  0  0  0
   -0.4070   -3.9127    1.5492 O   0  0  0  0  0  0  0  0  0  0  0  0
   -1.3176   -2.3904    0.1647 N   0  0  0  0  0  0  0  0  0  0  0  0
   -2.0578   -2.2252   -0.5129 H   0  0  0  0  0  0  0  0  0  0  0  0
   -0.1910   -1.4416    0.2310 C   0  0  1  0  0  0  0  0  0  0  0  0
    0.6950   -1.9678   -0.1430 H   0  0  0  0  0  0  0  0  0  0  0  0
   -0.4896   -0.2564   -0.7124 C   0  0  0  0  0  0  0  0  0  0  0  0
   -0.8467   -0.6630   -1.6648 H   0  0  0  0  0  0  0  0  0  0  0  0
   -1.2945    0.3628   -0.3016 H   0  0  0  0  0  0  0  0  0  0  0  0
    0.7515    0.6081   -1.0109 C   0  0  0  0  0  0  0  0  0  0  0  0
    1.6473   -0.0227   -1.0197 H   0  0  0  0  0  0  0  0  0  0  0  0
    0.6483    1.0433   -2.0108 H   0  0  0  0  0  0  0  0  0  0  0  0
    0.9171    1.7497   -0.0007 C   0  0  0  0  0  0  0  0  0  0  0  0
    0.1093    2.4757   -0.1440 H   0  0  0  0  0  0  0  0  0  0  0  0
    0.8310    1.3744    1.0221 H   0  0  0  0  0  0  0  0  0  0  0  0
    2.2231    2.4098   -0.1913 N   0  3  0  0  0  0  0  0  0  0  0  0
    2.3089    3.0377   -0.9888 H   0  0  0  0  0  0  0  0  0  0  0  0
    3.2463    2.2526    0.6022 C   0  0  0  0  0  0  0  0  0  0  0  0
    3.2251    1.4132    1.6911 N   0  0  0  0  0  0  0  0  0  0  0  0
    2.4589    0.7335    1.7550 H   0  0  0  0  0  0  0  0  0  0  0  0
    4.1093    1.1439    2.1141 H   0  0  0  0  0  0  0  0  0  0  0  0
    4.4027    2.9516    0.3510 N   0  0  0  0  0  0  0  0  0  0  0  0
    4.3745    3.7176   -0.3186 H   0  0  0  0  0  0  0  0  0  0  0  0
    5.1126    2.9815    1.0806 H   0  0  0  0  0  0  0  0  0  0  0  0
    0.1480   -0.9713    1.6636 C   0  0  0  0  0  0  0  0  0  0  0  0
    1.3040   -0.6592    1.9360 O   0  0  0  0  0  0  0  0  0  0  0  0
   -0.8639   -0.5989    2.5283 N   0  0  0  0  0  0  0  0  0  0  0  0
   -1.7862   -0.9655    2.3064 H   0  0  0  0  0  0  0  0  0  0  0  0
   -0.6133   -0.1622    3.8979 C   0  0  0  0  0  0  0  0  0  0  0  0
   -0.0001    0.7449    3.9089 H   0  0  0  0  0  0  0  0  0  0  0  0
   -1.5591    0.0577    4.4031 H   0  0  0  0  0  0  0  0  0  0  0  0
   -0.0943   -0.9455    4.4613 H   0  0  0  0  0  0  0  0  0  0  0  0
  1  2  1  0  0  0  0
  2  3  1  0  0  0  0
  2  4  1  0  0  0  0
  2  5  1  0  0  0  0
  5  6  2  0  0  0  0
  5  7  1  0  0  0  0
  7  8  1  0  0  0  0
  7  9  1  0  0  0  0
  9 10  1  0  0  0  0
  9 11  1  0  0  0  0
  9 29  1  0  0  0  0
 11 12  1  0  0  0  0
 11 13  1  0  0  0  0
 11 14  1  0  0  0  0
 14 15  1  0  0  0  0
 14 16  1  0  0  0  0
 14 17  1  0  0  0  0
 17 18  1  0  0  0  0
 17 19  1  0  0  0  0
 17 20  1  0  0  0  0
 20 21  1  0  0  0  0
 20 22  2  0  0  0  0
 22 23  1  0  0  0  0
 22 26  1  0  0  0  0
 23 24  1  0  0  0  0
 23 25  1  0  0  0  0
 26 27  1  0  0  0  0
 26 28  1  0  0  0  0
 29 30  2  0  0  0  0
 29 31  1  0  0  0  0
 31 32  1  0  0  0  0
 31 33  1  0  0  0  0
 33 34  1  0  0  0  0
 33 35  1  0  0  0  0
 33 36  1  0  0  0  0
M  CHG  1  20   1
M  END
$$$$

  -OEChem-04042215563D

 36 35  0     1  0  0  0  0  0999 V2000
   -2.2332   -5.5356    1.0693 H   0  0  0  0  0  0  0  0  0  0  0  0
   -2.3620   -4.6227    0.4803 C   0  0  0  0  0  0  0  0  0  0  0  0
   -3.3247   -4.1740    0.7364 H   0  0  0  0  0  0  0  0  0  0  0  0
   -2.3601   -4.8867   -0.5801 H   0  0  0  0  0  0  0  0  0  0  0  0
   -1.2362   -3.6505    0.7763 C   0  0  0  0  0  0  0  0  0  0  0  0
   -0.3411   -3.9664    1.5399 O   0  0  0  0  0  0  0  0  0  0  0  0
   -1.2190   -2.4023    0.1796 N   0  0  0  0  0  0  0  0  0  0  0  0
   -1.9395   -2.2183   -0.5141 H   0  0  0  0  0  0  0  0  0  0  0  0
   -0.1137   -1.4371    0.3307 C   0  0  1  0  0  0  0  0  0  0  0  0
    0.8036   -1.9329   -0.0075 H   0  0  0  0  0  0  0  0  0  0  0  0
   -0.4013   -0.2535   -0.6246 C   0  0  0  0  0  0  0  0  0  0  0  0
   -0.7084   -0.6668   -1.5914 H   0  0  0  0  0  0  0  0  0  0  0  0
   -1.2437    0.3309   -0.2387 H   0  0  0  0  0  0  0  0  0  0  0  0
    0.7938    0.6865   -0.8911 C   0  0  0  0  0  0  0  0  0  0  0  0
    1.6705    0.0714   -1.1221 H   0  0  0  0  0  0  0  0  0  0  0  0
    0.5771    1.2906   -1.7787 H   0  0  0  0  0  0  0  0  0  0  0  0
    1.1223    1.6353    0.2702 C   0  0  0  0  0  0  0  0  0  0  0  0
    0.3554    2.4165    0.3153 H   0  0  0  0  0  0  0  0  0  0  0  0
    1.0963    1.1198    1.2282 H   0  0  0  0  0  0  0  0  0  0  0  0
    2.4498    2.2497    0.0779 N   0  3  0  0  0  0  0  0  0  0  0  0
    2.4893    3.0941   -0.4904 H   0  0  0  0  0  0  0  0  0  0  0  0
    3.5498    1.7885    0.6057 C   0  0  0  0  0  0  0  0  0  0  0  0
    3.5870    0.6404    1.3638 N   0  0  0  0  0  0  0  0  0  0  0  0
    2.7083    0.1885    1.6414 H   0  0  0  0  0  0  0  0  0  0  0  0
    4.4377    0.3736    1.8515 H   0  0  0  0  0  0  0  0  0  0  0  0
    4.7295    2.4592    0.3852 N   0  0  0  0  0  0  0  0  0  0  0  0
    4.7057    3.3918   -0.0213 H   0  0  0  0  0  0  0  0  0  0  0  0
    5.5626    2.1715    0.8947 H   0  0  0  0  0  0  0  0  0  0  0  0
    0.1282   -1.0206    1.7994 C   0  0  0  0  0  0  0  0  0  0  0  0
    1.2740   -0.8060    2.1861 O   0  0  0  0  0  0  0  0  0  0  0  0
   -0.9368   -0.6996    2.6193 N   0  0  0  0  0  0  0  0  0  0  0  0
   -1.8493   -1.0131    2.2986 H   0  0  0  0  0  0  0  0  0  0  0  0
   -0.7749   -0.4039    4.0388 C   0  0  0  0  0  0  0  0  0  0  0  0
   -0.1219    0.4633    4.1815 H   0  0  0  0  0  0  0  0  0  0  0  0
   -1.7457   -0.1800    4.4919 H   0  0  0  0  0  0  0  0  0  0  0  0
   -0.3391   -1.2631    4.5603 H   0  0  0  0  0  0  0  0  0  0  0  0
  1  2  1  0  0  0  0
  2  3  1  0  0  0  0
  2  4  1  0  0  0  0
  2  5  1  0  0  0  0
  5  6  2  0  0  0  0
  5  7  1  0  0  0  0
  7  8  1  0  0  0  0
  7  9  1  0  0  0  0
  9 10  1  0  0  0  0
  9 11  1  0  0  0  0
  9 29  1  0  0  0  0
 11 12  1  0  0  0  0
 11 13  1  0  0  0  0
 11 14  1  0  0  0  0
 14 15  1  0  0  0  0
 14 16  1  0  0  0  0
 14 17  1  0  0  0  0
 17 18  1  0  0  0  0
 17 19  1  0  0  0  0
 17 20  1  0  0  0  0
 20 21  1  0  0  0  0
 20 22  2  0  0  0  0
 22 23  1  0  0  0  0
 22 26  1  0  0  0  0
 23 24  1  0  0  0  0
 23 25  1  0  0  0  0
 26 27  1  0  0  0  0
 26 28  1  0  0  0  0
 29 30  2  0  0  0  0
 29 31  1  0  0  0  0
 31 32  1  0  0  0  0
 31 33  1  0  0  0  0
 33 34  1  0  0  0  0
 33 35  1  0  0  0  0
 33 36  1  0  0  0  0
M  CHG  1  20   1
M  END
$$$$

  -OEChem-04042215563D

 36 35  0     1  0  0  0  0  0999 V2000
   -2.3226   -5.5219    1.0215 H   0  0  0  0  0  0  0  0  0  0  0  0
   -2.4204   -4.5995    0.4416 C   0  0  0  0  0  0  0  0  0  0  0  0
   -3.3608   -4.1135    0.7124 H   0  0  0  0  0  0  0  0  0  0  0  0
   -2.4408   -4.8541   -0.6208 H   0  0  0  0  0  0  0  0  0  0  0  0
   -1.2523   -3.6765    0.7318 C   0  0  0  0  0  0  0  0  0  0  0  0
   -0.3417   -4.0501    1.4495 O   0  0  0  0  0  0  0  0  0  0  0  0
   -1.2104   -2.4110    0.1739 N   0  0  0  0  0  0  0  0  0  0  0  0
   -1.9555   -2.1729   -0.4759 H   0  0  0  0  0  0  0  0  0  0  0  0
   -0.0831   -1.4735    0.3408 C   0  0  1  0  0  0  0  0  0  0  0  0
    0.8246   -1.9704   -0.0202 H   0  0  0  0  0  0  0  0  0  0  0  0
   -0.3776   -0.2706   -0.5929 C   0  0  0  0  0  0  0  0  0  0  0  0
   -0.7253   -0.6630   -1.5549 H   0  0  0  0  0  0  0  0  0  0  0  0
   -1.2027    0.3070   -0.1624 H   0  0  0  0  0  0  0  0  0  0  0  0
    0.7879    0.6996   -0.9003 C   0  0  0  0  0  0  0  0  0  0  0  0
    1.5650    0.1120   -1.4017 H   0  0  0  0  0  0  0  0  0  0  0  0
    0.4414    1.4545   -1.6146 H   0  0  0  0  0  0  0  0  0  0  0  0
    1.4186    1.4200    0.2994 C   0  0  0  0  0  0  0  0  0  0  0  0
    0.8383    2.3249    0.5121 H   0  0  0  0  0  0  0  0  0  0  0  0
    1.3761    0.8106    1.1936 H   0  0  0  0  0  0  0  0  0  0  0  0
    2.8202    1.7796    0.0101 N   0  3  0  0  0  0  0  0  0  0  0  0
    2.9800    2.4393   -0.7496 H   0  0  0  0  0  0  0  0  0  0  0  0
    3.8436    1.3157    0.6735 C   0  0  0  0  0  0  0  0  0  0  0  0
    3.7209    0.4217    1.7125 N   0  0  0  0  0  0  0  0  0  0  0  0
    2.8080   -0.0175    1.8765 H   0  0  0  0  0  0  0  0  0  0  0  0
    4.5423   -0.0913    2.0213 H   0  0  0  0  0  0  0  0  0  0  0  0
    5.1086    1.7302    0.3304 N   0  0  0  0  0  0  0  0  0  0  0  0
    5.2091    2.5348   -0.2845 H   0  0  0  0  0  0  0  0  0  0  0  0
    5.8701    1.5259    0.9750 H   0  0  0  0  0  0  0  0  0  0  0  0
    0.1639   -1.1197    1.8264 C   0  0  0  0  0  0  0  0  0  0  0  0
    1.3144   -1.0163    2.2434 O   0  0  0  0  0  0  0  0  0  0  0  0
   -0.8932   -0.8090    2.6607 N   0  0  0  0  0  0  0  0  0  0  0  0
   -1.8178   -1.0494    2.3134 H   0  0  0  0  0  0  0  0  0  0  0  0
   -0.7311   -0.6076    4.0968 C   0  0  0  0  0  0  0  0  0  0  0  0
   -0.0571    0.2322    4.2955 H   0  0  0  0  0  0  0  0  0  0  0  0
   -1.6981   -0.3880    4.5602 H   0  0  0  0  0  0  0  0  0  0  0  0
   -0.3198   -1.5081    4.5663 H   0  0  0  0  0  0  0  0  0  0  0  0
  1  2  1  0  0  0  0
  2  3  1  0  0  0  0
  2  4  1  0  0  0  0
  2  5  1  0  0  0  0
  5  6  2  0  0  0  0
  5  7  1  0  0  0  0
  7  8  1  0  0  0  0
  7  9  1  0  0  0  0
  9 10  1  0  0  0  0
  9 11  1  0  0  0  0
  9 29  1  0  0  0  0
 11 12  1  0  0  0  0
 11 13  1  0  0  0  0
 11 14  1  0  0  0  0
 14 15  1  0  0  0  0
 14 16  1  0  0  0  0
 14 17  1  0  0  0  0
 17 18  1  0  0  0  0
 17 19  1  0  0  0  0
 17 20  1  0  0  0  0
 20 21  1  0  0  0  0
 20 22  2  0  0  0  0
 22 23  1  0  0  0  0
 22 26  1  0  0  0  0
 23 24  1  0  0  0  0
 23 25  1  0  0  0  0
 26 27  1  0  0  0  0
 26 28  1  0  0  0  0
 29 30  2  0  0  0  0
 29 31  1  0  0  0  0
 31 32  1  0  0  0  0
 31 33  1  0  0  0  0
 33 34  1  0  0  0  0
 33 35  1  0  0  0  0
 33 36  1  0  0  0  0
M  CHG  1  20   1
M  END
$$$$

  -OEChem-04042215563D

 36 35  0     1  0  0  0  0  0999 V2000
   -2.8950   -5.3628    1.0213 H   0  0  0  0  0  0  0  0  0  0  0  0
   -2.8941   -4.4159    0.4733 C   0  0  0  0  0  0  0  0  0  0  0  0
   -3.7398   -3.8138    0.8135 H   0  0  0  0  0  0  0  0  0  0  0  0
   -3.0098   -4.6281   -0.5921 H   0  0  0  0  0  0  0  0  0  0  0  0
   -1.5934   -3.6745    0.7170 C   0  0  0  0  0  0  0  0  0  0  0  0
   -0.7202   -4.1831    1.3968 O   0  0  0  0  0  0  0  0  0  0  0  0
   -1.3894   -2.4256    0.1559 N   0  0  0  0  0  0  0  0  0  0  0  0
   -2.1104   -2.0893   -0.4772 H   0  0  0  0  0  0  0  0  0  0  0  0
   -0.1246   -1.6699    0.2574 C   0  0  1  0  0  0  0  0  0  0  0  0
    0.6853   -2.2748   -0.1657 H   0  0  0  0  0  0  0  0  0  0  0  0
   -0.3159   -0.3910   -0.6119 C   0  0  0  0  0  0  0  0  0  0  0  0
   -0.8086   -0.6731   -1.5489 H   0  0  0  0  0  0  0  0  0  0  0  0
   -0.9979    0.2805   -0.0788 H   0  0  0  0  0  0  0  0  0  0  0  0
    0.9552    0.4105   -0.9899 C   0  0  0  0  0  0  0  0  0  0  0  0
    1.4917   -0.1295   -1.7776 H   0  0  0  0  0  0  0  0  0  0  0  0
    0.6592    1.3843   -1.3943 H   0  0  0  0  0  0  0  0  0  0  0  0
    1.8887    0.6030    0.1893 C   0  0  0  0  0  0  0  0  0  0  0  0
    1.3460    1.0896    1.0077 H   0  0  0  0  0  0  0  0  0  0  0  0
    2.1816   -0.3992    0.4991 H   0  0  0  0  0  0  0  0  0  0  0  0
    3.1343    1.3294   -0.0872 N   0  3  0  0  0  0  0  0  0  0  0  0
    3.1235    2.0681   -0.7886 H   0  0  0  0  0  0  0  0  0  0  0  0
    4.1987    1.1049    0.6323 C   0  0  0  0  0  0  0  0  0  0  0  0
    4.2042    0.1538    1.6346 N   0  0  0  0  0  0  0  0  0  0  0  0
    3.3221   -0.3118    1.8748 H   0  0  0  0  0  0  0  0  0  0  0  0
    4.9436    0.1659    2.3327 H   0  0  0  0  0  0  0  0  0  0  0  0
    5.3460    1.8250    0.4010 N   0  0  0  0  0  0  0  0  0  0  0  0
    5.4107    2.3765   -0.4519 H   0  0  0  0  0  0  0  0  0  0  0  0
    6.2126    1.4909    0.8187 H   0  0  0  0  0  0  0  0  0  0  0  0
    0.2240   -1.3847    1.7508 C   0  0  0  0  0  0  0  0  0  0  0  0
    1.3852   -1.4161    2.1575 O   0  0  0  0  0  0  0  0  0  0  0  0
   -0.7635   -0.9374    2.6095 N   0  0  0  0  0  0  0  0  0  0  0  0
   -1.7181   -1.0602    2.2830 H   0  0  0  0  0  0  0  0  0  0  0  0
   -0.5476   -0.7738    4.0434 C   0  0  0  0  0  0  0  0  0  0  0  0
    0.2452   -0.0432    4.2341 H   0  0  0  0  0  0  0  0  0  0  0  0
   -1.4636   -0.4193    4.5262 H   0  0  0  0  0  0  0  0  0  0  0  0
   -0.2633   -1.7289    4.4984 H   0  0  0  0  0  0  0  0  0  0  0  0
  1  2  1  0  0  0  0
  2  3  1  0  0  0  0
  2  4  1  0  0  0  0
  2  5  1  0  0  0  0
  5  6  2  0  0  0  0
  5  7  1  0  0  0  0
  7  8  1  0  0  0  0
  7  9  1  0  0  0  0
  9 10  1  0  0  0  0
  9 11  1  0  0  0  0
  9 29  1  0  0  0  0
 11 12  1  0  0  0  0
 11 13  1  0  0  0  0
 11 14  1  0  0  0  0
 14 15  1  0  0  0  0
 14 16  1  0  0  0  0
 14 17  1  0  0  0  0
 17 18  1  0  0  0  0
 17 19  1  0  0  0  0
 17 20  1  0  0  0  0
 20 21  1  0  0  0  0
 20 22  2  0  0  0  0
 22 23  1  0  0  0  0
 22 26  1  0  0  0  0
 23 24  1  0  0  0  0
 23 25  1  0  0  0  0
 26 27  1  0  0  0  0
 26 28  1  0  0  0  0
 29 30  2  0  0  0  0
 29 31  1  0  0  0  0
 31 32  1  0  0  0  0
 31 33  1  0  0  0  0
 33 34  1  0  0  0  0
 33 35  1  0  0  0  0
 33 36  1  0  0  0  0
M  CHG  1  20   1
M  END
$$$$

  -OEChem-04042215563D

 36 35  0     1  0  0  0  0  0999 V2000
   -3.0359   -5.3311    0.9473 H   0  0  0  0  0  0  0  0  0  0  0  0
   -3.0414   -4.3385    0.4875 C   0  0  0  0  0  0  0  0  0  0  0  0
   -3.8227   -3.7382    0.9593 H   0  0  0  0  0  0  0  0  0  0  0  0
   -3.2654   -4.4473   -0.5763 H   0  0  0  0  0  0  0  0  0  0  0  0
   -1.6908   -3.6728    0.6704 C   0  0  0  0  0  0  0  0  0  0  0  0
   -0.8057   -4.2446    1.2813 O   0  0  0  0  0  0  0  0  0  0  0  0
   -1.4562   -2.4175    0.1375 N   0  0  0  0  0  0  0  0  0  0  0  0
   -2.1987   -2.0159   -0.4294 H   0  0  0  0  0  0  0  0  0  0  0  0
   -0.1567   -1.7211    0.2070 C   0  0  1  0  0  0  0  0  0  0  0  0
    0.6006   -2.3567   -0.2655 H   0  0  0  0  0  0  0  0  0  0  0  0
   -0.3188   -0.4177   -0.6328 C   0  0  0  0  0  0  0  0  0  0  0  0
   -0.8663   -0.6532   -1.5522 H   0  0  0  0  0  0  0  0  0  0  0  0
   -0.9458    0.2695   -0.0541 H   0  0  0  0  0  0  0  0  0  0  0  0
    0.9677    0.3454   -1.0468 C   0  0  0  0  0  0  0  0  0  0  0  0
    1.3085   -0.0437   -2.0123 H   0  0  0  0  0  0  0  0  0  0  0  0
    0.7350    1.4076   -1.1780 H   0  0  0  0  0  0  0  0  0  0  0  0
    2.0894    0.1755   -0.0403 C   0  0  0  0  0  0  0  0  0  0  0  0
    1.7346    0.5465    0.9280 H   0  0  0  0  0  0  0  0  0  0  0  0
    2.2863   -0.8978    0.0485 H   0  0  0  0  0  0  0  0  0  0  0  0
    3.3642    0.8297   -0.3519 N   0  3  0  0  0  0  0  0  0  0  0  0
    3.4394    1.3826   -1.2040 H   0  0  0  0  0  0  0  0  0  0  0  0
    4.3932    0.6390    0.4251 C   0  0  0  0  0  0  0  0  0  0  0  0
    4.2951   -0.1400    1.5623 N   0  0  0  0  0  0  0  0  0  0  0  0
    3.4238   -0.6585    1.7223 H   0  0  0  0  0  0  0  0  0  0  0  0
    5.1439   -0.4937    1.9965 H   0  0  0  0  0  0  0  0  0  0  0  0
    5.6033    1.2132    0.1177 N   0  0  0  0  0  0  0  0  0  0  0  0
    5.6332    1.9334   -0.6008 H   0  0  0  0  0  0  0  0  0  0  0  0
    6.3272    1.2214    0.8339 H   0  0  0  0  0  0  0  0  0  0  0  0
    0.2801   -1.4902    1.6859 C   0  0  0  0  0  0  0  0  0  0  0  0
    1.4603   -1.5847    2.0249 O   0  0  0  0  0  0  0  0  0  0  0  0
   -0.6387   -1.0228    2.6073 N   0  0  0  0  0  0  0  0  0  0  0  0
   -1.6145   -1.0829    2.3298 H   0  0  0  0  0  0  0  0  0  0  0  0
   -0.3359   -0.8885    4.0283 C   0  0  0  0  0  0  0  0  0  0  0  0
    0.4817   -0.1769    4.1832 H   0  0  0  0  0  0  0  0  0  0  0  0
   -1.2146   -0.5246    4.5699 H   0  0  0  0  0  0  0  0  0  0  0  0
   -0.0455   -1.8565    4.4509 H   0  0  0  0  0  0  0  0  0  0  0  0
  1  2  1  0  0  0  0
  2  3  1  0  0  0  0
  2  4  1  0  0  0  0
  2  5  1  0  0  0  0
  5  6  2  0  0  0  0
  5  7  1  0  0  0  0
  7  8  1  0  0  0  0
  7  9  1  0  0  0  0
  9 10  1  0  0  0  0
  9 11  1  0  0  0  0
  9 29  1  0  0  0  0
 11 12  1  0  0  0  0
 11 13  1  0  0  0  0
 11 14  1  0  0  0  0
 14 15  1  0  0  0  0
 14 16  1  0  0  0  0
 14 17  1  0  0  0  0
 17 18  1  0  0  0  0
 17 19  1  0  0  0  0
 17 20  1  0  0  0  0
 20 21  1  0  0  0  0
 20 22  2  0  0  0  0
 22 23  1  0  0  0  0
 22 26  1  0  0  0  0
 23 24  1  0  0  0  0
 23 25  1  0  0  0  0
 26 27  1  0  0  0  0
 26 28  1  0  0  0  0
 29 30  2  0  0  0  0
 29 31  1  0  0  0  0
 31 32  1  0  0  0  0
 31 33  1  0  0  0  0
 33 34  1  0  0  0  0
 33 35  1  0  0  0  0
 33 36  1  0  0  0  0
M  CHG  1  20   1
M  END
$$$$

  -OEChem-04042215563D

 36 35  0     1  0  0  0  0  0999 V2000
   -3.0807   -5.3360    0.8809 H   0  0  0  0  0  0  0  0  0  0  0  0
   -3.0838   -4.3355    0.4383 C   0  0  0  0  0  0  0  0  0  0  0  0
   -3.8549   -3.7376    0.9299 H   0  0  0  0  0  0  0  0  0  0  0  0
   -3.3216   -4.4237   -0.6245 H   0  0  0  0  0  0  0  0  0  0  0  0
   -1.7256   -3.6843    0.6155 C   0  0  0  0  0  0  0  0  0  0  0  0
   -0.8325   -4.2810    1.1899 O   0  0  0  0  0  0  0  0  0  0  0  0
   -1.4905   -2.4165    0.1138 N   0  0  0  0  0  0  0  0  0  0  0  0
   -2.2423   -1.9867   -0.4188 H   0  0  0  0  0  0  0  0  0  0  0  0
   -0.1865   -1.7312    0.1911 C   0  0  1  0  0  0  0  0  0  0  0  0
    0.5524   -2.3725   -0.3021 H   0  0  0  0  0  0  0  0  0  0  0  0
   -0.3304   -0.4120   -0.6246 C   0  0  0  0  0  0  0  0  0  0  0  0
   -0.8779   -0.6292   -1.5485 H   0  0  0  0  0  0  0  0  0  0  0  0
   -0.9545    0.2716   -0.0383 H   0  0  0  0  0  0  0  0  0  0  0  0
    0.9639    0.3490   -1.0255 C   0  0  0  0  0  0  0  0  0  0  0  0
    1.1467    0.1813   -2.0924 H   0  0  0  0  0  0  0  0  0  0  0  0
    0.8150    1.4245   -0.8801 H   0  0  0  0  0  0  0  0  0  0  0  0
    2.1879   -0.1119   -0.2518 C   0  0  0  0  0  0  0  0  0  0  0  0
    2.0167    0.1411    0.7992 H   0  0  0  0  0  0  0  0  0  0  0  0
    2.2676   -1.2007   -0.3413 H   0  0  0  0  0  0  0  0  0  0  0  0
    3.4721    0.4782   -0.6441 N   0  3  0  0  0  0  0  0  0  0  0  0
    3.4927    1.1480   -1.4113 H   0  0  0  0  0  0  0  0  0  0  0  0
    4.5518    0.1781    0.0215 C   0  0  0  0  0  0  0  0  0  0  0  0
    4.5139   -0.7084    1.0806 N   0  0  0  0  0  0  0  0  0  0  0  0
    3.5993   -1.0357    1.4102 H   0  0  0  0  0  0  0  0  0  0  0  0
    5.2974   -0.7486    1.7275 H   0  0  0  0  0  0  0  0  0  0  0  0
    5.7537    0.7477   -0.3239 N   0  0  0  0  0  0  0  0  0  0  0  0
    5.8214    1.2435   -1.2100 H   0  0  0  0  0  0  0  0  0  0  0  0
    6.6048    0.3461    0.0652 H   0  0  0  0  0  0  0  0  0  0  0  0
    0.2831   -1.5327    1.6619 C   0  0  0  0  0  0  0  0  0  0  0  0
    1.4681   -1.6666    1.9685 O   0  0  0  0  0  0  0  0  0  0  0  0
   -0.6099   -1.0778    2.6142 N   0  0  0  0  0  0  0  0  0  0  0  0
   -1.5920   -1.1066    2.3546 H   0  0  0  0  0  0  0  0  0  0  0  0
   -0.2740   -0.9722    4.0299 C   0  0  0  0  0  0  0  0  0  0  0  0
    0.5518   -0.2689    4.1791 H   0  0  0  0  0  0  0  0  0  0  0  0
   -1.1375   -0.6122    4.5979 H   0  0  0  0  0  0  0  0  0  0  0  0
    0.0193   -1.9496    4.4280 H   0  0  0  0  0  0  0  0  0  0  0  0
  1  2  1  0  0  0  0
  2  3  1  0  0  0  0
  2  4  1  0  0  0  0
  2  5  1  0  0  0  0
  5  6  2  0  0  0  0
  5  7  1  0  0  0  0
  7  8  1  0  0  0  0
  7  9  1  0  0  0  0
  9 10  1  0  0  0  0
  9 11  1  0  0  0  0
  9 29  1  0  0  0  0
 11 12  1  0  0  0  0
 11 13  1  0  0  0  0
 11 14  1  0  0  0  0
 14 15  1  0  0  0  0
 14 16  1  0  0  0  0
 14 17  1  0  0  0  0
 17 18  1  0  0  0  0
 17 19  1  0  0  0  0
 17 20  1  0  0  0  0
 20 21  1  0  0  0  0
 20 22  2  0  0  0  0
 22 23  1  0  0  0  0
 22 26  1  0  0  0  0
 23 24  1  0  0  0  0
 23 25  1  0  0  0  0
 26 27  1  0  0  0  0
 26 28  1  0  0  0  0
 29 30  2  0  0  0  0
 29 31  1  0  0  0  0
 31 32  1  0  0  0  0
 31 33  1  0  0  0  0
 33 34  1  0  0  0  0
 33 35  1  0  0  0  0
 33 36  1  0  0  0  0
M  CHG  1  20   1
M  END
$$$$

  -OEChem-04042215563D

 36 35  0     1  0  0  0  0  0999 V2000
   -3.4420   -5.0185    1.2652 H   0  0  0  0  0  0  0  0  0  0  0  0
   -3.3654   -4.0489    0.7645 C   0  0  0  0  0  0  0  0  0  0  0  0
   -3.9910   -3.3289    1.2971 H   0  0  0  0  0  0  0  0  0  0  0  0
   -3.7322   -4.1544   -0.2593 H   0  0  0  0  0  0  0  0  0  0  0  0
   -1.9227   -3.5808    0.7545 C   0  0  0  0  0  0  0  0  0  0  0  0
   -1.0537   -4.2695    1.2587 O   0  0  0  0  0  0  0  0  0  0  0  0
   -1.5877   -2.3782    0.1569 N   0  0  0  0  0  0  0  0  0  0  0  0
   -2.3353   -1.8911   -0.3310 H   0  0  0  0  0  0  0  0  0  0  0  0
   -0.2032   -1.8894   -0.0010 C   0  0  1  0  0  0  0  0  0  0  0  0
    0.3646   -2.6126   -0.5964 H   0  0  0  0  0  0  0  0  0  0  0  0
   -0.2793   -0.5268   -0.7314 C   0  0  0  0  0  0  0  0  0  0  0  0
   -0.9978   -0.6343   -1.5515 H   0  0  0  0  0  0  0  0  0  0  0  0
   -0.6998    0.2152   -0.0437 H   0  0  0  0  0  0  0  0  0  0  0  0
    1.0149    0.0612   -1.3573 C   0  0  0  0  0  0  0  0  0  0  0  0
    0.8410    0.2541   -2.4217 H   0  0  0  0  0  0  0  0  0  0  0  0
    1.1761    1.0354   -0.8822 H   0  0  0  0  0  0  0  0  0  0  0  0
    2.3063   -0.7600   -1.2196 C   0  0  0  0  0  0  0  0  0  0  0  0
    2.2384   -1.4530   -0.3896 H   0  0  0  0  0  0  0  0  0  0  0  0
    2.4272   -1.3705   -2.1213 H   0  0  0  0  0  0  0  0  0  0  0  0
    3.4858    0.1100   -1.0511 N   0  3  0  0  0  0  0  0  0  0  0  0
    3.6288    0.8360   -1.7510 H   0  0  0  0  0  0  0  0  0  0  0  0
    4.3788   -0.0553   -0.1150 C   0  0  0  0  0  0  0  0  0  0  0  0
    4.2684   -1.0196    0.8603 N   0  0  0  0  0  0  0  0  0  0  0  0
    3.3502   -1.4580    0.9961 H   0  0  0  0  0  0  0  0  0  0  0  0
    4.8679   -0.9546    1.6781 H   0  0  0  0  0  0  0  0  0  0  0  0
    5.4874    0.7568   -0.0952 N   0  0  0  0  0  0  0  0  0  0  0  0
    5.6861    1.3300   -0.9122 H   0  0  0  0  0  0  0  0  0  0  0  0
    6.2703    0.4822    0.4951 H   0  0  0  0  0  0  0  0  0  0  0  0
    0.4744   -1.7325    1.3926 C   0  0  0  0  0  0  0  0  0  0  0  0
    1.6695   -1.9617    1.5538 O   0  0  0  0  0  0  0  0  0  0  0  0
   -0.2203   -1.1320    2.4277 N   0  0  0  0  0  0  0  0  0  0  0  0
   -1.2266   -1.0645    2.3006 H   0  0  0  0  0  0  0  0  0  0  0  0
    0.3048   -1.0352    3.7858 C   0  0  0  0  0  0  0  0  0  0  0  0
    1.2304   -0.4506    3.8016 H   0  0  0  0  0  0  0  0  0  0  0  0
   -0.4225   -0.5424    4.4387 H   0  0  0  0  0  0  0  0  0  0  0  0
    0.5106   -2.0329    4.1887 H   0  0  0  0  0  0  0  0  0  0  0  0
  1  2  1  0  0  0  0
  2  3  1  0  0  0  0
  2  4  1  0  0  0  0
  2  5  1  0  0  0  0
  5  6  2  0  0  0  0
  5  7  1  0  0  0  0
  7  8  1  0  0  0  0
  7  9  1  0  0  0  0
  9 10  1  0  0  0  0
  9 11  1  0  0  0  0
  9 29  1  0  0  0  0
 11 12  1  0  0  0  0
 11 13  1  0  0  0  0
 11 14  1  0  0  0  0
 14 15  1  0  0  0  0
 14 16  1  0  0  0  0
 14 17  1  0  0  0  0
 17 18  1  0  0  0  0
 17 19  1  0  0  0  0
 17 20  1  0  0  0  0
 20 21  1  0  0  0  0
 20 22  2  0  0  0  0
 22 23  1  0  0  0  0
 22 26  1  0  0  0  0
 23 24  1  0  0  0  0
 23 25  1  0  0  0  0
 26 27  1  0  0  0  0
 26 28  1  0  0  0  0
 29 30  2  0  0  0  0
 29 31  1  0  0  0  0
 31 32  1  0  0  0  0
 31 33  1  0  0  0  0
 33 34  1  0  0  0  0
 33 35  1  0  0  0  0
 33 36  1  0  0  0  0
M  CHG  1  20   1
M  END
$$$$

  -OEChem-04042215563D

 36 35  0     1  0  0  0  0  0999 V2000
   -3.4072   -5.0929    1.1577 H   0  0  0  0  0  0  0  0  0  0  0  0
   -3.3663   -4.1001    0.7003 C   0  0  0  0  0  0  0  0  0  0  0  0
   -3.9637   -3.4121    1.3031 H   0  0  0  0  0  0  0  0  0  0  0  0
   -3.7921   -4.1593   -0.3042 H   0  0  0  0  0  0  0  0  0  0  0  0
   -1.9298   -3.6188    0.6292 C   0  0  0  0  0  0  0  0  0  0  0  0
   -1.0250   -4.3285    1.0321 O   0  0  0  0  0  0  0  0  0  0  0  0
   -1.6377   -2.3722    0.1052 N   0  0  0  0  0  0  0  0  0  0  0  0
   -2.4142   -1.8444   -0.2854 H   0  0  0  0  0  0  0  0  0  0  0  0
   -0.2680   -1.8473   -0.0481 C   0  0  1  0  0  0  0  0  0  0  0  0
    0.2801   -2.5418   -0.6934 H   0  0  0  0  0  0  0  0  0  0  0  0
   -0.3492   -0.4531   -0.7093 C   0  0  0  0  0  0  0  0  0  0  0  0
   -1.0559   -0.5325   -1.5427 H   0  0  0  0  0  0  0  0  0  0  0  0
   -0.7764    0.2638    0.0005 H   0  0  0  0  0  0  0  0  0  0  0  0
    0.9605    0.1359   -1.2950 C   0  0  0  0  0  0  0  0  0  0  0  0
    0.7421    0.6411   -2.2420 H   0  0  0  0  0  0  0  0  0  0  0  0
    1.2967    0.9048   -0.5903 H   0  0  0  0  0  0  0  0  0  0  0  0
    2.1255   -0.8473   -1.4961 C   0  0  0  0  0  0  0  0  0  0  0  0
    2.1454   -1.5975   -0.7080 H   0  0  0  0  0  0  0  0  0  0  0  0
    1.9736   -1.3856   -2.4383 H   0  0  0  0  0  0  0  0  0  0  0  0
    3.4145   -0.1305   -1.5328 N   0  3  0  0  0  0  0  0  0  0  0  0
    3.5553    0.5284   -2.2965 H   0  0  0  0  0  0  0  0  0  0  0  0
    4.3820   -0.3339   -0.6820 C   0  0  0  0  0  0  0  0  0  0  0  0
    4.2735   -1.2049    0.3773 N   0  0  0  0  0  0  0  0  0  0  0  0
    3.3353   -1.5341    0.6323 H   0  0  0  0  0  0  0  0  0  0  0  0
    4.9581   -1.1491    1.1261 H   0  0  0  0  0  0  0  0  0  0  0  0
    5.5687    0.3411   -0.8412 N   0  0  0  0  0  0  0  0  0  0  0  0
    5.7376    0.8280   -1.7186 H   0  0  0  0  0  0  0  0  0  0  0  0
    6.3774    0.0157   -0.3147 H   0  0  0  0  0  0  0  0  0  0  0  0
    0.4756   -1.7517    1.3124 C   0  0  0  0  0  0  0  0  0  0  0  0
    1.6931   -1.9002    1.3695 O   0  0  0  0  0  0  0  0  0  0  0  0
   -0.1742   -1.2268    2.4147 N   0  0  0  0  0  0  0  0  0  0  0  0
   -1.1888   -1.1976    2.3604 H   0  0  0  0  0  0  0  0  0  0  0  0
    0.4475   -1.1182    3.7303 C   0  0  0  0  0  0  0  0  0  0  0  0
    1.3247   -0.4641    3.6901 H   0  0  0  0  0  0  0  0  0  0  0  0
   -0.2607   -0.6966    4.4504 H   0  0  0  0  0  0  0  0  0  0  0  0
    0.7591   -2.1050    4.0893 H   0  0  0  0  0  0  0  0  0  0  0  0
  1  2  1  0  0  0  0
  2  3  1  0  0  0  0
  2  4  1  0  0  0  0
  2  5  1  0  0  0  0
  5  6  2  0  0  0  0
  5  7  1  0  0  0  0
  7  8  1  0  0  0  0
  7  9  1  0  0  0  0
  9 10  1  0  0  0  0
  9 11  1  0  0  0  0
  9 29  1  0  0  0  0
 11 12  1  0  0  0  0
 11 13  1  0  0  0  0
 11 14  1  0  0  0  0
 14 15  1  0  0  0  0
 14 16  1  0  0  0  0
 14 17  1  0  0  0  0
 17 18  1  0  0  0  0
 17 19  1  0  0  0  0
 17 20  1  0  0  0  0
 20 21  1  0  0  0  0
 20 22  2  0  0  0  0
 22 23  1  0  0  0  0
 22 26  1  0  0  0  0
 23 24  1  0  0  0  0
 23 25  1  0  0  0  0
 26 27  1  0  0  0  0
 26 28  1  0  0  0  0
 29 30  2  0  0  0  0
 29 31  1  0  0  0  0
 31 32  1  0  0  0  0
 31 33  1  0  0  0  0
 33 34  1  0  0  0  0
 33 35  1  0  0  0  0
 33 36  1  0  0  0  0
M  CHG  1  20   1
M  END
$$$$

  -OEChem-04042215563D

 36 35  0     1  0  0  0  0  0999 V2000
   -3.3364   -5.1991    1.0221 H   0  0  0  0  0  0  0  0  0  0  0  0
   -3.3362   -4.1895    0.6006 C   0  0  0  0  0  0  0  0  0  0  0  0
   -3.9509   -3.5455    1.2338 H   0  0  0  0  0  0  0  0  0  0  0  0
   -3.7708   -4.2283   -0.4012 H   0  0  0  0  0  0  0  0  0  0  0  0
   -1.9188   -3.6545    0.5327 C   0  0  0  0  0  0  0  0  0  0  0  0
   -0.9822   -4.3505    0.8840 O   0  0  0  0  0  0  0  0  0  0  0  0
   -1.6770   -2.3737    0.0702 N   0  0  0  0  0  0  0  0  0  0  0  0
   -2.4773   -1.8461   -0.2696 H   0  0  0  0  0  0  0  0  0  0  0  0
   -0.3264   -1.8048   -0.0832 C   0  0  1  0  0  0  0  0  0  0  0  0
    0.2038   -2.4814   -0.7603 H   0  0  0  0  0  0  0  0  0  0  0  0
   -0.4292   -0.4047   -0.7248 C   0  0  0  0  0  0  0  0  0  0  0  0
   -1.1281   -0.4782   -1.5650 H   0  0  0  0  0  0  0  0  0  0  0  0
   -0.8613    0.3010   -0.0066 H   0  0  0  0  0  0  0  0  0  0  0  0
    0.8922    0.1792   -1.2817 C   0  0  0  0  0  0  0  0  0  0  0  0
    0.6645    0.8979   -2.0761 H   0  0  0  0  0  0  0  0  0  0  0  0
    1.3676    0.7357   -0.4660 H   0  0  0  0  0  0  0  0  0  0  0  0
    1.9049   -0.8569   -1.7935 C   0  0  0  0  0  0  0  0  0  0  0  0
    2.0030   -1.6814   -1.0835 H   0  0  0  0  0  0  0  0  0  0  0  0
    1.5397   -1.2825   -2.7347 H   0  0  0  0  0  0  0  0  0  0  0  0
    3.2242   -0.2311   -2.0022 N   0  3  0  0  0  0  0  0  0  0  0  0
    3.3267    0.3718   -2.8169 H   0  0  0  0  0  0  0  0  0  0  0  0
    4.2560   -0.4438   -1.2331 C   0  0  0  0  0  0  0  0  0  0  0  0
    4.1975   -1.2373   -0.1103 N   0  0  0  0  0  0  0  0  0  0  0  0
    3.2713   -1.5023    0.2444 H   0  0  0  0  0  0  0  0  0  0  0  0
    4.9495   -1.1774    0.5705 H   0  0  0  0  0  0  0  0  0  0  0  0
    5.4593    0.1417   -1.5467 N   0  0  0  0  0  0  0  0  0  0  0  0
    5.5742    0.5527   -2.4705 H   0  0  0  0  0  0  0  0  0  0  0  0
    6.2931   -0.1958   -1.0695 H   0  0  0  0  0  0  0  0  0  0  0  0
    0.4927   -1.7361    1.2283 C   0  0  0  0  0  0  0  0  0  0  0  0
    1.7181   -1.8085    1.1752 O   0  0  0  0  0  0  0  0  0  0  0  0
   -0.0988   -1.2777    2.3904 N   0  0  0  0  0  0  0  0  0  0  0  0
   -1.1149   -1.2975    2.4119 H   0  0  0  0  0  0  0  0  0  0  0  0
    0.6161   -1.1625    3.6569 C   0  0  0  0  0  0  0  0  0  0  0  0
    1.4635   -0.4756    3.5606 H   0  0  0  0  0  0  0  0  0  0  0  0
   -0.0509   -0.7764    4.4342 H   0  0  0  0  0  0  0  0  0  0  0  0
    0.9898   -2.1412    3.9766 H   0  0  0  0  0  0  0  0  0  0  0  0
  1  2  1  0  0  0  0
  2  3  1  0  0  0  0
  2  4  1  0  0  0  0
  2  5  1  0  0  0  0
  5  6  2  0  0  0  0
  5  7  1  0  0  0  0
  7  8  1  0  0  0  0
  7  9  1  0  0  0  0
  9 10  1  0  0  0  0
  9 11  1  0  0  0  0
  9 29  1  0  0  0  0
 11 12  1  0  0  0  0
 11 13  1  0  0  0  0
 11 14  1  0  0  0  0
 14 15  1  0  0  0  0
 14 16  1  0  0  0  0
 14 17  1  0  0  0  0
 17 18  1  0  0  0  0
 17 19  1  0  0  0  0
 17 20  1  0  0  0  0
 20 21  1  0  0  0  0
 20 22  2  0  0  0  0
 22 23  1  0  0  0  0
 22 26  1  0  0  0  0
 23 24  1  0  0  0  0
 23 25  1  0  0  0  0
 26 27  1  0  0  0  0
 26 28  1  0  0  0  0
 29 30  2  0  0  0  0
 29 31  1  0  0  0  0
 31 32  1  0  0  0  0
 31 33  1  0  0  0  0
 33 34  1  0  0  0  0
 33 35  1  0  0  0  0
 33 36  1  0  0  0  0
M  CHG  1  20   1
M  END
$$$$

  -OEChem-04042215563D

 36 35  0     1  0  0  0  0  0999 V2000
   -3.2125   -5.3064    0.8560 H   0  0  0  0  0  0  0  0  0  0  0  0
   -3.2674   -4.2695    0.5119 C   0  0  0  0  0  0  0  0  0  0  0  0
   -3.8767   -3.6982    1.2161 H   0  0  0  0  0  0  0  0  0  0  0  0
   -3.7435   -4.2522   -0.4714 H   0  0  0  0  0  0  0  0  0  0  0  0
   -1.8745   -3.6759    0.4257 C   0  0  0  0  0  0  0  0  0  0  0  0
   -0.9000   -4.3545    0.7001 O   0  0  0  0  0  0  0  0  0  0  0  0
   -1.6952   -2.3644    0.0252 N   0  0  0  0  0  0  0  0  0  0  0  0
   -2.5260   -1.8409   -0.2400 H   0  0  0  0  0  0  0  0  0  0  0  0
   -0.3712   -1.7398   -0.1330 C   0  0  1  0  0  0  0  0  0  0  0  0
    0.1539   -2.3873   -0.8403 H   0  0  0  0  0  0  0  0  0  0  0  0
   -0.5243   -0.3373   -0.7576 C   0  0  0  0  0  0  0  0  0  0  0  0
   -1.2281   -0.4098   -1.5939 H   0  0  0  0  0  0  0  0  0  0  0  0
   -0.9603    0.3471   -0.0217 H   0  0  0  0  0  0  0  0  0  0  0  0
    0.7906    0.2667   -1.2995 C   0  0  0  0  0  0  0  0  0  0  0  0
    0.5558    1.1466   -1.9080 H   0  0  0  0  0  0  0  0  0  0  0  0
    1.3825    0.6132   -0.4450 H   0  0  0  0  0  0  0  0  0  0  0  0
    1.6406   -0.7109   -2.1208 C   0  0  0  0  0  0  0  0  0  0  0  0
    1.7664   -1.6531   -1.5796 H   0  0  0  0  0  0  0  0  0  0  0  0
    1.1268   -0.9378   -3.0613 H   0  0  0  0  0  0  0  0  0  0  0  0
    2.9693   -0.1326   -2.3942 N   0  3  0  0  0  0  0  0  0  0  0  0
    3.0413    0.5137   -3.1786 H   0  0  0  0  0  0  0  0  0  0  0  0
    4.0454   -0.4514   -1.7294 C   0  0  0  0  0  0  0  0  0  0  0  0
    4.0283   -1.3062   -0.6509 N   0  0  0  0  0  0  0  0  0  0  0  0
    3.1238   -1.5019   -0.2067 H   0  0  0  0  0  0  0  0  0  0  0  0
    4.8467   -1.3465   -0.0497 H   0  0  0  0  0  0  0  0  0  0  0  0
    5.2542    0.0773   -2.1144 N   0  0  0  0  0  0  0  0  0  0  0  0
    5.3172    0.5409   -3.0181 H   0  0  0  0  0  0  0  0  0  0  0  0
    6.1015   -0.3401   -1.7339 H   0  0  0  0  0  0  0  0  0  0  0  0
    0.5110   -1.6900    1.1335 C   0  0  0  0  0  0  0  0  0  0  0  0
    1.7324   -1.7192    0.9963 O   0  0  0  0  0  0  0  0  0  0  0  0
   -0.0275   -1.3060    2.3467 N   0  0  0  0  0  0  0  0  0  0  0  0
   -1.0401   -1.3504    2.4250 H   0  0  0  0  0  0  0  0  0  0  0  0
    0.7583   -1.2021    3.5716 C   0  0  0  0  0  0  0  0  0  0  0  0
    1.5577   -0.4625    3.4558 H   0  0  0  0  0  0  0  0  0  0  0  0
    0.1209   -0.8897    4.4048 H   0  0  0  0  0  0  0  0  0  0  0  0
    1.2061   -2.1696    3.8233 H   0  0  0  0  0  0  0  0  0  0  0  0
  1  2  1  0  0  0  0
  2  3  1  0  0  0  0
  2  4  1  0  0  0  0
  2  5  1  0  0  0  0
  5  6  2  0  0  0  0
  5  7  1  0  0  0  0
  7  8  1  0  0  0  0
  7  9  1  0  0  0  0
  9 10  1  0  0  0  0
  9 11  1  0  0  0  0
  9 29  1  0  0  0  0
 11 12  1  0  0  0  0
 11 13  1  0  0  0  0
 11 14  1  0  0  0  0
 14 15  1  0  0  0  0
 14 16  1  0  0  0  0
 14 17  1  0  0  0  0
 17 18  1  0  0  0  0
 17 19  1  0  0  0  0
 17 20  1  0  0  0  0
 20 21  1  0  0  0  0
 20 22  2  0  0  0  0
 22 23  1  0  0  0  0
 22 26  1  0  0  0  0
 23 24  1  0  0  0  0
 23 25  1  0  0  0  0
 26 27  1  0  0  0  0
 26 28  1  0  0  0  0
 29 30  2  0  0  0  0
 29 31  1  0  0  0  0
 31 32  1  0  0  0  0
 31 33  1  0  0  0  0
 33 34  1  0  0  0  0
 33 35  1  0  0  0  0
 33 36  1  0  0  0  0
M  CHG  1  20   1
M  END
$$$$

  -OEChem-04042215563D

 36 35  0     1  0  0  0  0  0999 V2000
   -3.0576   -5.3769    0.7008 H   0  0  0  0  0  0  0  0  0  0  0  0
   -3.1633   -4.3259    0.4165 C   0  0  0  0  0  0  0  0  0  0  0  0
   -3.7571   -3.8148    1.1779 H   0  0  0  0  0  0  0  0  0  0  0  0
   -3.6860   -4.2729   -0.5415 H   0  0  0  0  0  0  0  0  0  0  0  0
   -1.7964   -3.6794    0.3006 C   0  0  0  0  0  0  0  0  0  0  0  0
   -0.7879   -4.3308    0.5113 O   0  0  0  0  0  0  0  0  0  0  0  0
   -1.6800   -2.3475   -0.0522 N   0  0  0  0  0  0  0  0  0  0  0  0
   -2.5394   -1.8415   -0.2523 H   0  0  0  0  0  0  0  0  0  0  0  0
   -0.3871   -1.6614   -0.2090 C   0  0  1  0  0  0  0  0  0  0  0  0
    0.1587   -2.2636   -0.9404 H   0  0  0  0  0  0  0  0  0  0  0  0
   -0.6125   -0.2580   -0.8092 C   0  0  0  0  0  0  0  0  0  0  0  0
   -1.3276   -0.3326   -1.6354 H   0  0  0  0  0  0  0  0  0  0  0  0
   -1.0562    0.3930   -0.0480 H   0  0  0  0  0  0  0  0  0  0  0  0
    0.6793    0.3939   -1.3425 C   0  0  0  0  0  0  0  0  0  0  0  0
    0.4363    1.3867   -1.7359 H   0  0  0  0  0  0  0  0  0  0  0  0
    1.3769    0.5446   -0.5123 H   0  0  0  0  0  0  0  0  0  0  0  0
    1.3504   -0.4250   -2.4499 C   0  0  0  0  0  0  0  0  0  0  0  0
    1.4152   -1.4784   -2.1624 H   0  0  0  0  0  0  0  0  0  0  0  0
    0.7428   -0.3718   -3.3602 H   0  0  0  0  0  0  0  0  0  0  0  0
    2.7087    0.0863   -2.7127 N   0  3  0  0  0  0  0  0  0  0  0  0
    2.8022    0.7995   -3.4344 H   0  0  0  0  0  0  0  0  0  0  0  0
    3.7820   -0.3736   -2.1303 C   0  0  0  0  0  0  0  0  0  0  0  0
    3.7440   -1.3241   -1.1353 N   0  0  0  0  0  0  0  0  0  0  0  0
    2.8596   -1.4569   -0.6332 H   0  0  0  0  0  0  0  0  0  0  0  0
    4.5897   -1.4888   -0.5960 H   0  0  0  0  0  0  0  0  0  0  0  0
    5.0118    0.0983   -2.5222 N   0  0  0  0  0  0  0  0  0  0  0  0
    5.0748    0.6441   -3.3788 H   0  0  0  0  0  0  0  0  0  0  0  0
    5.8396   -0.4117   -2.2198 H   0  0  0  0  0  0  0  0  0  0  0  0
    0.5180   -1.6192    1.0406 C   0  0  0  0  0  0  0  0  0  0  0  0
    1.7354   -1.6221    0.8715 O   0  0  0  0  0  0  0  0  0  0  0  0
   -0.0010   -1.3043    2.2814 N   0  0  0  0  0  0  0  0  0  0  0  0
   -1.0090   -1.3842    2.3853 H   0  0  0  0  0  0  0  0  0  0  0  0
    0.8169   -1.2207    3.4864 C   0  0  0  0  0  0  0  0  0  0  0  0
    1.5903   -0.4534    3.3747 H   0  0  0  0  0  0  0  0  0  0  0  0
    0.1961   -0.9579    4.3485 H   0  0  0  0  0  0  0  0  0  0  0  0
    1.3010   -2.1821    3.6887 H   0  0  0  0  0  0  0  0  0  0  0  0
  1  2  1  0  0  0  0
  2  3  1  0  0  0  0
  2  4  1  0  0  0  0
  2  5  1  0  0  0  0
  5  6  2  0  0  0  0
  5  7  1  0  0  0  0
  7  8  1  0  0  0  0
  7  9  1  0  0  0  0
  9 10  1  0  0  0  0
  9 11  1  0  0  0  0
  9 29  1  0  0  0  0
 11 12  1  0  0  0  0
 11 13  1  0  0  0  0
 11 14  1  0  0  0  0
 14 15  1  0  0  0  0
 14 16  1  0  0  0  0
 14 17  1  0  0  0  0
 17 18  1  0  0  0  0
 17 19  1  0  0  0  0
 17 20  1  0  0  0  0
 20 21  1  0  0  0  0
 20 22  2  0  0  0  0
 22 23  1  0  0  0  0
 22 26  1  0  0  0  0
 23 24  1  0  0  0  0
 23 25  1  0  0  0  0
 26 27  1  0  0  0  0
 26 28  1  0  0  0  0
 29 30  2  0  0  0  0
 29 31  1  0  0  0  0
 31 32  1  0  0  0  0
 31 33  1  0  0  0  0
 33 34  1  0  0  0  0
 33 35  1  0  0  0  0
 33 36  1  0  0  0  0
M  CHG  1  20   1
M  END
$$$$

  -OEChem-04042215563D

 36 35  0     1  0  0  0  0  0999 V2000
   -2.8320   -5.4418    0.5483 H   0  0  0  0  0  0  0  0  0  0  0  0
   -3.0001   -4.3869    0.3128 C   0  0  0  0  0  0  0  0  0  0  0  0
   -3.5811   -3.9365    1.1209 H   0  0  0  0  0  0  0  0  0  0  0  0
   -3.5697   -4.3223   -0.6172 H   0  0  0  0  0  0  0  0  0  0  0  0
   -1.6728   -3.6690    0.1611 C   0  0  0  0  0  0  0  0  0  0  0  0
   -0.6249   -4.2773    0.2923 O   0  0  0  0  0  0  0  0  0  0  0  0
   -1.6378   -2.3185   -0.1343 N   0  0  0  0  0  0  0  0  0  0  0  0
   -2.5298   -1.8445   -0.2536 H   0  0  0  0  0  0  0  0  0  0  0  0
   -0.3894   -1.5511   -0.2740 C   0  0  1  0  0  0  0  0  0  0  0  0
    0.1901   -2.0845   -1.0346 H   0  0  0  0  0  0  0  0  0  0  0  0
   -0.7102   -0.1527   -0.8401 C   0  0  0  0  0  0  0  0  0  0  0  0
   -1.4341   -0.2383   -1.6582 H   0  0  0  0  0  0  0  0  0  0  0  0
   -1.1750    0.4489   -0.0513 H   0  0  0  0  0  0  0  0  0  0  0  0
    0.5469    0.5740   -1.3528 C   0  0  0  0  0  0  0  0  0  0  0  0
    0.3006    1.6297   -1.5098 H   0  0  0  0  0  0  0  0  0  0  0  0
    1.3405    0.5526   -0.6017 H   0  0  0  0  0  0  0  0  0  0  0  0
    1.0232   -0.0066   -2.6848 C   0  0  0  0  0  0  0  0  0  0  0  0
    0.9672   -1.0999   -2.6596 H   0  0  0  0  0  0  0  0  0  0  0  0
    0.3614    0.3352   -3.4884 H   0  0  0  0  0  0  0  0  0  0  0  0
    2.4145    0.4019   -2.9587 N   0  3  0  0  0  0  0  0  0  0  0  0
    2.5473    1.1645   -3.6214 H   0  0  0  0  0  0  0  0  0  0  0  0
    3.4641   -0.2107   -2.4813 C   0  0  0  0  0  0  0  0  0  0  0  0
    3.3862   -1.2365   -1.5649 N   0  0  0  0  0  0  0  0  0  0  0  0
    2.5445   -1.2945   -0.9838 H   0  0  0  0  0  0  0  0  0  0  0  0
    4.2473   -1.5386   -1.1164 H   0  0  0  0  0  0  0  0  0  0  0  0
    4.7122    0.1732   -2.9098 N   0  0  0  0  0  0  0  0  0  0  0  0
    4.7854    0.7837   -3.7207 H   0  0  0  0  0  0  0  0  0  0  0  0
    5.5028   -0.4313   -2.6941 H   0  0  0  0  0  0  0  0  0  0  0  0
    0.5234   -1.5126    0.9699 C   0  0  0  0  0  0  0  0  0  0  0  0
    1.7386   -1.4865    0.7900 O   0  0  0  0  0  0  0  0  0  0  0  0
    0.0041   -1.2839    2.2291 N   0  0  0  0  0  0  0  0  0  0  0  0
   -1.0002   -1.3976    2.3352 H   0  0  0  0  0  0  0  0  0  0  0  0
    0.8295   -1.2433    3.4312 C   0  0  0  0  0  0  0  0  0  0  0  0
    1.5879   -0.4572    3.3522 H   0  0  0  0  0  0  0  0  0  0  0  0
    0.2102   -1.0344    4.3092 H   0  0  0  0  0  0  0  0  0  0  0  0
    1.3328   -2.2043    3.5829 H   0  0  0  0  0  0  0  0  0  0  0  0
  1  2  1  0  0  0  0
  2  3  1  0  0  0  0
  2  4  1  0  0  0  0
  2  5  1  0  0  0  0
  5  6  2  0  0  0  0
  5  7  1  0  0  0  0
  7  8  1  0  0  0  0
  7  9  1  0  0  0  0
  9 10  1  0  0  0  0
  9 11  1  0  0  0  0
  9 29  1  0  0  0  0
 11 12  1  0  0  0  0
 11 13  1  0  0  0  0
 11 14  1  0  0  0  0
 14 15  1  0  0  0  0
 14 16  1  0  0  0  0
 14 17  1  0  0  0  0
 17 18  1  0  0  0  0
 17 19  1  0  0  0  0
 17 20  1  0  0  0  0
 20 21  1  0  0  0  0
 20 22  2  0  0  0  0
 22 23  1  0  0  0  0
 22 26  1  0  0  0  0
 23 24  1  0  0  0  0
 23 25  1  0  0  0  0
 26 27  1  0  0  0  0
 26 28  1  0  0  0  0
 29 30  2  0  0  0  0
 29 31  1  0  0  0  0
 31 32  1  0  0  0  0
 31 33  1  0  0  0  0
 33 34  1  0  0  0  0
 33 35  1  0  0  0  0
 33 36  1  0  0  0  0
M  CHG  1  20   1
M  END
$$$$

  -OEChem-04042215563D

 36 35  0     1  0  0  0  0  0999 V2000
   -2.6701   -5.4427    0.3830 H   0  0  0  0  0  0  0  0  0  0  0  0
   -2.8898   -4.3823    0.2284 C   0  0  0  0  0  0  0  0  0  0  0  0
   -3.4378   -4.0080    1.0963 H   0  0  0  0  0  0  0  0  0  0  0  0
   -3.5150   -4.2805   -0.6619 H   0  0  0  0  0  0  0  0  0  0  0  0
   -1.6000   -3.6048    0.0507 C   0  0  0  0  0  0  0  0  0  0  0  0
   -0.5249   -4.1772    0.0970 O   0  0  0  0  0  0  0  0  0  0  0  0
   -1.6301   -2.2415   -0.1788 N   0  0  0  0  0  0  0  0  0  0  0  0
   -2.5428   -1.7932   -0.2039 H   0  0  0  0  0  0  0  0  0  0  0  0
   -0.4173   -1.4162   -0.2977 C   0  0  1  0  0  0  0  0  0  0  0  0
    0.1749   -1.8969   -1.0841 H   0  0  0  0  0  0  0  0  0  0  0  0
   -0.7980   -0.0248   -0.8410 C   0  0  0  0  0  0  0  0  0  0  0  0
   -1.5237   -0.1202   -1.6563 H   0  0  0  0  0  0  0  0  0  0  0  0
   -1.2824    0.5394   -0.0365 H   0  0  0  0  0  0  0  0  0  0  0  0
    0.4352    0.7580   -1.3298 C   0  0  0  0  0  0  0  0  0  0  0  0
    0.2209    1.8287   -1.2411 H   0  0  0  0  0  0  0  0  0  0  0  0
    1.3077    0.5796   -0.7008 H   0  0  0  0  0  0  0  0  0  0  0  0
    0.7140    0.4686   -2.8033 C   0  0  0  0  0  0  0  0  0  0  0  0
    0.5033   -0.5853   -3.0176 H   0  0  0  0  0  0  0  0  0  0  0  0
    0.0438    1.0700   -3.4278 H   0  0  0  0  0  0  0  0  0  0  0  0
    2.1247    0.7564   -3.1348 N   0  3  0  0  0  0  0  0  0  0  0  0
    2.2952    1.5521   -3.7484 H   0  0  0  0  0  0  0  0  0  0  0  0
    3.1359    0.0036   -2.7891 C   0  0  0  0  0  0  0  0  0  0  0  0
    3.0220   -1.0826   -1.9466 N   0  0  0  0  0  0  0  0  0  0  0  0
    2.2320   -1.0977   -1.2977 H   0  0  0  0  0  0  0  0  0  0  0  0
    3.8803   -1.5008   -1.5956 H   0  0  0  0  0  0  0  0  0  0  0  0
    4.3830    0.2985   -3.2861 N   0  0  0  0  0  0  0  0  0  0  0  0
    4.4613    0.9616   -4.0543 H   0  0  0  0  0  0  0  0  0  0  0  0
    5.1237   -0.3910   -3.1723 H   0  0  0  0  0  0  0  0  0  0  0  0
    0.5150   -1.3959    0.9324 C   0  0  0  0  0  0  0  0  0  0  0  0
    1.7262   -1.3551    0.7293 O   0  0  0  0  0  0  0  0  0  0  0  0
    0.0160   -1.2487    2.2118 N   0  0  0  0  0  0  0  0  0  0  0  0
   -0.9852   -1.3743    2.3317 H   0  0  0  0  0  0  0  0  0  0  0  0
    0.8659   -1.2582    3.3976 C   0  0  0  0  0  0  0  0  0  0  0  0
    1.5956   -0.4427    3.3553 H   0  0  0  0  0  0  0  0  0  0  0  0
    0.2598   -1.1297    4.2997 H   0  0  0  0  0  0  0  0  0  0  0  0
    1.4045   -2.2089    3.4753 H   0  0  0  0  0  0  0  0  0  0  0  0
  1  2  1  0  0  0  0
  2  3  1  0  0  0  0
  2  4  1  0  0  0  0
  2  5  1  0  0  0  0
  5  6  2  0  0  0  0
  5  7  1  0  0  0  0
  7  8  1  0  0  0  0
  7  9  1  0  0  0  0
  9 10  1  0  0  0  0
  9 11  1  0  0  0  0
  9 29  1  0  0  0  0
 11 12  1  0  0  0  0
 11 13  1  0  0  0  0
 11 14  1  0  0  0  0
 14 15  1  0  0  0  0
 14 16  1  0  0  0  0
 14 17  1  0  0  0  0
 17 18  1  0  0  0  0
 17 19  1  0  0  0  0
 17 20  1  0  0  0  0
 20 21  1  0  0  0  0
 20 22  2  0  0  0  0
 22 23  1  0  0  0  0
 22 26  1  0  0  0  0
 23 24  1  0  0  0  0
 23 25  1  0  0  0  0
 26 27  1  0  0  0  0
 26 28  1  0  0  0  0
 29 30  2  0  0  0  0
 29 31  1  0  0  0  0
 31 32  1  0  0  0  0
 31 33  1  0  0  0  0
 33 34  1  0  0  0  0
 33 35  1  0  0  0  0
 33 36  1  0  0  0  0
M  CHG  1  20   1
M  END
$$$$

  -OEChem-04042215563D

 36 35  0     1  0  0  0  0  0999 V2000
   -2.9674   -5.3972    0.9831 H   0  0  0  0  0  0  0  0  0  0  0  0
   -3.0478   -4.4032    0.5334 C   0  0  0  0  0  0  0  0  0  0  0  0
   -3.7807   -3.8224    1.0982 H   0  0  0  0  0  0  0  0  0  0  0  0
   -3.3926   -4.5116   -0.4977 H   0  0  0  0  0  0  0  0  0  0  0  0
   -1.6988   -3.7103    0.5605 C   0  0  0  0  0  0  0  0  0  0  0  0
   -0.7258   -4.2850    1.0138 O   0  0  0  0  0  0  0  0  0  0  0  0
   -1.5650   -2.4286    0.0589 N   0  0  0  0  0  0  0  0  0  0  0  0
   -2.4020   -1.9879   -0.3126 H   0  0  0  0  0  0  0  0  0  0  0  0
   -0.3031   -1.6660    0.0826 C   0  0  1  0  0  0  0  0  0  0  0  0
    0.4467   -2.2653   -0.4466 H   0  0  0  0  0  0  0  0  0  0  0  0
   -0.5092   -0.3530   -0.6988 C   0  0  0  0  0  0  0  0  0  0  0  0
   -1.0755   -0.5521   -1.6152 H   0  0  0  0  0  0  0  0  0  0  0  0
   -1.1141    0.3244   -0.0862 H   0  0  0  0  0  0  0  0  0  0  0  0
    0.8212    0.3437   -1.0525 C   0  0  0  0  0  0  0  0  0  0  0  0
    0.7246    1.4133   -0.8363 H   0  0  0  0  0  0  0  0  0  0  0  0
    1.6418   -0.0370   -0.4375 H   0  0  0  0  0  0  0  0  0  0  0  0
    1.1691    0.1675   -2.5292 C   0  0  0  0  0  0  0  0  0  0  0  0
    1.1753   -0.9015   -2.7701 H   0  0  0  0  0  0  0  0  0  0  0  0
    0.4105    0.6626   -3.1454 H   0  0  0  0  0  0  0  0  0  0  0  0
    2.5008    0.7494   -2.7787 N   0  3  0  0  0  0  0  0  0  0  0  0
    3.0111    1.0932   -1.9655 H   0  0  0  0  0  0  0  0  0  0  0  0
    3.0709    0.7928   -3.9477 C   0  0  0  0  0  0  0  0  0  0  0  0
    2.4589    0.2924   -5.0739 N   0  0  0  0  0  0  0  0  0  0  0  0
    1.6264   -0.2785   -4.9441 H   0  0  0  0  0  0  0  0  0  0  0  0
    3.0293    0.1227   -5.9000 H   0  0  0  0  0  0  0  0  0  0  0  0
    4.3220    1.3490   -4.0690 N   0  0  0  0  0  0  0  0  0  0  0  0
    4.7079    1.8660   -3.2808 H   0  0  0  0  0  0  0  0  0  0  0  0
    4.6714    1.5661   -5.0006 H   0  0  0  0  0  0  0  0  0  0  0  0
    0.2614   -1.4207    1.5035 C   0  0  0  0  0  0  0  0  0  0  0  0
    1.4739   -1.3627    1.6646 O   0  0  0  0  0  0  0  0  0  0  0  0
   -0.5745   -1.0106    2.5267 N   0  0  0  0  0  0  0  0  0  0  0  0
   -1.5685   -1.1605    2.3852 H   0  0  0  0  0  0  0  0  0  0  0  0
   -0.0957   -0.7712    3.8844 C   0  0  0  0  0  0  0  0  0  0  0  0
    0.6712    0.0108    3.8907 H   0  0  0  0  0  0  0  0  0  0  0  0
   -0.9204   -0.4474    4.5269 H   0  0  0  0  0  0  0  0  0  0  0  0
    0.3340   -1.6869    4.3051 H   0  0  0  0  0  0  0  0  0  0  0  0
  1  2  1  0  0  0  0
  2  3  1  0  0  0  0
  2  4  1  0  0  0  0
  2  5  1  0  0  0  0
  5  6  2  0  0  0  0
  5  7  1  0  0  0  0
  7  8  1  0  0  0  0
  7  9  1  0  0  0  0
  9 10  1  0  0  0  0
  9 11  1  0  0  0  0
  9 29  1  0  0  0  0
 11 12  1  0  0  0  0
 11 13  1  0  0  0  0
 11 14  1  0  0  0  0
 14 15  1  0  0  0  0
 14 16  1  0  0  0  0
 14 17  1  0  0  0  0
 17 18  1  0  0  0  0
 17 19  1  0  0  0  0
 17 20  1  0  0  0  0
 20 21  1  0  0  0  0
 20 22  2  0  0  0  0
 22 23  1  0  0  0  0
 22 26  1  0  0  0  0
 23 24  1  0  0  0  0
 23 25  1  0  0  0  0
 26 27  1  0  0  0  0
 26 28  1  0  0  0  0
 29 30  2  0  0  0  0
 29 31  1  0  0  0  0
 31 32  1  0  0  0  0
 31 33  1  0  0  0  0
 33 34  1  0  0  0  0
 33 35  1  0  0  0  0
 33 36  1  0  0  0  0
M  CHG  1  20   1
M  END
$$$$

  -OEChem-04042215563D

 36 35  0     1  0  0  0  0  0999 V2000
   -2.9530   -5.4170    0.9815 H   0  0  0  0  0  0  0  0  0  0  0  0
   -3.0388   -4.4244    0.5296 C   0  0  0  0  0  0  0  0  0  0  0  0
   -3.7857   -3.8509    1.0836 H   0  0  0  0  0  0  0  0  0  0  0  0
   -3.3687   -4.5382   -0.5057 H   0  0  0  0  0  0  0  0  0  0  0  0
   -1.6987   -3.7157    0.5729 C   0  0  0  0  0  0  0  0  0  0  0  0
   -0.7267   -4.2751    1.0465 O   0  0  0  0  0  0  0  0  0  0  0  0
   -1.5738   -2.4347    0.0673 N   0  0  0  0  0  0  0  0  0  0  0  0
   -2.4079   -2.0105   -0.3284 H   0  0  0  0  0  0  0  0  0  0  0  0
   -0.3164   -1.6650    0.0846 C   0  0  1  0  0  0  0  0  0  0  0  0
    0.4324   -2.2633   -0.4473 H   0  0  0  0  0  0  0  0  0  0  0  0
   -0.5221   -0.3470   -0.6868 C   0  0  0  0  0  0  0  0  0  0  0  0
   -1.0762   -0.5579   -1.6076 H   0  0  0  0  0  0  0  0  0  0  0  0
   -1.1366    0.3332   -0.0870 H   0  0  0  0  0  0  0  0  0  0  0  0
    0.8151    0.3419   -1.0356 C   0  0  0  0  0  0  0  0  0  0  0  0
    0.8480    1.3238   -0.5506 H   0  0  0  0  0  0  0  0  0  0  0  0
    1.6597   -0.2397   -0.6510 H   0  0  0  0  0  0  0  0  0  0  0  0
    0.9880    0.5037   -2.5445 C   0  0  0  0  0  0  0  0  0  0  0  0
    0.9015   -0.4784   -3.0227 H   0  0  0  0  0  0  0  0  0  0  0  0
    0.1969    1.1547   -2.9332 H   0  0  0  0  0  0  0  0  0  0  0  0
    2.3155    1.0852   -2.8170 N   0  3  0  0  0  0  0  0  0  0  0  0
    2.9282    1.2279   -2.0141 H   0  0  0  0  0  0  0  0  0  0  0  0
    2.7527    1.3756   -4.0080 C   0  0  0  0  0  0  0  0  0  0  0  0
    1.9897    1.1619   -5.1332 N   0  0  0  0  0  0  0  0  0  0  0  0
    1.1405    0.6102   -5.0316 H   0  0  0  0  0  0  0  0  0  0  0  0
    2.4498    1.1692   -6.0413 H   0  0  0  0  0  0  0  0  0  0  0  0
    4.0116    1.9069   -4.1561 N   0  0  0  0  0  0  0  0  0  0  0  0
    4.5113    2.2232   -3.3269 H   0  0  0  0  0  0  0  0  0  0  0  0
    4.2656    2.3169   -5.0530 H   0  0  0  0  0  0  0  0  0  0  0  0
    0.2544   -1.4107    1.5009 C   0  0  0  0  0  0  0  0  0  0  0  0
    1.4662   -1.3109    1.6470 O   0  0  0  0  0  0  0  0  0  0  0  0
   -0.5814   -1.0021    2.5248 N   0  0  0  0  0  0  0  0  0  0  0  0
   -1.5715   -1.1849    2.3947 H   0  0  0  0  0  0  0  0  0  0  0  0
   -0.0974   -0.7497    3.8782 C   0  0  0  0  0  0  0  0  0  0  0  0
    0.6568    0.0443    3.8764 H   0  0  0  0  0  0  0  0  0  0  0  0
   -0.9229   -0.4369    4.5250 H   0  0  0  0  0  0  0  0  0  0  0  0
    0.3491   -1.6570    4.2993 H   0  0  0  0  0  0  0  0  0  0  0  0
  1  2  1  0  0  0  0
  2  3  1  0  0  0  0
  2  4  1  0  0  0  0
  2  5  1  0  0  0  0
  5  6  2  0  0  0  0
  5  7  1  0  0  0  0
  7  8  1  0  0  0  0
  7  9  1  0  0  0  0
  9 10  1  0  0  0  0
  9 11  1  0  0  0  0
  9 29  1  0  0  0  0
 11 12  1  0  0  0  0
 11 13  1  0  0  0  0
 11 14  1  0  0  0  0
 14 15  1  0  0  0  0
 14 16  1  0  0  0  0
 14 17  1  0  0  0  0
 17 18  1  0  0  0  0
 17 19  1  0  0  0  0
 17 20  1  0  0  0  0
 20 21  1  0  0  0  0
 20 22  2  0  0  0  0
 22 23  1  0  0  0  0
 22 26  1  0  0  0  0
 23 24  1  0  0  0  0
 23 25  1  0  0  0  0
 26 27  1  0  0  0  0
 26 28  1  0  0  0  0
 29 30  2  0  0  0  0
 29 31  1  0  0  0  0
 31 32  1  0  0  0  0
 31 33  1  0  0  0  0
 33 34  1  0  0  0  0
 33 35  1  0  0  0  0
 33 36  1  0  0  0  0
M  CHG  1  20   1
M  END
$$$$

  -OEChem-04042215563D

 36 35  0     1  0  0  0  0  0999 V2000
   -2.9050   -5.4678    0.9663 H   0  0  0  0  0  0  0  0  0  0  0  0
   -3.0159   -4.4761    0.5183 C   0  0  0  0  0  0  0  0  0  0  0  0
   -3.7889   -3.9300    1.0638 H   0  0  0  0  0  0  0  0  0  0  0  0
   -3.3263   -4.5954   -0.5223 H   0  0  0  0  0  0  0  0  0  0  0  0
   -1.6999   -3.7253    0.5854 C   0  0  0  0  0  0  0  0  0  0  0  0
   -0.7200   -4.2552    1.0769 O   0  0  0  0  0  0  0  0  0  0  0  0
   -1.6055   -2.4406    0.0825 N   0  0  0  0  0  0  0  0  0  0  0  0
   -2.4425   -2.0454   -0.3370 H   0  0  0  0  0  0  0  0  0  0  0  0
   -0.3600   -1.6518    0.0805 C   0  0  1  0  0  0  0  0  0  0  0  0
    0.3818   -2.2475   -0.4644 H   0  0  0  0  0  0  0  0  0  0  0  0
   -0.5815   -0.3343   -0.6873 C   0  0  0  0  0  0  0  0  0  0  0  0
   -1.1215   -0.5631   -1.6123 H   0  0  0  0  0  0  0  0  0  0  0  0
   -1.2071    0.3480   -0.1013 H   0  0  0  0  0  0  0  0  0  0  0  0
    0.7576    0.3471   -1.0364 C   0  0  0  0  0  0  0  0  0  0  0  0
    0.9317    1.1732   -0.3375 H   0  0  0  0  0  0  0  0  0  0  0  0
    1.5819   -0.3640   -0.9104 H   0  0  0  0  0  0  0  0  0  0  0  0
    0.7923    0.8506   -2.4773 C   0  0  0  0  0  0  0  0  0  0  0  0
    0.5912    0.0157   -3.1579 H   0  0  0  0  0  0  0  0  0  0  0  0
    0.0174    1.6127   -2.6167 H   0  0  0  0  0  0  0  0  0  0  0  0
    2.1283    1.4159   -2.7417 N   0  3  0  0  0  0  0  0  0  0  0  0
    2.8114    1.3484   -1.9870 H   0  0  0  0  0  0  0  0  0  0  0  0
    2.4827    1.9576   -3.8704 C   0  0  0  0  0  0  0  0  0  0  0  0
    1.6169    2.0499   -4.9361 N   0  0  0  0  0  0  0  0  0  0  0  0
    0.7431    1.5309   -4.8835 H   0  0  0  0  0  0  0  0  0  0  0  0
    1.9994    2.2518   -5.8577 H   0  0  0  0  0  0  0  0  0  0  0  0
    3.7582    2.4502   -4.0108 N   0  0  0  0  0  0  0  0  0  0  0  0
    4.3445    2.5368   -3.1824 H   0  0  0  0  0  0  0  0  0  0  0  0
    3.9655    3.0487   -4.8082 H   0  0  0  0  0  0  0  0  0  0  0  0
    0.2475   -1.3843    1.4781 C   0  0  0  0  0  0  0  0  0  0  0  0
    1.4596   -1.2352    1.5765 O   0  0  0  0  0  0  0  0  0  0  0  0
   -0.5638   -0.9864    2.5255 N   0  0  0  0  0  0  0  0  0  0  0  0
   -1.5508   -1.2083    2.4358 H   0  0  0  0  0  0  0  0  0  0  0  0
   -0.0388   -0.6996    3.8567 C   0  0  0  0  0  0  0  0  0  0  0  0
    0.7083    0.1000    3.8134 H   0  0  0  0  0  0  0  0  0  0  0  0
   -0.8455   -0.3780    4.5225 H   0  0  0  0  0  0  0  0  0  0  0  0
    0.4286   -1.5933    4.2842 H   0  0  0  0  0  0  0  0  0  0  0  0
  1  2  1  0  0  0  0
  2  3  1  0  0  0  0
  2  4  1  0  0  0  0
  2  5  1  0  0  0  0
  5  6  2  0  0  0  0
  5  7  1  0  0  0  0
  7  8  1  0  0  0  0
  7  9  1  0  0  0  0
  9 10  1  0  0  0  0
  9 11  1  0  0  0  0
  9 29  1  0  0  0  0
 11 12  1  0  0  0  0
 11 13  1  0  0  0  0
 11 14  1  0  0  0  0
 14 15  1  0  0  0  0
 14 16  1  0  0  0  0
 14 17  1  0  0  0  0
 17 18  1  0  0  0  0
 17 19  1  0  0  0  0
 17 20  1  0  0  0  0
 20 21  1  0  0  0  0
 20 22  2  0  0  0  0
 22 23  1  0  0  0  0
 22 26  1  0  0  0  0
 23 24  1  0  0  0  0
 23 25  1  0  0  0  0
 26 27  1  0  0  0  0
 26 28  1  0  0  0  0
 29 30  2  0  0  0  0
 29 31  1  0  0  0  0
 31 32  1  0  0  0  0
 31 33  1  0  0  0  0
 33 34  1  0  0  0  0
 33 35  1  0  0  0  0
 33 36  1  0  0  0  0
M  CHG  1  20   1
M  END
$$$$

  -OEChem-04042215563D

 36 35  0     1  0  0  0  0  0999 V2000
   -2.8759   -5.4854    0.9487 H   0  0  0  0  0  0  0  0  0  0  0  0
   -2.9911   -4.4951    0.4984 C   0  0  0  0  0  0  0  0  0  0  0  0
   -3.7759   -3.9562    1.0341 H   0  0  0  0  0  0  0  0  0  0  0  0
   -3.2879   -4.6181   -0.5458 H   0  0  0  0  0  0  0  0  0  0  0  0
   -1.6835   -3.7312    0.5803 C   0  0  0  0  0  0  0  0  0  0  0  0
   -0.7056   -4.2493    1.0877 O   0  0  0  0  0  0  0  0  0  0  0  0
   -1.5966   -2.4448    0.0802 N   0  0  0  0  0  0  0  0  0  0  0  0
   -2.4285   -2.0630   -0.3608 H   0  0  0  0  0  0  0  0  0  0  0  0
   -0.3569   -1.6471    0.0840 C   0  0  1  0  0  0  0  0  0  0  0  0
    0.3906   -2.2362   -0.4597 H   0  0  0  0  0  0  0  0  0  0  0  0
   -0.5856   -0.3284   -0.6790 C   0  0  0  0  0  0  0  0  0  0  0  0
   -1.1129   -0.5600   -1.6105 H   0  0  0  0  0  0  0  0  0  0  0  0
   -1.2196    0.3487   -0.0964 H   0  0  0  0  0  0  0  0  0  0  0  0
    0.7516    0.3558   -1.0172 C   0  0  0  0  0  0  0  0  0  0  0  0
    1.0504    0.9924   -0.1764 H   0  0  0  0  0  0  0  0  0  0  0  0
    1.5322   -0.4025   -1.1488 H   0  0  0  0  0  0  0  0  0  0  0  0
    0.6627    1.1750   -2.3011 C   0  0  0  0  0  0  0  0  0  0  0  0
    0.4046    0.5144   -3.1363 H   0  0  0  0  0  0  0  0  0  0  0  0
   -0.1226    1.9313   -2.1949 H   0  0  0  0  0  0  0  0  0  0  0  0
    1.9676    1.8198   -2.5367 N   0  3  0  0  0  0  0  0  0  0  0  0
    2.6739    1.7031   -1.8099 H   0  0  0  0  0  0  0  0  0  0  0  0
    2.2557    2.5212   -3.5941 C   0  0  0  0  0  0  0  0  0  0  0  0
    1.3387    2.7289   -4.5993 N   0  0  0  0  0  0  0  0  0  0  0  0
    0.3734    2.4569   -4.4262 H   0  0  0  0  0  0  0  0  0  0  0  0
    1.5159    3.4673   -5.2775 H   0  0  0  0  0  0  0  0  0  0  0  0
    3.5071    3.0769   -3.7159 N   0  0  0  0  0  0  0  0  0  0  0  0
    4.2374    2.7804   -3.0706 H   0  0  0  0  0  0  0  0  0  0  0  0
    3.7924    3.4371   -4.6247 H   0  0  0  0  0  0  0  0  0  0  0  0
    0.2463   -1.3763    1.4817 C   0  0  0  0  0  0  0  0  0  0  0  0
    1.4554   -1.2029    1.5785 O   0  0  0  0  0  0  0  0  0  0  0  0
   -0.5725   -0.9857    2.5257 N   0  0  0  0  0  0  0  0  0  0  0  0
   -1.5548   -1.2271    2.4352 H   0  0  0  0  0  0  0  0  0  0  0  0
   -0.0556   -0.6879    3.8573 C   0  0  0  0  0  0  0  0  0  0  0  0
    0.6651    0.1357    3.8162 H   0  0  0  0  0  0  0  0  0  0  0  0
   -0.8721   -0.3956    4.5247 H   0  0  0  0  0  0  0  0  0  0  0  0
    0.4407   -1.5678    4.2807 H   0  0  0  0  0  0  0  0  0  0  0  0
  1  2  1  0  0  0  0
  2  3  1  0  0  0  0
  2  4  1  0  0  0  0
  2  5  1  0  0  0  0
  5  6  2  0  0  0  0
  5  7  1  0  0  0  0
  7  8  1  0  0  0  0
  7  9  1  0  0  0  0
  9 10  1  0  0  0  0
  9 11  1  0  0  0  0
  9 29  1  0  0  0  0
 11 12  1  0  0  0  0
 11 13  1  0  0  0  0
 11 14  1  0  0  0  0
 14 15  1  0  0  0  0
 14 16  1  0  0  0  0
 14 17  1  0  0  0  0
 17 18  1  0  0  0  0
 17 19  1  0  0  0  0
 17 20  1  0  0  0  0
 20 21  1  0  0  0  0
 20 22  2  0  0  0  0
 22 23  1  0  0  0  0
 22 26  1  0  0  0  0
 23 24  1  0  0  0  0
 23 25  1  0  0  0  0
 26 27  1  0  0  0  0
 26 28  1  0  0  0  0
 29 30  2  0  0  0  0
 29 31  1  0  0  0  0
 31 32  1  0  0  0  0
 31 33  1  0  0  0  0
 33 34  1  0  0  0  0
 33 35  1  0  0  0  0
 33 36  1  0  0  0  0
M  CHG  1  20   1
M  END
$$$$

  -OEChem-04042215563D

 36 35  0     1  0  0  0  0  0999 V2000
   -2.8565   -5.4868    0.9133 H   0  0  0  0  0  0  0  0  0  0  0  0
   -2.9702   -4.4948    0.4663 C   0  0  0  0  0  0  0  0  0  0  0  0
   -3.7723   -3.9662    0.9869 H   0  0  0  0  0  0  0  0  0  0  0  0
   -3.2408   -4.6141   -0.5855 H   0  0  0  0  0  0  0  0  0  0  0  0
   -1.6719   -3.7198    0.5846 C   0  0  0  0  0  0  0  0  0  0  0  0
   -0.7049   -4.2296    1.1204 O   0  0  0  0  0  0  0  0  0  0  0  0
   -1.5827   -2.4328    0.0863 N   0  0  0  0  0  0  0  0  0  0  0  0
   -2.3985   -2.0698   -0.3984 H   0  0  0  0  0  0  0  0  0  0  0  0
   -0.3433   -1.6341    0.0986 C   0  0  1  0  0  0  0  0  0  0  0  0
    0.4117   -2.2179   -0.4409 H   0  0  0  0  0  0  0  0  0  0  0  0
   -0.5745   -0.3148   -0.6638 C   0  0  0  0  0  0  0  0  0  0  0  0
   -1.0990   -0.5386   -1.5987 H   0  0  0  0  0  0  0  0  0  0  0  0
   -1.2088    0.3577   -0.0760 H   0  0  0  0  0  0  0  0  0  0  0  0
    0.7610    0.3720   -0.9954 C   0  0  0  0  0  0  0  0  0  0  0  0
    1.1834    0.8058   -0.0818 H   0  0  0  0  0  0  0  0  0  0  0  0
    1.4720   -0.3722   -1.3722 H   0  0  0  0  0  0  0  0  0  0  0  0
    0.5816    1.4631   -2.0464 C   0  0  0  0  0  0  0  0  0  0  0  0
    0.1975    1.0177   -2.9709 H   0  0  0  0  0  0  0  0  0  0  0  0
   -0.1434    2.1999   -1.6830 H   0  0  0  0  0  0  0  0  0  0  0  0
    1.8880    2.1040   -2.2865 N   0  3  0  0  0  0  0  0  0  0  0  0
    2.6586    1.8140   -1.6841 H   0  0  0  0  0  0  0  0  0  0  0  0
    2.1002    3.0100   -3.1962 C   0  0  0  0  0  0  0  0  0  0  0  0
    1.0931    3.4625   -4.0173 N   0  0  0  0  0  0  0  0  0  0  0  0
    0.1378    3.1999   -3.7849 H   0  0  0  0  0  0  0  0  0  0  0  0
    1.2404    4.3236   -4.5398 H   0  0  0  0  0  0  0  0  0  0  0  0
    3.3605    3.5378   -3.3458 N   0  0  0  0  0  0  0  0  0  0  0  0
    4.1390    3.0886   -2.8668 H   0  0  0  0  0  0  0  0  0  0  0  0
    3.5650    4.0808   -4.1827 H   0  0  0  0  0  0  0  0  0  0  0  0
    0.2438   -1.3693    1.5049 C   0  0  0  0  0  0  0  0  0  0  0  0
    1.4525   -1.2057    1.6206 O   0  0  0  0  0  0  0  0  0  0  0  0
   -0.5881   -0.9834    2.5405 N   0  0  0  0  0  0  0  0  0  0  0  0
   -1.5675   -1.2307    2.4357 H   0  0  0  0  0  0  0  0  0  0  0  0
   -0.0892   -0.7042    3.8830 C   0  0  0  0  0  0  0  0  0  0  0  0
    0.6451    0.1079    3.8610 H   0  0  0  0  0  0  0  0  0  0  0  0
   -0.9124   -0.4039    4.5386 H   0  0  0  0  0  0  0  0  0  0  0  0
    0.3857   -1.5954    4.3074 H   0  0  0  0  0  0  0  0  0  0  0  0
  1  2  1  0  0  0  0
  2  3  1  0  0  0  0
  2  4  1  0  0  0  0
  2  5  1  0  0  0  0
  5  6  2  0  0  0  0
  5  7  1  0  0  0  0
  7  8  1  0  0  0  0
  7  9  1  0  0  0  0
  9 10  1  0  0  0  0
  9 11  1  0  0  0  0
  9 29  1  0  0  0  0
 11 12  1  0  0  0  0
 11 13  1  0  0  0  0
 11 14  1  0  0  0  0
 14 15  1  0  0  0  0
 14 16  1  0  0  0  0
 14 17  1  0  0  0  0
 17 18  1  0  0  0  0
 17 19  1  0  0  0  0
 17 20  1  0  0  0  0
 20 21  1  0  0  0  0
 20 22  2  0  0  0  0
 22 23  1  0  0  0  0
 22 26  1  0  0  0  0
 23 24  1  0  0  0  0
 23 25  1  0  0  0  0
 26 27  1  0  0  0  0
 26 28  1  0  0  0  0
 29 30  2  0  0  0  0
 29 31  1  0  0  0  0
 31 32  1  0  0  0  0
 31 33  1  0  0  0  0
 33 34  1  0  0  0  0
 33 35  1  0  0  0  0
 33 36  1  0  0  0  0
M  CHG  1  20   1
M  END
$$$$

  -OEChem-04042215563D

 36 35  0     1  0  0  0  0  0999 V2000
   -2.8379   -5.5045    0.8762 H   0  0  0  0  0  0  0  0  0  0  0  0
   -2.9648   -4.5082    0.4424 C   0  0  0  0  0  0  0  0  0  0  0  0
   -3.7676   -3.9940    0.9757 H   0  0  0  0  0  0  0  0  0  0  0  0
   -3.2437   -4.6169   -0.6083 H   0  0  0  0  0  0  0  0  0  0  0  0
   -1.6730   -3.7221    0.5594 C   0  0  0  0  0  0  0  0  0  0  0  0
   -0.6930   -4.2336    1.0696 O   0  0  0  0  0  0  0  0  0  0  0  0
   -1.6020   -2.4251    0.0842 N   0  0  0  0  0  0  0  0  0  0  0  0
   -2.4320   -2.0538   -0.3690 H   0  0  0  0  0  0  0  0  0  0  0  0
   -0.3705   -1.6142    0.1017 C   0  0  1  0  0  0  0  0  0  0  0  0
    0.3805   -2.1935   -0.4479 H   0  0  0  0  0  0  0  0  0  0  0  0
   -0.5991   -0.2851   -0.6457 C   0  0  0  0  0  0  0  0  0  0  0  0
   -1.3371   -0.4336   -1.4411 H   0  0  0  0  0  0  0  0  0  0  0  0
   -0.9979    0.4682    0.0426 H   0  0  0  0  0  0  0  0  0  0  0  0
    0.7108    0.2072   -1.2806 C   0  0  0  0  0  0  0  0  0  0  0  0
    1.4632    0.3527   -0.4973 H   0  0  0  0  0  0  0  0  0  0  0  0
    1.0899   -0.5513   -1.9746 H   0  0  0  0  0  0  0  0  0  0  0  0
    0.4999    1.5227   -2.0240 C   0  0  0  0  0  0  0  0  0  0  0  0
   -0.2134    1.3681   -2.8413 H   0  0  0  0  0  0  0  0  0  0  0  0
    0.0865    2.2647   -1.3318 H   0  0  0  0  0  0  0  0  0  0  0  0
    1.7969    1.9864   -2.5515 N   0  3  0  0  0  0  0  0  0  0  0  0
    2.6238    1.4616   -2.2663 H   0  0  0  0  0  0  0  0  0  0  0  0
    1.9402    3.0280   -3.3185 C   0  0  0  0  0  0  0  0  0  0  0  0
    0.8672    3.8008   -3.6990 N   0  0  0  0  0  0  0  0  0  0  0  0
   -0.0183    3.6470   -3.2217 H   0  0  0  0  0  0  0  0  0  0  0  0
    1.0469    4.7251   -4.0857 H   0  0  0  0  0  0  0  0  0  0  0  0
    3.1937    3.3753   -3.7635 N   0  0  0  0  0  0  0  0  0  0  0  0
    3.9610    2.7192   -3.6291 H   0  0  0  0  0  0  0  0  0  0  0  0
    3.2717    4.0520   -4.5207 H   0  0  0  0  0  0  0  0  0  0  0  0
    0.2331   -1.3638    1.5029 C   0  0  0  0  0  0  0  0  0  0  0  0
    1.4405   -1.1832    1.6012 O   0  0  0  0  0  0  0  0  0  0  0  0
   -0.5875   -1.0022    2.5562 N   0  0  0  0  0  0  0  0  0  0  0  0
   -1.5663   -1.2567    2.4639 H   0  0  0  0  0  0  0  0  0  0  0  0
   -0.0705   -0.7247    3.8923 C   0  0  0  0  0  0  0  0  0  0  0  0
    0.6485    0.1009    3.8641 H   0  0  0  0  0  0  0  0  0  0  0  0
   -0.8868   -0.4446    4.5651 H   0  0  0  0  0  0  0  0  0  0  0  0
    0.4281   -1.6100    4.3014 H   0  0  0  0  0  0  0  0  0  0  0  0
  1  2  1  0  0  0  0
  2  3  1  0  0  0  0
  2  4  1  0  0  0  0
  2  5  1  0  0  0  0
  5  6  2  0  0  0  0
  5  7  1  0  0  0  0
  7  8  1  0  0  0  0
  7  9  1  0  0  0  0
  9 10  1  0  0  0  0
  9 11  1  0  0  0  0
  9 29  1  0  0  0  0
 11 12  1  0  0  0  0
 11 13  1  0  0  0  0
 11 14  1  0  0  0  0
 14 15  1  0  0  0  0
 14 16  1  0  0  0  0
 14 17  1  0  0  0  0
 17 18  1  0  0  0  0
 17 19  1  0  0  0  0
 17 20  1  0  0  0  0
 20 21  1  0  0  0  0
 20 22  2  0  0  0  0
 22 23  1  0  0  0  0
 22 26  1  0  0  0  0
 23 24  1  0  0  0  0
 23 25  1  0  0  0  0
 26 27  1  0  0  0  0
 26 28  1  0  0  0  0
 29 30  2  0  0  0  0
 29 31  1  0  0  0  0
 31 32  1  0  0  0  0
 31 33  1  0  0  0  0
 33 34  1  0  0  0  0
 33 35  1  0  0  0  0
 33 36  1  0  0  0  0
M  CHG  1  20   1
M  END
$$$$

  -OEChem-04042215563D

 36 35  0     1  0  0  0  0  0999 V2000
   -2.8310   -5.5015    0.8559 H   0  0  0  0  0  0  0  0  0  0  0  0
   -2.9541   -4.5046    0.4226 C   0  0  0  0  0  0  0  0  0  0  0  0
   -3.7731   -3.9971    0.9372 H   0  0  0  0  0  0  0  0  0  0  0  0
   -3.2059   -4.6117   -0.6351 H   0  0  0  0  0  0  0  0  0  0  0  0
   -1.6710   -3.7105    0.5741 C   0  0  0  0  0  0  0  0  0  0  0  0
   -0.7039   -4.2134    1.1162 O   0  0  0  0  0  0  0  0  0  0  0  0
   -1.5925   -2.4168    0.0912 N   0  0  0  0  0  0  0  0  0  0  0  0
   -2.4050   -2.0621   -0.4053 H   0  0  0  0  0  0  0  0  0  0  0  0
   -0.3569   -1.6114    0.1080 C   0  0  1  0  0  0  0  0  0  0  0  0
    0.3954   -2.1914   -0.4396 H   0  0  0  0  0  0  0  0  0  0  0  0
   -0.5837   -0.2814   -0.6391 C   0  0  0  0  0  0  0  0  0  0  0  0
   -1.3306   -0.4145   -1.4288 H   0  0  0  0  0  0  0  0  0  0  0  0
   -0.9706    0.4665    0.0620 H   0  0  0  0  0  0  0  0  0  0  0  0
    0.7235    0.2121   -1.2803 C   0  0  0  0  0  0  0  0  0  0  0  0
    1.5448    0.1203   -0.5618 H   0  0  0  0  0  0  0  0  0  0  0  0
    0.9656   -0.4144   -2.1459 H   0  0  0  0  0  0  0  0  0  0  0  0
    0.6107    1.6752   -1.6980 C   0  0  0  0  0  0  0  0  0  0  0  0
   -0.1651    1.7766   -2.4649 H   0  0  0  0  0  0  0  0  0  0  0  0
    0.3252    2.2765   -0.8275 H   0  0  0  0  0  0  0  0  0  0  0  0
    1.9150    2.1246   -2.2183 N   0  3  0  0  0  0  0  0  0  0  0  0
    2.6975    1.4782   -2.1181 H   0  0  0  0  0  0  0  0  0  0  0  0
    2.1239    3.2955   -2.7460 C   0  0  0  0  0  0  0  0  0  0  0  0
    1.1200    4.2301   -2.8591 N   0  0  0  0  0  0  0  0  0  0  0  0
    0.2540    4.0557   -2.3537 H   0  0  0  0  0  0  0  0  0  0  0  0
    1.3762    5.1974   -3.0468 H   0  0  0  0  0  0  0  0  0  0  0  0
    3.3794    3.6170   -3.2039 N   0  0  0  0  0  0  0  0  0  0  0  0
    4.0793    2.8804   -3.2751 H   0  0  0  0  0  0  0  0  0  0  0  0
    3.4865    4.4371   -3.7981 H   0  0  0  0  0  0  0  0  0  0  0  0
    0.2368   -1.3599    1.5144 C   0  0  0  0  0  0  0  0  0  0  0  0
    1.4437   -1.1832    1.6261 O   0  0  0  0  0  0  0  0  0  0  0  0
   -0.5929   -0.9910    2.5578 N   0  0  0  0  0  0  0  0  0  0  0  0
   -1.5693   -1.2517    2.4571 H   0  0  0  0  0  0  0  0  0  0  0  0
   -0.0881   -0.7238    3.9004 C   0  0  0  0  0  0  0  0  0  0  0  0
    0.6378    0.0961    3.8845 H   0  0  0  0  0  0  0  0  0  0  0  0
   -0.9099   -0.4407    4.5653 H   0  0  0  0  0  0  0  0  0  0  0  0
    0.3985   -1.6155    4.3100 H   0  0  0  0  0  0  0  0  0  0  0  0
  1  2  1  0  0  0  0
  2  3  1  0  0  0  0
  2  4  1  0  0  0  0
  2  5  1  0  0  0  0
  5  6  2  0  0  0  0
  5  7  1  0  0  0  0
  7  8  1  0  0  0  0
  7  9  1  0  0  0  0
  9 10  1  0  0  0  0
  9 11  1  0  0  0  0
  9 29  1  0  0  0  0
 11 12  1  0  0  0  0
 11 13  1  0  0  0  0
 11 14  1  0  0  0  0
 14 15  1  0  0  0  0
 14 16  1  0  0  0  0
 14 17  1  0  0  0  0
 17 18  1  0  0  0  0
 17 19  1  0  0  0  0
 17 20  1  0  0  0  0
 20 21  1  0  0  0  0
 20 22  2  0  0  0  0
 22 23  1  0  0  0  0
 22 26  1  0  0  0  0
 23 24  1  0  0  0  0
 23 25  1  0  0  0  0
 26 27  1  0  0  0  0
 26 28  1  0  0  0  0
 29 30  2  0  0  0  0
 29 31  1  0  0  0  0
 31 32  1  0  0  0  0
 31 33  1  0  0  0  0
 33 34  1  0  0  0  0
 33 35  1  0  0  0  0
 33 36  1  0  0  0  0
M  CHG  1  20   1
M  END
$$$$

  -OEChem-04042215563D

 36 35  0     1  0  0  0  0  0999 V2000
   -2.8305   -5.4893    0.9082 H   0  0  0  0  0  0  0  0  0  0  0  0
   -2.9495   -4.5061    0.4438 C   0  0  0  0  0  0  0  0  0  0  0  0
   -3.7820   -3.9891    0.9268 H   0  0  0  0  0  0  0  0  0  0  0  0
   -3.1783   -4.6448   -0.6156 H   0  0  0  0  0  0  0  0  0  0  0  0
   -1.6735   -3.7014    0.5988 C   0  0  0  0  0  0  0  0  0  0  0  0
   -0.7096   -4.1896    1.1601 O   0  0  0  0  0  0  0  0  0  0  0  0
   -1.5990   -2.4138    0.1000 N   0  0  0  0  0  0  0  0  0  0  0  0
   -2.4054   -2.0774   -0.4188 H   0  0  0  0  0  0  0  0  0  0  0  0
   -0.3623   -1.6107    0.0925 C   0  0  1  0  0  0  0  0  0  0  0  0
    0.3807   -2.1971   -0.4609 H   0  0  0  0  0  0  0  0  0  0  0  0
   -0.5973   -0.2863   -0.6611 C   0  0  0  0  0  0  0  0  0  0  0  0
   -1.3588   -0.4194   -1.4367 H   0  0  0  0  0  0  0  0  0  0  0  0
   -0.9750    0.4621    0.0445 H   0  0  0  0  0  0  0  0  0  0  0  0
    0.7009    0.2052   -1.3280 C   0  0  0  0  0  0  0  0  0  0  0  0
    1.5668   -0.1161   -0.7395 H   0  0  0  0  0  0  0  0  0  0  0  0
    0.7966   -0.2425   -2.3233 H   0  0  0  0  0  0  0  0  0  0  0  0
    0.7272    1.7292   -1.4186 C   0  0  0  0  0  0  0  0  0  0  0  0
   -0.0465    2.0664   -2.1171 H   0  0  0  0  0  0  0  0  0  0  0  0
    0.5149    2.1496   -0.4291 H   0  0  0  0  0  0  0  0  0  0  0  0
    2.0627    2.1613   -1.8699 N   0  3  0  0  0  0  0  0  0  0  0  0
    2.7808    1.4401   -1.9335 H   0  0  0  0  0  0  0  0  0  0  0  0
    2.3882    3.3996   -2.1013 C   0  0  0  0  0  0  0  0  0  0  0  0
    1.4825    4.4271   -1.9676 N   0  0  0  0  0  0  0  0  0  0  0  0
    0.5989    4.2216   -1.5064 H   0  0  0  0  0  0  0  0  0  0  0  0
    1.8345    5.3812   -1.9214 H   0  0  0  0  0  0  0  0  0  0  0  0
    3.6730    3.6981   -2.4869 N   0  0  0  0  0  0  0  0  0  0  0  0
    4.3007    2.9364   -2.7372 H   0  0  0  0  0  0  0  0  0  0  0  0
    3.8694    4.6240   -2.8623 H   0  0  0  0  0  0  0  0  0  0  0  0
    0.2496   -1.3439    1.4888 C   0  0  0  0  0  0  0  0  0  0  0  0
    1.4562   -1.1525    1.5811 O   0  0  0  0  0  0  0  0  0  0  0  0
   -0.5667   -0.9619    2.5382 N   0  0  0  0  0  0  0  0  0  0  0  0
   -1.5425   -1.2315    2.4546 H   0  0  0  0  0  0  0  0  0  0  0  0
   -0.0423   -0.6898    3.8725 C   0  0  0  0  0  0  0  0  0  0  0  0
    0.6601    0.1499    3.8469 H   0  0  0  0  0  0  0  0  0  0  0  0
   -0.8573   -0.4345    4.5567 H   0  0  0  0  0  0  0  0  0  0  0  0
    0.4776   -1.5702    4.2657 H   0  0  0  0  0  0  0  0  0  0  0  0
  1  2  1  0  0  0  0
  2  3  1  0  0  0  0
  2  4  1  0  0  0  0
  2  5  1  0  0  0  0
  5  6  2  0  0  0  0
  5  7  1  0  0  0  0
  7  8  1  0  0  0  0
  7  9  1  0  0  0  0
  9 10  1  0  0  0  0
  9 11  1  0  0  0  0
  9 29  1  0  0  0  0
 11 12  1  0  0  0  0
 11 13  1  0  0  0  0
 11 14  1  0  0  0  0
 14 15  1  0  0  0  0
 14 16  1  0  0  0  0
 14 17  1  0  0  0  0
 17 18  1  0  0  0  0
 17 19  1  0  0  0  0
 17 20  1  0  0  0  0
 20 21  1  0  0  0  0
 20 22  2  0  0  0  0
 22 23  1  0  0  0  0
 22 26  1  0  0  0  0
 23 24  1  0  0  0  0
 23 25  1  0  0  0  0
 26 27  1  0  0  0  0
 26 28  1  0  0  0  0
 29 30  2  0  0  0  0
 29 31  1  0  0  0  0
 31 32  1  0  0  0  0
 31 33  1  0  0  0  0
 33 34  1  0  0  0  0
 33 35  1  0  0  0  0
 33 36  1  0  0  0  0
M  CHG  1  20   1
M  END
$$$$

  -OEChem-04042215563D

 36 35  0     1  0  0  0  0  0999 V2000
   -2.8015   -5.4817    0.9822 H   0  0  0  0  0  0  0  0  0  0  0  0
   -2.9239   -4.5147    0.4856 C   0  0  0  0  0  0  0  0  0  0  0  0
   -3.7506   -3.9801    0.9591 H   0  0  0  0  0  0  0  0  0  0  0  0
   -3.1641   -4.6886   -0.5660 H   0  0  0  0  0  0  0  0  0  0  0  0
   -1.6461   -3.7056    0.6004 C   0  0  0  0  0  0  0  0  0  0  0  0
   -0.6711   -4.1790    1.1556 O   0  0  0  0  0  0  0  0  0  0  0  0
   -1.5880   -2.4222    0.0887 N   0  0  0  0  0  0  0  0  0  0  0  0
   -2.4036   -2.0963   -0.4227 H   0  0  0  0  0  0  0  0  0  0  0  0
   -0.3609   -1.6047    0.0678 C   0  0  1  0  0  0  0  0  0  0  0  0
    0.3812   -2.1937   -0.4837 H   0  0  0  0  0  0  0  0  0  0  0  0
   -0.6035   -0.2857   -0.6922 C   0  0  0  0  0  0  0  0  0  0  0  0
   -1.3603   -0.4356   -1.4695 H   0  0  0  0  0  0  0  0  0  0  0  0
   -0.9981    0.4633    0.0034 H   0  0  0  0  0  0  0  0  0  0  0  0
    0.6915    0.2127   -1.3665 C   0  0  0  0  0  0  0  0  0  0  0  0
    1.5600   -0.3141   -0.9559 H   0  0  0  0  0  0  0  0  0  0  0  0
    0.6559   -0.0039   -2.4397 H   0  0  0  0  0  0  0  0  0  0  0  0
    0.8810    1.7102   -1.1343 C   0  0  0  0  0  0  0  0  0  0  0  0
    0.1168    2.2661   -1.6886 H   0  0  0  0  0  0  0  0  0  0  0  0
    0.7618    1.9204   -0.0653 H   0  0  0  0  0  0  0  0  0  0  0  0
    2.2334    2.1039   -1.5702 N   0  3  0  0  0  0  0  0  0  0  0  0
    2.8505    1.3568   -1.8869 H   0  0  0  0  0  0  0  0  0  0  0  0
    2.7039    3.3127   -1.4680 C   0  0  0  0  0  0  0  0  0  0  0  0
    1.9420    4.3480   -0.9765 N   0  0  0  0  0  0  0  0  0  0  0  0
    1.0618    4.1110   -0.5235 H   0  0  0  0  0  0  0  0  0  0  0  0
    2.4141    5.2012   -0.6848 H   0  0  0  0  0  0  0  0  0  0  0  0
    3.9971    3.5712   -1.8559 N   0  0  0  0  0  0  0  0  0  0  0  0
    4.5141    2.8526   -2.3592 H   0  0  0  0  0  0  0  0  0  0  0  0
    4.2927    4.5397   -1.9631 H   0  0  0  0  0  0  0  0  0  0  0  0
    0.2597   -1.3128    1.4543 C   0  0  0  0  0  0  0  0  0  0  0  0
    1.4589   -1.0692    1.5252 O   0  0  0  0  0  0  0  0  0  0  0  0
   -0.5560   -0.9282    2.5031 N   0  0  0  0  0  0  0  0  0  0  0  0
   -1.5241   -1.2288    2.4343 H   0  0  0  0  0  0  0  0  0  0  0  0
   -0.0288   -0.6195    3.8281 C   0  0  0  0  0  0  0  0  0  0  0  0
    0.6577    0.2322    3.7817 H   0  0  0  0  0  0  0  0  0  0  0  0
   -0.8453   -0.3656    4.5111 H   0  0  0  0  0  0  0  0  0  0  0  0
    0.5089   -1.4823    4.2363 H   0  0  0  0  0  0  0  0  0  0  0  0
  1  2  1  0  0  0  0
  2  3  1  0  0  0  0
  2  4  1  0  0  0  0
  2  5  1  0  0  0  0
  5  6  2  0  0  0  0
  5  7  1  0  0  0  0
  7  8  1  0  0  0  0
  7  9  1  0  0  0  0
  9 10  1  0  0  0  0
  9 11  1  0  0  0  0
  9 29  1  0  0  0  0
 11 12  1  0  0  0  0
 11 13  1  0  0  0  0
 11 14  1  0  0  0  0
 14 15  1  0  0  0  0
 14 16  1  0  0  0  0
 14 17  1  0  0  0  0
 17 18  1  0  0  0  0
 17 19  1  0  0  0  0
 17 20  1  0  0  0  0
 20 21  1  0  0  0  0
 20 22  2  0  0  0  0
 22 23  1  0  0  0  0
 22 26  1  0  0  0  0
 23 24  1  0  0  0  0
 23 25  1  0  0  0  0
 26 27  1  0  0  0  0
 26 28  1  0  0  0  0
 29 30  2  0  0  0  0
 29 31  1  0  0  0  0
 31 32  1  0  0  0  0
 31 33  1  0  0  0  0
 33 34  1  0  0  0  0
 33 35  1  0  0  0  0
 33 36  1  0  0  0  0
M  CHG  1  20   1
M  END
$$$$

  -OEChem-04042215563D

 36 35  0     1  0  0  0  0  0999 V2000
   -2.1267   -5.4734    1.2789 H   0  0  0  0  0  0  0  0  0  0  0  0
   -2.4084   -4.5754    0.7214 C   0  0  0  0  0  0  0  0  0  0  0  0
   -3.3161   -4.1582    1.1638 H   0  0  0  0  0  0  0  0  0  0  0  0
   -2.6105   -4.8560   -0.3151 H   0  0  0  0  0  0  0  0  0  0  0  0
   -1.2866   -3.5564    0.7760 C   0  0  0  0  0  0  0  0  0  0  0  0
   -0.2748   -3.7904    1.4132 O   0  0  0  0  0  0  0  0  0  0  0  0
   -1.4088   -2.3477    0.1156 N   0  0  0  0  0  0  0  0  0  0  0  0
   -2.2362   -2.2224   -0.4623 H   0  0  0  0  0  0  0  0  0  0  0  0
   -0.3206   -1.3583    0.0254 C   0  0  1  0  0  0  0  0  0  0  0  0
    0.5170   -1.8945   -0.4353 H   0  0  0  0  0  0  0  0  0  0  0  0
   -0.7143   -0.1786   -0.8832 C   0  0  0  0  0  0  0  0  0  0  0  0
   -1.3908   -0.5389   -1.6655 H   0  0  0  0  0  0  0  0  0  0  0  0
   -1.2644    0.5752   -0.3085 H   0  0  0  0  0  0  0  0  0  0  0  0
    0.5282    0.4255   -1.5712 C   0  0  0  0  0  0  0  0  0  0  0  0
    1.4358   -0.1237   -1.2987 H   0  0  0  0  0  0  0  0  0  0  0  0
    0.4212    0.3493   -2.6587 H   0  0  0  0  0  0  0  0  0  0  0  0
    0.6775    1.8945   -1.1746 C   0  0  0  0  0  0  0  0  0  0  0  0
   -0.0970    2.4886   -1.6727 H   0  0  0  0  0  0  0  0  0  0  0  0
    0.5262    1.9987   -0.0942 H   0  0  0  0  0  0  0  0  0  0  0  0
    2.0172    2.3940   -1.5369 N   0  3  0  0  0  0  0  0  0  0  0  0
    2.1211    2.8096   -2.4614 H   0  0  0  0  0  0  0  0  0  0  0  0
    3.0424    2.3715   -0.7305 C   0  0  0  0  0  0  0  0  0  0  0  0
    2.9919    1.8100    0.5253 N   0  0  0  0  0  0  0  0  0  0  0  0
    2.2187    1.1681    0.7331 H   0  0  0  0  0  0  0  0  0  0  0  0
    3.8691    1.6223    1.0035 H   0  0  0  0  0  0  0  0  0  0  0  0
    4.2296    2.9304   -1.1390 N   0  0  0  0  0  0  0  0  0  0  0  0
    4.2337    3.5133   -1.9732 H   0  0  0  0  0  0  0  0  0  0  0  0
    4.9487    3.0962   -0.4373 H   0  0  0  0  0  0  0  0  0  0  0  0
    0.2029   -0.8089    1.3729 C   0  0  0  0  0  0  0  0  0  0  0  0
    1.3359   -0.3330    1.4105 O   0  0  0  0  0  0  0  0  0  0  0  0
   -0.6937   -0.4314    2.3552 N   0  0  0  0  0  0  0  0  0  0  0  0
   -1.6030   -0.8853    2.3159 H   0  0  0  0  0  0  0  0  0  0  0  0
   -0.2766    0.1548    3.6251 C   0  0  0  0  0  0  0  0  0  0  0  0
    0.2365    1.1082    3.4613 H   0  0  0  0  0  0  0  0  0  0  0  0
   -1.1482    0.3406    4.2606 H   0  0  0  0  0  0  0  0  0  0  0  0
    0.4000   -0.5235    4.1563 H   0  0  0  0  0  0  0  0  0  0  0  0
  1  2  1  0  0  0  0
  2  3  1  0  0  0  0
  2  4  1  0  0  0  0
  2  5  1  0  0  0  0
  5  6  2  0  0  0  0
  5  7  1  0  0  0  0
  7  8  1  0  0  0  0
  7  9  1  0  0  0  0
  9 10  1  0  0  0  0
  9 11  1  0  0  0  0
  9 29  1  0  0  0  0
 11 12  1  0  0  0  0
 11 13  1  0  0  0  0
 11 14  1  0  0  0  0
 14 15  1  0  0  0  0
 14 16  1  0  0  0  0
 14 17  1  0  0  0  0
 17 18  1  0  0  0  0
 17 19  1  0  0  0  0
 17 20  1  0  0  0  0
 20 21  1  0  0  0  0
 20 22  2  0  0  0  0
 22 23  1  0  0  0  0
 22 26  1  0  0  0  0
 23 24  1  0  0  0  0
 23 25  1  0  0  0  0
 26 27  1  0  0  0  0
 26 28  1  0  0  0  0
 29 30  2  0  0  0  0
 29 31  1  0  0  0  0
 31 32  1  0  0  0  0
 31 33  1  0  0  0  0
 33 34  1  0  0  0  0
 33 35  1  0  0  0  0
 33 36  1  0  0  0  0
M  CHG  1  20   1
M  END
$$$$

  -OEChem-04042215563D

 36 35  0     1  0  0  0  0  0999 V2000
   -2.0584   -5.5324    1.2013 H   0  0  0  0  0  0  0  0  0  0  0  0
   -2.3259   -4.6308    0.6424 C   0  0  0  0  0  0  0  0  0  0  0  0
   -3.2572   -4.2299    1.0493 H   0  0  0  0  0  0  0  0  0  0  0  0
   -2.4791   -4.9009   -0.4053 H   0  0  0  0  0  0  0  0  0  0  0  0
   -1.2196   -3.5997    0.7578 C   0  0  0  0  0  0  0  0  0  0  0  0
   -0.2210   -3.8420    1.4128 O   0  0  0  0  0  0  0  0  0  0  0  0
   -1.3382   -2.3748    0.1268 N   0  0  0  0  0  0  0  0  0  0  0  0
   -2.1543   -2.2401   -0.4648 H   0  0  0  0  0  0  0  0  0  0  0  0
   -0.2601   -1.3708    0.0936 C   0  0  1  0  0  0  0  0  0  0  0  0
    0.5989   -1.8845   -0.3527 H   0  0  0  0  0  0  0  0  0  0  0  0
   -0.6505   -0.1794   -0.8043 C   0  0  0  0  0  0  0  0  0  0  0  0
   -1.2884   -0.5509   -1.6135 H   0  0  0  0  0  0  0  0  0  0  0  0
   -1.2407    0.5540   -0.2430 H   0  0  0  0  0  0  0  0  0  0  0  0
    0.5897    0.4704   -1.4519 C   0  0  0  0  0  0  0  0  0  0  0  0
    1.4529   -0.2025   -1.4118 H   0  0  0  0  0  0  0  0  0  0  0  0
    0.3837    0.6686   -2.5093 H   0  0  0  0  0  0  0  0  0  0  0  0
    0.9168    1.7945   -0.7568 C   0  0  0  0  0  0  0  0  0  0  0  0
    0.1545    2.5386   -1.0130 H   0  0  0  0  0  0  0  0  0  0  0  0
    0.8871    1.6590    0.3298 H   0  0  0  0  0  0  0  0  0  0  0  0
    2.2505    2.2726   -1.1684 N   0  3  0  0  0  0  0  0  0  0  0  0
    2.3089    2.7684   -2.0564 H   0  0  0  0  0  0  0  0  0  0  0  0
    3.3330    2.1122   -0.4586 C   0  0  0  0  0  0  0  0  0  0  0  0
    3.3451    1.4430    0.7432 N   0  0  0  0  0  0  0  0  0  0  0  0
    2.5258    0.8751    0.9875 H   0  0  0  0  0  0  0  0  0  0  0  0
    4.2383    1.1395    1.1215 H   0  0  0  0  0  0  0  0  0  0  0  0
    4.5203    2.6287   -0.9197 N   0  0  0  0  0  0  0  0  0  0  0  0
    4.4988    3.2862   -1.6961 H   0  0  0  0  0  0  0  0  0  0  0  0
    5.3052    2.6791   -0.2730 H   0  0  0  0  0  0  0  0  0  0  0  0
    0.2139   -0.8565    1.4709 C   0  0  0  0  0  0  0  0  0  0  0  0
    1.3560   -0.4146    1.5728 O   0  0  0  0  0  0  0  0  0  0  0  0
   -0.7156   -0.5180    2.4360 N   0  0  0  0  0  0  0  0  0  0  0  0
   -1.6285   -0.9553    2.3395 H   0  0  0  0  0  0  0  0  0  0  0  0
   -0.3441    0.0087    3.7448 C   0  0  0  0  0  0  0  0  0  0  0  0
    0.1847    0.9620    3.6423 H   0  0  0  0  0  0  0  0  0  0  0  0
   -1.2388    0.1769    4.3525 H   0  0  0  0  0  0  0  0  0  0  0  0
    0.3038   -0.6994    4.2727 H   0  0  0  0  0  0  0  0  0  0  0  0
  1  2  1  0  0  0  0
  2  3  1  0  0  0  0
  2  4  1  0  0  0  0
  2  5  1  0  0  0  0
  5  6  2  0  0  0  0
  5  7  1  0  0  0  0
  7  8  1  0  0  0  0
  7  9  1  0  0  0  0
  9 10  1  0  0  0  0
  9 11  1  0  0  0  0
  9 29  1  0  0  0  0
 11 12  1  0  0  0  0
 11 13  1  0  0  0  0
 11 14  1  0  0  0  0
 14 15  1  0  0  0  0
 14 16  1  0  0  0  0
 14 17  1  0  0  0  0
 17 18  1  0  0  0  0
 17 19  1  0  0  0  0
 17 20  1  0  0  0  0
 20 21  1  0  0  0  0
 20 22  2  0  0  0  0
 22 23  1  0  0  0  0
 22 26  1  0  0  0  0
 23 24  1  0  0  0  0
 23 25  1  0  0  0  0
 26 27  1  0  0  0  0
 26 28  1  0  0  0  0
 29 30  2  0  0  0  0
 29 31  1  0  0  0  0
 31 32  1  0  0  0  0
 31 33  1  0  0  0  0
 33 34  1  0  0  0  0
 33 35  1  0  0  0  0
 33 36  1  0  0  0  0
M  CHG  1  20   1
M  END
$$$$

  -OEChem-04042215563D

 36 35  0     1  0  0  0  0  0999 V2000
   -2.1165   -5.5252    1.1319 H   0  0  0  0  0  0  0  0  0  0  0  0
   -2.3512   -4.6091    0.5817 C   0  0  0  0  0  0  0  0  0  0  0  0
   -3.2722   -4.1834    0.9868 H   0  0  0  0  0  0  0  0  0  0  0  0
   -2.5056   -4.8629   -0.4698 H   0  0  0  0  0  0  0  0  0  0  0  0
   -1.2134   -3.6147    0.7157 C   0  0  0  0  0  0  0  0  0  0  0  0
   -0.2133   -3.9085    1.3468 O   0  0  0  0  0  0  0  0  0  0  0  0
   -1.3034   -2.3672    0.1251 N   0  0  0  0  0  0  0  0  0  0  0  0
   -2.1248   -2.1875   -0.4469 H   0  0  0  0  0  0  0  0  0  0  0  0
   -0.2077   -1.3810    0.1325 C   0  0  1  0  0  0  0  0  0  0  0  0
    0.6529   -1.8849   -0.3214 H   0  0  0  0  0  0  0  0  0  0  0  0
   -0.5957   -0.1755   -0.7534 C   0  0  0  0  0  0  0  0  0  0  0  0
   -1.2300   -0.5395   -1.5689 H   0  0  0  0  0  0  0  0  0  0  0  0
   -1.1885    0.5485   -0.1835 H   0  0  0  0  0  0  0  0  0  0  0  0
    0.6274    0.5047   -1.3992 C   0  0  0  0  0  0  0  0  0  0  0  0
    1.4018   -0.2398   -1.6128 H   0  0  0  0  0  0  0  0  0  0  0  0
    0.3298    0.9460   -2.3566 H   0  0  0  0  0  0  0  0  0  0  0  0
    1.1848    1.6169   -0.5035 C   0  0  0  0  0  0  0  0  0  0  0  0
    0.5246    2.4896   -0.5600 H   0  0  0  0  0  0  0  0  0  0  0  0
    1.1954    1.2930    0.5396 H   0  0  0  0  0  0  0  0  0  0  0  0
    2.5465    1.9873   -0.9337 N   0  3  0  0  0  0  0  0  0  0  0  0
    2.6292    2.4992   -1.8104 H   0  0  0  0  0  0  0  0  0  0  0  0
    3.6255    1.7218   -0.2507 C   0  0  0  0  0  0  0  0  0  0  0  0
    3.6072    1.0274    0.9365 N   0  0  0  0  0  0  0  0  0  0  0  0
    2.7453    0.5315    1.1904 H   0  0  0  0  0  0  0  0  0  0  0  0
    4.4779    0.6353    1.2845 H   0  0  0  0  0  0  0  0  0  0  0  0
    4.8416    2.1512   -0.7252 N   0  0  0  0  0  0  0  0  0  0  0  0
    4.8569    2.8321   -1.4813 H   0  0  0  0  0  0  0  0  0  0  0  0
    5.6383    2.1254   -0.0916 H   0  0  0  0  0  0  0  0  0  0  0  0
    0.2488   -0.9335    1.5389 C   0  0  0  0  0  0  0  0  0  0  0  0
    1.4213   -0.6110    1.7112 O   0  0  0  0  0  0  0  0  0  0  0  0
   -0.6847   -0.6165    2.5072 N   0  0  0  0  0  0  0  0  0  0  0  0
   -1.6209   -0.9832    2.3559 H   0  0  0  0  0  0  0  0  0  0  0  0
   -0.3157   -0.2153    3.8608 C   0  0  0  0  0  0  0  0  0  0  0  0
    0.2737    0.7074    3.8439 H   0  0  0  0  0  0  0  0  0  0  0  0
   -1.2138   -0.0369    4.4606 H   0  0  0  0  0  0  0  0  0  0  0  0
    0.2733   -1.0014    4.3457 H   0  0  0  0  0  0  0  0  0  0  0  0
  1  2  1  0  0  0  0
  2  3  1  0  0  0  0
  2  4  1  0  0  0  0
  2  5  1  0  0  0  0
  5  6  2  0  0  0  0
  5  7  1  0  0  0  0
  7  8  1  0  0  0  0
  7  9  1  0  0  0  0
  9 10  1  0  0  0  0
  9 11  1  0  0  0  0
  9 29  1  0  0  0  0
 11 12  1  0  0  0  0
 11 13  1  0  0  0  0
 11 14  1  0  0  0  0
 14 15  1  0  0  0  0
 14 16  1  0  0  0  0
 14 17  1  0  0  0  0
 17 18  1  0  0  0  0
 17 19  1  0  0  0  0
 17 20  1  0  0  0  0
 20 21  1  0  0  0  0
 20 22  2  0  0  0  0
 22 23  1  0  0  0  0
 22 26  1  0  0  0  0
 23 24  1  0  0  0  0
 23 25  1  0  0  0  0
 26 27  1  0  0  0  0
 26 28  1  0  0  0  0
 29 30  2  0  0  0  0
 29 31  1  0  0  0  0
 31 32  1  0  0  0  0
 31 33  1  0  0  0  0
 33 34  1  0  0  0  0
 33 35  1  0  0  0  0
 33 36  1  0  0  0  0
M  CHG  1  20   1
M  END
$$$$

  -OEChem-04042215563D

 36 35  0     1  0  0  0  0  0999 V2000
   -2.0394   -5.5711    1.0192 H   0  0  0  0  0  0  0  0  0  0  0  0
   -2.2729   -4.6374    0.4993 C   0  0  0  0  0  0  0  0  0  0  0  0
   -3.1954   -4.2261    0.9153 H   0  0  0  0  0  0  0  0  0  0  0  0
   -2.4235   -4.8554   -0.5607 H   0  0  0  0  0  0  0  0  0  0  0  0
   -1.1357   -3.6486    0.6711 C   0  0  0  0  0  0  0  0  0  0  0  0
   -0.1355   -3.9676    1.2895 O   0  0  0  0  0  0  0  0  0  0  0  0
   -1.2188   -2.3855    0.1129 N   0  0  0  0  0  0  0  0  0  0  0  0
   -2.0417   -2.1837   -0.4496 H   0  0  0  0  0  0  0  0  0  0  0  0
   -0.1315   -1.3910    0.1753 C   0  0  1  0  0  0  0  0  0  0  0  0
    0.7526   -1.8601   -0.2708 H   0  0  0  0  0  0  0  0  0  0  0  0
   -0.5366   -0.1798   -0.7003 C   0  0  0  0  0  0  0  0  0  0  0  0
   -1.1603   -0.5401   -1.5259 H   0  0  0  0  0  0  0  0  0  0  0  0
   -1.1469    0.5174   -0.1154 H   0  0  0  0  0  0  0  0  0  0  0  0
    0.6566    0.5653   -1.3326 C   0  0  0  0  0  0  0  0  0  0  0  0
    1.3302   -0.1745   -1.7791 H   0  0  0  0  0  0  0  0  0  0  0  0
    0.2907    1.2032   -2.1445 H   0  0  0  0  0  0  0  0  0  0  0  0
    1.4300    1.4412   -0.3390 C   0  0  0  0  0  0  0  0  0  0  0  0
    0.9181    2.4051   -0.2420 H   0  0  0  0  0  0  0  0  0  0  0  0
    1.4356    0.9899    0.6507 H   0  0  0  0  0  0  0  0  0  0  0  0
    2.8136    1.6514   -0.8073 N   0  3  0  0  0  0  0  0  0  0  0  0
    2.9319    2.1660   -1.6783 H   0  0  0  0  0  0  0  0  0  0  0  0
    3.8729    1.2362   -0.1690 C   0  0  0  0  0  0  0  0  0  0  0  0
    3.8101    0.5317    1.0110 N   0  0  0  0  0  0  0  0  0  0  0  0
    2.9000    0.1619    1.3077 H   0  0  0  0  0  0  0  0  0  0  0  0
    4.6342    0.0244    1.3221 H   0  0  0  0  0  0  0  0  0  0  0  0
    5.1166    1.5082   -0.6873 N   0  0  0  0  0  0  0  0  0  0  0  0
    5.1948    2.1886   -1.4400 H   0  0  0  0  0  0  0  0  0  0  0  0
    5.9267    1.3673   -0.0864 H   0  0  0  0  0  0  0  0  0  0  0  0
    0.2606   -0.9990    1.6190 C   0  0  0  0  0  0  0  0  0  0  0  0
    1.4373   -0.7714    1.8856 O   0  0  0  0  0  0  0  0  0  0  0  0
   -0.7142   -0.7280    2.5603 N   0  0  0  0  0  0  0  0  0  0  0  0
   -1.6548   -1.0394    2.3335 H   0  0  0  0  0  0  0  0  0  0  0  0
   -0.4097   -0.4098    3.9513 C   0  0  0  0  0  0  0  0  0  0  0  0
    0.1869    0.5060    4.0164 H   0  0  0  0  0  0  0  0  0  0  0  0
   -1.3349   -0.2568    4.5156 H   0  0  0  0  0  0  0  0  0  0  0  0
    0.1484   -1.2283    4.4187 H   0  0  0  0  0  0  0  0  0  0  0  0
  1  2  1  0  0  0  0
  2  3  1  0  0  0  0
  2  4  1  0  0  0  0
  2  5  1  0  0  0  0
  5  6  2  0  0  0  0
  5  7  1  0  0  0  0
  7  8  1  0  0  0  0
  7  9  1  0  0  0  0
  9 10  1  0  0  0  0
  9 11  1  0  0  0  0
  9 29  1  0  0  0  0
 11 12  1  0  0  0  0
 11 13  1  0  0  0  0
 11 14  1  0  0  0  0
 14 15  1  0  0  0  0
 14 16  1  0  0  0  0
 14 17  1  0  0  0  0
 17 18  1  0  0  0  0
 17 19  1  0  0  0  0
 17 20  1  0  0  0  0
 20 21  1  0  0  0  0
 20 22  2  0  0  0  0
 22 23  1  0  0  0  0
 22 26  1  0  0  0  0
 23 24  1  0  0  0  0
 23 25  1  0  0  0  0
 26 27  1  0  0  0  0
 26 28  1  0  0  0  0
 29 30  2  0  0  0  0
 29 31  1  0  0  0  0
 31 32  1  0  0  0  0
 31 33  1  0  0  0  0
 33 34  1  0  0  0  0
 33 35  1  0  0  0  0
 33 36  1  0  0  0  0
M  CHG  1  20   1
M  END
$$$$

  -OEChem-04042215563D

 36 35  0     1  0  0  0  0  0999 V2000
   -2.0277   -5.5682    0.9474 H   0  0  0  0  0  0  0  0  0  0  0  0
   -2.2542   -4.6146    0.4613 C   0  0  0  0  0  0  0  0  0  0  0  0
   -3.1570   -4.1969    0.9128 H   0  0  0  0  0  0  0  0  0  0  0  0
   -2.4361   -4.7973   -0.6004 H   0  0  0  0  0  0  0  0  0  0  0  0
   -1.0930   -3.6541    0.6327 C   0  0  0  0  0  0  0  0  0  0  0  0
   -0.0868   -4.0078    1.2218 O   0  0  0  0  0  0  0  0  0  0  0  0
   -1.1619   -2.3775    0.1040 N   0  0  0  0  0  0  0  0  0  0  0  0
   -1.9963   -2.1435   -0.4279 H   0  0  0  0  0  0  0  0  0  0  0  0
   -0.0724   -1.3881    0.2032 C   0  0  1  0  0  0  0  0  0  0  0  0
    0.8205   -1.8372   -0.2458 H   0  0  0  0  0  0  0  0  0  0  0  0
   -0.4836   -0.1611   -0.6503 C   0  0  0  0  0  0  0  0  0  0  0  0
   -1.1186   -0.5006   -1.4761 H   0  0  0  0  0  0  0  0  0  0  0  0
   -1.0894    0.5148   -0.0368 H   0  0  0  0  0  0  0  0  0  0  0  0
    0.6810    0.6333   -1.2824 C   0  0  0  0  0  0  0  0  0  0  0  0
    1.2114   -0.0503   -1.9549 H   0  0  0  0  0  0  0  0  0  0  0  0
    0.2713    1.4403   -1.8995 H   0  0  0  0  0  0  0  0  0  0  0  0
    1.6823    1.2362   -0.2881 C   0  0  0  0  0  0  0  0  0  0  0  0
    1.3913    2.2714   -0.0773 H   0  0  0  0  0  0  0  0  0  0  0  0
    1.6483    0.7066    0.6574 H   0  0  0  0  0  0  0  0  0  0  0  0
    3.0528    1.2041   -0.8342 N   0  3  0  0  0  0  0  0  0  0  0  0
    3.2070    1.6824   -1.7202 H   0  0  0  0  0  0  0  0  0  0  0  0
    4.0639    0.6340   -0.2388 C   0  0  0  0  0  0  0  0  0  0  0  0
    3.9550   -0.0266    0.9632 N   0  0  0  0  0  0  0  0  0  0  0  0
    3.0168   -0.2306    1.3252 H   0  0  0  0  0  0  0  0  0  0  0  0
    4.7036   -0.6521    1.2486 H   0  0  0  0  0  0  0  0  0  0  0  0
    5.3044    0.6913   -0.8277 N   0  0  0  0  0  0  0  0  0  0  0  0
    5.4495    1.3380   -1.6000 H   0  0  0  0  0  0  0  0  0  0  0  0
    6.1128    0.4309   -0.2658 H   0  0  0  0  0  0  0  0  0  0  0  0
    0.2808   -1.0496    1.6727 C   0  0  0  0  0  0  0  0  0  0  0  0
    1.4556   -0.9117    2.0007 O   0  0  0  0  0  0  0  0  0  0  0  0
   -0.7170   -0.8082    2.5982 N   0  0  0  0  0  0  0  0  0  0  0  0
   -1.6604   -1.0630    2.3195 H   0  0  0  0  0  0  0  0  0  0  0  0
   -0.4489   -0.6022    4.0177 C   0  0  0  0  0  0  0  0  0  0  0  0
    0.2055    0.2632    4.1660 H   0  0  0  0  0  0  0  0  0  0  0  0
   -1.3835   -0.4205    4.5574 H   0  0  0  0  0  0  0  0  0  0  0  0
    0.0328   -1.4866    4.4487 H   0  0  0  0  0  0  0  0  0  0  0  0
  1  2  1  0  0  0  0
  2  3  1  0  0  0  0
  2  4  1  0  0  0  0
  2  5  1  0  0  0  0
  5  6  2  0  0  0  0
  5  7  1  0  0  0  0
  7  8  1  0  0  0  0
  7  9  1  0  0  0  0
  9 10  1  0  0  0  0
  9 11  1  0  0  0  0
  9 29  1  0  0  0  0
 11 12  1  0  0  0  0
 11 13  1  0  0  0  0
 11 14  1  0  0  0  0
 14 15  1  0  0  0  0
 14 16  1  0  0  0  0
 14 17  1  0  0  0  0
 17 18  1  0  0  0  0
 17 19  1  0  0  0  0
 17 20  1  0  0  0  0
 20 21  1  0  0  0  0
 20 22  2  0  0  0  0
 22 23  1  0  0  0  0
 22 26  1  0  0  0  0
 23 24  1  0  0  0  0
 23 25  1  0  0  0  0
 26 27  1  0  0  0  0
 26 28  1  0  0  0  0
 29 30  2  0  0  0  0
 29 31  1  0  0  0  0
 31 32  1  0  0  0  0
 31 33  1  0  0  0  0
 33 34  1  0  0  0  0
 33 35  1  0  0  0  0
 33 36  1  0  0  0  0
M  CHG  1  20   1
M  END
$$$$

  -OEChem-04042215563D

 36 35  0     1  0  0  0  0  0999 V2000
   -2.8888   -5.3759    1.0198 H   0  0  0  0  0  0  0  0  0  0  0  0
   -2.9501   -4.3932    0.5429 C   0  0  0  0  0  0  0  0  0  0  0  0
   -3.7350   -3.8137    1.0344 H   0  0  0  0  0  0  0  0  0  0  0  0
   -3.2116   -4.5307   -0.5090 H   0  0  0  0  0  0  0  0  0  0  0  0
   -1.6197   -3.6740    0.6593 C   0  0  0  0  0  0  0  0  0  0  0  0
   -0.6826   -4.2077    1.2257 O   0  0  0  0  0  0  0  0  0  0  0  0
   -1.4608   -2.4119    0.1156 N   0  0  0  0  0  0  0  0  0  0  0  0
   -2.2499   -2.0311   -0.4003 H   0  0  0  0  0  0  0  0  0  0  0  0
   -0.1902   -1.6629    0.1345 C   0  0  1  0  0  0  0  0  0  0  0  0
    0.5606   -2.2863   -0.3641 H   0  0  0  0  0  0  0  0  0  0  0  0
   -0.3941   -0.3642   -0.6969 C   0  0  0  0  0  0  0  0  0  0  0  0
   -1.1469   -0.5428   -1.4724 H   0  0  0  0  0  0  0  0  0  0  0  0
   -0.7922    0.4143   -0.0368 H   0  0  0  0  0  0  0  0  0  0  0  0
    0.8717    0.1748   -1.4049 C   0  0  0  0  0  0  0  0  0  0  0  0
    1.0928   -0.4491   -2.2777 H   0  0  0  0  0  0  0  0  0  0  0  0
    0.6848    1.1948   -1.7574 H   0  0  0  0  0  0  0  0  0  0  0  0
    2.0629    0.1532   -0.4622 C   0  0  0  0  0  0  0  0  0  0  0  0
    1.7936    0.7015    0.4481 H   0  0  0  0  0  0  0  0  0  0  0  0
    2.2436   -0.8925   -0.1968 H   0  0  0  0  0  0  0  0  0  0  0  0
    3.3219    0.6904   -0.9893 N   0  3  0  0  0  0  0  0  0  0  0  0
    3.3194    1.1447   -1.9011 H   0  0  0  0  0  0  0  0  0  0  0  0
    4.4246    0.5434   -0.3103 C   0  0  0  0  0  0  0  0  0  0  0  0
    4.4298   -0.0964    0.9144 N   0  0  0  0  0  0  0  0  0  0  0  0
    3.5665   -0.5550    1.2251 H   0  0  0  0  0  0  0  0  0  0  0  0
    5.3105   -0.4380    1.2912 H   0  0  0  0  0  0  0  0  0  0  0  0
    5.6091    1.0266   -0.8120 N   0  0  0  0  0  0  0  0  0  0  0  0
    5.5784    1.6588   -1.6090 H   0  0  0  0  0  0  0  0  0  0  0  0
    6.4060    1.0920   -0.1813 H   0  0  0  0  0  0  0  0  0  0  0  0
    0.3237   -1.3917    1.5793 C   0  0  0  0  0  0  0  0  0  0  0  0
    1.5285   -1.3973    1.8320 O   0  0  0  0  0  0  0  0  0  0  0  0
   -0.5566   -0.9487    2.5487 N   0  0  0  0  0  0  0  0  0  0  0  0
   -1.5446   -1.0620    2.3397 H   0  0  0  0  0  0  0  0  0  0  0  0
   -0.1658   -0.7402    3.9387 C   0  0  0  0  0  0  0  0  0  0  0  0
    0.6337    0.0048    4.0075 H   0  0  0  0  0  0  0  0  0  0  0  0
   -1.0191   -0.3813    4.5225 H   0  0  0  0  0  0  0  0  0  0  0  0
    0.1871   -1.6778    4.3815 H   0  0  0  0  0  0  0  0  0  0  0  0
  1  2  1  0  0  0  0
  2  3  1  0  0  0  0
  2  4  1  0  0  0  0
  2  5  1  0  0  0  0
  5  6  2  0  0  0  0
  5  7  1  0  0  0  0
  7  8  1  0  0  0  0
  7  9  1  0  0  0  0
  9 10  1  0  0  0  0
  9 11  1  0  0  0  0
  9 29  1  0  0  0  0
 11 12  1  0  0  0  0
 11 13  1  0  0  0  0
 11 14  1  0  0  0  0
 14 15  1  0  0  0  0
 14 16  1  0  0  0  0
 14 17  1  0  0  0  0
 17 18  1  0  0  0  0
 17 19  1  0  0  0  0
 17 20  1  0  0  0  0
 20 21  1  0  0  0  0
 20 22  2  0  0  0  0
 22 23  1  0  0  0  0
 22 26  1  0  0  0  0
 23 24  1  0  0  0  0
 23 25  1  0  0  0  0
 26 27  1  0  0  0  0
 26 28  1  0  0  0  0
 29 30  2  0  0  0  0
 29 31  1  0  0  0  0
 31 32  1  0  0  0  0
 31 33  1  0  0  0  0
 33 34  1  0  0  0  0
 33 35  1  0  0  0  0
 33 36  1  0  0  0  0
M  CHG  1  20   1
M  END
$$$$

  -OEChem-04042215563D

 36 35  0     1  0  0  0  0  0999 V2000
   -2.9893   -5.3657    0.9443 H   0  0  0  0  0  0  0  0  0  0  0  0
   -3.0368   -4.3707    0.4923 C   0  0  0  0  0  0  0  0  0  0  0  0
   -3.8019   -3.7869    1.0092 H   0  0  0  0  0  0  0  0  0  0  0  0
   -3.3154   -4.4768   -0.5588 H   0  0  0  0  0  0  0  0  0  0  0  0
   -1.6898   -3.6833    0.6062 C   0  0  0  0  0  0  0  0  0  0  0  0
   -0.7514   -4.2577    1.1296 O   0  0  0  0  0  0  0  0  0  0  0  0
   -1.5135   -2.4074    0.1014 N   0  0  0  0  0  0  0  0  0  0  0  0
   -2.3067   -1.9854   -0.3748 H   0  0  0  0  0  0  0  0  0  0  0  0
   -0.2278   -1.6862    0.1313 C   0  0  1  0  0  0  0  0  0  0  0  0
    0.4901   -2.3299   -0.3881 H   0  0  0  0  0  0  0  0  0  0  0  0
   -0.3945   -0.3716   -0.6841 C   0  0  0  0  0  0  0  0  0  0  0  0
   -1.1573   -0.5153   -1.4569 H   0  0  0  0  0  0  0  0  0  0  0  0
   -0.7711    0.4017   -0.0056 H   0  0  0  0  0  0  0  0  0  0  0  0
    0.8781    0.1666   -1.3882 C   0  0  0  0  0  0  0  0  0  0  0  0
    0.9374   -0.2713   -2.3904 H   0  0  0  0  0  0  0  0  0  0  0  0
    0.8026    1.2533   -1.5015 H   0  0  0  0  0  0  0  0  0  0  0  0
    2.1435   -0.1985   -0.6255 C   0  0  0  0  0  0  0  0  0  0  0  0
    2.0570    0.2351    0.3771 H   0  0  0  0  0  0  0  0  0  0  0  0
    2.1873   -1.2878   -0.5260 H   0  0  0  0  0  0  0  0  0  0  0  0
    3.4102    0.2524   -1.2121 N   0  3  0  0  0  0  0  0  0  0  0  0
    3.4001    0.6722   -2.1402 H   0  0  0  0  0  0  0  0  0  0  0  0
    4.5313    0.0211   -0.5894 C   0  0  0  0  0  0  0  0  0  0  0  0
    4.5473   -0.5922    0.6484 N   0  0  0  0  0  0  0  0  0  0  0  0
    3.6643   -0.9558    1.0222 H   0  0  0  0  0  0  0  0  0  0  0  0
    5.4140   -0.9991    0.9916 H   0  0  0  0  0  0  0  0  0  0  0  0
    5.7248    0.3832   -1.1665 N   0  0  0  0  0  0  0  0  0  0  0  0
    5.7082    0.9977   -1.9777 H   0  0  0  0  0  0  0  0  0  0  0  0
    6.5605    0.3823   -0.5844 H   0  0  0  0  0  0  0  0  0  0  0  0
    0.3245   -1.4621    1.5674 C   0  0  0  0  0  0  0  0  0  0  0  0
    1.5347   -1.5198    1.7852 O   0  0  0  0  0  0  0  0  0  0  0  0
   -0.5198   -1.0259    2.5713 N   0  0  0  0  0  0  0  0  0  0  0  0
   -1.5160   -1.0997    2.3839 H   0  0  0  0  0  0  0  0  0  0  0  0
   -0.0879   -0.8581    3.9547 C   0  0  0  0  0  0  0  0  0  0  0  0
    0.7213   -0.1232    4.0199 H   0  0  0  0  0  0  0  0  0  0  0  0
   -0.9206   -0.5062    4.5718 H   0  0  0  0  0  0  0  0  0  0  0  0
    0.2670   -1.8108    4.3625 H   0  0  0  0  0  0  0  0  0  0  0  0
  1  2  1  0  0  0  0
  2  3  1  0  0  0  0
  2  4  1  0  0  0  0
  2  5  1  0  0  0  0
  5  6  2  0  0  0  0
  5  7  1  0  0  0  0
  7  8  1  0  0  0  0
  7  9  1  0  0  0  0
  9 10  1  0  0  0  0
  9 11  1  0  0  0  0
  9 29  1  0  0  0  0
 11 12  1  0  0  0  0
 11 13  1  0  0  0  0
 11 14  1  0  0  0  0
 14 15  1  0  0  0  0
 14 16  1  0  0  0  0
 14 17  1  0  0  0  0
 17 18  1  0  0  0  0
 17 19  1  0  0  0  0
 17 20  1  0  0  0  0
 20 21  1  0  0  0  0
 20 22  2  0  0  0  0
 22 23  1  0  0  0  0
 22 26  1  0  0  0  0
 23 24  1  0  0  0  0
 23 25  1  0  0  0  0
 26 27  1  0  0  0  0
 26 28  1  0  0  0  0
 29 30  2  0  0  0  0
 29 31  1  0  0  0  0
 31 32  1  0  0  0  0
 31 33  1  0  0  0  0
 33 34  1  0  0  0  0
 33 35  1  0  0  0  0
 33 36  1  0  0  0  0
M  CHG  1  20   1
M  END
$$$$

  -OEChem-04042215563D

 36 35  0     1  0  0  0  0  0999 V2000
   -3.2676   -5.2473    0.9710 H   0  0  0  0  0  0  0  0  0  0  0  0
   -3.2541   -4.2506    0.5200 C   0  0  0  0  0  0  0  0  0  0  0  0
   -3.9582   -3.6126    1.0593 H   0  0  0  0  0  0  0  0  0  0  0  0
   -3.5708   -4.3336   -0.5224 H   0  0  0  0  0  0  0  0  0  0  0  0
   -1.8569   -3.6657    0.5942 C   0  0  0  0  0  0  0  0  0  0  0  0
   -0.9477   -4.3133    1.0823 O   0  0  0  0  0  0  0  0  0  0  0  0
   -1.6031   -2.3999    0.0979 N   0  0  0  0  0  0  0  0  0  0  0  0
   -2.3779   -1.9140   -0.3465 H   0  0  0  0  0  0  0  0  0  0  0  0
   -0.2683   -1.7733    0.0991 C   0  0  1  0  0  0  0  0  0  0  0  0
    0.3821   -2.4637   -0.4471 H   0  0  0  0  0  0  0  0  0  0  0  0
   -0.3630   -0.4345   -0.6866 C   0  0  0  0  0  0  0  0  0  0  0  0
   -1.1577   -0.5170   -1.4362 H   0  0  0  0  0  0  0  0  0  0  0  0
   -0.6725    0.3485    0.0145 H   0  0  0  0  0  0  0  0  0  0  0  0
    0.9134    0.0463   -1.4301 C   0  0  0  0  0  0  0  0  0  0  0  0
    0.7792   -0.1194   -2.5044 H   0  0  0  0  0  0  0  0  0  0  0  0
    1.0298    1.1242   -1.2732 H   0  0  0  0  0  0  0  0  0  0  0  0
    2.1798   -0.6766   -0.9854 C   0  0  0  0  0  0  0  0  0  0  0  0
    2.2436   -0.5576    0.0953 H   0  0  0  0  0  0  0  0  0  0  0  0
    2.0970   -1.7428   -1.2227 H   0  0  0  0  0  0  0  0  0  0  0  0
    3.4280   -0.1441   -1.5464 N   0  3  0  0  0  0  0  0  0  0  0  0
    3.3865    0.3696   -2.4251 H   0  0  0  0  0  0  0  0  0  0  0  0
    4.5652   -0.3425   -0.9408 C   0  0  0  0  0  0  0  0  0  0  0  0
    4.6358   -1.0422    0.2479 N   0  0  0  0  0  0  0  0  0  0  0  0
    3.7612   -1.3001    0.7148 H   0  0  0  0  0  0  0  0  0  0  0  0
    5.4791   -0.9816    0.8132 H   0  0  0  0  0  0  0  0  0  0  0  0
    5.7262    0.1492   -1.4878 N   0  0  0  0  0  0  0  0  0  0  0  0
    5.7071    0.4900   -2.4465 H   0  0  0  0  0  0  0  0  0  0  0  0
    6.6126   -0.1919   -1.1207 H   0  0  0  0  0  0  0  0  0  0  0  0
    0.3412   -1.6055    1.5179 C   0  0  0  0  0  0  0  0  0  0  0  0
    1.5491   -1.7513    1.6965 O   0  0  0  0  0  0  0  0  0  0  0  0
   -0.4394   -1.1215    2.5512 N   0  0  0  0  0  0  0  0  0  0  0  0
   -1.4433   -1.1251    2.3941 H   0  0  0  0  0  0  0  0  0  0  0  0
    0.0440   -1.0034    3.9226 C   0  0  0  0  0  0  0  0  0  0  0  0
    0.9081   -0.3324    3.9712 H   0  0  0  0  0  0  0  0  0  0  0  0
   -0.7419   -0.5967    4.5669 H   0  0  0  0  0  0  0  0  0  0  0  0
    0.3374   -1.9848    4.3110 H   0  0  0  0  0  0  0  0  0  0  0  0
  1  2  1  0  0  0  0
  2  3  1  0  0  0  0
  2  4  1  0  0  0  0
  2  5  1  0  0  0  0
  5  6  2  0  0  0  0
  5  7  1  0  0  0  0
  7  8  1  0  0  0  0
  7  9  1  0  0  0  0
  9 10  1  0  0  0  0
  9 11  1  0  0  0  0
  9 29  1  0  0  0  0
 11 12  1  0  0  0  0
 11 13  1  0  0  0  0
 11 14  1  0  0  0  0
 14 15  1  0  0  0  0
 14 16  1  0  0  0  0
 14 17  1  0  0  0  0
 17 18  1  0  0  0  0
 17 19  1  0  0  0  0
 17 20  1  0  0  0  0
 20 21  1  0  0  0  0
 20 22  2  0  0  0  0
 22 23  1  0  0  0  0
 22 26  1  0  0  0  0
 23 24  1  0  0  0  0
 23 25  1  0  0  0  0
 26 27  1  0  0  0  0
 26 28  1  0  0  0  0
 29 30  2  0  0  0  0
 29 31  1  0  0  0  0
 31 32  1  0  0  0  0
 31 33  1  0  0  0  0
 33 34  1  0  0  0  0
 33 35  1  0  0  0  0
 33 36  1  0  0  0  0
M  CHG  1  20   1
M  END
$$$$

  -OEChem-04042215563D

 36 35  0     1  0  0  0  0  0999 V2000
   -3.5057   -5.0583    1.1651 H   0  0  0  0  0  0  0  0  0  0  0  0
   -3.4542   -4.0508    0.7419 C   0  0  0  0  0  0  0  0  0  0  0  0
   -4.0270   -3.3735    1.3796 H   0  0  0  0  0  0  0  0  0  0  0  0
   -3.9001   -4.0671   -0.2555 H   0  0  0  0  0  0  0  0  0  0  0  0
   -2.0102   -3.5944    0.6606 C   0  0  0  0  0  0  0  0  0  0  0  0
   -1.1162   -4.3150    1.0685 O   0  0  0  0  0  0  0  0  0  0  0  0
   -1.6955   -2.3608    0.1192 N   0  0  0  0  0  0  0  0  0  0  0  0
   -2.4632   -1.8158   -0.2655 H   0  0  0  0  0  0  0  0  0  0  0  0
   -0.3143   -1.8726   -0.0498 C   0  0  1  0  0  0  0  0  0  0  0  0
    0.1887   -2.6171   -0.6744 H   0  0  0  0  0  0  0  0  0  0  0  0
   -0.3290   -0.5033   -0.7699 C   0  0  0  0  0  0  0  0  0  0  0  0
   -1.2056   -0.4777   -1.4262 H   0  0  0  0  0  0  0  0  0  0  0  0
   -0.4736    0.2901   -0.0281 H   0  0  0  0  0  0  0  0  0  0  0  0
    0.8957   -0.1501   -1.6573 C   0  0  0  0  0  0  0  0  0  0  0  0
    0.5518    0.0782   -2.6720 H   0  0  0  0  0  0  0  0  0  0  0  0
    1.3225    0.7734   -1.2505 H   0  0  0  0  0  0  0  0  0  0  0  0
    2.0155   -1.2009   -1.7438 C   0  0  0  0  0  0  0  0  0  0  0  0
    2.0547   -1.7973   -0.8344 H   0  0  0  0  0  0  0  0  0  0  0  0
    1.7917   -1.8911   -2.5650 H   0  0  0  0  0  0  0  0  0  0  0  0
    3.3279   -0.5653   -1.9648 N   0  3  0  0  0  0  0  0  0  0  0  0
    3.4605   -0.0670   -2.8432 H   0  0  0  0  0  0  0  0  0  0  0  0
    4.3204   -0.6498   -1.1226 C   0  0  0  0  0  0  0  0  0  0  0  0
    4.2214   -1.3027    0.0853 N   0  0  0  0  0  0  0  0  0  0  0  0
    3.2882   -1.5717    0.4182 H   0  0  0  0  0  0  0  0  0  0  0  0
    4.9345   -1.1414    0.7910 H   0  0  0  0  0  0  0  0  0  0  0  0
    5.5237   -0.0680   -1.4432 N   0  0  0  0  0  0  0  0  0  0  0  0
    5.6803    0.2262   -2.4046 H   0  0  0  0  0  0  0  0  0  0  0  0
    6.3377   -0.3175   -0.8847 H   0  0  0  0  0  0  0  0  0  0  0  0
    0.4711   -1.7677    1.2839 C   0  0  0  0  0  0  0  0  0  0  0  0
    1.6921   -1.9019    1.2893 O   0  0  0  0  0  0  0  0  0  0  0  0
   -0.1332   -1.2078    2.3943 N   0  0  0  0  0  0  0  0  0  0  0  0
   -1.1489   -1.1735    2.3788 H   0  0  0  0  0  0  0  0  0  0  0  0
    0.5412   -1.0603    3.6796 C   0  0  0  0  0  0  0  0  0  0  0  0
    1.3969   -0.3831    3.5906 H   0  0  0  0  0  0  0  0  0  0  0  0
   -0.1474   -0.6468    4.4230 H   0  0  0  0  0  0  0  0  0  0  0  0
    0.8955   -2.0320    4.0403 H   0  0  0  0  0  0  0  0  0  0  0  0
  1  2  1  0  0  0  0
  2  3  1  0  0  0  0
  2  4  1  0  0  0  0
  2  5  1  0  0  0  0
  5  6  2  0  0  0  0
  5  7  1  0  0  0  0
  7  8  1  0  0  0  0
  7  9  1  0  0  0  0
  9 10  1  0  0  0  0
  9 11  1  0  0  0  0
  9 29  1  0  0  0  0
 11 12  1  0  0  0  0
 11 13  1  0  0  0  0
 11 14  1  0  0  0  0
 14 15  1  0  0  0  0
 14 16  1  0  0  0  0
 14 17  1  0  0  0  0
 17 18  1  0  0  0  0
 17 19  1  0  0  0  0
 17 20  1  0  0  0  0
 20 21  1  0  0  0  0
 20 22  2  0  0  0  0
 22 23  1  0  0  0  0
 22 26  1  0  0  0  0
 23 24  1  0  0  0  0
 23 25  1  0  0  0  0
 26 27  1  0  0  0  0
 26 28  1  0  0  0  0
 29 30  2  0  0  0  0
 29 31  1  0  0  0  0
 31 32  1  0  0  0  0
 31 33  1  0  0  0  0
 33 34  1  0  0  0  0
 33 35  1  0  0  0  0
 33 36  1  0  0  0  0
M  CHG  1  20   1
M  END
$$$$

  -OEChem-04042215563D

 36 35  0     1  0  0  0  0  0999 V2000
   -3.5085   -5.1321    1.0608 H   0  0  0  0  0  0  0  0  0  0  0  0
   -3.4771   -4.1203    0.6464 C   0  0  0  0  0  0  0  0  0  0  0  0
   -4.0581   -3.4590    1.2935 H   0  0  0  0  0  0  0  0  0  0  0  0
   -3.9278   -4.1353   -0.3489 H   0  0  0  0  0  0  0  0  0  0  0  0
   -2.0416   -3.6384    0.5604 C   0  0  0  0  0  0  0  0  0  0  0  0
   -1.1272   -4.3677    0.9030 O   0  0  0  0  0  0  0  0  0  0  0  0
   -1.7559   -2.3691    0.0916 N   0  0  0  0  0  0  0  0  0  0  0  0
   -2.5397   -1.8045   -0.2266 H   0  0  0  0  0  0  0  0  0  0  0  0
   -0.3854   -1.8535   -0.0723 C   0  0  1  0  0  0  0  0  0  0  0  0
    0.0886   -2.5849   -0.7316 H   0  0  0  0  0  0  0  0  0  0  0  0
   -0.4059   -0.4701   -0.7614 C   0  0  0  0  0  0  0  0  0  0  0  0
   -1.2716   -0.4504   -1.4323 H   0  0  0  0  0  0  0  0  0  0  0  0
   -0.5699    0.3131   -0.0129 H   0  0  0  0  0  0  0  0  0  0  0  0
    0.8283   -0.1062   -1.6277 C   0  0  0  0  0  0  0  0  0  0  0  0
    0.4960    0.4069   -2.5367 H   0  0  0  0  0  0  0  0  0  0  0  0
    1.4139    0.6154   -1.0474 H   0  0  0  0  0  0  0  0  0  0  0  0
    1.7653   -1.2635   -2.0087 C   0  0  0  0  0  0  0  0  0  0  0  0
    1.8777   -1.9562   -1.1717 H   0  0  0  0  0  0  0  0  0  0  0  0
    1.3251   -1.8272   -2.8388 H   0  0  0  0  0  0  0  0  0  0  0  0
    3.0953   -0.7522   -2.3874 N   0  3  0  0  0  0  0  0  0  0  0  0
    3.1805   -0.3090   -3.3007 H   0  0  0  0  0  0  0  0  0  0  0  0
    4.1512   -0.8680   -1.6304 C   0  0  0  0  0  0  0  0  0  0  0  0
    4.1132   -1.4456   -0.3811 N   0  0  0  0  0  0  0  0  0  0  0  0
    3.1981   -1.6374    0.0433 H   0  0  0  0  0  0  0  0  0  0  0  0
    4.8968   -1.3063    0.2510 H   0  0  0  0  0  0  0  0  0  0  0  0
    5.3595   -0.3984   -2.0867 N   0  0  0  0  0  0  0  0  0  0  0  0
    5.4485   -0.1599   -3.0721 H   0  0  0  0  0  0  0  0  0  0  0  0
    6.2011   -0.6817   -1.5882 H   0  0  0  0  0  0  0  0  0  0  0  0
    0.4751   -1.7972    1.2104 C   0  0  0  0  0  0  0  0  0  0  0  0
    1.6968   -1.8852    1.1057 O   0  0  0  0  0  0  0  0  0  0  0  0
   -0.0626   -1.3059    2.3846 N   0  0  0  0  0  0  0  0  0  0  0  0
   -1.0774   -1.2964    2.4430 H   0  0  0  0  0  0  0  0  0  0  0  0
    0.7008   -1.1914    3.6223 C   0  0  0  0  0  0  0  0  0  0  0  0
    1.5540   -0.5183    3.4885 H   0  0  0  0  0  0  0  0  0  0  0  0
    0.0693   -0.7891    4.4207 H   0  0  0  0  0  0  0  0  0  0  0  0
    1.0717   -2.1732    3.9362 H   0  0  0  0  0  0  0  0  0  0  0  0
  1  2  1  0  0  0  0
  2  3  1  0  0  0  0
  2  4  1  0  0  0  0
  2  5  1  0  0  0  0
  5  6  2  0  0  0  0
  5  7  1  0  0  0  0
  7  8  1  0  0  0  0
  7  9  1  0  0  0  0
  9 10  1  0  0  0  0
  9 11  1  0  0  0  0
  9 29  1  0  0  0  0
 11 12  1  0  0  0  0
 11 13  1  0  0  0  0
 11 14  1  0  0  0  0
 14 15  1  0  0  0  0
 14 16  1  0  0  0  0
 14 17  1  0  0  0  0
 17 18  1  0  0  0  0
 17 19  1  0  0  0  0
 17 20  1  0  0  0  0
 20 21  1  0  0  0  0
 20 22  2  0  0  0  0
 22 23  1  0  0  0  0
 22 26  1  0  0  0  0
 23 24  1  0  0  0  0
 23 25  1  0  0  0  0
 26 27  1  0  0  0  0
 26 28  1  0  0  0  0
 29 30  2  0  0  0  0
 29 31  1  0  0  0  0
 31 32  1  0  0  0  0
 31 33  1  0  0  0  0
 33 34  1  0  0  0  0
 33 35  1  0  0  0  0
 33 36  1  0  0  0  0
M  CHG  1  20   1
M  END
$$$$

  -OEChem-04042215563D

 36 35  0     1  0  0  0  0  0999 V2000
   -3.4675   -5.2215    0.9100 H   0  0  0  0  0  0  0  0  0  0  0  0
   -3.4719   -4.1785    0.5803 C   0  0  0  0  0  0  0  0  0  0  0  0
   -4.0253   -3.5825    1.3098 H   0  0  0  0  0  0  0  0  0  0  0  0
   -3.9758   -4.1196   -0.3874 H   0  0  0  0  0  0  0  0  0  0  0  0
   -2.0497   -3.6658    0.4586 C   0  0  0  0  0  0  0  0  0  0  0  0
   -1.1082   -4.3974    0.7122 O   0  0  0  0  0  0  0  0  0  0  0  0
   -1.8051   -2.3661    0.0548 N   0  0  0  0  0  0  0  0  0  0  0  0
   -2.6111   -1.7874   -0.1685 H   0  0  0  0  0  0  0  0  0  0  0  0
   -0.4514   -1.8120   -0.1140 C   0  0  1  0  0  0  0  0  0  0  0  0
    0.0058   -2.5238   -0.8030 H   0  0  0  0  0  0  0  0  0  0  0  0
   -0.5001   -0.4209   -0.7834 C   0  0  0  0  0  0  0  0  0  0  0  0
   -1.3654   -0.4063   -1.4549 H   0  0  0  0  0  0  0  0  0  0  0  0
   -0.6713    0.3513   -0.0251 H   0  0  0  0  0  0  0  0  0  0  0  0
    0.7342   -0.0441   -1.6400 C   0  0  0  0  0  0  0  0  0  0  0  0
    0.4359    0.6885   -2.3975 H   0  0  0  0  0  0  0  0  0  0  0  0
    1.4415    0.4557   -0.9689 H   0  0  0  0  0  0  0  0  0  0  0  0
    1.4756   -1.2067   -2.3161 C   0  0  0  0  0  0  0  0  0  0  0  0
    1.6084   -2.0355   -1.6157 H   0  0  0  0  0  0  0  0  0  0  0  0
    0.8830   -1.5781   -3.1595 H   0  0  0  0  0  0  0  0  0  0  0  0
    2.8065   -0.7678   -2.7735 N   0  3  0  0  0  0  0  0  0  0  0  0
    2.8557   -0.2869   -3.6703 H   0  0  0  0  0  0  0  0  0  0  0  0
    3.9044   -0.9983   -2.1074 C   0  0  0  0  0  0  0  0  0  0  0  0
    3.9148   -1.6293   -0.8829 N   0  0  0  0  0  0  0  0  0  0  0  0
    3.0258   -1.7404   -0.3814 H   0  0  0  0  0  0  0  0  0  0  0  0
    4.7584   -1.5891   -0.3173 H   0  0  0  0  0  0  0  0  0  0  0  0
    5.1083   -0.6014   -2.6385 N   0  0  0  0  0  0  0  0  0  0  0  0
    5.1409   -0.3223   -3.6167 H   0  0  0  0  0  0  0  0  0  0  0  0
    5.9601   -0.9710   -2.2205 H   0  0  0  0  0  0  0  0  0  0  0  0
    0.4756   -1.7869    1.1177 C   0  0  0  0  0  0  0  0  0  0  0  0
    1.6887   -1.8461    0.9235 O   0  0  0  0  0  0  0  0  0  0  0  0
    0.0022   -1.3657    2.3452 N   0  0  0  0  0  0  0  0  0  0  0  0
   -1.0065   -1.3790    2.4704 H   0  0  0  0  0  0  0  0  0  0  0  0
    0.8475   -1.2540    3.5288 C   0  0  0  0  0  0  0  0  0  0  0  0
    1.6548   -0.5339    3.3590 H   0  0  0  0  0  0  0  0  0  0  0  0
    0.2574   -0.9112    4.3845 H   0  0  0  0  0  0  0  0  0  0  0  0
    1.2875   -2.2254    3.7786 H   0  0  0  0  0  0  0  0  0  0  0  0
  1  2  1  0  0  0  0
  2  3  1  0  0  0  0
  2  4  1  0  0  0  0
  2  5  1  0  0  0  0
  5  6  2  0  0  0  0
  5  7  1  0  0  0  0
  7  8  1  0  0  0  0
  7  9  1  0  0  0  0
  9 10  1  0  0  0  0
  9 11  1  0  0  0  0
  9 29  1  0  0  0  0
 11 12  1  0  0  0  0
 11 13  1  0  0  0  0
 11 14  1  0  0  0  0
 14 15  1  0  0  0  0
 14 16  1  0  0  0  0
 14 17  1  0  0  0  0
 17 18  1  0  0  0  0
 17 19  1  0  0  0  0
 17 20  1  0  0  0  0
 20 21  1  0  0  0  0
 20 22  2  0  0  0  0
 22 23  1  0  0  0  0
 22 26  1  0  0  0  0
 23 24  1  0  0  0  0
 23 25  1  0  0  0  0
 26 27  1  0  0  0  0
 26 28  1  0  0  0  0
 29 30  2  0  0  0  0
 29 31  1  0  0  0  0
 31 32  1  0  0  0  0
 31 33  1  0  0  0  0
 33 34  1  0  0  0  0
 33 35  1  0  0  0  0
 33 36  1  0  0  0  0
M  CHG  1  20   1
M  END
$$$$

  -OEChem-04042215563D

 36 35  0     1  0  0  0  0  0999 V2000
   -3.4312   -5.2287    0.8095 H   0  0  0  0  0  0  0  0  0  0  0  0
   -3.4540   -4.1660    0.5508 C   0  0  0  0  0  0  0  0  0  0  0  0
   -3.9568   -3.6208    1.3530 H   0  0  0  0  0  0  0  0  0  0  0  0
   -4.0205   -4.0431   -0.3755 H   0  0  0  0  0  0  0  0  0  0  0  0
   -2.0414   -3.6437    0.3709 C   0  0  0  0  0  0  0  0  0  0  0  0
   -1.0856   -4.3819    0.5362 O   0  0  0  0  0  0  0  0  0  0  0  0
   -1.8224   -2.3260    0.0144 N   0  0  0  0  0  0  0  0  0  0  0  0
   -2.6410   -1.7380   -0.1219 H   0  0  0  0  0  0  0  0  0  0  0  0
   -0.4814   -1.7483   -0.1737 C   0  0  1  0  0  0  0  0  0  0  0  0
   -0.0307   -2.4293   -0.8956 H   0  0  0  0  0  0  0  0  0  0  0  0
   -0.5710   -0.3412   -0.8032 C   0  0  0  0  0  0  0  0  0  0  0  0
   -1.4558   -0.3102   -1.4481 H   0  0  0  0  0  0  0  0  0  0  0  0
   -0.7184    0.4069   -0.0166 H   0  0  0  0  0  0  0  0  0  0  0  0
    0.6419    0.0560   -1.6750 C   0  0  0  0  0  0  0  0  0  0  0  0
    0.3927    0.9636   -2.2356 H   0  0  0  0  0  0  0  0  0  0  0  0
    1.4587    0.3150   -0.9925 H   0  0  0  0  0  0  0  0  0  0  0  0
    1.1452   -1.0138   -2.6546 C   0  0  0  0  0  0  0  0  0  0  0  0
    1.2008   -1.9938   -2.1756 H   0  0  0  0  0  0  0  0  0  0  0  0
    0.4460   -1.0982   -3.4938 H   0  0  0  0  0  0  0  0  0  0  0  0
    2.4918   -0.6600   -3.1398 N   0  3  0  0  0  0  0  0  0  0  0  0
    2.5475   -0.1193   -4.0018 H   0  0  0  0  0  0  0  0  0  0  0  0
    3.5925   -1.0507   -2.5573 C   0  0  0  0  0  0  0  0  0  0  0  0
    3.6026   -1.7742   -1.3847 N   0  0  0  0  0  0  0  0  0  0  0  0
    2.7492   -1.7970   -0.8158 H   0  0  0  0  0  0  0  0  0  0  0  0
    4.4813   -1.8740   -0.8836 H   0  0  0  0  0  0  0  0  0  0  0  0
    4.8018   -0.7347   -3.1290 N   0  0  0  0  0  0  0  0  0  0  0  0
    4.8135   -0.3783   -4.0821 H   0  0  0  0  0  0  0  0  0  0  0  0
    5.6344   -1.2111   -2.7873 H   0  0  0  0  0  0  0  0  0  0  0  0
    0.4889   -1.7588    1.0227 C   0  0  0  0  0  0  0  0  0  0  0  0
    1.6921   -1.8164    0.7753 O   0  0  0  0  0  0  0  0  0  0  0  0
    0.0619   -1.3941    2.2848 N   0  0  0  0  0  0  0  0  0  0  0  0
   -0.9414   -1.4062    2.4474 H   0  0  0  0  0  0  0  0  0  0  0  0
    0.9520   -1.3265    3.4386 C   0  0  0  0  0  0  0  0  0  0  0  0
    1.7451   -0.5902    3.2710 H   0  0  0  0  0  0  0  0  0  0  0  0
    0.3926   -1.0292    4.3312 H   0  0  0  0  0  0  0  0  0  0  0  0
    1.4109   -2.3030    3.6275 H   0  0  0  0  0  0  0  0  0  0  0  0
  1  2  1  0  0  0  0
  2  3  1  0  0  0  0
  2  4  1  0  0  0  0
  2  5  1  0  0  0  0
  5  6  2  0  0  0  0
  5  7  1  0  0  0  0
  7  8  1  0  0  0  0
  7  9  1  0  0  0  0
  9 10  1  0  0  0  0
  9 11  1  0  0  0  0
  9 29  1  0  0  0  0
 11 12  1  0  0  0  0
 11 13  1  0  0  0  0
 11 14  1  0  0  0  0
 14 15  1  0  0  0  0
 14 16  1  0  0  0  0
 14 17  1  0  0  0  0
 17 18  1  0  0  0  0
 17 19  1  0  0  0  0
 17 20  1  0  0  0  0
 20 21  1  0  0  0  0
 20 22  2  0  0  0  0
 22 23  1  0  0  0  0
 22 26  1  0  0  0  0
 23 24  1  0  0  0  0
 23 25  1  0  0  0  0
 26 27  1  0  0  0  0
 26 28  1  0  0  0  0
 29 30  2  0  0  0  0
 29 31  1  0  0  0  0
 31 32  1  0  0  0  0
 31 33  1  0  0  0  0
 33 34  1  0  0  0  0
 33 35  1  0  0  0  0
 33 36  1  0  0  0  0
M  CHG  1  20   1
M  END
$$$$

  -OEChem-04042215563D

 36 35  0     1  0  0  0  0  0999 V2000
   -3.1635   -5.3615    0.5928 H   0  0  0  0  0  0  0  0  0  0  0  0
   -3.2644   -4.2840    0.4327 C   0  0  0  0  0  0  0  0  0  0  0  0
   -3.7394   -3.8421    1.3117 H   0  0  0  0  0  0  0  0  0  0  0  0
   -3.9005   -4.1180   -0.4401 H   0  0  0  0  0  0  0  0  0  0  0  0
   -1.8994   -3.6616    0.2098 C   0  0  0  0  0  0  0  0  0  0  0  0
   -0.8917   -4.3443    0.2799 O   0  0  0  0  0  0  0  0  0  0  0  0
   -1.7821   -2.3149   -0.0815 N   0  0  0  0  0  0  0  0  0  0  0  0
   -2.6396   -1.7691   -0.1203 H   0  0  0  0  0  0  0  0  0  0  0  0
   -0.4877   -1.6366   -0.2571 C   0  0  1  0  0  0  0  0  0  0  0  0
    0.0124   -2.2414   -1.0155 H   0  0  0  0  0  0  0  0  0  0  0  0
   -0.6895   -0.2161   -0.8268 C   0  0  0  0  0  0  0  0  0  0  0  0
   -1.5866   -0.2036   -1.4549 H   0  0  0  0  0  0  0  0  0  0  0  0
   -0.8571    0.4882   -0.0044 H   0  0  0  0  0  0  0  0  0  0  0  0
    0.4977    0.2635   -1.6853 C   0  0  0  0  0  0  0  0  0  0  0  0
    0.2946    1.2826   -2.0322 H   0  0  0  0  0  0  0  0  0  0  0  0
    1.3840    0.3187   -1.0453 H   0  0  0  0  0  0  0  0  0  0  0  0
    0.7882   -0.6193   -2.9057 C   0  0  0  0  0  0  0  0  0  0  0  0
    0.6695   -1.6787   -2.6643 H   0  0  0  0  0  0  0  0  0  0  0  0
    0.0681   -0.3877   -3.6983 H   0  0  0  0  0  0  0  0  0  0  0  0
    2.1656   -0.3913   -3.3836 N   0  3  0  0  0  0  0  0  0  0  0  0
    2.2785    0.2334   -4.1807 H   0  0  0  0  0  0  0  0  0  0  0  0
    3.2153   -1.0014   -2.9030 C   0  0  0  0  0  0  0  0  0  0  0  0
    3.1634   -1.8471   -1.8162 N   0  0  0  0  0  0  0  0  0  0  0  0
    2.3742   -1.7533   -1.1697 H   0  0  0  0  0  0  0  0  0  0  0  0
    4.0424   -2.1399   -1.3971 H   0  0  0  0  0  0  0  0  0  0  0  0
    4.4357   -0.8026   -3.5035 N   0  0  0  0  0  0  0  0  0  0  0  0
    4.4659   -0.3466   -4.4129 H   0  0  0  0  0  0  0  0  0  0  0  0
    5.2020   -1.4259   -3.2557 H   0  0  0  0  0  0  0  0  0  0  0  0
    0.4922   -1.6458    0.9314 C   0  0  0  0  0  0  0  0  0  0  0  0
    1.6929   -1.6652    0.6705 O   0  0  0  0  0  0  0  0  0  0  0  0
    0.0639   -1.3789    2.2170 N   0  0  0  0  0  0  0  0  0  0  0  0
   -0.9370   -1.4241    2.3872 H   0  0  0  0  0  0  0  0  0  0  0  0
    0.9655   -1.3458    3.3632 C   0  0  0  0  0  0  0  0  0  0  0  0
    1.7102   -0.5517    3.2444 H   0  0  0  0  0  0  0  0  0  0  0  0
    0.4029   -1.1543    4.2823 H   0  0  0  0  0  0  0  0  0  0  0  0
    1.4858   -2.3038    3.4702 H   0  0  0  0  0  0  0  0  0  0  0  0
  1  2  1  0  0  0  0
  2  3  1  0  0  0  0
  2  4  1  0  0  0  0
  2  5  1  0  0  0  0
  5  6  2  0  0  0  0
  5  7  1  0  0  0  0
  7  8  1  0  0  0  0
  7  9  1  0  0  0  0
  9 10  1  0  0  0  0
  9 11  1  0  0  0  0
  9 29  1  0  0  0  0
 11 12  1  0  0  0  0
 11 13  1  0  0  0  0
 11 14  1  0  0  0  0
 14 15  1  0  0  0  0
 14 16  1  0  0  0  0
 14 17  1  0  0  0  0
 17 18  1  0  0  0  0
 17 19  1  0  0  0  0
 17 20  1  0  0  0  0
 20 21  1  0  0  0  0
 20 22  2  0  0  0  0
 22 23  1  0  0  0  0
 22 26  1  0  0  0  0
 23 24  1  0  0  0  0
 23 25  1  0  0  0  0
 26 27  1  0  0  0  0
 26 28  1  0  0  0  0
 29 30  2  0  0  0  0
 29 31  1  0  0  0  0
 31 32  1  0  0  0  0
 31 33  1  0  0  0  0
 33 34  1  0  0  0  0
 33 35  1  0  0  0  0
 33 36  1  0  0  0  0
M  CHG  1  20   1
M  END
$$$$

  -OEChem-04042215563D

 36 35  0     1  0  0  0  0  0999 V2000
   -2.8791   -5.4806    0.2752 H   0  0  0  0  0  0  0  0  0  0  0  0
   -3.0640   -4.4052    0.1990 C   0  0  0  0  0  0  0  0  0  0  0  0
   -3.5385   -4.0650    1.1225 H   0  0  0  0  0  0  0  0  0  0  0  0
   -3.7410   -4.2252   -0.6395 H   0  0  0  0  0  0  0  0  0  0  0  0
   -1.7570   -3.6670   -0.0178 C   0  0  0  0  0  0  0  0  0  0  0  0
   -0.6996   -4.2741   -0.0227 O   0  0  0  0  0  0  0  0  0  0  0  0
   -1.7491   -2.2998   -0.2246 N   0  0  0  0  0  0  0  0  0  0  0  0
   -2.6440   -1.8179   -0.1837 H   0  0  0  0  0  0  0  0  0  0  0  0
   -0.5116   -1.5114   -0.3362 C   0  0  1  0  0  0  0  0  0  0  0  0
    0.0471   -2.0261   -1.1231 H   0  0  0  0  0  0  0  0  0  0  0  0
   -0.8174   -0.0950   -0.8630 C   0  0  0  0  0  0  0  0  0  0  0  0
   -1.7011   -0.1134   -1.5103 H   0  0  0  0  0  0  0  0  0  0  0  0
   -1.0429    0.5642   -0.0174 H   0  0  0  0  0  0  0  0  0  0  0  0
    0.3733    0.4688   -1.6579 C   0  0  0  0  0  0  0  0  0  0  0  0
    0.2252    1.5450   -1.7990 H   0  0  0  0  0  0  0  0  0  0  0  0
    1.2949    0.3590   -1.0805 H   0  0  0  0  0  0  0  0  0  0  0  0
    0.4935   -0.1788   -3.0382 C   0  0  0  0  0  0  0  0  0  0  0  0
    0.2147   -1.2364   -2.9838 H   0  0  0  0  0  0  0  0  0  0  0  0
   -0.2056    0.3054   -3.7290 H   0  0  0  0  0  0  0  0  0  0  0  0
    1.8767   -0.0699   -3.5445 N   0  3  0  0  0  0  0  0  0  0  0  0
    2.0243    0.5577   -4.3336 H   0  0  0  0  0  0  0  0  0  0  0  0
    2.8648   -0.8330   -3.1579 C   0  0  0  0  0  0  0  0  0  0  0  0
    2.7640   -1.7363   -2.1205 N   0  0  0  0  0  0  0  0  0  0  0  0
    2.0681   -1.5588   -1.3922 H   0  0  0  0  0  0  0  0  0  0  0  0
    3.6067   -2.2190   -1.8189 H   0  0  0  0  0  0  0  0  0  0  0  0
    4.0657   -0.7508   -3.8221 N   0  0  0  0  0  0  0  0  0  0  0  0
    4.2125   -0.0313   -4.5267 H   0  0  0  0  0  0  0  0  0  0  0  0
    4.8623   -1.2937   -3.4943 H   0  0  0  0  0  0  0  0  0  0  0  0
    0.4489   -1.5178    0.8680 C   0  0  0  0  0  0  0  0  0  0  0  0
    1.6530   -1.4851    0.6266 O   0  0  0  0  0  0  0  0  0  0  0  0
   -0.0148   -1.3658    2.1600 N   0  0  0  0  0  0  0  0  0  0  0  0
   -1.0153   -1.4649    2.3076 H   0  0  0  0  0  0  0  0  0  0  0  0
    0.8652   -1.3548    3.3233 C   0  0  0  0  0  0  0  0  0  0  0  0
    1.5899   -0.5368    3.2503 H   0  0  0  0  0  0  0  0  0  0  0  0
    0.2818   -1.2150    4.2389 H   0  0  0  0  0  0  0  0  0  0  0  0
    1.4095   -2.3020    3.4015 H   0  0  0  0  0  0  0  0  0  0  0  0
  1  2  1  0  0  0  0
  2  3  1  0  0  0  0
  2  4  1  0  0  0  0
  2  5  1  0  0  0  0
  5  6  2  0  0  0  0
  5  7  1  0  0  0  0
  7  8  1  0  0  0  0
  7  9  1  0  0  0  0
  9 10  1  0  0  0  0
  9 11  1  0  0  0  0
  9 29  1  0  0  0  0
 11 12  1  0  0  0  0
 11 13  1  0  0  0  0
 11 14  1  0  0  0  0
 14 15  1  0  0  0  0
 14 16  1  0  0  0  0
 14 17  1  0  0  0  0
 17 18  1  0  0  0  0
 17 19  1  0  0  0  0
 17 20  1  0  0  0  0
 20 21  1  0  0  0  0
 20 22  2  0  0  0  0
 22 23  1  0  0  0  0
 22 26  1  0  0  0  0
 23 24  1  0  0  0  0
 23 25  1  0  0  0  0
 26 27  1  0  0  0  0
 26 28  1  0  0  0  0
 29 30  2  0  0  0  0
 29 31  1  0  0  0  0
 31 32  1  0  0  0  0
 31 33  1  0  0  0  0
 33 34  1  0  0  0  0
 33 35  1  0  0  0  0
 33 36  1  0  0  0  0
M  CHG  1  20   1
M  END
$$$$

  -OEChem-04042215563D

 36 35  0     1  0  0  0  0  0999 V2000
   -2.8613   -5.4695    0.8601 H   0  0  0  0  0  0  0  0  0  0  0  0
   -3.0121   -4.4378    0.5288 C   0  0  0  0  0  0  0  0  0  0  0  0
   -3.6626   -3.9318    1.2460 H   0  0  0  0  0  0  0  0  0  0  0  0
   -3.4985   -4.4519   -0.4493 H   0  0  0  0  0  0  0  0  0  0  0  0
   -1.6785   -3.7211    0.4374 C   0  0  0  0  0  0  0  0  0  0  0  0
   -0.6494   -4.3044    0.7276 O   0  0  0  0  0  0  0  0  0  0  0  0
   -1.6206   -2.4092    0.0042 N   0  0  0  0  0  0  0  0  0  0  0  0
   -2.5066   -1.9459   -0.1791 H   0  0  0  0  0  0  0  0  0  0  0  0
   -0.3857   -1.6047    0.0231 C   0  0  1  0  0  0  0  0  0  0  0  0
    0.3500   -2.1765   -0.5538 H   0  0  0  0  0  0  0  0  0  0  0  0
   -0.6222   -0.2705   -0.7113 C   0  0  0  0  0  0  0  0  0  0  0  0
   -1.3920   -0.3866   -1.4818 H   0  0  0  0  0  0  0  0  0  0  0  0
   -0.9915    0.4700    0.0068 H   0  0  0  0  0  0  0  0  0  0  0  0
    0.6753    0.2450   -1.3594 C   0  0  0  0  0  0  0  0  0  0  0  0
    0.6384    1.3392   -1.3955 H   0  0  0  0  0  0  0  0  0  0  0  0
    1.5424   -0.0293   -0.7490 H   0  0  0  0  0  0  0  0  0  0  0  0
    0.8354   -0.2837   -2.7834 C   0  0  0  0  0  0  0  0  0  0  0  0
    0.6989   -1.3708   -2.7767 H   0  0  0  0  0  0  0  0  0  0  0  0
    0.0703    0.1619   -3.4289 H   0  0  0  0  0  0  0  0  0  0  0  0
    2.1874    0.0497   -3.2688 N   0  3  0  0  0  0  0  0  0  0  0  0
    2.7899    0.5684   -2.6301 H   0  0  0  0  0  0  0  0  0  0  0  0
    2.6679   -0.3446   -4.4122 C   0  0  0  0  0  0  0  0  0  0  0  0
    1.9219   -1.0939   -5.2928 N   0  0  0  0  0  0  0  0  0  0  0  0
    1.0453   -1.4851   -4.9549 H   0  0  0  0  0  0  0  0  0  0  0  0
    2.4048   -1.5835   -6.0433 H   0  0  0  0  0  0  0  0  0  0  0  0
    3.9565   -0.0113   -4.7562 N   0  0  0  0  0  0  0  0  0  0  0  0
    4.4617    0.6619   -4.1829 H   0  0  0  0  0  0  0  0  0  0  0  0
    4.2556   -0.1408   -5.7209 H   0  0  0  0  0  0  0  0  0  0  0  0
    0.2557   -1.3995    1.4144 C   0  0  0  0  0  0  0  0  0  0  0  0
    1.4723   -1.2850    1.4916 O   0  0  0  0  0  0  0  0  0  0  0  0
   -0.5255   -1.0663    2.5060 N   0  0  0  0  0  0  0  0  0  0  0  0
   -1.5235   -1.2303    2.4228 H   0  0  0  0  0  0  0  0  0  0  0  0
    0.0327   -0.8184    3.8312 C   0  0  0  0  0  0  0  0  0  0  0  0
    0.7355    0.0210    3.8021 H   0  0  0  0  0  0  0  0  0  0  0  0
   -0.7647   -0.5736    4.5397 H   0  0  0  0  0  0  0  0  0  0  0  0
    0.5610   -1.7059    4.1966 H   0  0  0  0  0  0  0  0  0  0  0  0
  1  2  1  0  0  0  0
  2  3  1  0  0  0  0
  2  4  1  0  0  0  0
  2  5  1  0  0  0  0
  5  6  2  0  0  0  0
  5  7  1  0  0  0  0
  7  8  1  0  0  0  0
  7  9  1  0  0  0  0
  9 10  1  0  0  0  0
  9 11  1  0  0  0  0
  9 29  1  0  0  0  0
 11 12  1  0  0  0  0
 11 13  1  0  0  0  0
 11 14  1  0  0  0  0
 14 15  1  0  0  0  0
 14 16  1  0  0  0  0
 14 17  1  0  0  0  0
 17 18  1  0  0  0  0
 17 19  1  0  0  0  0
 17 20  1  0  0  0  0
 20 21  1  0  0  0  0
 20 22  2  0  0  0  0
 22 23  1  0  0  0  0
 22 26  1  0  0  0  0
 23 24  1  0  0  0  0
 23 25  1  0  0  0  0
 26 27  1  0  0  0  0
 26 28  1  0  0  0  0
 29 30  2  0  0  0  0
 29 31  1  0  0  0  0
 31 32  1  0  0  0  0
 31 33  1  0  0  0  0
 33 34  1  0  0  0  0
 33 35  1  0  0  0  0
 33 36  1  0  0  0  0
M  CHG  1  20   1
M  END
$$$$

  -OEChem-04042215563D

 36 35  0     1  0  0  0  0  0999 V2000
   -2.9285   -5.4477    0.9846 H   0  0  0  0  0  0  0  0  0  0  0  0
   -3.0562   -4.4421    0.5730 C   0  0  0  0  0  0  0  0  0  0  0  0
   -3.7376   -3.8838    1.2194 H   0  0  0  0  0  0  0  0  0  0  0  0
   -3.4940   -4.5248   -0.4246 H   0  0  0  0  0  0  0  0  0  0  0  0
   -1.7149   -3.7379    0.4970 C   0  0  0  0  0  0  0  0  0  0  0  0
   -0.6998   -4.3194    0.8347 O   0  0  0  0  0  0  0  0  0  0  0  0
   -1.6355   -2.4361    0.0376 N   0  0  0  0  0  0  0  0  0  0  0  0
   -2.5110   -1.9741   -0.1922 H   0  0  0  0  0  0  0  0  0  0  0  0
   -0.3921   -1.6441    0.0550 C   0  0  1  0  0  0  0  0  0  0  0  0
    0.3416   -2.2367   -0.5039 H   0  0  0  0  0  0  0  0  0  0  0  0
   -0.6002   -0.3178   -0.7018 C   0  0  0  0  0  0  0  0  0  0  0  0
   -1.3634   -0.4418   -1.4775 H   0  0  0  0  0  0  0  0  0  0  0  0
   -0.9720    0.4389   -0.0021 H   0  0  0  0  0  0  0  0  0  0  0  0
    0.7125    0.1734   -1.3448 C   0  0  0  0  0  0  0  0  0  0  0  0
    0.8140    1.2468   -1.1504 H   0  0  0  0  0  0  0  0  0  0  0  0
    1.5769   -0.3185   -0.8846 H   0  0  0  0  0  0  0  0  0  0  0  0
    0.7242   -0.0536   -2.8548 C   0  0  0  0  0  0  0  0  0  0  0  0
    0.5270   -1.1119   -3.0585 H   0  0  0  0  0  0  0  0  0  0  0  0
   -0.0649    0.5471   -3.3208 H   0  0  0  0  0  0  0  0  0  0  0  0
    2.0471    0.3264   -3.3845 N   0  3  0  0  0  0  0  0  0  0  0  0
    2.7507    0.6108   -2.7030 H   0  0  0  0  0  0  0  0  0  0  0  0
    2.3712    0.2731   -4.6436 C   0  0  0  0  0  0  0  0  0  0  0  0
    1.4812   -0.1474   -5.6052 N   0  0  0  0  0  0  0  0  0  0  0  0
    0.6191   -0.5879   -5.2921 H   0  0  0  0  0  0  0  0  0  0  0  0
    1.8398   -0.3976   -6.5244 H   0  0  0  0  0  0  0  0  0  0  0  0
    3.6372    0.6424   -5.0312 N   0  0  0  0  0  0  0  0  0  0  0  0
    4.2431    1.1054   -4.3558 H   0  0  0  0  0  0  0  0  0  0  0  0
    3.8233    0.7889   -6.0216 H   0  0  0  0  0  0  0  0  0  0  0  0
    0.2363   -1.4153    1.4485 C   0  0  0  0  0  0  0  0  0  0  0  0
    1.4508   -1.2848    1.5315 O   0  0  0  0  0  0  0  0  0  0  0  0
   -0.5550   -1.0511    2.5229 N   0  0  0  0  0  0  0  0  0  0  0  0
   -1.5503   -1.2312    2.4385 H   0  0  0  0  0  0  0  0  0  0  0  0
   -0.0083   -0.7651    3.8454 C   0  0  0  0  0  0  0  0  0  0  0  0
    0.6984    0.0703    3.7974 H   0  0  0  0  0  0  0  0  0  0  0  0
   -0.8112   -0.4953    4.5384 H   0  0  0  0  0  0  0  0  0  0  0  0
    0.5128   -1.6429    4.2427 H   0  0  0  0  0  0  0  0  0  0  0  0
  1  2  1  0  0  0  0
  2  3  1  0  0  0  0
  2  4  1  0  0  0  0
  2  5  1  0  0  0  0
  5  6  2  0  0  0  0
  5  7  1  0  0  0  0
  7  8  1  0  0  0  0
  7  9  1  0  0  0  0
  9 10  1  0  0  0  0
  9 11  1  0  0  0  0
  9 29  1  0  0  0  0
 11 12  1  0  0  0  0
 11 13  1  0  0  0  0
 11 14  1  0  0  0  0
 14 15  1  0  0  0  0
 14 16  1  0  0  0  0
 14 17  1  0  0  0  0
 17 18  1  0  0  0  0
 17 19  1  0  0  0  0
 17 20  1  0  0  0  0
 20 21  1  0  0  0  0
 20 22  2  0  0  0  0
 22 23  1  0  0  0  0
 22 26  1  0  0  0  0
 23 24  1  0  0  0  0
 23 25  1  0  0  0  0
 26 27  1  0  0  0  0
 26 28  1  0  0  0  0
 29 30  2  0  0  0  0
 29 31  1  0  0  0  0
 31 32  1  0  0  0  0
 31 33  1  0  0  0  0
 33 34  1  0  0  0  0
 33 35  1  0  0  0  0
 33 36  1  0  0  0  0
M  CHG  1  20   1
M  END
$$$$

  -OEChem-04042215563D

 36 35  0     1  0  0  0  0  0999 V2000
   -2.9365   -5.4697    0.9918 H   0  0  0  0  0  0  0  0  0  0  0  0
   -3.0597   -4.4746    0.5540 C   0  0  0  0  0  0  0  0  0  0  0  0
   -3.7858   -3.9174    1.1506 H   0  0  0  0  0  0  0  0  0  0  0  0
   -3.4398   -4.5848   -0.4643 H   0  0  0  0  0  0  0  0  0  0  0  0
   -1.7294   -3.7459    0.5355 C   0  0  0  0  0  0  0  0  0  0  0  0
   -0.7213   -4.3058    0.9265 O   0  0  0  0  0  0  0  0  0  0  0  0
   -1.6528   -2.4472    0.0667 N   0  0  0  0  0  0  0  0  0  0  0  0
   -2.5223   -2.0060   -0.2192 H   0  0  0  0  0  0  0  0  0  0  0  0
   -0.4118   -1.6519    0.0713 C   0  0  1  0  0  0  0  0  0  0  0  0
    0.3130   -2.2547   -0.4875 H   0  0  0  0  0  0  0  0  0  0  0  0
   -0.6186   -0.3271   -0.6897 C   0  0  0  0  0  0  0  0  0  0  0  0
   -1.3756   -0.4721   -1.4678 H   0  0  0  0  0  0  0  0  0  0  0  0
   -1.0026    0.4376   -0.0052 H   0  0  0  0  0  0  0  0  0  0  0  0
    0.6936    0.1606   -1.3398 C   0  0  0  0  0  0  0  0  0  0  0  0
    0.9478    1.1389   -0.9166 H   0  0  0  0  0  0  0  0  0  0  0  0
    1.5202   -0.5162   -1.0949 H   0  0  0  0  0  0  0  0  0  0  0  0
    0.5770    0.2811   -2.8572 C   0  0  0  0  0  0  0  0  0  0  0  0
    0.2728   -0.6859   -3.2733 H   0  0  0  0  0  0  0  0  0  0  0  0
   -0.1855    1.0272   -3.1074 H   0  0  0  0  0  0  0  0  0  0  0  0
    1.8894    0.6794   -3.3988 N   0  3  0  0  0  0  0  0  0  0  0  0
    2.6571    0.7547   -2.7314 H   0  0  0  0  0  0  0  0  0  0  0  0
    2.1218    0.9032   -4.6593 C   0  0  0  0  0  0  0  0  0  0  0  0
    1.1359    0.7818   -5.6116 N   0  0  0  0  0  0  0  0  0  0  0  0
    0.2592    0.3463   -5.3333 H   0  0  0  0  0  0  0  0  0  0  0  0
    1.4097    0.7243   -6.5905 H   0  0  0  0  0  0  0  0  0  0  0  0
    3.3849    1.2684   -5.0599 N   0  0  0  0  0  0  0  0  0  0  0  0
    4.0716    1.5181   -4.3504 H   0  0  0  0  0  0  0  0  0  0  0  0
    3.5089    1.6439   -5.9983 H   0  0  0  0  0  0  0  0  0  0  0  0
    0.2348   -1.4036    1.4517 C   0  0  0  0  0  0  0  0  0  0  0  0
    1.4481   -1.2468    1.5082 O   0  0  0  0  0  0  0  0  0  0  0  0
   -0.5440   -1.0290    2.5315 N   0  0  0  0  0  0  0  0  0  0  0  0
   -1.5356   -1.2376    2.4691 H   0  0  0  0  0  0  0  0  0  0  0  0
    0.0212   -0.7259    3.8424 C   0  0  0  0  0  0  0  0  0  0  0  0
    0.7445    0.0936    3.7708 H   0  0  0  0  0  0  0  0  0  0  0  0
   -0.7696   -0.4245    4.5362 H   0  0  0  0  0  0  0  0  0  0  0  0
    0.5275   -1.6060    4.2533 H   0  0  0  0  0  0  0  0  0  0  0  0
  1  2  1  0  0  0  0
  2  3  1  0  0  0  0
  2  4  1  0  0  0  0
  2  5  1  0  0  0  0
  5  6  2  0  0  0  0
  5  7  1  0  0  0  0
  7  8  1  0  0  0  0
  7  9  1  0  0  0  0
  9 10  1  0  0  0  0
  9 11  1  0  0  0  0
  9 29  1  0  0  0  0
 11 12  1  0  0  0  0
 11 13  1  0  0  0  0
 11 14  1  0  0  0  0
 14 15  1  0  0  0  0
 14 16  1  0  0  0  0
 14 17  1  0  0  0  0
 17 18  1  0  0  0  0
 17 19  1  0  0  0  0
 17 20  1  0  0  0  0
 20 21  1  0  0  0  0
 20 22  2  0  0  0  0
 22 23  1  0  0  0  0
 22 26  1  0  0  0  0
 23 24  1  0  0  0  0
 23 25  1  0  0  0  0
 26 27  1  0  0  0  0
 26 28  1  0  0  0  0
 29 30  2  0  0  0  0
 29 31  1  0  0  0  0
 31 32  1  0  0  0  0
 31 33  1  0  0  0  0
 33 34  1  0  0  0  0
 33 35  1  0  0  0  0
 33 36  1  0  0  0  0
M  CHG  1  20   1
M  END
$$$$

  -OEChem-04042215563D

 36 35  0     1  0  0  0  0  0999 V2000
   -2.8897   -5.5010    0.9564 H   0  0  0  0  0  0  0  0  0  0  0  0
   -3.0218   -4.5032    0.5280 C   0  0  0  0  0  0  0  0  0  0  0  0
   -3.7587   -3.9607    1.1248 H   0  0  0  0  0  0  0  0  0  0  0  0
   -3.3927   -4.6067   -0.4943 H   0  0  0  0  0  0  0  0  0  0  0  0
   -1.7004   -3.7591    0.5290 C   0  0  0  0  0  0  0  0  0  0  0  0
   -0.6936   -4.3021    0.9460 O   0  0  0  0  0  0  0  0  0  0  0  0
   -1.6338   -2.4589    0.0634 N   0  0  0  0  0  0  0  0  0  0  0  0
   -2.4995   -2.0374   -0.2611 H   0  0  0  0  0  0  0  0  0  0  0  0
   -0.4018   -1.6499    0.0768 C   0  0  1  0  0  0  0  0  0  0  0  0
    0.3323   -2.2442   -0.4789 H   0  0  0  0  0  0  0  0  0  0  0  0
   -0.6193   -0.3186   -0.6701 C   0  0  0  0  0  0  0  0  0  0  0  0
   -1.3596   -0.4849   -1.4597 H   0  0  0  0  0  0  0  0  0  0  0  0
   -1.0306    0.4388    0.0063 H   0  0  0  0  0  0  0  0  0  0  0  0
    0.6870    0.1914   -1.3139 C   0  0  0  0  0  0  0  0  0  0  0  0
    1.0905    1.0006   -0.6947 H   0  0  0  0  0  0  0  0  0  0  0  0
    1.4409   -0.6035   -1.3320 H   0  0  0  0  0  0  0  0  0  0  0  0
    0.4685    0.6769   -2.7450 C   0  0  0  0  0  0  0  0  0  0  0  0
    0.0773   -0.1479   -3.3510 H   0  0  0  0  0  0  0  0  0  0  0  0
   -0.2649    1.4908   -2.7430 H   0  0  0  0  0  0  0  0  0  0  0  0
    1.7566    1.1465   -3.2884 N   0  3  0  0  0  0  0  0  0  0  0  0
    2.5481    1.1606   -2.6452 H   0  0  0  0  0  0  0  0  0  0  0  0
    1.9353    1.5266   -4.5202 C   0  0  0  0  0  0  0  0  0  0  0  0
    0.9044    1.5473   -5.4320 N   0  0  0  0  0  0  0  0  0  0  0  0
   -0.0430    1.4241   -5.0812 H   0  0  0  0  0  0  0  0  0  0  0  0
    1.0314    2.0636   -6.3004 H   0  0  0  0  0  0  0  0  0  0  0  0
    3.1865    1.9226   -4.9290 N   0  0  0  0  0  0  0  0  0  0  0  0
    3.9805    1.7395   -4.3178 H   0  0  0  0  0  0  0  0  0  0  0  0
    3.3653    2.0147   -5.9273 H   0  0  0  0  0  0  0  0  0  0  0  0
    0.2332   -1.3975    1.4610 C   0  0  0  0  0  0  0  0  0  0  0  0
    1.4411   -1.2046    1.5198 O   0  0  0  0  0  0  0  0  0  0  0  0
   -0.5589   -1.0345    2.5352 N   0  0  0  0  0  0  0  0  0  0  0  0
   -1.5443   -1.2700    2.4698 H   0  0  0  0  0  0  0  0  0  0  0  0
   -0.0069   -0.7156    3.8475 C   0  0  0  0  0  0  0  0  0  0  0  0
    0.6736    0.1399    3.7810 H   0  0  0  0  0  0  0  0  0  0  0  0
   -0.8103   -0.4612    4.5458 H   0  0  0  0  0  0  0  0  0  0  0  0
    0.5443   -1.5723    4.2499 H   0  0  0  0  0  0  0  0  0  0  0  0
  1  2  1  0  0  0  0
  2  3  1  0  0  0  0
  2  4  1  0  0  0  0
  2  5  1  0  0  0  0
  5  6  2  0  0  0  0
  5  7  1  0  0  0  0
  7  8  1  0  0  0  0
  7  9  1  0  0  0  0
  9 10  1  0  0  0  0
  9 11  1  0  0  0  0
  9 29  1  0  0  0  0
 11 12  1  0  0  0  0
 11 13  1  0  0  0  0
 11 14  1  0  0  0  0
 14 15  1  0  0  0  0
 14 16  1  0  0  0  0
 14 17  1  0  0  0  0
 17 18  1  0  0  0  0
 17 19  1  0  0  0  0
 17 20  1  0  0  0  0
 20 21  1  0  0  0  0
 20 22  2  0  0  0  0
 22 23  1  0  0  0  0
 22 26  1  0  0  0  0
 23 24  1  0  0  0  0
 23 25  1  0  0  0  0
 26 27  1  0  0  0  0
 26 28  1  0  0  0  0
 29 30  2  0  0  0  0
 29 31  1  0  0  0  0
 31 32  1  0  0  0  0
 31 33  1  0  0  0  0
 33 34  1  0  0  0  0
 33 35  1  0  0  0  0
 33 36  1  0  0  0  0
M  CHG  1  20   1
M  END
$$$$

  -OEChem-04042215563D

 36 35  0     1  0  0  0  0  0999 V2000
   -2.8766   -5.5089    0.9364 H   0  0  0  0  0  0  0  0  0  0  0  0
   -3.0045   -4.5160    0.4950 C   0  0  0  0  0  0  0  0  0  0  0  0
   -3.7752   -3.9811    1.0546 H   0  0  0  0  0  0  0  0  0  0  0  0
   -3.3292   -4.6322   -0.5416 H   0  0  0  0  0  0  0  0  0  0  0  0
   -1.6958   -3.7509    0.5473 C   0  0  0  0  0  0  0  0  0  0  0  0
   -0.6994   -4.2765    1.0091 O   0  0  0  0  0  0  0  0  0  0  0  0
   -1.6295   -2.4530    0.0752 N   0  0  0  0  0  0  0  0  0  0  0  0
   -2.4822   -2.0556   -0.3083 H   0  0  0  0  0  0  0  0  0  0  0  0
   -0.3992   -1.6406    0.0865 C   0  0  1  0  0  0  0  0  0  0  0  0
    0.3389   -2.2334   -0.4652 H   0  0  0  0  0  0  0  0  0  0  0  0
   -0.6208   -0.3115   -0.6630 C   0  0  0  0  0  0  0  0  0  0  0  0
   -1.3536   -0.4843   -1.4583 H   0  0  0  0  0  0  0  0  0  0  0  0
   -1.0361    0.4488    0.0076 H   0  0  0  0  0  0  0  0  0  0  0  0
    0.6864    0.1913   -1.3040 C   0  0  0  0  0  0  0  0  0  0  0  0
    1.2317    0.7949   -0.5688 H   0  0  0  0  0  0  0  0  0  0  0  0
    1.3275   -0.6561   -1.5713 H   0  0  0  0  0  0  0  0  0  0  0  0
    0.4202    1.0000   -2.5707 C   0  0  0  0  0  0  0  0  0  0  0  0
   -0.0869    0.3663   -3.3069 H   0  0  0  0  0  0  0  0  0  0  0  0
   -0.2301    1.8478   -2.3286 H   0  0  0  0  0  0  0  0  0  0  0  0
    1.7092    1.4783   -3.1035 N   0  3  0  0  0  0  0  0  0  0  0  0
    2.5374    1.2906   -2.5383 H   0  0  0  0  0  0  0  0  0  0  0  0
    1.8418    2.1183   -4.2288 C   0  0  0  0  0  0  0  0  0  0  0  0
    0.7599    2.4229   -5.0233 N   0  0  0  0  0  0  0  0  0  0  0  0
   -0.1698    2.2944   -4.6297 H   0  0  0  0  0  0  0  0  0  0  0  0
    0.8763    3.1148   -5.7609 H   0  0  0  0  0  0  0  0  0  0  0  0
    3.0944    2.5061   -4.6412 N   0  0  0  0  0  0  0  0  0  0  0  0
    3.9072    2.1383   -4.1497 H   0  0  0  0  0  0  0  0  0  0  0  0
    3.2173    2.8096   -5.6056 H   0  0  0  0  0  0  0  0  0  0  0  0
    0.2332   -1.3789    1.4706 C   0  0  0  0  0  0  0  0  0  0  0  0
    1.4403   -1.1794    1.5295 O   0  0  0  0  0  0  0  0  0  0  0  0
   -0.5619   -1.0121    2.5414 N   0  0  0  0  0  0  0  0  0  0  0  0
   -1.5427   -1.2665    2.4772 H   0  0  0  0  0  0  0  0  0  0  0  0
   -0.0126   -0.7056    3.8583 C   0  0  0  0  0  0  0  0  0  0  0  0
    0.7150    0.1104    3.7937 H   0  0  0  0  0  0  0  0  0  0  0  0
   -0.8109   -0.3977    4.5405 H   0  0  0  0  0  0  0  0  0  0  0  0
    0.4843   -1.5862    4.2793 H   0  0  0  0  0  0  0  0  0  0  0  0
  1  2  1  0  0  0  0
  2  3  1  0  0  0  0
  2  4  1  0  0  0  0
  2  5  1  0  0  0  0
  5  6  2  0  0  0  0
  5  7  1  0  0  0  0
  7  8  1  0  0  0  0
  7  9  1  0  0  0  0
  9 10  1  0  0  0  0
  9 11  1  0  0  0  0
  9 29  1  0  0  0  0
 11 12  1  0  0  0  0
 11 13  1  0  0  0  0
 11 14  1  0  0  0  0
 14 15  1  0  0  0  0
 14 16  1  0  0  0  0
 14 17  1  0  0  0  0
 17 18  1  0  0  0  0
 17 19  1  0  0  0  0
 17 20  1  0  0  0  0
 20 21  1  0  0  0  0
 20 22  2  0  0  0  0
 22 23  1  0  0  0  0
 22 26  1  0  0  0  0
 23 24  1  0  0  0  0
 23 25  1  0  0  0  0
 26 27  1  0  0  0  0
 26 28  1  0  0  0  0
 29 30  2  0  0  0  0
 29 31  1  0  0  0  0
 31 32  1  0  0  0  0
 31 33  1  0  0  0  0
 33 34  1  0  0  0  0
 33 35  1  0  0  0  0
 33 36  1  0  0  0  0
M  CHG  1  20   1
M  END
$$$$

  -OEChem-04042215563D

 36 35  0     1  0  0  0  0  0999 V2000
   -2.8475   -5.5140    0.9017 H   0  0  0  0  0  0  0  0  0  0  0  0
   -2.9789   -4.5192    0.4660 C   0  0  0  0  0  0  0  0  0  0  0  0
   -3.7676   -3.9986    1.0140 H   0  0  0  0  0  0  0  0  0  0  0  0
   -3.2811   -4.6311   -0.5778 H   0  0  0  0  0  0  0  0  0  0  0  0
   -1.6807   -3.7394    0.5518 C   0  0  0  0  0  0  0  0  0  0  0  0
   -0.6919   -4.2533    1.0420 O   0  0  0  0  0  0  0  0  0  0  0  0
   -1.6152   -2.4414    0.0791 N   0  0  0  0  0  0  0  0  0  0  0  0
   -2.4559   -2.0612   -0.3461 H   0  0  0  0  0  0  0  0  0  0  0  0
   -0.3861   -1.6267    0.0931 C   0  0  1  0  0  0  0  0  0  0  0  0
    0.3601   -2.2095   -0.4589 H   0  0  0  0  0  0  0  0  0  0  0  0
   -0.6140   -0.2950   -0.6501 C   0  0  0  0  0  0  0  0  0  0  0  0
   -1.3465   -0.4582   -1.4476 H   0  0  0  0  0  0  0  0  0  0  0  0
   -1.0240    0.4604    0.0293 H   0  0  0  0  0  0  0  0  0  0  0  0
    0.6934    0.2042   -1.2874 C   0  0  0  0  0  0  0  0  0  0  0  0
    1.3577    0.5781   -0.4995 H   0  0  0  0  0  0  0  0  0  0  0  0
    1.2021   -0.6274   -1.7875 H   0  0  0  0  0  0  0  0  0  0  0  0
    0.4292    1.3009   -2.3155 C   0  0  0  0  0  0  0  0  0  0  0  0
   -0.1998    0.9029   -3.1197 H   0  0  0  0  0  0  0  0  0  0  0  0
   -0.1007    2.1286   -1.8312 H   0  0  0  0  0  0  0  0  0  0  0  0
    1.7214    1.7665   -2.8522 N   0  3  0  0  0  0  0  0  0  0  0  0
    2.5621    1.3934   -2.4113 H   0  0  0  0  0  0  0  0  0  0  0  0
    1.8434    2.6251   -3.8225 C   0  0  0  0  0  0  0  0  0  0  0  0
    0.7482    3.1910   -4.4345 N   0  0  0  0  0  0  0  0  0  0  0  0
   -0.1601    3.0633   -3.9934 H   0  0  0  0  0  0  0  0  0  0  0  0
    0.8873    4.0161   -5.0146 H   0  0  0  0  0  0  0  0  0  0  0  0
    3.0986    2.9842   -4.2530 N   0  0  0  0  0  0  0  0  0  0  0  0
    3.9007    2.4481   -3.9262 H   0  0  0  0  0  0  0  0  0  0  0  0
    3.1867    3.4851   -5.1353 H   0  0  0  0  0  0  0  0  0  0  0  0
    0.2327   -1.3703    1.4852 C   0  0  0  0  0  0  0  0  0  0  0  0
    1.4395   -1.1749    1.5621 O   0  0  0  0  0  0  0  0  0  0  0  0
   -0.5757   -1.0089    2.5478 N   0  0  0  0  0  0  0  0  0  0  0  0
   -1.5543   -1.2686    2.4706 H   0  0  0  0  0  0  0  0  0  0  0  0
   -0.0428   -0.7112    3.8733 C   0  0  0  0  0  0  0  0  0  0  0  0
    0.6770    0.1128    3.8239 H   0  0  0  0  0  0  0  0  0  0  0  0
   -0.8510   -0.4187    4.5506 H   0  0  0  0  0  0  0  0  0  0  0  0
    0.4588   -1.5913    4.2901 H   0  0  0  0  0  0  0  0  0  0  0  0
  1  2  1  0  0  0  0
  2  3  1  0  0  0  0
  2  4  1  0  0  0  0
  2  5  1  0  0  0  0
  5  6  2  0  0  0  0
  5  7  1  0  0  0  0
  7  8  1  0  0  0  0
  7  9  1  0  0  0  0
  9 10  1  0  0  0  0
  9 11  1  0  0  0  0
  9 29  1  0  0  0  0
 11 12  1  0  0  0  0
 11 13  1  0  0  0  0
 11 14  1  0  0  0  0
 14 15  1  0  0  0  0
 14 16  1  0  0  0  0
 14 17  1  0  0  0  0
 17 18  1  0  0  0  0
 17 19  1  0  0  0  0
 17 20  1  0  0  0  0
 20 21  1  0  0  0  0
 20 22  2  0  0  0  0
 22 23  1  0  0  0  0
 22 26  1  0  0  0  0
 23 24  1  0  0  0  0
 23 25  1  0  0  0  0
 26 27  1  0  0  0  0
 26 28  1  0  0  0  0
 29 30  2  0  0  0  0
 29 31  1  0  0  0  0
 31 32  1  0  0  0  0
 31 33  1  0  0  0  0
 33 34  1  0  0  0  0
 33 35  1  0  0  0  0
 33 36  1  0  0  0  0
M  CHG  1  20   1
M  END
$$$$

  -OEChem-04042215563D

 36 35  0     1  0  0  0  0  0999 V2000
   -2.8403   -5.5240    0.8542 H   0  0  0  0  0  0  0  0  0  0  0  0
   -2.9841   -4.5190    0.4465 C   0  0  0  0  0  0  0  0  0  0  0  0
   -3.7689   -4.0180    1.0181 H   0  0  0  0  0  0  0  0  0  0  0  0
   -3.2992   -4.6062   -0.5960 H   0  0  0  0  0  0  0  0  0  0  0  0
   -1.6903   -3.7323    0.5358 C   0  0  0  0  0  0  0  0  0  0  0  0
   -0.6924   -4.2490    1.0043 O   0  0  0  0  0  0  0  0  0  0  0  0
   -1.6379   -2.4268    0.0836 N   0  0  0  0  0  0  0  0  0  0  0  0
   -2.4866   -2.0448   -0.3236 H   0  0  0  0  0  0  0  0  0  0  0  0
   -0.4144   -1.6038    0.0989 C   0  0  1  0  0  0  0  0  0  0  0  0
    0.3311   -2.1839   -0.4574 H   0  0  0  0  0  0  0  0  0  0  0  0
   -0.6397   -0.2682   -0.6401 C   0  0  0  0  0  0  0  0  0  0  0  0
   -1.5485   -0.3281   -1.2481 H   0  0  0  0  0  0  0  0  0  0  0  0
   -0.7779    0.5460    0.0805 H   0  0  0  0  0  0  0  0  0  0  0  0
    0.5489    0.0314   -1.5640 C   0  0  0  0  0  0  0  0  0  0  0  0
    1.4633    0.0850   -0.9609 H   0  0  0  0  0  0  0  0  0  0  0  0
    0.6684   -0.7810   -2.2895 H   0  0  0  0  0  0  0  0  0  0  0  0
    0.3467    1.3499   -2.3045 C   0  0  0  0  0  0  0  0  0  0  0  0
   -0.5277    1.2682   -2.9597 H   0  0  0  0  0  0  0  0  0  0  0  0
    0.1655    2.1474   -1.5752 H   0  0  0  0  0  0  0  0  0  0  0  0
    1.5577    1.6477   -3.0914 N   0  3  0  0  0  0  0  0  0  0  0  0
    2.3577    1.0296   -2.9568 H   0  0  0  0  0  0  0  0  0  0  0  0
    1.6702    2.6624   -3.8983 C   0  0  0  0  0  0  0  0  0  0  0  0
    0.6421    3.5577   -4.0860 N   0  0  0  0  0  0  0  0  0  0  0  0
   -0.1457    3.5139   -3.4432 H   0  0  0  0  0  0  0  0  0  0  0  0
    0.8507    4.4520   -4.5255 H   0  0  0  0  0  0  0  0  0  0  0  0
    2.8460    2.8543   -4.5836 N   0  0  0  0  0  0  0  0  0  0  0  0
    3.5452    2.1138   -4.5772 H   0  0  0  0  0  0  0  0  0  0  0  0
    2.8574    3.5161   -5.3576 H   0  0  0  0  0  0  0  0  0  0  0  0
    0.2231   -1.3596    1.4838 C   0  0  0  0  0  0  0  0  0  0  0  0
    1.4272   -1.1434    1.5377 O   0  0  0  0  0  0  0  0  0  0  0  0
   -0.5686   -1.0177    2.5652 N   0  0  0  0  0  0  0  0  0  0  0  0
   -1.5461   -1.2855    2.5043 H   0  0  0  0  0  0  0  0  0  0  0  0
   -0.0110   -0.7370    3.8842 C   0  0  0  0  0  0  0  0  0  0  0  0
    0.6620    0.1260    3.8430 H   0  0  0  0  0  0  0  0  0  0  0  0
   -0.8121   -0.5137    4.5954 H   0  0  0  0  0  0  0  0  0  0  0  0
    0.5502   -1.6020    4.2542 H   0  0  0  0  0  0  0  0  0  0  0  0
  1  2  1  0  0  0  0
  2  3  1  0  0  0  0
  2  4  1  0  0  0  0
  2  5  1  0  0  0  0
  5  6  2  0  0  0  0
  5  7  1  0  0  0  0
  7  8  1  0  0  0  0
  7  9  1  0  0  0  0
  9 10  1  0  0  0  0
  9 11  1  0  0  0  0
  9 29  1  0  0  0  0
 11 12  1  0  0  0  0
 11 13  1  0  0  0  0
 11 14  1  0  0  0  0
 14 15  1  0  0  0  0
 14 16  1  0  0  0  0
 14 17  1  0  0  0  0
 17 18  1  0  0  0  0
 17 19  1  0  0  0  0
 17 20  1  0  0  0  0
 20 21  1  0  0  0  0
 20 22  2  0  0  0  0
 22 23  1  0  0  0  0
 22 26  1  0  0  0  0
 23 24  1  0  0  0  0
 23 25  1  0  0  0  0
 26 27  1  0  0  0  0
 26 28  1  0  0  0  0
 29 30  2  0  0  0  0
 29 31  1  0  0  0  0
 31 32  1  0  0  0  0
 31 33  1  0  0  0  0
 33 34  1  0  0  0  0
 33 35  1  0  0  0  0
 33 36  1  0  0  0  0
M  CHG  1  20   1
M  END
$$$$

  -OEChem-04042215563D

 36 35  0     1  0  0  0  0  0999 V2000
   -2.8307   -5.5244    0.8635 H   0  0  0  0  0  0  0  0  0  0  0  0
   -2.9756   -4.5238    0.4459 C   0  0  0  0  0  0  0  0  0  0  0  0
   -3.7717   -4.0235    1.0024 H   0  0  0  0  0  0  0  0  0  0  0  0
   -3.2750   -4.6210   -0.6002 H   0  0  0  0  0  0  0  0  0  0  0  0
   -1.6883   -3.7281    0.5460 C   0  0  0  0  0  0  0  0  0  0  0  0
   -0.6926   -4.2353    1.0294 O   0  0  0  0  0  0  0  0  0  0  0  0
   -1.6383   -2.4254    0.0856 N   0  0  0  0  0  0  0  0  0  0  0  0
   -2.4829   -2.0534   -0.3392 H   0  0  0  0  0  0  0  0  0  0  0  0
   -0.4147   -1.6028    0.0890 C   0  0  1  0  0  0  0  0  0  0  0  0
    0.3254   -2.1855   -0.4721 H   0  0  0  0  0  0  0  0  0  0  0  0
   -0.6440   -0.2699   -0.6542 C   0  0  0  0  0  0  0  0  0  0  0  0
   -1.5605   -0.3183   -1.2513 H   0  0  0  0  0  0  0  0  0  0  0  0
   -0.7682    0.5408    0.0728 H   0  0  0  0  0  0  0  0  0  0  0  0
    0.5388    0.0262   -1.5883 C   0  0  0  0  0  0  0  0  0  0  0  0
    1.4749   -0.1582   -1.0475 H   0  0  0  0  0  0  0  0  0  0  0  0
    0.5097   -0.6471   -2.4522 H   0  0  0  0  0  0  0  0  0  0  0  0
    0.5188    1.4821   -2.0460 C   0  0  0  0  0  0  0  0  0  0  0  0
   -0.3616    1.6546   -2.6750 H   0  0  0  0  0  0  0  0  0  0  0  0
    0.4547    2.1323   -1.1664 H   0  0  0  0  0  0  0  0  0  0  0  0
    1.7567    1.7680   -2.7945 N   0  3  0  0  0  0  0  0  0  0  0  0
    2.4628    1.0324   -2.8137 H   0  0  0  0  0  0  0  0  0  0  0  0
    2.0170    2.9097   -3.3621 C   0  0  0  0  0  0  0  0  0  0  0  0
    1.1289    3.9599   -3.3234 N   0  0  0  0  0  0  0  0  0  0  0  0
    0.3398    3.8879   -2.6846 H   0  0  0  0  0  0  0  0  0  0  0  0
    1.4671    4.8899   -3.5620 H   0  0  0  0  0  0  0  0  0  0  0  0
    3.2126    3.0808   -4.0179 N   0  0  0  0  0  0  0  0  0  0  0  0
    3.8029    2.2680   -4.1844 H   0  0  0  0  0  0  0  0  0  0  0  0
    3.3264    3.8891   -4.6268 H   0  0  0  0  0  0  0  0  0  0  0  0
    0.2305   -1.3509    1.4694 C   0  0  0  0  0  0  0  0  0  0  0  0
    1.4332   -1.1236    1.5140 O   0  0  0  0  0  0  0  0  0  0  0  0
   -0.5570   -1.0027    2.5519 N   0  0  0  0  0  0  0  0  0  0  0  0
   -1.5318   -1.2832    2.5005 H   0  0  0  0  0  0  0  0  0  0  0  0
    0.0069   -0.7047    3.8645 C   0  0  0  0  0  0  0  0  0  0  0  0
    0.6709    0.1646    3.8109 H   0  0  0  0  0  0  0  0  0  0  0  0
   -0.7917   -0.4830    4.5791 H   0  0  0  0  0  0  0  0  0  0  0  0
    0.5794   -1.5602    4.2391 H   0  0  0  0  0  0  0  0  0  0  0  0
  1  2  1  0  0  0  0
  2  3  1  0  0  0  0
  2  4  1  0  0  0  0
  2  5  1  0  0  0  0
  5  6  2  0  0  0  0
  5  7  1  0  0  0  0
  7  8  1  0  0  0  0
  7  9  1  0  0  0  0
  9 10  1  0  0  0  0
  9 11  1  0  0  0  0
  9 29  1  0  0  0  0
 11 12  1  0  0  0  0
 11 13  1  0  0  0  0
 11 14  1  0  0  0  0
 14 15  1  0  0  0  0
 14 16  1  0  0  0  0
 14 17  1  0  0  0  0
 17 18  1  0  0  0  0
 17 19  1  0  0  0  0
 17 20  1  0  0  0  0
 20 21  1  0  0  0  0
 20 22  2  0  0  0  0
 22 23  1  0  0  0  0
 22 26  1  0  0  0  0
 23 24  1  0  0  0  0
 23 25  1  0  0  0  0
 26 27  1  0  0  0  0
 26 28  1  0  0  0  0
 29 30  2  0  0  0  0
 29 31  1  0  0  0  0
 31 32  1  0  0  0  0
 31 33  1  0  0  0  0
 33 34  1  0  0  0  0
 33 35  1  0  0  0  0
 33 36  1  0  0  0  0
M  CHG  1  20   1
M  END
$$$$

  -OEChem-04042215563D

 36 35  0     1  0  0  0  0  0999 V2000
   -2.8248   -5.5118    0.9004 H   0  0  0  0  0  0  0  0  0  0  0  0
   -2.9641   -4.5207    0.4585 C   0  0  0  0  0  0  0  0  0  0  0  0
   -3.7653   -4.0072    0.9953 H   0  0  0  0  0  0  0  0  0  0  0  0
   -3.2529   -4.6416   -0.5883 H   0  0  0  0  0  0  0  0  0  0  0  0
   -1.6772   -3.7238    0.5539 C   0  0  0  0  0  0  0  0  0  0  0  0
   -0.6839   -4.2235    1.0505 O   0  0  0  0  0  0  0  0  0  0  0  0
   -1.6276   -2.4254    0.0815 N   0  0  0  0  0  0  0  0  0  0  0  0
   -2.4687   -2.0623   -0.3584 H   0  0  0  0  0  0  0  0  0  0  0  0
   -0.4046   -1.6024    0.0783 C   0  0  1  0  0  0  0  0  0  0  0  0
    0.3328   -2.1937   -0.4772 H   0  0  0  0  0  0  0  0  0  0  0  0
   -0.6333   -0.2761   -0.6770 C   0  0  0  0  0  0  0  0  0  0  0  0
   -1.5514   -0.3247   -1.2717 H   0  0  0  0  0  0  0  0  0  0  0  0
   -0.7607    0.5345    0.0496 H   0  0  0  0  0  0  0  0  0  0  0  0
    0.5465    0.0243   -1.6180 C   0  0  0  0  0  0  0  0  0  0  0  0
    1.4687   -0.3826   -1.1861 H   0  0  0  0  0  0  0  0  0  0  0  0
    0.3860   -0.4602   -2.5873 H   0  0  0  0  0  0  0  0  0  0  0  0
    0.7309    1.5309   -1.7852 C   0  0  0  0  0  0  0  0  0  0  0  0
   -0.1272    1.9444   -2.3266 H   0  0  0  0  0  0  0  0  0  0  0  0
    0.7770    1.9958   -0.7940 H   0  0  0  0  0  0  0  0  0  0  0  0
    1.9826    1.7932   -2.5191 N   0  3  0  0  0  0  0  0  0  0  0  0
    2.5618    0.9856   -2.7464 H   0  0  0  0  0  0  0  0  0  0  0  0
    2.4151    2.9854   -2.8112 C   0  0  0  0  0  0  0  0  0  0  0  0
    1.7078    4.1173   -2.4755 N   0  0  0  0  0  0  0  0  0  0  0  0
    0.9262    4.0125   -1.8321 H   0  0  0  0  0  0  0  0  0  0  0  0
    2.1874    5.0149   -2.5011 H   0  0  0  0  0  0  0  0  0  0  0  0
    3.6129    3.1280   -3.4701 N   0  0  0  0  0  0  0  0  0  0  0  0
    4.0631    2.3010   -3.8580 H   0  0  0  0  0  0  0  0  0  0  0  0
    3.8467    4.0346   -3.8705 H   0  0  0  0  0  0  0  0  0  0  0  0
    0.2407   -1.3365    1.4559 C   0  0  0  0  0  0  0  0  0  0  0  0
    1.4411   -1.0946    1.4956 O   0  0  0  0  0  0  0  0  0  0  0  0
   -0.5496   -0.9785    2.5330 N   0  0  0  0  0  0  0  0  0  0  0  0
   -1.5217   -1.2687    2.4830 H   0  0  0  0  0  0  0  0  0  0  0  0
    0.0100   -0.6694    3.8445 C   0  0  0  0  0  0  0  0  0  0  0  0
    0.6723    0.2007    3.7856 H   0  0  0  0  0  0  0  0  0  0  0  0
   -0.7911   -0.4438    4.5550 H   0  0  0  0  0  0  0  0  0  0  0  0
    0.5825   -1.5215    4.2268 H   0  0  0  0  0  0  0  0  0  0  0  0
  1  2  1  0  0  0  0
  2  3  1  0  0  0  0
  2  4  1  0  0  0  0
  2  5  1  0  0  0  0
  5  6  2  0  0  0  0
  5  7  1  0  0  0  0
  7  8  1  0  0  0  0
  7  9  1  0  0  0  0
  9 10  1  0  0  0  0
  9 11  1  0  0  0  0
  9 29  1  0  0  0  0
 11 12  1  0  0  0  0
 11 13  1  0  0  0  0
 11 14  1  0  0  0  0
 14 15  1  0  0  0  0
 14 16  1  0  0  0  0
 14 17  1  0  0  0  0
 17 18  1  0  0  0  0
 17 19  1  0  0  0  0
 17 20  1  0  0  0  0
 20 21  1  0  0  0  0
 20 22  2  0  0  0  0
 22 23  1  0  0  0  0
 22 26  1  0  0  0  0
 23 24  1  0  0  0  0
 23 25  1  0  0  0  0
 26 27  1  0  0  0  0
 26 28  1  0  0  0  0
 29 30  2  0  0  0  0
 29 31  1  0  0  0  0
 31 32  1  0  0  0  0
 31 33  1  0  0  0  0
 33 34  1  0  0  0  0
 33 35  1  0  0  0  0
 33 36  1  0  0  0  0
M  CHG  1  20   1
M  END
$$$$

  -OEChem-04042215563D

 36 35  0     1  0  0  0  0  0999 V2000
   -1.9705   -5.5252    1.2529 H   0  0  0  0  0  0  0  0  0  0  0  0
   -2.3379   -4.6211    0.7584 C   0  0  0  0  0  0  0  0  0  0  0  0
   -3.1859   -4.2310    1.3263 H   0  0  0  0  0  0  0  0  0  0  0  0
   -2.6708   -4.8843   -0.2485 H   0  0  0  0  0  0  0  0  0  0  0  0
   -1.2351   -3.5817    0.6880 C   0  0  0  0  0  0  0  0  0  0  0  0
   -0.1452   -3.8080    1.1840 O   0  0  0  0  0  0  0  0  0  0  0  0
   -1.4583   -2.3631    0.0734 N   0  0  0  0  0  0  0  0  0  0  0  0
   -2.3621   -2.2297   -0.3732 H   0  0  0  0  0  0  0  0  0  0  0  0
   -0.4096   -1.3452   -0.1127 C   0  0  1  0  0  0  0  0  0  0  0  0
    0.3814   -1.8818   -0.6485 H   0  0  0  0  0  0  0  0  0  0  0  0
   -0.8830   -0.1661   -0.9867 C   0  0  0  0  0  0  0  0  0  0  0  0
   -1.7972   -0.4419   -1.5230 H   0  0  0  0  0  0  0  0  0  0  0  0
   -1.1364    0.6884   -0.3487 H   0  0  0  0  0  0  0  0  0  0  0  0
    0.1930    0.2084   -2.0267 C   0  0  0  0  0  0  0  0  0  0  0  0
    1.1538   -0.2469   -1.7648 H   0  0  0  0  0  0  0  0  0  0  0  0
   -0.0855   -0.1719   -3.0156 H   0  0  0  0  0  0  0  0  0  0  0  0
    0.3651    1.7282   -2.0701 C   0  0  0  0  0  0  0  0  0  0  0  0
   -0.3999    2.1651   -2.7216 H   0  0  0  0  0  0  0  0  0  0  0  0
    0.2190    2.1471   -1.0682 H   0  0  0  0  0  0  0  0  0  0  0  0
    1.7147    2.0846   -2.5480 N   0  3  0  0  0  0  0  0  0  0  0  0
    1.8062    2.3314   -3.5325 H   0  0  0  0  0  0  0  0  0  0  0  0
    2.7622    2.1575   -1.7725 C   0  0  0  0  0  0  0  0  0  0  0  0
    2.7312    1.8177   -0.4374 N   0  0  0  0  0  0  0  0  0  0  0  0
    1.9597    1.2288   -0.1066 H   0  0  0  0  0  0  0  0  0  0  0  0
    3.6179    1.6936    0.0444 H   0  0  0  0  0  0  0  0  0  0  0  0
    3.9553    2.5925   -2.2983 N   0  0  0  0  0  0  0  0  0  0  0  0
    3.9556    3.0263   -3.2191 H   0  0  0  0  0  0  0  0  0  0  0  0
    4.7029    2.8414   -1.6531 H   0  0  0  0  0  0  0  0  0  0  0  0
    0.2688   -0.7884    1.1576 C   0  0  0  0  0  0  0  0  0  0  0  0
    1.3688   -0.2542    1.0244 O   0  0  0  0  0  0  0  0  0  0  0  0
   -0.5001   -0.4359    2.2506 N   0  0  0  0  0  0  0  0  0  0  0  0
   -1.3870   -0.9248    2.3419 H   0  0  0  0  0  0  0  0  0  0  0  0
    0.0578    0.1982    3.4407 C   0  0  0  0  0  0  0  0  0  0  0  0
    0.5010    1.1677    3.1905 H   0  0  0  0  0  0  0  0  0  0  0  0
   -0.7277    0.3634    4.1850 H   0  0  0  0  0  0  0  0  0  0  0  0
    0.8299   -0.4377    3.8874 H   0  0  0  0  0  0  0  0  0  0  0  0
  1  2  1  0  0  0  0
  2  3  1  0  0  0  0
  2  4  1  0  0  0  0
  2  5  1  0  0  0  0
  5  6  2  0  0  0  0
  5  7  1  0  0  0  0
  7  8  1  0  0  0  0
  7  9  1  0  0  0  0
  9 10  1  0  0  0  0
  9 11  1  0  0  0  0
  9 29  1  0  0  0  0
 11 12  1  0  0  0  0
 11 13  1  0  0  0  0
 11 14  1  0  0  0  0
 14 15  1  0  0  0  0
 14 16  1  0  0  0  0
 14 17  1  0  0  0  0
 17 18  1  0  0  0  0
 17 19  1  0  0  0  0
 17 20  1  0  0  0  0
 20 21  1  0  0  0  0
 20 22  2  0  0  0  0
 22 23  1  0  0  0  0
 22 26  1  0  0  0  0
 23 24  1  0  0  0  0
 23 25  1  0  0  0  0
 26 27  1  0  0  0  0
 26 28  1  0  0  0  0
 29 30  2  0  0  0  0
 29 31  1  0  0  0  0
 31 32  1  0  0  0  0
 31 33  1  0  0  0  0
 33 34  1  0  0  0  0
 33 35  1  0  0  0  0
 33 36  1  0  0  0  0
M  CHG  1  20   1
M  END
$$$$

  -OEChem-04042215563D

 36 35  0     1  0  0  0  0  0999 V2000
   -1.9315   -5.5611    1.1212 H   0  0  0  0  0  0  0  0  0  0  0  0
   -2.2850   -4.6459    0.6372 C   0  0  0  0  0  0  0  0  0  0  0  0
   -3.1623   -4.2806    1.1761 H   0  0  0  0  0  0  0  0  0  0  0  0
   -2.5683   -4.8812   -0.3914 H   0  0  0  0  0  0  0  0  0  0  0  0
   -1.1907   -3.5958    0.6486 C   0  0  0  0  0  0  0  0  0  0  0  0
   -0.1128   -3.8377    1.1632 O   0  0  0  0  0  0  0  0  0  0  0  0
   -1.4043   -2.3549    0.0770 N   0  0  0  0  0  0  0  0  0  0  0  0
   -2.2959   -2.2077   -0.3893 H   0  0  0  0  0  0  0  0  0  0  0  0
   -0.3553   -1.3273   -0.0423 C   0  0  1  0  0  0  0  0  0  0  0  0
    0.4514   -1.8411   -0.5759 H   0  0  0  0  0  0  0  0  0  0  0  0
   -0.8172   -0.1159   -0.8796 C   0  0  0  0  0  0  0  0  0  0  0  0
   -1.7093   -0.3940   -1.4504 H   0  0  0  0  0  0  0  0  0  0  0  0
   -1.1126    0.7106   -0.2230 H   0  0  0  0  0  0  0  0  0  0  0  0
    0.2680    0.3210   -1.8869 C   0  0  0  0  0  0  0  0  0  0  0  0
    1.1498   -0.3253   -1.8298 H   0  0  0  0  0  0  0  0  0  0  0  0
   -0.1198    0.2484   -2.9089 H   0  0  0  0  0  0  0  0  0  0  0  0
    0.6765    1.7663   -1.5942 C   0  0  0  0  0  0  0  0  0  0  0  0
   -0.0759    2.4499   -2.0029 H   0  0  0  0  0  0  0  0  0  0  0  0
    0.7081    1.9264   -0.5105 H   0  0  0  0  0  0  0  0  0  0  0  0
    2.0032    2.0551   -2.1705 N   0  3  0  0  0  0  0  0  0  0  0  0
    2.0269    2.4048   -3.1273 H   0  0  0  0  0  0  0  0  0  0  0  0
    3.1227    1.9124   -1.5155 C   0  0  0  0  0  0  0  0  0  0  0  0
    3.1795    1.4242   -0.2291 N   0  0  0  0  0  0  0  0  0  0  0  0
    2.3523    0.9502    0.1506 H   0  0  0  0  0  0  0  0  0  0  0  0
    4.0790    1.1213    0.1351 H   0  0  0  0  0  0  0  0  0  0  0  0
    4.3047    2.2589   -2.1249 N   0  0  0  0  0  0  0  0  0  0  0  0
    4.2693    2.8049   -2.9830 H   0  0  0  0  0  0  0  0  0  0  0  0
    5.1375    2.3380   -1.5443 H   0  0  0  0  0  0  0  0  0  0  0  0
    0.2875   -0.8206    1.2655 C   0  0  0  0  0  0  0  0  0  0  0  0
    1.4031   -0.3087    1.1893 O   0  0  0  0  0  0  0  0  0  0  0  0
   -0.5090   -0.5136    2.3522 N   0  0  0  0  0  0  0  0  0  0  0  0
   -1.4075   -0.9881    2.3915 H   0  0  0  0  0  0  0  0  0  0  0  0
    0.0157    0.0676    3.5832 C   0  0  0  0  0  0  0  0  0  0  0  0
    0.4789    1.0397    3.3846 H   0  0  0  0  0  0  0  0  0  0  0  0
   -0.7927    0.2156    4.3061 H   0  0  0  0  0  0  0  0  0  0  0  0
    0.7638   -0.5949    4.0317 H   0  0  0  0  0  0  0  0  0  0  0  0
  1  2  1  0  0  0  0
  2  3  1  0  0  0  0
  2  4  1  0  0  0  0
  2  5  1  0  0  0  0
  5  6  2  0  0  0  0
  5  7  1  0  0  0  0
  7  8  1  0  0  0  0
  7  9  1  0  0  0  0
  9 10  1  0  0  0  0
  9 11  1  0  0  0  0
  9 29  1  0  0  0  0
 11 12  1  0  0  0  0
 11 13  1  0  0  0  0
 11 14  1  0  0  0  0
 14 15  1  0  0  0  0
 14 16  1  0  0  0  0
 14 17  1  0  0  0  0
 17 18  1  0  0  0  0
 17 19  1  0  0  0  0
 17 20  1  0  0  0  0
 20 21  1  0  0  0  0
 20 22  2  0  0  0  0
 22 23  1  0  0  0  0
 22 26  1  0  0  0  0
 23 24  1  0  0  0  0
 23 25  1  0  0  0  0
 26 27  1  0  0  0  0
 26 28  1  0  0  0  0
 29 30  2  0  0  0  0
 29 31  1  0  0  0  0
 31 32  1  0  0  0  0
 31 33  1  0  0  0  0
 33 34  1  0  0  0  0
 33 35  1  0  0  0  0
 33 36  1  0  0  0  0
M  CHG  1  20   1
M  END
$$$$

  -OEChem-04042215563D

 36 35  0     1  0  0  0  0  0999 V2000
   -1.9522   -5.5613    1.0934 H   0  0  0  0  0  0  0  0  0  0  0  0
   -2.2742   -4.6413    0.5969 C   0  0  0  0  0  0  0  0  0  0  0  0
   -3.1504   -4.2496    1.1188 H   0  0  0  0  0  0  0  0  0  0  0  0
   -2.5468   -4.8764   -0.4346 H   0  0  0  0  0  0  0  0  0  0  0  0
   -1.1547   -3.6187    0.6181 C   0  0  0  0  0  0  0  0  0  0  0  0
   -0.0807   -3.8917    1.1252 O   0  0  0  0  0  0  0  0  0  0  0  0
   -1.3465   -2.3644    0.0695 N   0  0  0  0  0  0  0  0  0  0  0  0
   -2.2388   -2.1901   -0.3862 H   0  0  0  0  0  0  0  0  0  0  0  0
   -0.2904   -1.3402   -0.0051 C   0  0  1  0  0  0  0  0  0  0  0  0
    0.5301   -1.8373   -0.5331 H   0  0  0  0  0  0  0  0  0  0  0  0
   -0.7473   -0.1134   -0.8245 C   0  0  0  0  0  0  0  0  0  0  0  0
   -1.6219   -0.3992   -1.4186 H   0  0  0  0  0  0  0  0  0  0  0  0
   -1.0700    0.7009   -0.1655 H   0  0  0  0  0  0  0  0  0  0  0  0
    0.3425    0.3545   -1.8099 C   0  0  0  0  0  0  0  0  0  0  0  0
    1.0935   -0.4236   -1.9799 H   0  0  0  0  0  0  0  0  0  0  0  0
   -0.1125    0.5787   -2.7808 H   0  0  0  0  0  0  0  0  0  0  0  0
    0.9967    1.6271   -1.2653 C   0  0  0  0  0  0  0  0  0  0  0  0
    0.3466    2.4865   -1.4643 H   0  0  0  0  0  0  0  0  0  0  0  0
    1.1036    1.5459   -0.1780 H   0  0  0  0  0  0  0  0  0  0  0  0
    2.3203    1.8331   -1.8822 N   0  3  0  0  0  0  0  0  0  0  0  0
    2.3361    2.2134   -2.8272 H   0  0  0  0  0  0  0  0  0  0  0  0
    3.4487    1.5781   -1.2793 C   0  0  0  0  0  0  0  0  0  0  0  0
    3.5153    1.0483   -0.0108 N   0  0  0  0  0  0  0  0  0  0  0  0
    2.6608    0.6516    0.3963 H   0  0  0  0  0  0  0  0  0  0  0  0
    4.3964    0.6540    0.3073 H   0  0  0  0  0  0  0  0  0  0  0  0
    4.6307    1.8461   -1.9275 N   0  0  0  0  0  0  0  0  0  0  0  0
    4.6070    2.4178   -2.7691 H   0  0  0  0  0  0  0  0  0  0  0  0
    5.4894    1.8391   -1.3801 H   0  0  0  0  0  0  0  0  0  0  0  0
    0.3179   -0.8732    1.3334 C   0  0  0  0  0  0  0  0  0  0  0  0
    1.4579   -0.4137    1.3179 O   0  0  0  0  0  0  0  0  0  0  0  0
   -0.5025   -0.5891    2.4083 N   0  0  0  0  0  0  0  0  0  0  0  0
   -1.4193   -1.0286    2.3984 H   0  0  0  0  0  0  0  0  0  0  0  0
    0.0008   -0.0734    3.6768 C   0  0  0  0  0  0  0  0  0  0  0  0
    0.4916    0.8948    3.5323 H   0  0  0  0  0  0  0  0  0  0  0  0
   -0.8236    0.0629    4.3840 H   0  0  0  0  0  0  0  0  0  0  0  0
    0.7209   -0.7723    4.1159 H   0  0  0  0  0  0  0  0  0  0  0  0
  1  2  1  0  0  0  0
  2  3  1  0  0  0  0
  2  4  1  0  0  0  0
  2  5  1  0  0  0  0
  5  6  2  0  0  0  0
  5  7  1  0  0  0  0
  7  8  1  0  0  0  0
  7  9  1  0  0  0  0
  9 10  1  0  0  0  0
  9 11  1  0  0  0  0
  9 29  1  0  0  0  0
 11 12  1  0  0  0  0
 11 13  1  0  0  0  0
 11 14  1  0  0  0  0
 14 15  1  0  0  0  0
 14 16  1  0  0  0  0
 14 17  1  0  0  0  0
 17 18  1  0  0  0  0
 17 19  1  0  0  0  0
 17 20  1  0  0  0  0
 20 21  1  0  0  0  0
 20 22  2  0  0  0  0
 22 23  1  0  0  0  0
 22 26  1  0  0  0  0
 23 24  1  0  0  0  0
 23 25  1  0  0  0  0
 26 27  1  0  0  0  0
 26 28  1  0  0  0  0
 29 30  2  0  0  0  0
 29 31  1  0  0  0  0
 31 32  1  0  0  0  0
 31 33  1  0  0  0  0
 33 34  1  0  0  0  0
 33 35  1  0  0  0  0
 33 36  1  0  0  0  0
M  CHG  1  20   1
M  END
$$$$

  -OEChem-04042215563D

 36 35  0     1  0  0  0  0  0999 V2000
   -1.8841   -5.5771    1.0308 H   0  0  0  0  0  0  0  0  0  0  0  0
   -2.1972   -4.6559    0.5308 C   0  0  0  0  0  0  0  0  0  0  0  0
   -3.0835   -4.2664    1.0372 H   0  0  0  0  0  0  0  0  0  0  0  0
   -2.4497   -4.8883   -0.5066 H   0  0  0  0  0  0  0  0  0  0  0  0
   -1.0785   -3.6331    0.5767 C   0  0  0  0  0  0  0  0  0  0  0  0
   -0.0039   -3.9195    1.0756 O   0  0  0  0  0  0  0  0  0  0  0  0
   -1.2673   -2.3677    0.0518 N   0  0  0  0  0  0  0  0  0  0  0  0
   -2.1615   -2.1786   -0.3941 H   0  0  0  0  0  0  0  0  0  0  0  0
   -0.2177   -1.3340    0.0267 C   0  0  1  0  0  0  0  0  0  0  0  0
    0.6271   -1.7963   -0.4949 H   0  0  0  0  0  0  0  0  0  0  0  0
   -0.6880   -0.1023   -0.7822 C   0  0  0  0  0  0  0  0  0  0  0  0
   -1.5480   -0.3939   -1.3946 H   0  0  0  0  0  0  0  0  0  0  0  0
   -1.0303    0.6977   -0.1158 H   0  0  0  0  0  0  0  0  0  0  0  0
    0.4026    0.4085   -1.7426 C   0  0  0  0  0  0  0  0  0  0  0  0
    1.0061   -0.4248   -2.1182 H   0  0  0  0  0  0  0  0  0  0  0  0
   -0.0692    0.8807   -2.6111 H   0  0  0  0  0  0  0  0  0  0  0  0
    1.2794    1.4501   -1.0389 C   0  0  0  0  0  0  0  0  0  0  0  0
    0.7803    2.4248   -1.0734 H   0  0  0  0  0  0  0  0  0  0  0  0
    1.3944    1.1876    0.0158 H   0  0  0  0  0  0  0  0  0  0  0  0
    2.6032    1.5347   -1.6836 N   0  3  0  0  0  0  0  0  0  0  0  0
    2.6382    1.9522   -2.6120 H   0  0  0  0  0  0  0  0  0  0  0  0
    3.7104    1.1239   -1.1297 C   0  0  0  0  0  0  0  0  0  0  0  0
    3.7541    0.5421    0.1162 N   0  0  0  0  0  0  0  0  0  0  0  0
    2.8702    0.2663    0.5584 H   0  0  0  0  0  0  0  0  0  0  0  0
    4.5848    0.0226    0.3863 H   0  0  0  0  0  0  0  0  0  0  0  0
    4.8948    1.2716   -1.8110 N   0  0  0  0  0  0  0  0  0  0  0  0
    4.9151    1.8795   -2.6267 H   0  0  0  0  0  0  0  0  0  0  0  0
    5.7630    1.1367   -1.2962 H   0  0  0  0  0  0  0  0  0  0  0  0
    0.3329   -0.9143    1.4067 C   0  0  0  0  0  0  0  0  0  0  0  0
    1.5002   -0.5399    1.4824 O   0  0  0  0  0  0  0  0  0  0  0  0
   -0.5262   -0.6726    2.4616 N   0  0  0  0  0  0  0  0  0  0  0  0
   -1.4619   -1.0609    2.3778 H   0  0  0  0  0  0  0  0  0  0  0  0
   -0.0661   -0.2553    3.7819 C   0  0  0  0  0  0  0  0  0  0  0  0
    0.4847    0.6890    3.7189 H   0  0  0  0  0  0  0  0  0  0  0  0
   -0.9194   -0.1090    4.4515 H   0  0  0  0  0  0  0  0  0  0  0  0
    0.5892   -1.0172    4.2176 H   0  0  0  0  0  0  0  0  0  0  0  0
  1  2  1  0  0  0  0
  2  3  1  0  0  0  0
  2  4  1  0  0  0  0
  2  5  1  0  0  0  0
  5  6  2  0  0  0  0
  5  7  1  0  0  0  0
  7  8  1  0  0  0  0
  7  9  1  0  0  0  0
  9 10  1  0  0  0  0
  9 11  1  0  0  0  0
  9 29  1  0  0  0  0
 11 12  1  0  0  0  0
 11 13  1  0  0  0  0
 11 14  1  0  0  0  0
 14 15  1  0  0  0  0
 14 16  1  0  0  0  0
 14 17  1  0  0  0  0
 17 18  1  0  0  0  0
 17 19  1  0  0  0  0
 17 20  1  0  0  0  0
 20 21  1  0  0  0  0
 20 22  2  0  0  0  0
 22 23  1  0  0  0  0
 22 26  1  0  0  0  0
 23 24  1  0  0  0  0
 23 25  1  0  0  0  0
 26 27  1  0  0  0  0
 26 28  1  0  0  0  0
 29 30  2  0  0  0  0
 29 31  1  0  0  0  0
 31 32  1  0  0  0  0
 31 33  1  0  0  0  0
 33 34  1  0  0  0  0
 33 35  1  0  0  0  0
 33 36  1  0  0  0  0
M  CHG  1  20   1
M  END
$$$$

  -OEChem-04042215563D

 36 35  0     1  0  0  0  0  0999 V2000
   -1.7053   -5.5999    0.9604 H   0  0  0  0  0  0  0  0  0  0  0  0
   -2.0383   -4.6685    0.4934 C   0  0  0  0  0  0  0  0  0  0  0  0
   -2.9248   -4.3098    1.0217 H   0  0  0  0  0  0  0  0  0  0  0  0
   -2.2992   -4.8731   -0.5477 H   0  0  0  0  0  0  0  0  0  0  0  0
   -0.9352   -3.6298    0.5598 C   0  0  0  0  0  0  0  0  0  0  0  0
    0.1401   -3.9071    1.0627 O   0  0  0  0  0  0  0  0  0  0  0  0
   -1.1334   -2.3648    0.0366 N   0  0  0  0  0  0  0  0  0  0  0  0
   -2.0302   -2.1800   -0.4060 H   0  0  0  0  0  0  0  0  0  0  0  0
   -0.1131   -1.3016    0.0709 C   0  0  1  0  0  0  0  0  0  0  0  0
    0.7741   -1.7172   -0.4195 H   0  0  0  0  0  0  0  0  0  0  0  0
   -0.6041   -0.0856   -0.7521 C   0  0  0  0  0  0  0  0  0  0  0  0
   -1.4375   -0.3980   -1.3904 H   0  0  0  0  0  0  0  0  0  0  0  0
   -0.9868    0.6974   -0.0876 H   0  0  0  0  0  0  0  0  0  0  0  0
    0.4896    0.4853   -1.6745 C   0  0  0  0  0  0  0  0  0  0  0  0
    0.9641   -0.3381   -2.2199 H   0  0  0  0  0  0  0  0  0  0  0  0
    0.0306    1.1442   -2.4194 H   0  0  0  0  0  0  0  0  0  0  0  0
    1.5368    1.2858   -0.8908 C   0  0  0  0  0  0  0  0  0  0  0  0
    1.2029    2.3263   -0.8090 H   0  0  0  0  0  0  0  0  0  0  0  0
    1.6230    0.9050    0.1262 H   0  0  0  0  0  0  0  0  0  0  0  0
    2.8524    1.2299   -1.5553 N   0  3  0  0  0  0  0  0  0  0  0  0
    2.9847    1.8285   -2.3688 H   0  0  0  0  0  0  0  0  0  0  0  0
    3.8386    0.4770   -1.1528 C   0  0  0  0  0  0  0  0  0  0  0  0
    3.7348   -0.3775   -0.0784 N   0  0  0  0  0  0  0  0  0  0  0  0
    2.9124   -0.3256    0.5330 H   0  0  0  0  0  0  0  0  0  0  0  0
    4.5557   -0.8663    0.2683 H   0  0  0  0  0  0  0  0  0  0  0  0
    5.0307    0.5156   -1.8363 N   0  0  0  0  0  0  0  0  0  0  0  0
    5.1947    1.2602   -2.5104 H   0  0  0  0  0  0  0  0  0  0  0  0
    5.8342    0.0236   -1.4505 H   0  0  0  0  0  0  0  0  0  0  0  0
    0.3334   -0.9048    1.4974 C   0  0  0  0  0  0  0  0  0  0  0  0
    1.5065   -0.6002    1.6917 O   0  0  0  0  0  0  0  0  0  0  0  0
   -0.5975   -0.7122    2.5005 N   0  0  0  0  0  0  0  0  0  0  0  0
   -1.5365   -1.0567    2.3210 H   0  0  0  0  0  0  0  0  0  0  0  0
   -0.2289   -0.3878    3.8746 C   0  0  0  0  0  0  0  0  0  0  0  0
    0.3364    0.5493    3.9121 H   0  0  0  0  0  0  0  0  0  0  0  0
   -1.1262   -0.2712    4.4903 H   0  0  0  0  0  0  0  0  0  0  0  0
    0.3845   -1.1865    4.3053 H   0  0  0  0  0  0  0  0  0  0  0  0
  1  2  1  0  0  0  0
  2  3  1  0  0  0  0
  2  4  1  0  0  0  0
  2  5  1  0  0  0  0
  5  6  2  0  0  0  0
  5  7  1  0  0  0  0
  7  8  1  0  0  0  0
  7  9  1  0  0  0  0
  9 10  1  0  0  0  0
  9 11  1  0  0  0  0
  9 29  1  0  0  0  0
 11 12  1  0  0  0  0
 11 13  1  0  0  0  0
 11 14  1  0  0  0  0
 14 15  1  0  0  0  0
 14 16  1  0  0  0  0
 14 17  1  0  0  0  0
 17 18  1  0  0  0  0
 17 19  1  0  0  0  0
 17 20  1  0  0  0  0
 20 21  1  0  0  0  0
 20 22  2  0  0  0  0
 22 23  1  0  0  0  0
 22 26  1  0  0  0  0
 23 24  1  0  0  0  0
 23 25  1  0  0  0  0
 26 27  1  0  0  0  0
 26 28  1  0  0  0  0
 29 30  2  0  0  0  0
 29 31  1  0  0  0  0
 31 32  1  0  0  0  0
 31 33  1  0  0  0  0
 33 34  1  0  0  0  0
 33 35  1  0  0  0  0
 33 36  1  0  0  0  0
M  CHG  1  20   1
M  END
$$$$

  -OEChem-04042215563D

 36 35  0     1  0  0  0  0  0999 V2000
   -1.7729   -5.6162    0.6891 H   0  0  0  0  0  0  0  0  0  0  0  0
   -2.0979   -4.6398    0.3181 C   0  0  0  0  0  0  0  0  0  0  0  0
   -2.9293   -4.2909    0.9350 H   0  0  0  0  0  0  0  0  0  0  0  0
   -2.4397   -4.7528   -0.7136 H   0  0  0  0  0  0  0  0  0  0  0  0
   -0.9505   -3.6501    0.3805 C   0  0  0  0  0  0  0  0  0  0  0  0
    0.1454   -4.0030    0.7815 O   0  0  0  0  0  0  0  0  0  0  0  0
   -1.1302   -2.3452   -0.0410 N   0  0  0  0  0  0  0  0  0  0  0  0
   -2.0515   -2.0923   -0.3895 H   0  0  0  0  0  0  0  0  0  0  0  0
   -0.0776   -1.3154    0.0284 C   0  0  1  0  0  0  0  0  0  0  0  0
    0.7794   -1.6972   -0.5374 H   0  0  0  0  0  0  0  0  0  0  0  0
   -0.5880   -0.0250   -0.6563 C   0  0  0  0  0  0  0  0  0  0  0  0
   -1.4785   -0.2540   -1.2517 H   0  0  0  0  0  0  0  0  0  0  0  0
   -0.8927    0.7012    0.1055 H   0  0  0  0  0  0  0  0  0  0  0  0
    0.4434    0.6244   -1.6008 C   0  0  0  0  0  0  0  0  0  0  0  0
    0.6560   -0.0825   -2.4106 H   0  0  0  0  0  0  0  0  0  0  0  0
   -0.0064    1.5119   -2.0590 H   0  0  0  0  0  0  0  0  0  0  0  0
    1.7505    1.0423   -0.9099 C   0  0  0  0  0  0  0  0  0  0  0  0
    1.8020    2.1365   -0.8873 H   0  0  0  0  0  0  0  0  0  0  0  0
    1.7511    0.7061    0.1263 H   0  0  0  0  0  0  0  0  0  0  0  0
    2.9236    0.5106   -1.6332 N   0  3  0  0  0  0  0  0  0  0  0  0
    2.9533    0.6745   -2.6380 H   0  0  0  0  0  0  0  0  0  0  0  0
    3.9376   -0.0820   -1.0654 C   0  0  0  0  0  0  0  0  0  0  0  0
    4.0018   -0.3366    0.2835 N   0  0  0  0  0  0  0  0  0  0  0  0
    3.1239   -0.2940    0.8123 H   0  0  0  0  0  0  0  0  0  0  0  0
    4.6852   -1.0153    0.6085 H   0  0  0  0  0  0  0  0  0  0  0  0
    5.0040   -0.4710   -1.8402 N   0  0  0  0  0  0  0  0  0  0  0  0
    5.0727   -0.1176   -2.7918 H   0  0  0  0  0  0  0  0  0  0  0  0
    5.8647   -0.7427   -1.3686 H   0  0  0  0  0  0  0  0  0  0  0  0
    0.4164   -1.0568    1.4728 C   0  0  0  0  0  0  0  0  0  0  0  0
    1.6020   -0.8162    1.6742 O   0  0  0  0  0  0  0  0  0  0  0  0
   -0.4866   -0.9254    2.5109 N   0  0  0  0  0  0  0  0  0  0  0  0
   -1.4446   -1.2061    2.3217 H   0  0  0  0  0  0  0  0  0  0  0  0
   -0.0876   -0.7022    3.8966 C   0  0  0  0  0  0  0  0  0  0  0  0
    0.5039    0.2152    3.9852 H   0  0  0  0  0  0  0  0  0  0  0  0
   -0.9718   -0.6013    4.5338 H   0  0  0  0  0  0  0  0  0  0  0  0
    0.5093   -1.5441    4.2636 H   0  0  0  0  0  0  0  0  0  0  0  0
  1  2  1  0  0  0  0
  2  3  1  0  0  0  0
  2  4  1  0  0  0  0
  2  5  1  0  0  0  0
  5  6  2  0  0  0  0
  5  7  1  0  0  0  0
  7  8  1  0  0  0  0
  7  9  1  0  0  0  0
  9 10  1  0  0  0  0
  9 11  1  0  0  0  0
  9 29  1  0  0  0  0
 11 12  1  0  0  0  0
 11 13  1  0  0  0  0
 11 14  1  0  0  0  0
 14 15  1  0  0  0  0
 14 16  1  0  0  0  0
 14 17  1  0  0  0  0
 17 18  1  0  0  0  0
 17 19  1  0  0  0  0
 17 20  1  0  0  0  0
 20 21  1  0  0  0  0
 20 22  2  0  0  0  0
 22 23  1  0  0  0  0
 22 26  1  0  0  0  0
 23 24  1  0  0  0  0
 23 25  1  0  0  0  0
 26 27  1  0  0  0  0
 26 28  1  0  0  0  0
 29 30  2  0  0  0  0
 29 31  1  0  0  0  0
 31 32  1  0  0  0  0
 31 33  1  0  0  0  0
 33 34  1  0  0  0  0
 33 35  1  0  0  0  0
 33 36  1  0  0  0  0
M  CHG  1  20   1
M  END
$$$$

  -OEChem-04042215563D

 36 35  0     1  0  0  0  0  0999 V2000
   -2.8782   -5.4232    0.9379 H   0  0  0  0  0  0  0  0  0  0  0  0
   -2.9768   -4.4269    0.4970 C   0  0  0  0  0  0  0  0  0  0  0  0
   -3.7425   -3.8746    1.0468 H   0  0  0  0  0  0  0  0  0  0  0  0
   -3.2905   -4.5338   -0.5441 H   0  0  0  0  0  0  0  0  0  0  0  0
   -1.6514   -3.6932    0.5672 C   0  0  0  0  0  0  0  0  0  0  0  0
   -0.6711   -4.2398    1.0417 O   0  0  0  0  0  0  0  0  0  0  0  0
   -1.5408   -2.4048    0.0773 N   0  0  0  0  0  0  0  0  0  0  0  0
   -2.3709   -1.9961   -0.3442 H   0  0  0  0  0  0  0  0  0  0  0  0
   -0.2817   -1.6389    0.0755 C   0  0  1  0  0  0  0  0  0  0  0  0
    0.4262   -2.2747   -0.4661 H   0  0  0  0  0  0  0  0  0  0  0  0
   -0.4733   -0.3250   -0.7299 C   0  0  0  0  0  0  0  0  0  0  0  0
   -1.3967   -0.3785   -1.3162 H   0  0  0  0  0  0  0  0  0  0  0  0
   -0.5912    0.5078   -0.0275 H   0  0  0  0  0  0  0  0  0  0  0  0
    0.6830   -0.0047   -1.7046 C   0  0  0  0  0  0  0  0  0  0  0  0
    0.6157   -0.6625   -2.5780 H   0  0  0  0  0  0  0  0  0  0  0  0
    0.5933    1.0300   -2.0520 H   0  0  0  0  0  0  0  0  0  0  0  0
    2.0270   -0.2193   -1.0134 C   0  0  0  0  0  0  0  0  0  0  0  0
    2.0402    0.3928   -0.1039 H   0  0  0  0  0  0  0  0  0  0  0  0
    2.1017   -1.2693   -0.7144 H   0  0  0  0  0  0  0  0  0  0  0  0
    3.2108    0.1036   -1.8190 N   0  3  0  0  0  0  0  0  0  0  0  0
    3.0791    0.4109   -2.7812 H   0  0  0  0  0  0  0  0  0  0  0  0
    4.4049   -0.0733   -1.3289 C   0  0  0  0  0  0  0  0  0  0  0  0
    4.5860   -0.5275   -0.0377 N   0  0  0  0  0  0  0  0  0  0  0  0
    3.7608   -0.8335    0.4865 H   0  0  0  0  0  0  0  0  0  0  0  0
    5.4902   -0.9073    0.2320 H   0  0  0  0  0  0  0  0  0  0  0  0
    5.5106    0.1873   -2.1023 N   0  0  0  0  0  0  0  0  0  0  0  0
    5.3865    0.6953   -2.9754 H   0  0  0  0  0  0  0  0  0  0  0  0
    6.4173    0.2421   -1.6419 H   0  0  0  0  0  0  0  0  0  0  0  0
    0.3479   -1.3932    1.4715 C   0  0  0  0  0  0  0  0  0  0  0  0
    1.5721   -1.3451    1.5856 O   0  0  0  0  0  0  0  0  0  0  0  0
   -0.4453   -0.9890    2.5286 N   0  0  0  0  0  0  0  0  0  0  0  0
   -1.4467   -1.1225    2.4182 H   0  0  0  0  0  0  0  0  0  0  0  0
    0.0789   -0.7512    3.8692 C   0  0  0  0  0  0  0  0  0  0  0  0
    0.8439    0.0323    3.8512 H   0  0  0  0  0  0  0  0  0  0  0  0
   -0.7249   -0.4294    4.5387 H   0  0  0  0  0  0  0  0  0  0  0  0
    0.5224   -1.6670    4.2748 H   0  0  0  0  0  0  0  0  0  0  0  0
  1  2  1  0  0  0  0
  2  3  1  0  0  0  0
  2  4  1  0  0  0  0
  2  5  1  0  0  0  0
  5  6  2  0  0  0  0
  5  7  1  0  0  0  0
  7  8  1  0  0  0  0
  7  9  1  0  0  0  0
  9 10  1  0  0  0  0
  9 11  1  0  0  0  0
  9 29  1  0  0  0  0
 11 12  1  0  0  0  0
 11 13  1  0  0  0  0
 11 14  1  0  0  0  0
 14 15  1  0  0  0  0
 14 16  1  0  0  0  0
 14 17  1  0  0  0  0
 17 18  1  0  0  0  0
 17 19  1  0  0  0  0
 17 20  1  0  0  0  0
 20 21  1  0  0  0  0
 20 22  2  0  0  0  0
 22 23  1  0  0  0  0
 22 26  1  0  0  0  0
 23 24  1  0  0  0  0
 23 25  1  0  0  0  0
 26 27  1  0  0  0  0
 26 28  1  0  0  0  0
 29 30  2  0  0  0  0
 29 31  1  0  0  0  0
 31 32  1  0  0  0  0
 31 33  1  0  0  0  0
 33 34  1  0  0  0  0
 33 35  1  0  0  0  0
 33 36  1  0  0  0  0
M  CHG  1  20   1
M  END
$$$$

  -OEChem-04042215563D

 36 35  0     1  0  0  0  0  0999 V2000
   -3.2176   -5.2941    0.9859 H   0  0  0  0  0  0  0  0  0  0  0  0
   -3.2423   -4.2883    0.5565 C   0  0  0  0  0  0  0  0  0  0  0  0
   -3.9264   -3.6729    1.1454 H   0  0  0  0  0  0  0  0  0  0  0  0
   -3.6117   -4.3545   -0.4696 H   0  0  0  0  0  0  0  0  0  0  0  0
   -1.8520   -3.6824    0.5710 C   0  0  0  0  0  0  0  0  0  0  0  0
   -0.9099   -4.3192    1.0089 O   0  0  0  0  0  0  0  0  0  0  0  0
   -1.6418   -2.4057    0.0828 N   0  0  0  0  0  0  0  0  0  0  0  0
   -2.4472   -1.9161   -0.2988 H   0  0  0  0  0  0  0  0  0  0  0  0
   -0.3216   -1.7512    0.0540 C   0  0  1  0  0  0  0  0  0  0  0  0
    0.3089   -2.4516   -0.5009 H   0  0  0  0  0  0  0  0  0  0  0  0
   -0.4172   -0.4198   -0.7426 C   0  0  0  0  0  0  0  0  0  0  0  0
   -1.3624   -0.3854   -1.2948 H   0  0  0  0  0  0  0  0  0  0  0  0
   -0.4438    0.4076   -0.0248 H   0  0  0  0  0  0  0  0  0  0  0  0
    0.7245   -0.1546   -1.7568 C   0  0  0  0  0  0  0  0  0  0  0  0
    0.4463   -0.5715   -2.7306 H   0  0  0  0  0  0  0  0  0  0  0  0
    0.8465    0.9271   -1.8782 H   0  0  0  0  0  0  0  0  0  0  0  0
    2.0418   -0.7885   -1.3134 C   0  0  0  0  0  0  0  0  0  0  0  0
    2.1863   -0.5181   -0.2652 H   0  0  0  0  0  0  0  0  0  0  0  0
    1.9672   -1.8787   -1.3861 H   0  0  0  0  0  0  0  0  0  0  0  0
    3.2260   -0.3316   -2.0524 N   0  3  0  0  0  0  0  0  0  0  0  0
    3.0934    0.0885   -2.9709 H   0  0  0  0  0  0  0  0  0  0  0  0
    4.4197   -0.4732   -1.5486 C   0  0  0  0  0  0  0  0  0  0  0  0
    4.6115   -1.0440   -0.3062 N   0  0  0  0  0  0  0  0  0  0  0  0
    3.7886   -1.2444    0.2689 H   0  0  0  0  0  0  0  0  0  0  0  0
    5.5059   -0.9270    0.1639 H   0  0  0  0  0  0  0  0  0  0  0  0
    5.5181   -0.0500   -2.2581 N   0  0  0  0  0  0  0  0  0  0  0  0
    5.4013    0.1886   -3.2406 H   0  0  0  0  0  0  0  0  0  0  0  0
    6.4380   -0.3583   -1.9485 H   0  0  0  0  0  0  0  0  0  0  0  0
    0.3605   -1.5672    1.4336 C   0  0  0  0  0  0  0  0  0  0  0  0
    1.5865   -1.6193    1.5145 O   0  0  0  0  0  0  0  0  0  0  0  0
   -0.3692   -1.1013    2.5110 N   0  0  0  0  0  0  0  0  0  0  0  0
   -1.3805   -1.1528    2.4273 H   0  0  0  0  0  0  0  0  0  0  0  0
    0.2078   -0.9087    3.8369 C   0  0  0  0  0  0  0  0  0  0  0  0
    1.0211   -0.1764    3.8008 H   0  0  0  0  0  0  0  0  0  0  0  0
   -0.5537   -0.5411    4.5317 H   0  0  0  0  0  0  0  0  0  0  0  0
    0.6020   -1.8544    4.2239 H   0  0  0  0  0  0  0  0  0  0  0  0
  1  2  1  0  0  0  0
  2  3  1  0  0  0  0
  2  4  1  0  0  0  0
  2  5  1  0  0  0  0
  5  6  2  0  0  0  0
  5  7  1  0  0  0  0
  7  8  1  0  0  0  0
  7  9  1  0  0  0  0
  9 10  1  0  0  0  0
  9 11  1  0  0  0  0
  9 29  1  0  0  0  0
 11 12  1  0  0  0  0
 11 13  1  0  0  0  0
 11 14  1  0  0  0  0
 14 15  1  0  0  0  0
 14 16  1  0  0  0  0
 14 17  1  0  0  0  0
 17 18  1  0  0  0  0
 17 19  1  0  0  0  0
 17 20  1  0  0  0  0
 20 21  1  0  0  0  0
 20 22  2  0  0  0  0
 22 23  1  0  0  0  0
 22 26  1  0  0  0  0
 23 24  1  0  0  0  0
 23 25  1  0  0  0  0
 26 27  1  0  0  0  0
 26 28  1  0  0  0  0
 29 30  2  0  0  0  0
 29 31  1  0  0  0  0
 31 32  1  0  0  0  0
 31 33  1  0  0  0  0
 33 34  1  0  0  0  0
 33 35  1  0  0  0  0
 33 36  1  0  0  0  0
M  CHG  1  20   1
M  END
$$$$

  -OEChem-04042215563D

 36 35  0     1  0  0  0  0  0999 V2000
   -3.5358   -5.0494    1.2347 H   0  0  0  0  0  0  0  0  0  0  0  0
   -3.4851   -4.0554    0.7804 C   0  0  0  0  0  0  0  0  0  0  0  0
   -4.0425   -3.3554    1.4072 H   0  0  0  0  0  0  0  0  0  0  0  0
   -3.9478   -4.0981   -0.2086 H   0  0  0  0  0  0  0  0  0  0  0  0
   -2.0401   -3.6108    0.6610 C   0  0  0  0  0  0  0  0  0  0  0  0
   -1.1397   -4.3385    1.0413 O   0  0  0  0  0  0  0  0  0  0  0  0
   -1.7310   -2.3764    0.1196 N   0  0  0  0  0  0  0  0  0  0  0  0
   -2.5054   -1.8167   -0.2287 H   0  0  0  0  0  0  0  0  0  0  0  0
   -0.3518   -1.8941   -0.0748 C   0  0  1  0  0  0  0  0  0  0  0  0
    0.1175   -2.6676   -0.6889 H   0  0  0  0  0  0  0  0  0  0  0  0
   -0.3492   -0.5484   -0.8426 C   0  0  0  0  0  0  0  0  0  0  0  0
   -1.3417   -0.3815   -1.2745 H   0  0  0  0  0  0  0  0  0  0  0  0
   -0.1885    0.2628   -0.1235 H   0  0  0  0  0  0  0  0  0  0  0  0
    0.6809   -0.3946   -1.9930 C   0  0  0  0  0  0  0  0  0  0  0  0
    0.1498   -0.4535   -2.9491 H   0  0  0  0  0  0  0  0  0  0  0  0
    1.1006    0.6152   -1.9241 H   0  0  0  0  0  0  0  0  0  0  0  0
    1.8227   -1.4258   -2.0307 C   0  0  0  0  0  0  0  0  0  0  0  0
    1.9188   -1.9205   -1.0645 H   0  0  0  0  0  0  0  0  0  0  0  0
    1.5791   -2.2028   -2.7641 H   0  0  0  0  0  0  0  0  0  0  0  0
    3.1080   -0.7908   -2.3764 N   0  3  0  0  0  0  0  0  0  0  0  0
    3.1852   -0.3747   -3.3030 H   0  0  0  0  0  0  0  0  0  0  0  0
    4.1435   -0.7807   -1.5831 C   0  0  0  0  0  0  0  0  0  0  0  0
    4.1239   -1.3255   -0.3188 N   0  0  0  0  0  0  0  0  0  0  0  0
    3.2183   -1.5852    0.0892 H   0  0  0  0  0  0  0  0  0  0  0  0
    4.8727   -1.0947    0.3282 H   0  0  0  0  0  0  0  0  0  0  0  0
    5.3147   -0.2082   -2.0182 N   0  0  0  0  0  0  0  0  0  0  0  0
    5.4103    0.0121   -3.0071 H   0  0  0  0  0  0  0  0  0  0  0  0
    6.1640   -0.3992   -1.4899 H   0  0  0  0  0  0  0  0  0  0  0  0
    0.4948   -1.7852    1.2166 C   0  0  0  0  0  0  0  0  0  0  0  0
    1.7164   -1.8926    1.1377 O   0  0  0  0  0  0  0  0  0  0  0  0
   -0.0496   -1.2217    2.3554 N   0  0  0  0  0  0  0  0  0  0  0  0
   -1.0648   -1.1985    2.4004 H   0  0  0  0  0  0  0  0  0  0  0  0
    0.6990   -1.0573    3.5970 C   0  0  0  0  0  0  0  0  0  0  0  0
    1.5639   -0.4037    3.4425 H   0  0  0  0  0  0  0  0  0  0  0  0
    0.0629   -0.6078    4.3662 H   0  0  0  0  0  0  0  0  0  0  0  0
    1.0508   -2.0277    3.9636 H   0  0  0  0  0  0  0  0  0  0  0  0
  1  2  1  0  0  0  0
  2  3  1  0  0  0  0
  2  4  1  0  0  0  0
  2  5  1  0  0  0  0
  5  6  2  0  0  0  0
  5  7  1  0  0  0  0
  7  8  1  0  0  0  0
  7  9  1  0  0  0  0
  9 10  1  0  0  0  0
  9 11  1  0  0  0  0
  9 29  1  0  0  0  0
 11 12  1  0  0  0  0
 11 13  1  0  0  0  0
 11 14  1  0  0  0  0
 14 15  1  0  0  0  0
 14 16  1  0  0  0  0
 14 17  1  0  0  0  0
 17 18  1  0  0  0  0
 17 19  1  0  0  0  0
 17 20  1  0  0  0  0
 20 21  1  0  0  0  0
 20 22  2  0  0  0  0
 22 23  1  0  0  0  0
 22 26  1  0  0  0  0
 23 24  1  0  0  0  0
 23 25  1  0  0  0  0
 26 27  1  0  0  0  0
 26 28  1  0  0  0  0
 29 30  2  0  0  0  0
 29 31  1  0  0  0  0
 31 32  1  0  0  0  0
 31 33  1  0  0  0  0
 33 34  1  0  0  0  0
 33 35  1  0  0  0  0
 33 36  1  0  0  0  0
M  CHG  1  20   1
M  END
$$$$

  -OEChem-04042215563D

 36 35  0     1  0  0  0  0  0999 V2000
   -3.6007   -5.1218    1.0978 H   0  0  0  0  0  0  0  0  0  0  0  0
   -3.5570   -4.0996    0.7109 C   0  0  0  0  0  0  0  0  0  0  0  0
   -4.0962   -3.4423    1.3971 H   0  0  0  0  0  0  0  0  0  0  0  0
   -4.0437   -4.0744   -0.2670 H   0  0  0  0  0  0  0  0  0  0  0  0
   -2.1133   -3.6519    0.5856 C   0  0  0  0  0  0  0  0  0  0  0  0
   -1.2065   -4.3991    0.9094 O   0  0  0  0  0  0  0  0  0  0  0  0
   -1.8110   -2.3911    0.1052 N   0  0  0  0  0  0  0  0  0  0  0  0
   -2.5901   -1.8035   -0.1807 H   0  0  0  0  0  0  0  0  0  0  0  0
   -0.4345   -1.8976   -0.0738 C   0  0  1  0  0  0  0  0  0  0  0  0
    0.0047   -2.6728   -0.7042 H   0  0  0  0  0  0  0  0  0  0  0  0
   -0.4142   -0.5441   -0.8270 C   0  0  0  0  0  0  0  0  0  0  0  0
   -1.3972   -0.3946   -1.2860 H   0  0  0  0  0  0  0  0  0  0  0  0
   -0.2885    0.2674   -0.1012 H   0  0  0  0  0  0  0  0  0  0  0  0
    0.6349   -0.3732   -1.9591 C   0  0  0  0  0  0  0  0  0  0  0  0
    0.1210   -0.1149   -2.8915 H   0  0  0  0  0  0  0  0  0  0  0  0
    1.2541    0.4890   -1.6878 H   0  0  0  0  0  0  0  0  0  0  0  0
    1.5617   -1.5713   -2.2265 C   0  0  0  0  0  0  0  0  0  0  0  0
    1.7277   -2.1338   -1.3050 H   0  0  0  0  0  0  0  0  0  0  0  0
    1.0823   -2.2508   -2.9402 H   0  0  0  0  0  0  0  0  0  0  0  0
    2.8692   -1.1236   -2.7387 N   0  3  0  0  0  0  0  0  0  0  0  0
    2.9100   -0.8164   -3.7093 H   0  0  0  0  0  0  0  0  0  0  0  0
    3.9583   -1.1348   -2.0203 C   0  0  0  0  0  0  0  0  0  0  0  0
    3.9777   -1.5328   -0.7013 N   0  0  0  0  0  0  0  0  0  0  0  0
    3.0866   -1.6861   -0.2147 H   0  0  0  0  0  0  0  0  0  0  0  0
    4.7901   -1.3187   -0.1293 H   0  0  0  0  0  0  0  0  0  0  0  0
    5.1434   -0.7355   -2.5903 N   0  0  0  0  0  0  0  0  0  0  0  0
    5.1871   -0.6345   -3.6020 H   0  0  0  0  0  0  0  0  0  0  0  0
    6.0070   -0.9520   -2.0963 H   0  0  0  0  0  0  0  0  0  0  0  0
    0.4680   -1.8300    1.1763 C   0  0  0  0  0  0  0  0  0  0  0  0
    1.6844   -1.9114    1.0133 O   0  0  0  0  0  0  0  0  0  0  0  0
   -0.0196   -1.3157    2.3622 N   0  0  0  0  0  0  0  0  0  0  0  0
   -1.0308   -1.3060    2.4668 H   0  0  0  0  0  0  0  0  0  0  0  0
    0.8010   -1.1597    3.5581 C   0  0  0  0  0  0  0  0  0  0  0  0
    1.6402   -0.4832    3.3647 H   0  0  0  0  0  0  0  0  0  0  0  0
    0.2046   -0.7406    4.3746 H   0  0  0  0  0  0  0  0  0  0  0  0
    1.1966   -2.1289    3.8809 H   0  0  0  0  0  0  0  0  0  0  0  0
  1  2  1  0  0  0  0
  2  3  1  0  0  0  0
  2  4  1  0  0  0  0
  2  5  1  0  0  0  0
  5  6  2  0  0  0  0
  5  7  1  0  0  0  0
  7  8  1  0  0  0  0
  7  9  1  0  0  0  0
  9 10  1  0  0  0  0
  9 11  1  0  0  0  0
  9 29  1  0  0  0  0
 11 12  1  0  0  0  0
 11 13  1  0  0  0  0
 11 14  1  0  0  0  0
 14 15  1  0  0  0  0
 14 16  1  0  0  0  0
 14 17  1  0  0  0  0
 17 18  1  0  0  0  0
 17 19  1  0  0  0  0
 17 20  1  0  0  0  0
 20 21  1  0  0  0  0
 20 22  2  0  0  0  0
 22 23  1  0  0  0  0
 22 26  1  0  0  0  0
 23 24  1  0  0  0  0
 23 25  1  0  0  0  0
 26 27  1  0  0  0  0
 26 28  1  0  0  0  0
 29 30  2  0  0  0  0
 29 31  1  0  0  0  0
 31 32  1  0  0  0  0
 31 33  1  0  0  0  0
 33 34  1  0  0  0  0
 33 35  1  0  0  0  0
 33 36  1  0  0  0  0
M  CHG  1  20   1
M  END
$$$$

  -OEChem-04042215563D

 36 35  0     1  0  0  0  0  0999 V2000
   -3.6832   -5.1012    1.0101 H   0  0  0  0  0  0  0  0  0  0  0  0
   -3.6387   -4.0589    0.6810 C   0  0  0  0  0  0  0  0  0  0  0  0
   -4.1295   -3.4338    1.4308 H   0  0  0  0  0  0  0  0  0  0  0  0
   -4.1738   -3.9682   -0.2674 H   0  0  0  0  0  0  0  0  0  0  0  0
   -2.1945   -3.6289    0.5081 C   0  0  0  0  0  0  0  0  0  0  0  0
   -1.2877   -4.4085    0.7445 O   0  0  0  0  0  0  0  0  0  0  0  0
   -1.8905   -2.3474    0.0869 N   0  0  0  0  0  0  0  0  0  0  0  0
   -2.6697   -1.7202   -0.0973 H   0  0  0  0  0  0  0  0  0  0  0  0
   -0.5132   -1.8585   -0.0960 C   0  0  1  0  0  0  0  0  0  0  0  0
   -0.1106   -2.6298   -0.7502 H   0  0  0  0  0  0  0  0  0  0  0  0
   -0.4773   -0.4968   -0.8313 C   0  0  0  0  0  0  0  0  0  0  0  0
   -1.4560   -0.3504   -1.3003 H   0  0  0  0  0  0  0  0  0  0  0  0
   -0.3602    0.3125   -0.1019 H   0  0  0  0  0  0  0  0  0  0  0  0
    0.5742   -0.3272   -1.9599 C   0  0  0  0  0  0  0  0  0  0  0  0
    0.1231    0.2204   -2.7945 H   0  0  0  0  0  0  0  0  0  0  0  0
    1.3619    0.3137   -1.5481 H   0  0  0  0  0  0  0  0  0  0  0  0
    1.2451   -1.6012   -2.4980 C   0  0  0  0  0  0  0  0  0  0  0  0
    1.4164   -2.3168   -1.6903 H   0  0  0  0  0  0  0  0  0  0  0  0
    0.5887   -2.0810   -3.2325 H   0  0  0  0  0  0  0  0  0  0  0  0
    2.5536   -1.2815   -3.0947 N   0  3  0  0  0  0  0  0  0  0  0  0
    2.5610   -0.9556   -4.0601 H   0  0  0  0  0  0  0  0  0  0  0  0
    3.6812   -1.4326   -2.4553 C   0  0  0  0  0  0  0  0  0  0  0  0
    3.7461   -1.8572   -1.1449 N   0  0  0  0  0  0  0  0  0  0  0  0
    2.8839   -1.8969   -0.5887 H   0  0  0  0  0  0  0  0  0  0  0  0
    4.6210   -1.7618   -0.6361 H   0  0  0  0  0  0  0  0  0  0  0  0
    4.8611   -1.1599   -3.1051 N   0  0  0  0  0  0  0  0  0  0  0  0
    4.8447   -1.0439   -4.1161 H   0  0  0  0  0  0  0  0  0  0  0  0
    5.7278   -1.4796   -2.6769 H   0  0  0  0  0  0  0  0  0  0  0  0
    0.4477   -1.8471    1.1070 C   0  0  0  0  0  0  0  0  0  0  0  0
    1.6502   -1.9461    0.8656 O   0  0  0  0  0  0  0  0  0  0  0  0
    0.0325   -1.3844    2.3404 N   0  0  0  0  0  0  0  0  0  0  0  0
   -0.9708   -1.3577    2.5019 H   0  0  0  0  0  0  0  0  0  0  0  0
    0.9242   -1.2746    3.4897 C   0  0  0  0  0  0  0  0  0  0  0  0
    1.7531   -0.5931    3.2707 H   0  0  0  0  0  0  0  0  0  0  0  0
    0.3800   -0.8845    4.3554 H   0  0  0  0  0  0  0  0  0  0  0  0
    1.3339   -2.2559    3.7525 H   0  0  0  0  0  0  0  0  0  0  0  0
  1  2  1  0  0  0  0
  2  3  1  0  0  0  0
  2  4  1  0  0  0  0
  2  5  1  0  0  0  0
  5  6  2  0  0  0  0
  5  7  1  0  0  0  0
  7  8  1  0  0  0  0
  7  9  1  0  0  0  0
  9 10  1  0  0  0  0
  9 11  1  0  0  0  0
  9 29  1  0  0  0  0
 11 12  1  0  0  0  0
 11 13  1  0  0  0  0
 11 14  1  0  0  0  0
 14 15  1  0  0  0  0
 14 16  1  0  0  0  0
 14 17  1  0  0  0  0
 17 18  1  0  0  0  0
 17 19  1  0  0  0  0
 17 20  1  0  0  0  0
 20 21  1  0  0  0  0
 20 22  2  0  0  0  0
 22 23  1  0  0  0  0
 22 26  1  0  0  0  0
 23 24  1  0  0  0  0
 23 25  1  0  0  0  0
 26 27  1  0  0  0  0
 26 28  1  0  0  0  0
 29 30  2  0  0  0  0
 29 31  1  0  0  0  0
 31 32  1  0  0  0  0
 31 33  1  0  0  0  0
 33 34  1  0  0  0  0
 33 35  1  0  0  0  0
 33 36  1  0  0  0  0
M  CHG  1  20   1
M  END
$$$$

  -OEChem-04042215563D

 36 35  0     1  0  0  0  0  0999 V2000
   -3.6162   -5.1680    0.9741 H   0  0  0  0  0  0  0  0  0  0  0  0
   -3.6027   -4.1112    0.6923 C   0  0  0  0  0  0  0  0  0  0  0  0
   -4.0585   -3.5282    1.4960 H   0  0  0  0  0  0  0  0  0  0  0  0
   -4.1902   -3.9849   -0.2202 H   0  0  0  0  0  0  0  0  0  0  0  0
   -2.1756   -3.6529    0.4611 C   0  0  0  0  0  0  0  0  0  0  0  0
   -1.2461   -4.4243    0.6263 O   0  0  0  0  0  0  0  0  0  0  0  0
   -1.9123   -2.3549    0.0638 N   0  0  0  0  0  0  0  0  0  0  0  0
   -2.7081   -1.7321   -0.0514 H   0  0  0  0  0  0  0  0  0  0  0  0
   -0.5516   -1.8325   -0.1471 C   0  0  1  0  0  0  0  0  0  0  0  0
   -0.1425   -2.5778   -0.8239 H   0  0  0  0  0  0  0  0  0  0  0  0
   -0.5647   -0.4544   -0.8493 C   0  0  0  0  0  0  0  0  0  0  0  0
   -1.5578   -0.3182   -1.2903 H   0  0  0  0  0  0  0  0  0  0  0  0
   -0.4412    0.3421   -0.1069 H   0  0  0  0  0  0  0  0  0  0  0  0
    0.4523   -0.2494   -1.9995 C   0  0  0  0  0  0  0  0  0  0  0  0
    0.0738    0.5233   -2.6774 H   0  0  0  0  0  0  0  0  0  0  0  0
    1.3553    0.1565   -1.5301 H   0  0  0  0  0  0  0  0  0  0  0  0
    0.8683   -1.4794   -2.8243 C   0  0  0  0  0  0  0  0  0  0  0  0
    0.9519   -2.3737   -2.2059 H   0  0  0  0  0  0  0  0  0  0  0  0
    0.1097   -1.6800   -3.5890 H   0  0  0  0  0  0  0  0  0  0  0  0
    2.1858   -1.2479   -3.4435 N   0  3  0  0  0  0  0  0  0  0  0  0
    2.1973   -0.8486   -4.3811 H   0  0  0  0  0  0  0  0  0  0  0  0
    3.3118   -1.5754   -2.8693 C   0  0  0  0  0  0  0  0  0  0  0  0
    3.3783   -2.1040   -1.5968 N   0  0  0  0  0  0  0  0  0  0  0  0
    2.5568   -2.0357   -0.9865 H   0  0  0  0  0  0  0  0  0  0  0  0
    4.2829   -2.1564   -1.1355 H   0  0  0  0  0  0  0  0  0  0  0  0
    4.4898   -1.3914   -3.5533 N   0  0  0  0  0  0  0  0  0  0  0  0
    4.4488   -1.2002   -4.5520 H   0  0  0  0  0  0  0  0  0  0  0  0
    5.3305   -1.8350   -3.1880 H   0  0  0  0  0  0  0  0  0  0  0  0
    0.4460   -1.8290    1.0239 C   0  0  0  0  0  0  0  0  0  0  0  0
    1.6386   -1.9191    0.7366 O   0  0  0  0  0  0  0  0  0  0  0  0
    0.0654   -1.4056    2.2822 N   0  0  0  0  0  0  0  0  0  0  0  0
   -0.9323   -1.3845    2.4755 H   0  0  0  0  0  0  0  0  0  0  0  0
    0.9937   -1.3044    3.4026 C   0  0  0  0  0  0  0  0  0  0  0  0
    1.8038   -0.6052    3.1704 H   0  0  0  0  0  0  0  0  0  0  0  0
    0.4730   -0.9410    4.2940 H   0  0  0  0  0  0  0  0  0  0  0  0
    1.4272   -2.2840    3.6304 H   0  0  0  0  0  0  0  0  0  0  0  0
  1  2  1  0  0  0  0
  2  3  1  0  0  0  0
  2  4  1  0  0  0  0
  2  5  1  0  0  0  0
  5  6  2  0  0  0  0
  5  7  1  0  0  0  0
  7  8  1  0  0  0  0
  7  9  1  0  0  0  0
  9 10  1  0  0  0  0
  9 11  1  0  0  0  0
  9 29  1  0  0  0  0
 11 12  1  0  0  0  0
 11 13  1  0  0  0  0
 11 14  1  0  0  0  0
 14 15  1  0  0  0  0
 14 16  1  0  0  0  0
 14 17  1  0  0  0  0
 17 18  1  0  0  0  0
 17 19  1  0  0  0  0
 17 20  1  0  0  0  0
 20 21  1  0  0  0  0
 20 22  2  0  0  0  0
 22 23  1  0  0  0  0
 22 26  1  0  0  0  0
 23 24  1  0  0  0  0
 23 25  1  0  0  0  0
 26 27  1  0  0  0  0
 26 28  1  0  0  0  0
 29 30  2  0  0  0  0
 29 31  1  0  0  0  0
 31 32  1  0  0  0  0
 31 33  1  0  0  0  0
 33 34  1  0  0  0  0
 33 35  1  0  0  0  0
 33 36  1  0  0  0  0
M  CHG  1  20   1
M  END
$$$$

  -OEChem-04042215563D

 36 35  0     1  0  0  0  0  0999 V2000
   -3.3384   -5.3437    0.8020 H   0  0  0  0  0  0  0  0  0  0  0  0
   -3.4056   -4.2686    0.6116 C   0  0  0  0  0  0  0  0  0  0  0  0
   -3.8330   -3.7829    1.4921 H   0  0  0  0  0  0  0  0  0  0  0  0
   -4.0660   -4.1058   -0.2435 H   0  0  0  0  0  0  0  0  0  0  0  0
   -2.0279   -3.7038    0.3222 C   0  0  0  0  0  0  0  0  0  0  0  0
   -1.0433   -4.4206    0.3795 O   0  0  0  0  0  0  0  0  0  0  0  0
   -1.8723   -2.3727   -0.0183 N   0  0  0  0  0  0  0  0  0  0  0  0
   -2.7088   -1.7940   -0.0294 H   0  0  0  0  0  0  0  0  0  0  0  0
   -0.5587   -1.7441   -0.2354 C   0  0  1  0  0  0  0  0  0  0  0  0
   -0.0917   -2.4130   -0.9547 H   0  0  0  0  0  0  0  0  0  0  0  0
   -0.6951   -0.3378   -0.8640 C   0  0  0  0  0  0  0  0  0  0  0  0
   -1.7083   -0.2376   -1.2676 H   0  0  0  0  0  0  0  0  0  0  0  0
   -0.5856    0.4290   -0.0888 H   0  0  0  0  0  0  0  0  0  0  0  0
    0.2816   -0.0408   -2.0240 C   0  0  0  0  0  0  0  0  0  0  0  0
   -0.0261    0.8852   -2.5216 H   0  0  0  0  0  0  0  0  0  0  0  0
    1.2561    0.1564   -1.5639 H   0  0  0  0  0  0  0  0  0  0  0  0
    0.4522   -1.1408   -3.0864 C   0  0  0  0  0  0  0  0  0  0  0  0
    0.3195   -2.1411   -2.6721 H   0  0  0  0  0  0  0  0  0  0  0  0
   -0.3194   -1.0145   -3.8539 H   0  0  0  0  0  0  0  0  0  0  0  0
    1.7941   -1.0621   -3.6962 N   0  3  0  0  0  0  0  0  0  0  0  0
    1.8626   -0.5945   -4.5991 H   0  0  0  0  0  0  0  0  0  0  0  0
    2.8582   -1.6281   -3.1934 C   0  0  0  0  0  0  0  0  0  0  0  0
    2.8672   -2.2686   -1.9731 N   0  0  0  0  0  0  0  0  0  0  0  0
    2.1306   -2.0422   -1.2990 H   0  0  0  0  0  0  0  0  0  0  0  0
    3.7662   -2.5262   -1.5734 H   0  0  0  0  0  0  0  0  0  0  0  0
    4.0324   -1.5955   -3.9072 N   0  0  0  0  0  0  0  0  0  0  0  0
    4.0033   -1.3108   -4.8839 H   0  0  0  0  0  0  0  0  0  0  0  0
    4.7917   -2.2063   -3.6112 H   0  0  0  0  0  0  0  0  0  0  0  0
    0.4530   -1.7320    0.9235 C   0  0  0  0  0  0  0  0  0  0  0  0
    1.6424   -1.7698    0.6176 O   0  0  0  0  0  0  0  0  0  0  0  0
    0.0726   -1.4011    2.2092 N   0  0  0  0  0  0  0  0  0  0  0  0
   -0.9221   -1.4246    2.4164 H   0  0  0  0  0  0  0  0  0  0  0  0
    1.0150   -1.3135    3.3196 C   0  0  0  0  0  0  0  0  0  0  0  0
    1.7915   -0.5703    3.1092 H   0  0  0  0  0  0  0  0  0  0  0  0
    0.4949   -1.0149    4.2353 H   0  0  0  0  0  0  0  0  0  0  0  0
    1.4936   -2.2831    3.4938 H   0  0  0  0  0  0  0  0  0  0  0  0
  1  2  1  0  0  0  0
  2  3  1  0  0  0  0
  2  4  1  0  0  0  0
  2  5  1  0  0  0  0
  5  6  2  0  0  0  0
  5  7  1  0  0  0  0
  7  8  1  0  0  0  0
  7  9  1  0  0  0  0
  9 10  1  0  0  0  0
  9 11  1  0  0  0  0
  9 29  1  0  0  0  0
 11 12  1  0  0  0  0
 11 13  1  0  0  0  0
 11 14  1  0  0  0  0
 14 15  1  0  0  0  0
 14 16  1  0  0  0  0
 14 17  1  0  0  0  0
 17 18  1  0  0  0  0
 17 19  1  0  0  0  0
 17 20  1  0  0  0  0
 20 21  1  0  0  0  0
 20 22  2  0  0  0  0
 22 23  1  0  0  0  0
 22 26  1  0  0  0  0
 23 24  1  0  0  0  0
 23 25  1  0  0  0  0
 26 27  1  0  0  0  0
 26 28  1  0  0  0  0
 29 30  2  0  0  0  0
 29 31  1  0  0  0  0
 31 32  1  0  0  0  0
 31 33  1  0  0  0  0
 33 34  1  0  0  0  0
 33 35  1  0  0  0  0
 33 36  1  0  0  0  0
M  CHG  1  20   1
M  END
$$$$

  -OEChem-04042215563D

 36 35  0     1  0  0  0  0  0999 V2000
   -3.2010   -5.4046    0.3491 H   0  0  0  0  0  0  0  0  0  0  0  0
   -3.3081   -4.3162    0.3238 C   0  0  0  0  0  0  0  0  0  0  0  0
   -3.6915   -3.9788    1.2897 H   0  0  0  0  0  0  0  0  0  0  0  0
   -4.0249   -4.0536   -0.4578 H   0  0  0  0  0  0  0  0  0  0  0  0
   -1.9668   -3.6675    0.0413 C   0  0  0  0  0  0  0  0  0  0  0  0
   -0.9547   -4.3449   -0.0231 O   0  0  0  0  0  0  0  0  0  0  0  0
   -1.8764   -2.3026   -0.1613 N   0  0  0  0  0  0  0  0  0  0  0  0
   -2.7302   -1.7603   -0.0528 H   0  0  0  0  0  0  0  0  0  0  0  0
   -0.5927   -1.5976   -0.3064 C   0  0  1  0  0  0  0  0  0  0  0  0
   -0.0943   -2.1747   -1.0859 H   0  0  0  0  0  0  0  0  0  0  0  0
   -0.7873   -0.1601   -0.8365 C   0  0  0  0  0  0  0  0  0  0  0  0
   -1.7960   -0.0552   -1.2502 H   0  0  0  0  0  0  0  0  0  0  0  0
   -0.6999    0.5550   -0.0108 H   0  0  0  0  0  0  0  0  0  0  0  0
    0.2220    0.1970   -1.9439 C   0  0  0  0  0  0  0  0  0  0  0  0
    0.0532    1.2311   -2.2629 H   0  0  0  0  0  0  0  0  0  0  0  0
    1.2260    0.1624   -1.5082 H   0  0  0  0  0  0  0  0  0  0  0  0
    0.1420   -0.7138   -3.1767 C   0  0  0  0  0  0  0  0  0  0  0  0
   -0.1858   -1.7208   -2.9033 H   0  0  0  0  0  0  0  0  0  0  0  0
   -0.6097   -0.3134   -3.8662 H   0  0  0  0  0  0  0  0  0  0  0  0
    1.4545   -0.7995   -3.8493 N   0  3  0  0  0  0  0  0  0  0  0  0
    1.5449   -0.3042   -4.7353 H   0  0  0  0  0  0  0  0  0  0  0  0
    2.4484   -1.5454   -3.4446 C   0  0  0  0  0  0  0  0  0  0  0  0
    2.4424   -2.2436   -2.2559 N   0  0  0  0  0  0  0  0  0  0  0  0
    1.8208   -1.9234   -1.5100 H   0  0  0  0  0  0  0  0  0  0  0  0
    3.3113   -2.6744   -1.9492 H   0  0  0  0  0  0  0  0  0  0  0  0
    3.5650   -1.6504   -4.2391 N   0  0  0  0  0  0  0  0  0  0  0  0
    3.5211   -1.3076   -5.1963 H   0  0  0  0  0  0  0  0  0  0  0  0
    4.2460   -2.3757   -4.0217 H   0  0  0  0  0  0  0  0  0  0  0  0
    0.4182   -1.6557    0.8509 C   0  0  0  0  0  0  0  0  0  0  0  0
    1.6066   -1.6621    0.5415 O   0  0  0  0  0  0  0  0  0  0  0  0
    0.0311   -1.4736    2.1638 N   0  0  0  0  0  0  0  0  0  0  0  0
   -0.9637   -1.5155    2.3664 H   0  0  0  0  0  0  0  0  0  0  0  0
    0.9736   -1.4761    3.2770 C   0  0  0  0  0  0  0  0  0  0  0  0
    1.7095   -0.6735    3.1597 H   0  0  0  0  0  0  0  0  0  0  0  0
    0.4447   -1.3213    4.2227 H   0  0  0  0  0  0  0  0  0  0  0  0
    1.5027   -2.4336    3.3295 H   0  0  0  0  0  0  0  0  0  0  0  0
  1  2  1  0  0  0  0
  2  3  1  0  0  0  0
  2  4  1  0  0  0  0
  2  5  1  0  0  0  0
  5  6  2  0  0  0  0
  5  7  1  0  0  0  0
  7  8  1  0  0  0  0
  7  9  1  0  0  0  0
  9 10  1  0  0  0  0
  9 11  1  0  0  0  0
  9 29  1  0  0  0  0
 11 12  1  0  0  0  0
 11 13  1  0  0  0  0
 11 14  1  0  0  0  0
 14 15  1  0  0  0  0
 14 16  1  0  0  0  0
 14 17  1  0  0  0  0
 17 18  1  0  0  0  0
 17 19  1  0  0  0  0
 17 20  1  0  0  0  0
 20 21  1  0  0  0  0
 20 22  2  0  0  0  0
 22 23  1  0  0  0  0
 22 26  1  0  0  0  0
 23 24  1  0  0  0  0
 23 25  1  0  0  0  0
 26 27  1  0  0  0  0
 26 28  1  0  0  0  0
 29 30  2  0  0  0  0
 29 31  1  0  0  0  0
 31 32  1  0  0  0  0
 31 33  1  0  0  0  0
 33 34  1  0  0  0  0
 33 35  1  0  0  0  0
 33 36  1  0  0  0  0
M  CHG  1  20   1
M  END
$$$$

  -OEChem-04042215563D

 36 35  0     1  0  0  0  0  0999 V2000
   -3.0969   -5.4076    0.1774 H   0  0  0  0  0  0  0  0  0  0  0  0
   -3.2505   -4.3245    0.1731 C   0  0  0  0  0  0  0  0  0  0  0  0
   -3.6496   -4.0231    1.1446 H   0  0  0  0  0  0  0  0  0  0  0  0
   -3.9766   -4.0774   -0.6049 H   0  0  0  0  0  0  0  0  0  0  0  0
   -1.9375   -3.6141   -0.0940 C   0  0  0  0  0  0  0  0  0  0  0  0
   -0.9068   -4.2523   -0.2274 O   0  0  0  0  0  0  0  0  0  0  0  0
   -1.8981   -2.2377   -0.2228 N   0  0  0  0  0  0  0  0  0  0  0  0
   -2.7647   -1.7349   -0.0466 H   0  0  0  0  0  0  0  0  0  0  0  0
   -0.6397   -1.4799   -0.3108 C   0  0  1  0  0  0  0  0  0  0  0  0
   -0.1156   -2.0031   -1.1137 H   0  0  0  0  0  0  0  0  0  0  0  0
   -0.8804   -0.0450   -0.8202 C   0  0  0  0  0  0  0  0  0  0  0  0
   -1.8800    0.0470   -1.2590 H   0  0  0  0  0  0  0  0  0  0  0  0
   -0.8268    0.6557    0.0202 H   0  0  0  0  0  0  0  0  0  0  0  0
    0.1702    0.3250   -1.8792 C   0  0  0  0  0  0  0  0  0  0  0  0
    0.1436    1.4081   -2.0408 H   0  0  0  0  0  0  0  0  0  0  0  0
    1.1685    0.0934   -1.4958 H   0  0  0  0  0  0  0  0  0  0  0  0
   -0.0981   -0.3632   -3.2194 C   0  0  0  0  0  0  0  0  0  0  0  0
   -0.4973   -1.3696   -3.0515 H   0  0  0  0  0  0  0  0  0  0  0  0
   -0.8590    0.1999   -3.7712 H   0  0  0  0  0  0  0  0  0  0  0  0
    1.1461   -0.4613   -4.0110 N   0  3  0  0  0  0  0  0  0  0  0  0
    1.2069    0.1314   -4.8379 H   0  0  0  0  0  0  0  0  0  0  0  0
    2.1141   -1.3075   -3.7735 C   0  0  0  0  0  0  0  0  0  0  0  0
    2.1460   -2.1333   -2.6690 N   0  0  0  0  0  0  0  0  0  0  0  0
    1.5680   -1.8816   -1.8672 H   0  0  0  0  0  0  0  0  0  0  0  0
    3.0134   -2.6230   -2.4604 H   0  0  0  0  0  0  0  0  0  0  0  0
    3.1615   -1.3865   -4.6600 N   0  0  0  0  0  0  0  0  0  0  0  0
    3.0706   -0.9367   -5.5684 H   0  0  0  0  0  0  0  0  0  0  0  0
    3.8040   -2.1726   -4.5788 H   0  0  0  0  0  0  0  0  0  0  0  0
    0.3622   -1.5575    0.8537 C   0  0  0  0  0  0  0  0  0  0  0  0
    1.5534   -1.5542    0.5586 O   0  0  0  0  0  0  0  0  0  0  0  0
   -0.0421   -1.4567    2.1703 N   0  0  0  0  0  0  0  0  0  0  0  0
   -1.0389   -1.5077    2.3596 H   0  0  0  0  0  0  0  0  0  0  0  0
    0.8892   -1.5053    3.2922 C   0  0  0  0  0  0  0  0  0  0  0  0
    1.6249   -0.6974    3.2176 H   0  0  0  0  0  0  0  0  0  0  0  0
    0.3505   -1.3917    4.2379 H   0  0  0  0  0  0  0  0  0  0  0  0
    1.4191   -2.4636    3.3091 H   0  0  0  0  0  0  0  0  0  0  0  0
  1  2  1  0  0  0  0
  2  3  1  0  0  0  0
  2  4  1  0  0  0  0
  2  5  1  0  0  0  0
  5  6  2  0  0  0  0
  5  7  1  0  0  0  0
  7  8  1  0  0  0  0
  7  9  1  0  0  0  0
  9 10  1  0  0  0  0
  9 11  1  0  0  0  0
  9 29  1  0  0  0  0
 11 12  1  0  0  0  0
 11 13  1  0  0  0  0
 11 14  1  0  0  0  0
 14 15  1  0  0  0  0
 14 16  1  0  0  0  0
 14 17  1  0  0  0  0
 17 18  1  0  0  0  0
 17 19  1  0  0  0  0
 17 20  1  0  0  0  0
 20 21  1  0  0  0  0
 20 22  2  0  0  0  0
 22 23  1  0  0  0  0
 22 26  1  0  0  0  0
 23 24  1  0  0  0  0
 23 25  1  0  0  0  0
 26 27  1  0  0  0  0
 26 28  1  0  0  0  0
 29 30  2  0  0  0  0
 29 31  1  0  0  0  0
 31 32  1  0  0  0  0
 31 33  1  0  0  0  0
 33 34  1  0  0  0  0
 33 35  1  0  0  0  0
 33 36  1  0  0  0  0
M  CHG  1  20   1
M  END
$$$$

  -OEChem-04042215563D

 36 35  0     1  0  0  0  0  0999 V2000
   -2.9056   -5.4737    0.8349 H   0  0  0  0  0  0  0  0  0  0  0  0
   -3.0629   -4.4274    0.5574 C   0  0  0  0  0  0  0  0  0  0  0  0
   -3.6490   -3.9424    1.3417 H   0  0  0  0  0  0  0  0  0  0  0  0
   -3.6213   -4.3939   -0.3809 H   0  0  0  0  0  0  0  0  0  0  0  0
   -1.7272   -3.7274    0.3950 C   0  0  0  0  0  0  0  0  0  0  0  0
   -0.6904   -4.3333    0.5975 O   0  0  0  0  0  0  0  0  0  0  0  0
   -1.6775   -2.4044   -0.0040 N   0  0  0  0  0  0  0  0  0  0  0  0
   -2.5682   -1.9214   -0.0836 H   0  0  0  0  0  0  0  0  0  0  0  0
   -0.4404   -1.6028    0.0285 C   0  0  1  0  0  0  0  0  0  0  0  0
    0.2849   -2.1806   -0.5562 H   0  0  0  0  0  0  0  0  0  0  0  0
   -0.6510   -0.2522   -0.6869 C   0  0  0  0  0  0  0  0  0  0  0  0
   -1.5773   -0.2612   -1.2711 H   0  0  0  0  0  0  0  0  0  0  0  0
   -0.7521    0.5411    0.0626 H   0  0  0  0  0  0  0  0  0  0  0  0
    0.5356    0.0662   -1.6123 C   0  0  0  0  0  0  0  0  0  0  0  0
    0.6409    1.1543   -1.6821 H   0  0  0  0  0  0  0  0  0  0  0  0
    1.4654   -0.3216   -1.1787 H   0  0  0  0  0  0  0  0  0  0  0  0
    0.3161   -0.4909   -3.0174 C   0  0  0  0  0  0  0  0  0  0  0  0
    0.0641   -1.5547   -2.9440 H   0  0  0  0  0  0  0  0  0  0  0  0
   -0.5187    0.0351   -3.4938 H   0  0  0  0  0  0  0  0  0  0  0  0
    1.5538   -0.3191   -3.8003 N   0  3  0  0  0  0  0  0  0  0  0  0
    2.3284    0.1565   -3.3383 H   0  0  0  0  0  0  0  0  0  0  0  0
    1.7271   -0.7914   -5.0006 C   0  0  0  0  0  0  0  0  0  0  0  0
    0.7356   -1.4816   -5.6594 N   0  0  0  0  0  0  0  0  0  0  0  0
   -0.0774   -1.7711   -5.1203 H   0  0  0  0  0  0  0  0  0  0  0  0
    0.9880   -2.0331   -6.4770 H   0  0  0  0  0  0  0  0  0  0  0  0
    2.9324   -0.6038   -5.6342 N   0  0  0  0  0  0  0  0  0  0  0  0
    3.6118    0.0352   -5.2250 H   0  0  0  0  0  0  0  0  0  0  0  0
    2.9983   -0.8011   -6.6311 H   0  0  0  0  0  0  0  0  0  0  0  0
    0.2269   -1.4245    1.4090 C   0  0  0  0  0  0  0  0  0  0  0  0
    1.4420   -1.2864    1.4535 O   0  0  0  0  0  0  0  0  0  0  0  0
   -0.5314   -1.1132    2.5230 N   0  0  0  0  0  0  0  0  0  0  0  0
   -1.5327   -1.2648    2.4590 H   0  0  0  0  0  0  0  0  0  0  0  0
    0.0563   -0.8527    3.8330 C   0  0  0  0  0  0  0  0  0  0  0  0
    0.7207    0.0167    3.7896 H   0  0  0  0  0  0  0  0  0  0  0  0
   -0.7286   -0.6494    4.5680 H   0  0  0  0  0  0  0  0  0  0  0  0
    0.6340   -1.7187    4.1735 H   0  0  0  0  0  0  0  0  0  0  0  0
  1  2  1  0  0  0  0
  2  3  1  0  0  0  0
  2  4  1  0  0  0  0
  2  5  1  0  0  0  0
  5  6  2  0  0  0  0
  5  7  1  0  0  0  0
  7  8  1  0  0  0  0
  7  9  1  0  0  0  0
  9 10  1  0  0  0  0
  9 11  1  0  0  0  0
  9 29  1  0  0  0  0
 11 12  1  0  0  0  0
 11 13  1  0  0  0  0
 11 14  1  0  0  0  0
 14 15  1  0  0  0  0
 14 16  1  0  0  0  0
 14 17  1  0  0  0  0
 17 18  1  0  0  0  0
 17 19  1  0  0  0  0
 17 20  1  0  0  0  0
 20 21  1  0  0  0  0
 20 22  2  0  0  0  0
 22 23  1  0  0  0  0
 22 26  1  0  0  0  0
 23 24  1  0  0  0  0
 23 25  1  0  0  0  0
 26 27  1  0  0  0  0
 26 28  1  0  0  0  0
 29 30  2  0  0  0  0
 29 31  1  0  0  0  0
 31 32  1  0  0  0  0
 31 33  1  0  0  0  0
 33 34  1  0  0  0  0
 33 35  1  0  0  0  0
 33 36  1  0  0  0  0
M  CHG  1  20   1
M  END
$$$$

  -OEChem-04042215563D

 36 35  0     1  0  0  0  0  0999 V2000
   -2.9768   -5.4416    1.0176 H   0  0  0  0  0  0  0  0  0  0  0  0
   -3.0997   -4.4444    0.5847 C   0  0  0  0  0  0  0  0  0  0  0  0
   -3.7809   -3.8705    1.2174 H   0  0  0  0  0  0  0  0  0  0  0  0
   -3.5346   -4.5466   -0.4123 H   0  0  0  0  0  0  0  0  0  0  0  0
   -1.7558   -3.7468    0.4964 C   0  0  0  0  0  0  0  0  0  0  0  0
   -0.7385   -4.3409    0.8038 O   0  0  0  0  0  0  0  0  0  0  0  0
   -1.6770   -2.4393    0.0531 N   0  0  0  0  0  0  0  0  0  0  0  0
   -2.5562   -1.9616   -0.1238 H   0  0  0  0  0  0  0  0  0  0  0  0
   -0.4310   -1.6512    0.0763 C   0  0  1  0  0  0  0  0  0  0  0  0
    0.2913   -2.2596   -0.4803 H   0  0  0  0  0  0  0  0  0  0  0  0
   -0.6180   -0.3180   -0.6787 C   0  0  0  0  0  0  0  0  0  0  0  0
   -1.5422   -0.3383   -1.2661 H   0  0  0  0  0  0  0  0  0  0  0  0
   -0.7224    0.4958    0.0481 H   0  0  0  0  0  0  0  0  0  0  0  0
    0.5766   -0.0232   -1.6065 C   0  0  0  0  0  0  0  0  0  0  0  0
    0.8488    1.0315   -1.4883 H   0  0  0  0  0  0  0  0  0  0  0  0
    1.4532   -0.6115   -1.3107 H   0  0  0  0  0  0  0  0  0  0  0  0
    0.2306   -0.2716   -3.0726 C   0  0  0  0  0  0  0  0  0  0  0  0
   -0.1056   -1.3079   -3.1896 H   0  0  0  0  0  0  0  0  0  0  0  0
   -0.5833    0.3974   -3.3737 H   0  0  0  0  0  0  0  0  0  0  0  0
    1.4298   -0.0302   -3.8965 N   0  3  0  0  0  0  0  0  0  0  0  0
    2.2904    0.2016   -3.4007 H   0  0  0  0  0  0  0  0  0  0  0  0
    1.4529   -0.1287   -5.1939 C   0  0  0  0  0  0  0  0  0  0  0  0
    0.3327   -0.4746   -5.9147 N   0  0  0  0  0  0  0  0  0  0  0  0
   -0.4725   -0.8246   -5.4000 H   0  0  0  0  0  0  0  0  0  0  0  0
    0.4487   -0.7715   -6.8816 H   0  0  0  0  0  0  0  0  0  0  0  0
    2.6238    0.1154   -5.8714 N   0  0  0  0  0  0  0  0  0  0  0  0
    3.4070    0.5270   -5.3669 H   0  0  0  0  0  0  0  0  0  0  0  0
    2.5863    0.2409   -6.8812 H   0  0  0  0  0  0  0  0  0  0  0  0
    0.2208   -1.4296    1.4572 C   0  0  0  0  0  0  0  0  0  0  0  0
    1.4354   -1.2874    1.5083 O   0  0  0  0  0  0  0  0  0  0  0  0
   -0.5505   -1.0692    2.5473 N   0  0  0  0  0  0  0  0  0  0  0  0
   -1.5474   -1.2477    2.4826 H   0  0  0  0  0  0  0  0  0  0  0  0
    0.0215   -0.7762    3.8573 C   0  0  0  0  0  0  0  0  0  0  0  0
    0.7435    0.0446    3.7880 H   0  0  0  0  0  0  0  0  0  0  0  0
   -0.7657   -0.4812    4.5580 H   0  0  0  0  0  0  0  0  0  0  0  0
    0.5307   -1.6591    4.2584 H   0  0  0  0  0  0  0  0  0  0  0  0
  1  2  1  0  0  0  0
  2  3  1  0  0  0  0
  2  4  1  0  0  0  0
  2  5  1  0  0  0  0
  5  6  2  0  0  0  0
  5  7  1  0  0  0  0
  7  8  1  0  0  0  0
  7  9  1  0  0  0  0
  9 10  1  0  0  0  0
  9 11  1  0  0  0  0
  9 29  1  0  0  0  0
 11 12  1  0  0  0  0
 11 13  1  0  0  0  0
 11 14  1  0  0  0  0
 14 15  1  0  0  0  0
 14 16  1  0  0  0  0
 14 17  1  0  0  0  0
 17 18  1  0  0  0  0
 17 19  1  0  0  0  0
 17 20  1  0  0  0  0
 20 21  1  0  0  0  0
 20 22  2  0  0  0  0
 22 23  1  0  0  0  0
 22 26  1  0  0  0  0
 23 24  1  0  0  0  0
 23 25  1  0  0  0  0
 26 27  1  0  0  0  0
 26 28  1  0  0  0  0
 29 30  2  0  0  0  0
 29 31  1  0  0  0  0
 31 32  1  0  0  0  0
 31 33  1  0  0  0  0
 33 34  1  0  0  0  0
 33 35  1  0  0  0  0
 33 36  1  0  0  0  0
M  CHG  1  20   1
M  END
$$$$

  -OEChem-04042215563D

 36 35  0     1  0  0  0  0  0999 V2000
   -2.9524   -5.4813    1.0111 H   0  0  0  0  0  0  0  0  0  0  0  0
   -3.0815   -4.4857    0.5762 C   0  0  0  0  0  0  0  0  0  0  0  0
   -3.7876   -3.9240    1.1923 H   0  0  0  0  0  0  0  0  0  0  0  0
   -3.4903   -4.5935   -0.4312 H   0  0  0  0  0  0  0  0  0  0  0  0
   -1.7472   -3.7665    0.5224 C   0  0  0  0  0  0  0  0  0  0  0  0
   -0.7318   -4.3390    0.8733 O   0  0  0  0  0  0  0  0  0  0  0  0
   -1.6760   -2.4607    0.0730 N   0  0  0  0  0  0  0  0  0  0  0  0
   -2.5545   -2.0034   -0.1528 H   0  0  0  0  0  0  0  0  0  0  0  0
   -0.4361   -1.6622    0.0880 C   0  0  1  0  0  0  0  0  0  0  0  0
    0.2856   -2.2718   -0.4661 H   0  0  0  0  0  0  0  0  0  0  0  0
   -0.6316   -0.3282   -0.6669 C   0  0  0  0  0  0  0  0  0  0  0  0
   -1.5530   -0.3780   -1.2565 H   0  0  0  0  0  0  0  0  0  0  0  0
   -0.7613    0.4886    0.0522 H   0  0  0  0  0  0  0  0  0  0  0  0
    0.5514   -0.0089   -1.6063 C   0  0  0  0  0  0  0  0  0  0  0  0
    0.9947    0.9393   -1.2827 H   0  0  0  0  0  0  0  0  0  0  0  0
    1.3377   -0.7673   -1.5217 H   0  0  0  0  0  0  0  0  0  0  0  0
    0.1156    0.1123   -3.0651 C   0  0  0  0  0  0  0  0  0  0  0  0
   -0.3188   -0.8389   -3.3922 H   0  0  0  0  0  0  0  0  0  0  0  0
   -0.6459    0.8952   -3.1530 H   0  0  0  0  0  0  0  0  0  0  0  0
    1.2941    0.4464   -3.8868 N   0  3  0  0  0  0  0  0  0  0  0  0
    2.1698    0.6101   -3.3902 H   0  0  0  0  0  0  0  0  0  0  0  0
    1.2773    0.5348   -5.1849 C   0  0  0  0  0  0  0  0  0  0  0  0
    0.1247    0.3388   -5.9111 N   0  0  0  0  0  0  0  0  0  0  0  0
   -0.7548    0.2835   -5.4022 H   0  0  0  0  0  0  0  0  0  0  0  0
    0.0999    0.6476   -6.8809 H   0  0  0  0  0  0  0  0  0  0  0  0
    2.4388    0.8355   -5.8560 N   0  0  0  0  0  0  0  0  0  0  0  0
    3.3196    0.8072   -5.3453 H   0  0  0  0  0  0  0  0  0  0  0  0
    2.4684    0.6938   -6.8641 H   0  0  0  0  0  0  0  0  0  0  0  0
    0.2216   -1.4261    1.4639 C   0  0  0  0  0  0  0  0  0  0  0  0
    1.4336   -1.2599    1.5034 O   0  0  0  0  0  0  0  0  0  0  0  0
   -0.5459   -1.0654    2.5566 N   0  0  0  0  0  0  0  0  0  0  0  0
   -1.5381   -1.2721    2.5042 H   0  0  0  0  0  0  0  0  0  0  0  0
    0.0331   -0.7565    3.8601 C   0  0  0  0  0  0  0  0  0  0  0  0
    0.7511    0.0665    3.7777 H   0  0  0  0  0  0  0  0  0  0  0  0
   -0.7510   -0.4574    4.5627 H   0  0  0  0  0  0  0  0  0  0  0  0
    0.5491   -1.6328    4.2672 H   0  0  0  0  0  0  0  0  0  0  0  0
  1  2  1  0  0  0  0
  2  3  1  0  0  0  0
  2  4  1  0  0  0  0
  2  5  1  0  0  0  0
  5  6  2  0  0  0  0
  5  7  1  0  0  0  0
  7  8  1  0  0  0  0
  7  9  1  0  0  0  0
  9 10  1  0  0  0  0
  9 11  1  0  0  0  0
  9 29  1  0  0  0  0
 11 12  1  0  0  0  0
 11 13  1  0  0  0  0
 11 14  1  0  0  0  0
 14 15  1  0  0  0  0
 14 16  1  0  0  0  0
 14 17  1  0  0  0  0
 17 18  1  0  0  0  0
 17 19  1  0  0  0  0
 17 20  1  0  0  0  0
 20 21  1  0  0  0  0
 20 22  2  0  0  0  0
 22 23  1  0  0  0  0
 22 26  1  0  0  0  0
 23 24  1  0  0  0  0
 23 25  1  0  0  0  0
 26 27  1  0  0  0  0
 26 28  1  0  0  0  0
 29 30  2  0  0  0  0
 29 31  1  0  0  0  0
 31 32  1  0  0  0  0
 31 33  1  0  0  0  0
 33 34  1  0  0  0  0
 33 35  1  0  0  0  0
 33 36  1  0  0  0  0
M  CHG  1  20   1
M  END
$$$$

  -OEChem-04042215563D

 36 35  0     1  0  0  0  0  0999 V2000
   -2.9320   -5.4893    0.9849 H   0  0  0  0  0  0  0  0  0  0  0  0
   -3.0536   -4.4973    0.5402 C   0  0  0  0  0  0  0  0  0  0  0  0
   -3.7858   -3.9386    1.1281 H   0  0  0  0  0  0  0  0  0  0  0  0
   -3.4247   -4.6141   -0.4808 H   0  0  0  0  0  0  0  0  0  0  0  0
   -1.7245   -3.7667    0.5299 C   0  0  0  0  0  0  0  0  0  0  0  0
   -0.7175   -4.3259    0.9241 O   0  0  0  0  0  0  0  0  0  0  0  0
   -1.6504   -2.4635    0.0734 N   0  0  0  0  0  0  0  0  0  0  0  0
   -2.5207   -2.0238   -0.2113 H   0  0  0  0  0  0  0  0  0  0  0  0
   -0.4132   -1.6606    0.0955 C   0  0  1  0  0  0  0  0  0  0  0  0
    0.3192   -2.2671   -0.4475 H   0  0  0  0  0  0  0  0  0  0  0  0
   -0.6099   -0.3213   -0.6520 C   0  0  0  0  0  0  0  0  0  0  0  0
   -1.5231   -0.3907   -1.2527 H   0  0  0  0  0  0  0  0  0  0  0  0
   -0.7606    0.4972    0.0610 H   0  0  0  0  0  0  0  0  0  0  0  0
    0.5718    0.0099   -1.5884 C   0  0  0  0  0  0  0  0  0  0  0  0
    1.1948    0.7720   -1.1066 H   0  0  0  0  0  0  0  0  0  0  0  0
    1.2052   -0.8696   -1.7441 H   0  0  0  0  0  0  0  0  0  0  0  0
    0.0930    0.5004   -2.9537 C   0  0  0  0  0  0  0  0  0  0  0  0
   -0.5061   -0.2837   -3.4303 H   0  0  0  0  0  0  0  0  0  0  0  0
   -0.5346    1.3884   -2.8184 H   0  0  0  0  0  0  0  0  0  0  0  0
    1.2660    0.8256   -3.7865 N   0  3  0  0  0  0  0  0  0  0  0  0
    2.1798    0.7695   -3.3368 H   0  0  0  0  0  0  0  0  0  0  0  0
    1.1959    1.1765   -5.0380 C   0  0  0  0  0  0  0  0  0  0  0  0
   -0.0084    1.2947   -5.6938 N   0  0  0  0  0  0  0  0  0  0  0  0
   -0.8585    1.2712   -5.1348 H   0  0  0  0  0  0  0  0  0  0  0  0
   -0.0328    1.7902   -6.5829 H   0  0  0  0  0  0  0  0  0  0  0  0
    2.3525    1.4411   -5.7319 N   0  0  0  0  0  0  0  0  0  0  0  0
    3.2448    1.1894   -5.3103 H   0  0  0  0  0  0  0  0  0  0  0  0
    2.3069    1.5057   -6.7472 H   0  0  0  0  0  0  0  0  0  0  0  0
    0.2233   -1.4183    1.4802 C   0  0  0  0  0  0  0  0  0  0  0  0
    1.4324   -1.2365    1.5367 O   0  0  0  0  0  0  0  0  0  0  0  0
   -0.5645   -1.0564    2.5583 N   0  0  0  0  0  0  0  0  0  0  0  0
   -1.5518   -1.2830    2.4933 H   0  0  0  0  0  0  0  0  0  0  0  0
   -0.0081   -0.7499    3.8722 C   0  0  0  0  0  0  0  0  0  0  0  0
    0.7171    0.0681    3.8033 H   0  0  0  0  0  0  0  0  0  0  0  0
   -0.8032   -0.4446    4.5597 H   0  0  0  0  0  0  0  0  0  0  0  0
    0.4935   -1.6297    4.2897 H   0  0  0  0  0  0  0  0  0  0  0  0
  1  2  1  0  0  0  0
  2  3  1  0  0  0  0
  2  4  1  0  0  0  0
  2  5  1  0  0  0  0
  5  6  2  0  0  0  0
  5  7  1  0  0  0  0
  7  8  1  0  0  0  0
  7  9  1  0  0  0  0
  9 10  1  0  0  0  0
  9 11  1  0  0  0  0
  9 29  1  0  0  0  0
 11 12  1  0  0  0  0
 11 13  1  0  0  0  0
 11 14  1  0  0  0  0
 14 15  1  0  0  0  0
 14 16  1  0  0  0  0
 14 17  1  0  0  0  0
 17 18  1  0  0  0  0
 17 19  1  0  0  0  0
 17 20  1  0  0  0  0
 20 21  1  0  0  0  0
 20 22  2  0  0  0  0
 22 23  1  0  0  0  0
 22 26  1  0  0  0  0
 23 24  1  0  0  0  0
 23 25  1  0  0  0  0
 26 27  1  0  0  0  0
 26 28  1  0  0  0  0
 29 30  2  0  0  0  0
 29 31  1  0  0  0  0
 31 32  1  0  0  0  0
 31 33  1  0  0  0  0
 33 34  1  0  0  0  0
 33 35  1  0  0  0  0
 33 36  1  0  0  0  0
M  CHG  1  20   1
M  END
$$$$

  -OEChem-04042215563D

 36 35  0     1  0  0  0  0  0999 V2000
   -2.8856   -5.5156    0.9315 H   0  0  0  0  0  0  0  0  0  0  0  0
   -3.0212   -4.5181    0.5029 C   0  0  0  0  0  0  0  0  0  0  0  0
   -3.7751   -3.9857    1.0873 H   0  0  0  0  0  0  0  0  0  0  0  0
   -3.3728   -4.6234   -0.5261 H   0  0  0  0  0  0  0  0  0  0  0  0
   -1.7081   -3.7596    0.5284 C   0  0  0  0  0  0  0  0  0  0  0  0
   -0.6994   -4.3010    0.9429 O   0  0  0  0  0  0  0  0  0  0  0  0
   -1.6480   -2.4539    0.0765 N   0  0  0  0  0  0  0  0  0  0  0  0
   -2.5166   -2.0316   -0.2383 H   0  0  0  0  0  0  0  0  0  0  0  0
   -0.4183   -1.6398    0.0970 C   0  0  1  0  0  0  0  0  0  0  0  0
    0.3205   -2.2352   -0.4499 H   0  0  0  0  0  0  0  0  0  0  0  0
   -0.6238   -0.2974   -0.6412 C   0  0  0  0  0  0  0  0  0  0  0  0
   -1.5302   -0.3738   -1.2507 H   0  0  0  0  0  0  0  0  0  0  0  0
   -0.7819    0.5206    0.0706 H   0  0  0  0  0  0  0  0  0  0  0  0
    0.5606    0.0270   -1.5714 C   0  0  0  0  0  0  0  0  0  0  0  0
    1.3282    0.5562   -0.9950 H   0  0  0  0  0  0  0  0  0  0  0  0
    1.0108   -0.8971   -1.9496 H   0  0  0  0  0  0  0  0  0  0  0  0
    0.1190    0.8543   -2.7766 C   0  0  0  0  0  0  0  0  0  0  0  0
   -0.6179    0.2877   -3.3567 H   0  0  0  0  0  0  0  0  0  0  0  0
   -0.3480    1.7812   -2.4252 H   0  0  0  0  0  0  0  0  0  0  0  0
    1.3004    1.1602   -3.6048 N   0  3  0  0  0  0  0  0  0  0  0  0
    2.2087    0.8858   -3.2305 H   0  0  0  0  0  0  0  0  0  0  0  0
    1.2463    1.7639   -4.7565 C   0  0  0  0  0  0  0  0  0  0  0  0
    0.0545    2.1875   -5.2990 N   0  0  0  0  0  0  0  0  0  0  0  0
   -0.7696    2.1752   -4.7020 H   0  0  0  0  0  0  0  0  0  0  0  0
    0.0791    2.8543   -6.0679 H   0  0  0  0  0  0  0  0  0  0  0  0
    2.4071    1.9927   -5.4564 N   0  0  0  0  0  0  0  0  0  0  0  0
    3.2629    1.5326   -5.1510 H   0  0  0  0  0  0  0  0  0  0  0  0
    2.3400    2.2763   -6.4322 H   0  0  0  0  0  0  0  0  0  0  0  0
    0.2200   -1.3978    1.4811 C   0  0  0  0  0  0  0  0  0  0  0  0
    1.4264   -1.1958    1.5339 O   0  0  0  0  0  0  0  0  0  0  0  0
   -0.5696   -1.0481    2.5617 N   0  0  0  0  0  0  0  0  0  0  0  0
   -1.5519   -1.2961    2.5001 H   0  0  0  0  0  0  0  0  0  0  0  0
   -0.0134   -0.7427    3.8757 C   0  0  0  0  0  0  0  0  0  0  0  0
    0.6920    0.0927    3.8116 H   0  0  0  0  0  0  0  0  0  0  0  0
   -0.8118   -0.4637    4.5701 H   0  0  0  0  0  0  0  0  0  0  0  0
    0.5113   -1.6146    4.2811 H   0  0  0  0  0  0  0  0  0  0  0  0
  1  2  1  0  0  0  0
  2  3  1  0  0  0  0
  2  4  1  0  0  0  0
  2  5  1  0  0  0  0
  5  6  2  0  0  0  0
  5  7  1  0  0  0  0
  7  8  1  0  0  0  0
  7  9  1  0  0  0  0
  9 10  1  0  0  0  0
  9 11  1  0  0  0  0
  9 29  1  0  0  0  0
 11 12  1  0  0  0  0
 11 13  1  0  0  0  0
 11 14  1  0  0  0  0
 14 15  1  0  0  0  0
 14 16  1  0  0  0  0
 14 17  1  0  0  0  0
 17 18  1  0  0  0  0
 17 19  1  0  0  0  0
 17 20  1  0  0  0  0
 20 21  1  0  0  0  0
 20 22  2  0  0  0  0
 22 23  1  0  0  0  0
 22 26  1  0  0  0  0
 23 24  1  0  0  0  0
 23 25  1  0  0  0  0
 26 27  1  0  0  0  0
 26 28  1  0  0  0  0
 29 30  2  0  0  0  0
 29 31  1  0  0  0  0
 31 32  1  0  0  0  0
 31 33  1  0  0  0  0
 33 34  1  0  0  0  0
 33 35  1  0  0  0  0
 33 36  1  0  0  0  0
M  CHG  1  20   1
M  END
$$$$

  -OEChem-04042215563D

 36 35  0     1  0  0  0  0  0999 V2000
   -2.8535   -5.5270    0.8853 H   0  0  0  0  0  0  0  0  0  0  0  0
   -2.9947   -4.5264    0.4661 C   0  0  0  0  0  0  0  0  0  0  0  0
   -3.7689   -4.0125    1.0406 H   0  0  0  0  0  0  0  0  0  0  0  0
   -3.3225   -4.6251   -0.5714 H   0  0  0  0  0  0  0  0  0  0  0  0
   -1.6945   -3.7476    0.5280 C   0  0  0  0  0  0  0  0  0  0  0  0
   -0.6892   -4.2738    0.9694 O   0  0  0  0  0  0  0  0  0  0  0  0
   -1.6427   -2.4404    0.0793 N   0  0  0  0  0  0  0  0  0  0  0  0
   -2.5043   -2.0385   -0.2787 H   0  0  0  0  0  0  0  0  0  0  0  0
   -0.4181   -1.6184    0.0984 C   0  0  1  0  0  0  0  0  0  0  0  0
    0.3253   -2.2027   -0.4555 H   0  0  0  0  0  0  0  0  0  0  0  0
   -0.6336   -0.2757   -0.6335 C   0  0  0  0  0  0  0  0  0  0  0  0
   -1.5398   -0.3436   -1.2444 H   0  0  0  0  0  0  0  0  0  0  0  0
   -0.7827    0.5386    0.0844 H   0  0  0  0  0  0  0  0  0  0  0  0
    0.5541    0.0365   -1.5578 C   0  0  0  0  0  0  0  0  0  0  0  0
    1.4166    0.3243   -0.9445 H   0  0  0  0  0  0  0  0  0  0  0  0
    0.8292   -0.8592   -2.1258 H   0  0  0  0  0  0  0  0  0  0  0  0
    0.2092    1.1464   -2.5475 C   0  0  0  0  0  0  0  0  0  0  0  0
   -0.6224    0.8223   -3.1830 H   0  0  0  0  0  0  0  0  0  0  0  0
   -0.1007    2.0392   -1.9930 H   0  0  0  0  0  0  0  0  0  0  0  0
    1.3998    1.4430   -3.3666 N   0  3  0  0  0  0  0  0  0  0  0  0
    2.2674    0.9761   -3.1028 H   0  0  0  0  0  0  0  0  0  0  0  0
    1.4069    2.2708   -4.3711 C   0  0  0  0  0  0  0  0  0  0  0  0
    0.2780    2.9595   -4.7521 N   0  0  0  0  0  0  0  0  0  0  0  0
   -0.5194    2.9475   -4.1196 H   0  0  0  0  0  0  0  0  0  0  0  0
    0.3832    3.7589   -5.3737 H   0  0  0  0  0  0  0  0  0  0  0  0
    2.5707    2.4701   -5.0753 N   0  0  0  0  0  0  0  0  0  0  0  0
    3.3571    1.8442   -4.9099 H   0  0  0  0  0  0  0  0  0  0  0  0
    2.5205    2.9460   -5.9744 H   0  0  0  0  0  0  0  0  0  0  0  0
    0.2193   -1.3781    1.4835 C   0  0  0  0  0  0  0  0  0  0  0  0
    1.4238   -1.1644    1.5373 O   0  0  0  0  0  0  0  0  0  0  0  0
   -0.5732   -1.0379    2.5648 N   0  0  0  0  0  0  0  0  0  0  0  0
   -1.5519   -1.3007    2.5031 H   0  0  0  0  0  0  0  0  0  0  0  0
   -0.0187   -0.7416    3.8816 C   0  0  0  0  0  0  0  0  0  0  0  0
    0.6785    0.1015    3.8269 H   0  0  0  0  0  0  0  0  0  0  0  0
   -0.8195   -0.4788    4.5797 H   0  0  0  0  0  0  0  0  0  0  0  0
    0.5146   -1.6130    4.2768 H   0  0  0  0  0  0  0  0  0  0  0  0
  1  2  1  0  0  0  0
  2  3  1  0  0  0  0
  2  4  1  0  0  0  0
  2  5  1  0  0  0  0
  5  6  2  0  0  0  0
  5  7  1  0  0  0  0
  7  8  1  0  0  0  0
  7  9  1  0  0  0  0
  9 10  1  0  0  0  0
  9 11  1  0  0  0  0
  9 29  1  0  0  0  0
 11 12  1  0  0  0  0
 11 13  1  0  0  0  0
 11 14  1  0  0  0  0
 14 15  1  0  0  0  0
 14 16  1  0  0  0  0
 14 17  1  0  0  0  0
 17 18  1  0  0  0  0
 17 19  1  0  0  0  0
 17 20  1  0  0  0  0
 20 21  1  0  0  0  0
 20 22  2  0  0  0  0
 22 23  1  0  0  0  0
 22 26  1  0  0  0  0
 23 24  1  0  0  0  0
 23 25  1  0  0  0  0
 26 27  1  0  0  0  0
 26 28  1  0  0  0  0
 29 30  2  0  0  0  0
 29 31  1  0  0  0  0
 31 32  1  0  0  0  0
 31 33  1  0  0  0  0
 33 34  1  0  0  0  0
 33 35  1  0  0  0  0
 33 36  1  0  0  0  0
M  CHG  1  20   1
M  END
$$$$

  -OEChem-04042215563D

 36 35  0     1  0  0  0  0  0999 V2000
   -2.8536   -5.5139    0.8415 H   0  0  0  0  0  0  0  0  0  0  0  0
   -2.9938   -4.5057    0.4406 C   0  0  0  0  0  0  0  0  0  0  0  0
   -3.7679   -4.0014    1.0238 H   0  0  0  0  0  0  0  0  0  0  0  0
   -3.3208   -4.5851   -0.5989 H   0  0  0  0  0  0  0  0  0  0  0  0
   -1.6927   -3.7306    0.5184 C   0  0  0  0  0  0  0  0  0  0  0  0
   -0.6906   -4.2649    0.9569 O   0  0  0  0  0  0  0  0  0  0  0  0
   -1.6354   -2.4207    0.0789 N   0  0  0  0  0  0  0  0  0  0  0  0
   -2.4940   -2.0156   -0.2826 H   0  0  0  0  0  0  0  0  0  0  0  0
   -0.4092   -1.6017    0.1079 C   0  0  1  0  0  0  0  0  0  0  0  0
    0.3444   -2.1764   -0.4433 H   0  0  0  0  0  0  0  0  0  0  0  0
   -0.6249   -0.2536   -0.6155 C   0  0  0  0  0  0  0  0  0  0  0  0
   -1.6521   -0.1858   -0.9893 H   0  0  0  0  0  0  0  0  0  0  0  0
   -0.4773    0.5785    0.0826 H   0  0  0  0  0  0  0  0  0  0  0  0
    0.3536   -0.1205   -1.7897 C   0  0  0  0  0  0  0  0  0  0  0  0
    1.3788   -0.1803   -1.4051 H   0  0  0  0  0  0  0  0  0  0  0  0
    0.2039   -0.9497   -2.4903 H   0  0  0  0  0  0  0  0  0  0  0  0
    0.1547    1.2074   -2.5154 C   0  0  0  0  0  0  0  0  0  0  0  0
   -0.8540    1.2397   -2.9420 H   0  0  0  0  0  0  0  0  0  0  0  0
    0.2576    2.0276   -1.7958 H   0  0  0  0  0  0  0  0  0  0  0  0
    1.1679    1.3371   -3.5793 N   0  3  0  0  0  0  0  0  0  0  0  0
    1.8889    0.6172   -3.6199 H   0  0  0  0  0  0  0  0  0  0  0  0
    1.2114    2.3270   -4.4233 C   0  0  0  0  0  0  0  0  0  0  0  0
    0.2962    3.3540   -4.3847 N   0  0  0  0  0  0  0  0  0  0  0  0
   -0.3077    3.4182   -3.5680 H   0  0  0  0  0  0  0  0  0  0  0  0
    0.5094    4.2127   -4.8884 H   0  0  0  0  0  0  0  0  0  0  0  0
    2.1959    2.3587   -5.3820 N   0  0  0  0  0  0  0  0  0  0  0  0
    2.7686    1.5290   -5.5260 H   0  0  0  0  0  0  0  0  0  0  0  0
    2.1013    3.0137   -6.1559 H   0  0  0  0  0  0  0  0  0  0  0  0
    0.2151   -1.3785    1.5022 C   0  0  0  0  0  0  0  0  0  0  0  0
    1.4204   -1.1761    1.5694 O   0  0  0  0  0  0  0  0  0  0  0  0
   -0.5845   -1.0474    2.5816 N   0  0  0  0  0  0  0  0  0  0  0  0
   -1.5658   -1.2963    2.5063 H   0  0  0  0  0  0  0  0  0  0  0  0
   -0.0380   -0.7811    3.9084 C   0  0  0  0  0  0  0  0  0  0  0  0
    0.6513    0.0695    3.8776 H   0  0  0  0  0  0  0  0  0  0  0  0
   -0.8430   -0.5445    4.6111 H   0  0  0  0  0  0  0  0  0  0  0  0
    0.5025   -1.6575    4.2825 H   0  0  0  0  0  0  0  0  0  0  0  0
  1  2  1  0  0  0  0
  2  3  1  0  0  0  0
  2  4  1  0  0  0  0
  2  5  1  0  0  0  0
  5  6  2  0  0  0  0
  5  7  1  0  0  0  0
  7  8  1  0  0  0  0
  7  9  1  0  0  0  0
  9 10  1  0  0  0  0
  9 11  1  0  0  0  0
  9 29  1  0  0  0  0
 11 12  1  0  0  0  0
 11 13  1  0  0  0  0
 11 14  1  0  0  0  0
 14 15  1  0  0  0  0
 14 16  1  0  0  0  0
 14 17  1  0  0  0  0
 17 18  1  0  0  0  0
 17 19  1  0  0  0  0
 17 20  1  0  0  0  0
 20 21  1  0  0  0  0
 20 22  2  0  0  0  0
 22 23  1  0  0  0  0
 22 26  1  0  0  0  0
 23 24  1  0  0  0  0
 23 25  1  0  0  0  0
 26 27  1  0  0  0  0
 26 28  1  0  0  0  0
 29 30  2  0  0  0  0
 29 31  1  0  0  0  0
 31 32  1  0  0  0  0
 31 33  1  0  0  0  0
 33 34  1  0  0  0  0
 33 35  1  0  0  0  0
 33 36  1  0  0  0  0
M  CHG  1  20   1
M  END
$$$$

  -OEChem-04042215563D

 36 35  0     1  0  0  0  0  0999 V2000
   -2.8380   -5.5266    0.9119 H   0  0  0  0  0  0  0  0  0  0  0  0
   -2.9907   -4.5226    0.5047 C   0  0  0  0  0  0  0  0  0  0  0  0
   -3.7462   -4.0121    1.1066 H   0  0  0  0  0  0  0  0  0  0  0  0
   -3.3503   -4.6126   -0.5230 H   0  0  0  0  0  0  0  0  0  0  0  0
   -1.6883   -3.7458    0.5347 C   0  0  0  0  0  0  0  0  0  0  0  0
   -0.6772   -4.2660    0.9700 O   0  0  0  0  0  0  0  0  0  0  0  0
   -1.6441   -2.4427    0.0741 N   0  0  0  0  0  0  0  0  0  0  0  0
   -2.5083   -2.0501   -0.2880 H   0  0  0  0  0  0  0  0  0  0  0  0
   -0.4234   -1.6155    0.0737 C   0  0  1  0  0  0  0  0  0  0  0  0
    0.3228   -2.1978   -0.4795 H   0  0  0  0  0  0  0  0  0  0  0  0
   -0.6568   -0.2815   -0.6704 C   0  0  0  0  0  0  0  0  0  0  0  0
   -1.6885   -0.2160   -1.0313 H   0  0  0  0  0  0  0  0  0  0  0  0
   -0.5017    0.5561    0.0197 H   0  0  0  0  0  0  0  0  0  0  0  0
    0.3035   -0.1530   -1.8606 C   0  0  0  0  0  0  0  0  0  0  0  0
    1.3125   -0.4334   -1.5339 H   0  0  0  0  0  0  0  0  0  0  0  0
    0.0014   -0.8369   -2.6615 H   0  0  0  0  0  0  0  0  0  0  0  0
    0.3386    1.2876   -2.3665 C   0  0  0  0  0  0  0  0  0  0  0  0
   -0.6343    1.5460   -2.7993 H   0  0  0  0  0  0  0  0  0  0  0  0
    0.5338    1.9570   -1.5211 H   0  0  0  0  0  0  0  0  0  0  0  0
    1.4070    1.4268   -3.3733 N   0  3  0  0  0  0  0  0  0  0  0  0
    1.9622    0.5959   -3.5752 H   0  0  0  0  0  0  0  0  0  0  0  0
    1.7187    2.5521   -3.9482 C   0  0  0  0  0  0  0  0  0  0  0  0
    1.0381    3.7177   -3.6787 N   0  0  0  0  0  0  0  0  0  0  0  0
    0.3953    3.7188   -2.8896 H   0  0  0  0  0  0  0  0  0  0  0  0
    1.4622    4.6025   -3.9499 H   0  0  0  0  0  0  0  0  0  0  0  0
    2.7585    2.5880   -4.8463 N   0  0  0  0  0  0  0  0  0  0  0  0
    3.1645    1.7106   -5.1661 H   0  0  0  0  0  0  0  0  0  0  0  0
    2.8704    3.4119   -5.4344 H   0  0  0  0  0  0  0  0  0  0  0  0
    0.2234   -1.3620    1.4520 C   0  0  0  0  0  0  0  0  0  0  0  0
    1.4253   -1.1306    1.4898 O   0  0  0  0  0  0  0  0  0  0  0  0
   -0.5607   -1.0168    2.5379 N   0  0  0  0  0  0  0  0  0  0  0  0
   -1.5364   -1.2939    2.4913 H   0  0  0  0  0  0  0  0  0  0  0  0
    0.0077   -0.7037    3.8450 C   0  0  0  0  0  0  0  0  0  0  0  0
    0.6650    0.1699    3.7793 H   0  0  0  0  0  0  0  0  0  0  0  0
   -0.7881   -0.4813    4.5625 H   0  0  0  0  0  0  0  0  0  0  0  0
    0.5886   -1.5520    4.2233 H   0  0  0  0  0  0  0  0  0  0  0  0
  1  2  1  0  0  0  0
  2  3  1  0  0  0  0
  2  4  1  0  0  0  0
  2  5  1  0  0  0  0
  5  6  2  0  0  0  0
  5  7  1  0  0  0  0
  7  8  1  0  0  0  0
  7  9  1  0  0  0  0
  9 10  1  0  0  0  0
  9 11  1  0  0  0  0
  9 29  1  0  0  0  0
 11 12  1  0  0  0  0
 11 13  1  0  0  0  0
 11 14  1  0  0  0  0
 14 15  1  0  0  0  0
 14 16  1  0  0  0  0
 14 17  1  0  0  0  0
 17 18  1  0  0  0  0
 17 19  1  0  0  0  0
 17 20  1  0  0  0  0
 20 21  1  0  0  0  0
 20 22  2  0  0  0  0
 22 23  1  0  0  0  0
 22 26  1  0  0  0  0
 23 24  1  0  0  0  0
 23 25  1  0  0  0  0
 26 27  1  0  0  0  0
 26 28  1  0  0  0  0
 29 30  2  0  0  0  0
 29 31  1  0  0  0  0
 31 32  1  0  0  0  0
 31 33  1  0  0  0  0
 33 34  1  0  0  0  0
 33 35  1  0  0  0  0
 33 36  1  0  0  0  0
M  CHG  1  20   1
M  END
$$$$

  -OEChem-04042215563D

 36 35  0     1  0  0  0  0  0999 V2000
   -1.9581   -5.5558    1.2384 H   0  0  0  0  0  0  0  0  0  0  0  0
   -2.3534   -4.6592    0.7519 C   0  0  0  0  0  0  0  0  0  0  0  0
   -3.1580   -4.2520    1.3686 H   0  0  0  0  0  0  0  0  0  0  0  0
   -2.7563   -4.9395   -0.2243 H   0  0  0  0  0  0  0  0  0  0  0  0
   -1.2518   -3.6304    0.5839 C   0  0  0  0  0  0  0  0  0  0  0  0
   -0.1148   -3.8844    0.9406 O   0  0  0  0  0  0  0  0  0  0  0  0
   -1.5266   -2.3940    0.0291 N   0  0  0  0  0  0  0  0  0  0  0  0
   -2.4750   -2.2374   -0.3024 H   0  0  0  0  0  0  0  0  0  0  0  0
   -0.4885   -1.3927   -0.2699 C   0  0  1  0  0  0  0  0  0  0  0  0
    0.2244   -1.9316   -0.9041 H   0  0  0  0  0  0  0  0  0  0  0  0
   -1.0350   -0.1816   -1.0554 C   0  0  0  0  0  0  0  0  0  0  0  0
   -2.1094   -0.2955   -1.2347 H   0  0  0  0  0  0  0  0  0  0  0  0
   -0.9131    0.7292   -0.4577 H   0  0  0  0  0  0  0  0  0  0  0  0
   -0.3157   -0.0374   -2.4077 C   0  0  0  0  0  0  0  0  0  0  0  0
    0.7073   -0.4212   -2.3321 H   0  0  0  0  0  0  0  0  0  0  0  0
   -0.8258   -0.6298   -3.1751 H   0  0  0  0  0  0  0  0  0  0  0  0
   -0.2733    1.4398   -2.8117 C   0  0  0  0  0  0  0  0  0  0  0  0
   -1.0550    1.6343   -3.5546 H   0  0  0  0  0  0  0  0  0  0  0  0
   -0.4870    2.0742   -1.9446 H   0  0  0  0  0  0  0  0  0  0  0  0
    1.0516    1.8026   -3.3555 N   0  3  0  0  0  0  0  0  0  0  0  0
    1.1062    1.9631   -4.3605 H   0  0  0  0  0  0  0  0  0  0  0  0
    2.1176    1.9991   -2.6263 C   0  0  0  0  0  0  0  0  0  0  0  0
    2.1498    1.7842   -1.2651 N   0  0  0  0  0  0  0  0  0  0  0  0
    1.4361    1.1741   -0.8599 H   0  0  0  0  0  0  0  0  0  0  0  0
    3.0601    1.7482   -0.8118 H   0  0  0  0  0  0  0  0  0  0  0  0
    3.2702    2.4371   -3.2337 N   0  0  0  0  0  0  0  0  0  0  0  0
    3.2216    2.7830   -4.1896 H   0  0  0  0  0  0  0  0  0  0  0  0
    4.0330    2.7651   -2.6440 H   0  0  0  0  0  0  0  0  0  0  0  0
    0.3627   -0.8767    0.9089 C   0  0  0  0  0  0  0  0  0  0  0  0
    1.4319   -0.3393    0.6248 O   0  0  0  0  0  0  0  0  0  0  0  0
   -0.2461   -0.5328    2.1010 N   0  0  0  0  0  0  0  0  0  0  0  0
   -1.1139   -1.0201    2.3101 H   0  0  0  0  0  0  0  0  0  0  0  0
    0.4739    0.0906    3.2069 C   0  0  0  0  0  0  0  0  0  0  0  0
    0.8457    1.0788    2.9169 H   0  0  0  0  0  0  0  0  0  0  0  0
   -0.1893    0.2134    4.0690 H   0  0  0  0  0  0  0  0  0  0  0  0
    1.3233   -0.5309    3.5103 H   0  0  0  0  0  0  0  0  0  0  0  0
  1  2  1  0  0  0  0
  2  3  1  0  0  0  0
  2  4  1  0  0  0  0
  2  5  1  0  0  0  0
  5  6  2  0  0  0  0
  5  7  1  0  0  0  0
  7  8  1  0  0  0  0
  7  9  1  0  0  0  0
  9 10  1  0  0  0  0
  9 11  1  0  0  0  0
  9 29  1  0  0  0  0
 11 12  1  0  0  0  0
 11 13  1  0  0  0  0
 11 14  1  0  0  0  0
 14 15  1  0  0  0  0
 14 16  1  0  0  0  0
 14 17  1  0  0  0  0
 17 18  1  0  0  0  0
 17 19  1  0  0  0  0
 17 20  1  0  0  0  0
 20 21  1  0  0  0  0
 20 22  2  0  0  0  0
 22 23  1  0  0  0  0
 22 26  1  0  0  0  0
 23 24  1  0  0  0  0
 23 25  1  0  0  0  0
 26 27  1  0  0  0  0
 26 28  1  0  0  0  0
 29 30  2  0  0  0  0
 29 31  1  0  0  0  0
 31 32  1  0  0  0  0
 31 33  1  0  0  0  0
 33 34  1  0  0  0  0
 33 35  1  0  0  0  0
 33 36  1  0  0  0  0
M  CHG  1  20   1
M  END
$$$$

  -OEChem-04042215563D

 36 35  0     1  0  0  0  0  0999 V2000
   -1.8956   -5.5739    1.0893 H   0  0  0  0  0  0  0  0  0  0  0  0
   -2.2969   -4.6492    0.6645 C   0  0  0  0  0  0  0  0  0  0  0  0
   -3.0866   -4.2757    1.3206 H   0  0  0  0  0  0  0  0  0  0  0  0
   -2.7208   -4.8703   -0.3179 H   0  0  0  0  0  0  0  0  0  0  0  0
   -1.1947   -3.6162    0.5351 C   0  0  0  0  0  0  0  0  0  0  0  0
   -0.0608   -3.8781    0.8968 O   0  0  0  0  0  0  0  0  0  0  0  0
   -1.4672   -2.3637    0.0171 N   0  0  0  0  0  0  0  0  0  0  0  0
   -2.4158   -2.1914   -0.3064 H   0  0  0  0  0  0  0  0  0  0  0  0
   -0.4366   -1.3333   -0.1937 C   0  0  1  0  0  0  0  0  0  0  0  0
    0.3154   -1.8425   -0.8055 H   0  0  0  0  0  0  0  0  0  0  0  0
   -0.9712   -0.1085   -0.9692 C   0  0  0  0  0  0  0  0  0  0  0  0
   -2.0297   -0.2525   -1.2104 H   0  0  0  0  0  0  0  0  0  0  0  0
   -0.9209    0.7808   -0.3307 H   0  0  0  0  0  0  0  0  0  0  0  0
   -0.1977    0.1159   -2.2845 C   0  0  0  0  0  0  0  0  0  0  0  0
    0.7333   -0.4596   -2.2912 H   0  0  0  0  0  0  0  0  0  0  0  0
   -0.7922   -0.2252   -3.1391 H   0  0  0  0  0  0  0  0  0  0  0  0
    0.1389    1.6037   -2.4311 C   0  0  0  0  0  0  0  0  0  0  0  0
   -0.6465    2.1003   -3.0116 H   0  0  0  0  0  0  0  0  0  0  0  0
    0.1652    2.0822   -1.4459 H   0  0  0  0  0  0  0  0  0  0  0  0
    1.4521    1.7790   -3.0805 N   0  3  0  0  0  0  0  0  0  0  0  0
    1.4511    1.9757   -4.0805 H   0  0  0  0  0  0  0  0  0  0  0  0
    2.5883    1.7465   -2.4382 C   0  0  0  0  0  0  0  0  0  0  0  0
    2.6832    1.4651   -1.0920 N   0  0  0  0  0  0  0  0  0  0  0  0
    1.8900    1.0117   -0.6288 H   0  0  0  0  0  0  0  0  0  0  0  0
    3.6004    1.2505   -0.7085 H   0  0  0  0  0  0  0  0  0  0  0  0
    3.7512    2.0019   -3.1247 N   0  0  0  0  0  0  0  0  0  0  0  0
    3.6907    2.4006   -4.0591 H   0  0  0  0  0  0  0  0  0  0  0  0
    4.6000    2.1701   -2.5877 H   0  0  0  0  0  0  0  0  0  0  0  0
    0.3509   -0.8474    1.0393 C   0  0  0  0  0  0  0  0  0  0  0  0
    1.4385   -0.3138    0.8271 O   0  0  0  0  0  0  0  0  0  0  0  0
   -0.3130   -0.5590    2.2164 N   0  0  0  0  0  0  0  0  0  0  0  0
   -1.1930   -1.0471    2.3617 H   0  0  0  0  0  0  0  0  0  0  0  0
    0.3500    0.0222    3.3787 C   0  0  0  0  0  0  0  0  0  0  0  0
    0.7594    1.0086    3.1369 H   0  0  0  0  0  0  0  0  0  0  0  0
   -0.3625    0.1399    4.2013 H   0  0  0  0  0  0  0  0  0  0  0  0
    1.1663   -0.6246    3.7179 H   0  0  0  0  0  0  0  0  0  0  0  0
  1  2  1  0  0  0  0
  2  3  1  0  0  0  0
  2  4  1  0  0  0  0
  2  5  1  0  0  0  0
  5  6  2  0  0  0  0
  5  7  1  0  0  0  0
  7  8  1  0  0  0  0
  7  9  1  0  0  0  0
  9 10  1  0  0  0  0
  9 11  1  0  0  0  0
  9 29  1  0  0  0  0
 11 12  1  0  0  0  0
 11 13  1  0  0  0  0
 11 14  1  0  0  0  0
 14 15  1  0  0  0  0
 14 16  1  0  0  0  0
 14 17  1  0  0  0  0
 17 18  1  0  0  0  0
 17 19  1  0  0  0  0
 17 20  1  0  0  0  0
 20 21  1  0  0  0  0
 20 22  2  0  0  0  0
 22 23  1  0  0  0  0
 22 26  1  0  0  0  0
 23 24  1  0  0  0  0
 23 25  1  0  0  0  0
 26 27  1  0  0  0  0
 26 28  1  0  0  0  0
 29 30  2  0  0  0  0
 29 31  1  0  0  0  0
 31 32  1  0  0  0  0
 31 33  1  0  0  0  0
 33 34  1  0  0  0  0
 33 35  1  0  0  0  0
 33 36  1  0  0  0  0
M  CHG  1  20   1
M  END
$$$$

  -OEChem-04042215563D

 36 35  0     1  0  0  0  0  0999 V2000
   -1.9028   -5.5627    1.0287 H   0  0  0  0  0  0  0  0  0  0  0  0
   -2.2734   -4.6439    0.5649 C   0  0  0  0  0  0  0  0  0  0  0  0
   -3.1008   -4.2583    1.1652 H   0  0  0  0  0  0  0  0  0  0  0  0
   -2.6374   -4.8800   -0.4379 H   0  0  0  0  0  0  0  0  0  0  0  0
   -1.1611   -3.6157    0.4862 C   0  0  0  0  0  0  0  0  0  0  0  0
   -0.0331   -3.9004    0.8494 O   0  0  0  0  0  0  0  0  0  0  0  0
   -1.4171   -2.3435    0.0091 N   0  0  0  0  0  0  0  0  0  0  0  0
   -2.3618   -2.1498   -0.3133 H   0  0  0  0  0  0  0  0  0  0  0  0
   -0.3789   -1.3104   -0.1452 C   0  0  1  0  0  0  0  0  0  0  0  0
    0.3852   -1.7971   -0.7587 H   0  0  0  0  0  0  0  0  0  0  0  0
   -0.9019   -0.0576   -0.8847 C   0  0  0  0  0  0  0  0  0  0  0  0
   -1.9515   -0.2143   -1.1555 H   0  0  0  0  0  0  0  0  0  0  0  0
   -0.8890    0.8115   -0.2166 H   0  0  0  0  0  0  0  0  0  0  0  0
   -0.1143    0.2239   -2.1824 C   0  0  0  0  0  0  0  0  0  0  0  0
    0.6537   -0.5343   -2.3636 H   0  0  0  0  0  0  0  0  0  0  0  0
   -0.7914    0.2009   -3.0431 H   0  0  0  0  0  0  0  0  0  0  0  0
    0.5330    1.6089   -2.0809 C   0  0  0  0  0  0  0  0  0  0  0  0
   -0.1512    2.3620   -2.4874 H   0  0  0  0  0  0  0  0  0  0  0  0
    0.7054    1.8608   -1.0287 H   0  0  0  0  0  0  0  0  0  0  0  0
    1.8194    1.6391   -2.8013 N   0  3  0  0  0  0  0  0  0  0  0  0
    1.7887    1.8699   -3.7933 H   0  0  0  0  0  0  0  0  0  0  0  0
    2.9743    1.4299   -2.2308 C   0  0  0  0  0  0  0  0  0  0  0  0
    3.1070    1.0921   -0.9018 N   0  0  0  0  0  0  0  0  0  0  0  0
    2.2818    0.7566   -0.3936 H   0  0  0  0  0  0  0  0  0  0  0  0
    4.0045    0.7400   -0.5787 H   0  0  0  0  0  0  0  0  0  0  0  0
    4.1205    1.5518   -2.9793 N   0  0  0  0  0  0  0  0  0  0  0  0
    4.0616    1.9984   -3.8918 H   0  0  0  0  0  0  0  0  0  0  0  0
    5.0125    1.5861   -2.4890 H   0  0  0  0  0  0  0  0  0  0  0  0
    0.3853   -0.8750    1.1204 C   0  0  0  0  0  0  0  0  0  0  0  0
    1.4960   -0.3736    0.9566 O   0  0  0  0  0  0  0  0  0  0  0  0
   -0.2945   -0.6260    2.2970 N   0  0  0  0  0  0  0  0  0  0  0  0
   -1.1948   -1.0869    2.3991 H   0  0  0  0  0  0  0  0  0  0  0  0
    0.3604   -0.1190    3.4981 C   0  0  0  0  0  0  0  0  0  0  0  0
    0.7772    0.8774    3.3187 H   0  0  0  0  0  0  0  0  0  0  0  0
   -0.3591   -0.0468    4.3196 H   0  0  0  0  0  0  0  0  0  0  0  0
    1.1699   -0.7898    3.8060 H   0  0  0  0  0  0  0  0  0  0  0  0
  1  2  1  0  0  0  0
  2  3  1  0  0  0  0
  2  4  1  0  0  0  0
  2  5  1  0  0  0  0
  5  6  2  0  0  0  0
  5  7  1  0  0  0  0
  7  8  1  0  0  0  0
  7  9  1  0  0  0  0
  9 10  1  0  0  0  0
  9 11  1  0  0  0  0
  9 29  1  0  0  0  0
 11 12  1  0  0  0  0
 11 13  1  0  0  0  0
 11 14  1  0  0  0  0
 14 15  1  0  0  0  0
 14 16  1  0  0  0  0
 14 17  1  0  0  0  0
 17 18  1  0  0  0  0
 17 19  1  0  0  0  0
 17 20  1  0  0  0  0
 20 21  1  0  0  0  0
 20 22  2  0  0  0  0
 22 23  1  0  0  0  0
 22 26  1  0  0  0  0
 23 24  1  0  0  0  0
 23 25  1  0  0  0  0
 26 27  1  0  0  0  0
 26 28  1  0  0  0  0
 29 30  2  0  0  0  0
 29 31  1  0  0  0  0
 31 32  1  0  0  0  0
 31 33  1  0  0  0  0
 33 34  1  0  0  0  0
 33 35  1  0  0  0  0
 33 36  1  0  0  0  0
M  CHG  1  20   1
M  END
$$$$

  -OEChem-04042215563D

 36 35  0     1  0  0  0  0  0999 V2000
   -1.7962   -5.6107    0.9100 H   0  0  0  0  0  0  0  0  0  0  0  0
   -2.1794   -4.6769    0.4880 C   0  0  0  0  0  0  0  0  0  0  0  0
   -3.0034   -4.3228    1.1122 H   0  0  0  0  0  0  0  0  0  0  0  0
   -2.5521   -4.8749   -0.5198 H   0  0  0  0  0  0  0  0  0  0  0  0
   -1.0765   -3.6366    0.4391 C   0  0  0  0  0  0  0  0  0  0  0  0
    0.0540   -3.9213    0.7951 O   0  0  0  0  0  0  0  0  0  0  0  0
   -1.3406   -2.3565   -0.0123 N   0  0  0  0  0  0  0  0  0  0  0  0
   -2.2879   -2.1588   -0.3249 H   0  0  0  0  0  0  0  0  0  0  0  0
   -0.3143   -1.3043   -0.1109 C   0  0  1  0  0  0  0  0  0  0  0  0
    0.4779   -1.7550   -0.7170 H   0  0  0  0  0  0  0  0  0  0  0  0
   -0.8401   -0.0398   -0.8276 C   0  0  0  0  0  0  0  0  0  0  0  0
   -1.8758   -0.2176   -1.1364 H   0  0  0  0  0  0  0  0  0  0  0  0
   -0.8678    0.8184   -0.1456 H   0  0  0  0  0  0  0  0  0  0  0  0
   -0.0214    0.2801   -2.0932 C   0  0  0  0  0  0  0  0  0  0  0  0
    0.5515   -0.5864   -2.4389 H   0  0  0  0  0  0  0  0  0  0  0  0
   -0.6983    0.5571   -2.9086 H   0  0  0  0  0  0  0  0  0  0  0  0
    0.8946    1.4709   -1.7916 C   0  0  0  0  0  0  0  0  0  0  0  0
    0.3697    2.4046   -2.0226 H   0  0  0  0  0  0  0  0  0  0  0  0
    1.1307    1.4876   -0.7217 H   0  0  0  0  0  0  0  0  0  0  0  0
    2.1433    1.3777   -2.5703 N   0  3  0  0  0  0  0  0  0  0  0  0
    2.0938    1.6344   -3.5549 H   0  0  0  0  0  0  0  0  0  0  0  0
    3.2896    1.0147   -2.0639 C   0  0  0  0  0  0  0  0  0  0  0  0
    3.4460    0.6395   -0.7483 N   0  0  0  0  0  0  0  0  0  0  0  0
    2.6085    0.4385   -0.1907 H   0  0  0  0  0  0  0  0  0  0  0  0
    4.2982    0.1558   -0.4773 H   0  0  0  0  0  0  0  0  0  0  0  0
    4.4022    1.0036   -2.8707 N   0  0  0  0  0  0  0  0  0  0  0  0
    4.3520    1.4632   -3.7773 H   0  0  0  0  0  0  0  0  0  0  0  0
    5.3151    0.9237   -2.4264 H   0  0  0  0  0  0  0  0  0  0  0  0
    0.4023   -0.8972    1.1916 C   0  0  0  0  0  0  0  0  0  0  0  0
    1.5291   -0.4165    1.0885 O   0  0  0  0  0  0  0  0  0  0  0  0
   -0.3166   -0.6918    2.3532 N   0  0  0  0  0  0  0  0  0  0  0  0
   -1.2299   -1.1352    2.4037 H   0  0  0  0  0  0  0  0  0  0  0  0
    0.2898   -0.2116    3.5901 C   0  0  0  0  0  0  0  0  0  0  0  0
    0.7172    0.7865    3.4480 H   0  0  0  0  0  0  0  0  0  0  0  0
   -0.4631   -0.1523    4.3824 H   0  0  0  0  0  0  0  0  0  0  0  0
    1.0831   -0.8923    3.9172 H   0  0  0  0  0  0  0  0  0  0  0  0
  1  2  1  0  0  0  0
  2  3  1  0  0  0  0
  2  4  1  0  0  0  0
  2  5  1  0  0  0  0
  5  6  2  0  0  0  0
  5  7  1  0  0  0  0
  7  8  1  0  0  0  0
  7  9  1  0  0  0  0
  9 10  1  0  0  0  0
  9 11  1  0  0  0  0
  9 29  1  0  0  0  0
 11 12  1  0  0  0  0
 11 13  1  0  0  0  0
 11 14  1  0  0  0  0
 14 15  1  0  0  0  0
 14 16  1  0  0  0  0
 14 17  1  0  0  0  0
 17 18  1  0  0  0  0
 17 19  1  0  0  0  0
 17 20  1  0  0  0  0
 20 21  1  0  0  0  0
 20 22  2  0  0  0  0
 22 23  1  0  0  0  0
 22 26  1  0  0  0  0
 23 24  1  0  0  0  0
 23 25  1  0  0  0  0
 26 27  1  0  0  0  0
 26 28  1  0  0  0  0
 29 30  2  0  0  0  0
 29 31  1  0  0  0  0
 31 32  1  0  0  0  0
 31 33  1  0  0  0  0
 33 34  1  0  0  0  0
 33 35  1  0  0  0  0
 33 36  1  0  0  0  0
M  CHG  1  20   1
M  END
$$$$

  -OEChem-04042215563D

 36 35  0     1  0  0  0  0  0999 V2000
   -1.7120   -5.6411    0.7494 H   0  0  0  0  0  0  0  0  0  0  0  0
   -2.1062   -4.6857    0.3909 C   0  0  0  0  0  0  0  0  0  0  0  0
   -2.9131   -4.3678    1.0553 H   0  0  0  0  0  0  0  0  0  0  0  0
   -2.5055   -4.8274   -0.6162 H   0  0  0  0  0  0  0  0  0  0  0  0
   -1.0054   -3.6428    0.3713 C   0  0  0  0  0  0  0  0  0  0  0  0
    0.1277   -3.9366    0.7122 O   0  0  0  0  0  0  0  0  0  0  0  0
   -1.2714   -2.3521   -0.0476 N   0  0  0  0  0  0  0  0  0  0  0  0
   -2.2218   -2.1441   -0.3441 H   0  0  0  0  0  0  0  0  0  0  0  0
   -0.2518   -1.2902   -0.0936 C   0  0  1  0  0  0  0  0  0  0  0  0
    0.5598   -1.7048   -0.7010 H   0  0  0  0  0  0  0  0  0  0  0  0
   -0.7873   -0.0161   -0.7862 C   0  0  0  0  0  0  0  0  0  0  0  0
   -1.8159   -0.1959   -1.1164 H   0  0  0  0  0  0  0  0  0  0  0  0
   -0.8259    0.8294   -0.0892 H   0  0  0  0  0  0  0  0  0  0  0  0
    0.0541    0.3358   -2.0248 C   0  0  0  0  0  0  0  0  0  0  0  0
    0.4222   -0.5703   -2.5189 H   0  0  0  0  0  0  0  0  0  0  0  0
   -0.5695    0.8665   -2.7524 H   0  0  0  0  0  0  0  0  0  0  0  0
    1.2024    1.2599   -1.6015 C   0  0  0  0  0  0  0  0  0  0  0  0
    0.8875    2.3037   -1.7110 H   0  0  0  0  0  0  0  0  0  0  0  0
    1.4278    1.1008   -0.5422 H   0  0  0  0  0  0  0  0  0  0  0  0
    2.4070    1.0042   -2.4133 N   0  3  0  0  0  0  0  0  0  0  0  0
    2.3624    1.2619   -3.3980 H   0  0  0  0  0  0  0  0  0  0  0  0
    3.5114    0.4967   -1.9386 C   0  0  0  0  0  0  0  0  0  0  0  0
    3.6620    0.1189   -0.6237 N   0  0  0  0  0  0  0  0  0  0  0  0
    2.8278    0.0644   -0.0289 H   0  0  0  0  0  0  0  0  0  0  0  0
    4.4420   -0.4831   -0.3733 H   0  0  0  0  0  0  0  0  0  0  0  0
    4.5852    0.3279   -2.7796 N   0  0  0  0  0  0  0  0  0  0  0  0
    4.5696    0.7854   -3.6884 H   0  0  0  0  0  0  0  0  0  0  0  0
    5.4927    0.1310   -2.3618 H   0  0  0  0  0  0  0  0  0  0  0  0
    0.4217   -0.9321    1.2469 C   0  0  0  0  0  0  0  0  0  0  0  0
    1.5734   -0.5062    1.2119 O   0  0  0  0  0  0  0  0  0  0  0  0
   -0.3296   -0.7742    2.3957 N   0  0  0  0  0  0  0  0  0  0  0  0
   -1.2629   -1.1766    2.3890 H   0  0  0  0  0  0  0  0  0  0  0  0
    0.2447   -0.3710    3.6749 C   0  0  0  0  0  0  0  0  0  0  0  0
    0.7142    0.6149    3.5932 H   0  0  0  0  0  0  0  0  0  0  0  0
   -0.5359   -0.3161    4.4403 H   0  0  0  0  0  0  0  0  0  0  0  0
    0.9990   -1.0947    4.0019 H   0  0  0  0  0  0  0  0  0  0  0  0
  1  2  1  0  0  0  0
  2  3  1  0  0  0  0
  2  4  1  0  0  0  0
  2  5  1  0  0  0  0
  5  6  2  0  0  0  0
  5  7  1  0  0  0  0
  7  8  1  0  0  0  0
  7  9  1  0  0  0  0
  9 10  1  0  0  0  0
  9 11  1  0  0  0  0
  9 29  1  0  0  0  0
 11 12  1  0  0  0  0
 11 13  1  0  0  0  0
 11 14  1  0  0  0  0
 14 15  1  0  0  0  0
 14 16  1  0  0  0  0
 14 17  1  0  0  0  0
 17 18  1  0  0  0  0
 17 19  1  0  0  0  0
 17 20  1  0  0  0  0
 20 21  1  0  0  0  0
 20 22  2  0  0  0  0
 22 23  1  0  0  0  0
 22 26  1  0  0  0  0
 23 24  1  0  0  0  0
 23 25  1  0  0  0  0
 26 27  1  0  0  0  0
 26 28  1  0  0  0  0
 29 30  2  0  0  0  0
 29 31  1  0  0  0  0
 31 32  1  0  0  0  0
 31 33  1  0  0  0  0
 33 34  1  0  0  0  0
 33 35  1  0  0  0  0
 33 36  1  0  0  0  0
M  CHG  1  20   1
M  END
$$$$

  -OEChem-04042215563D

 36 35  0     1  0  0  0  0  0999 V2000
   -1.6400   -5.6392    0.6681 H   0  0  0  0  0  0  0  0  0  0  0  0
   -2.0339   -4.6788    0.3231 C   0  0  0  0  0  0  0  0  0  0  0  0
   -2.8226   -4.3579    1.0078 H   0  0  0  0  0  0  0  0  0  0  0  0
   -2.4579   -4.8118   -0.6751 H   0  0  0  0  0  0  0  0  0  0  0  0
   -0.9243   -3.6459    0.2838 C   0  0  0  0  0  0  0  0  0  0  0  0
    0.2174   -3.9566    0.5792 O   0  0  0  0  0  0  0  0  0  0  0  0
   -1.1908   -2.3456   -0.1044 N   0  0  0  0  0  0  0  0  0  0  0  0
   -2.1527   -2.1178   -0.3442 H   0  0  0  0  0  0  0  0  0  0  0  0
   -0.1748   -1.2791   -0.1014 C   0  0  1  0  0  0  0  0  0  0  0  0
    0.6508   -1.6550   -0.7159 H   0  0  0  0  0  0  0  0  0  0  0  0
   -0.7251    0.0088   -0.7558 C   0  0  0  0  0  0  0  0  0  0  0  0
   -1.7554   -0.1598   -1.0872 H   0  0  0  0  0  0  0  0  0  0  0  0
   -0.7547    0.8319   -0.0324 H   0  0  0  0  0  0  0  0  0  0  0  0
    0.1147    0.4138   -1.9780 C   0  0  0  0  0  0  0  0  0  0  0  0
    0.2717   -0.4588   -2.6221 H   0  0  0  0  0  0  0  0  0  0  0  0
   -0.4332    1.1574   -2.5667 H   0  0  0  0  0  0  0  0  0  0  0  0
    1.4502    1.0254   -1.5308 C   0  0  0  0  0  0  0  0  0  0  0  0
    1.3937    2.1159   -1.6204 H   0  0  0  0  0  0  0  0  0  0  0  0
    1.6226    0.8001   -0.4754 H   0  0  0  0  0  0  0  0  0  0  0  0
    2.5649    0.5106   -2.3494 N   0  3  0  0  0  0  0  0  0  0  0  0
    2.5158    0.6823   -3.3522 H   0  0  0  0  0  0  0  0  0  0  0  0
    3.6064   -0.1081   -1.8655 C   0  0  0  0  0  0  0  0  0  0  0  0
    3.7683   -0.3778   -0.5263 N   0  0  0  0  0  0  0  0  0  0  0  0
    2.9580   -0.2675    0.0930 H   0  0  0  0  0  0  0  0  0  0  0  0
    4.4576   -1.0727   -0.2511 H   0  0  0  0  0  0  0  0  0  0  0  0
    4.6006   -0.5129   -2.7234 N   0  0  0  0  0  0  0  0  0  0  0  0
    4.6028   -0.1518   -3.6746 H   0  0  0  0  0  0  0  0  0  0  0  0
    5.4898   -0.8048   -2.3218 H   0  0  0  0  0  0  0  0  0  0  0  0
    0.4522   -0.9806    1.2774 C   0  0  0  0  0  0  0  0  0  0  0  0
    1.6237   -0.6170    1.3185 O   0  0  0  0  0  0  0  0  0  0  0  0
   -0.3389   -0.8720    2.4048 N   0  0  0  0  0  0  0  0  0  0  0  0
   -1.2893   -1.2246    2.3349 H   0  0  0  0  0  0  0  0  0  0  0  0
    0.1930   -0.5581    3.7263 C   0  0  0  0  0  0  0  0  0  0  0  0
    0.6832    0.4212    3.7218 H   0  0  0  0  0  0  0  0  0  0  0  0
   -0.6154   -0.5336    4.4639 H   0  0  0  0  0  0  0  0  0  0  0  0
    0.9209   -1.3155    4.0364 H   0  0  0  0  0  0  0  0  0  0  0  0
  1  2  1  0  0  0  0
  2  3  1  0  0  0  0
  2  4  1  0  0  0  0
  2  5  1  0  0  0  0
  5  6  2  0  0  0  0
  5  7  1  0  0  0  0
  7  8  1  0  0  0  0
  7  9  1  0  0  0  0
  9 10  1  0  0  0  0
  9 11  1  0  0  0  0
  9 29  1  0  0  0  0
 11 12  1  0  0  0  0
 11 13  1  0  0  0  0
 11 14  1  0  0  0  0
 14 15  1  0  0  0  0
 14 16  1  0  0  0  0
 14 17  1  0  0  0  0
 17 18  1  0  0  0  0
 17 19  1  0  0  0  0
 17 20  1  0  0  0  0
 20 21  1  0  0  0  0
 20 22  2  0  0  0  0
 22 23  1  0  0  0  0
 22 26  1  0  0  0  0
 23 24  1  0  0  0  0
 23 25  1  0  0  0  0
 26 27  1  0  0  0  0
 26 28  1  0  0  0  0
 29 30  2  0  0  0  0
 29 31  1  0  0  0  0
 31 32  1  0  0  0  0
 31 33  1  0  0  0  0
 33 34  1  0  0  0  0
 33 35  1  0  0  0  0
 33 36  1  0  0  0  0
M  CHG  1  20   1
M  END
$$$$

  -OEChem-04042215563D

 36 35  0     1  0  0  0  0  0999 V2000
   -1.7033   -5.6495    0.2253 H   0  0  0  0  0  0  0  0  0  0  0  0
   -2.0777   -4.6443    0.0107 C   0  0  0  0  0  0  0  0  0  0  0  0
   -2.8225   -4.3796    0.7651 H   0  0  0  0  0  0  0  0  0  0  0  0
   -2.5512   -4.6499   -0.9739 H   0  0  0  0  0  0  0  0  0  0  0  0
   -0.9350   -3.6473    0.0326 C   0  0  0  0  0  0  0  0  0  0  0  0
    0.2064   -4.0212    0.2458 O   0  0  0  0  0  0  0  0  0  0  0  0
   -1.1686   -2.3085   -0.2232 N   0  0  0  0  0  0  0  0  0  0  0  0
   -2.1294   -2.0279   -0.4042 H   0  0  0  0  0  0  0  0  0  0  0  0
   -0.1183   -1.2785   -0.1488 C   0  0  1  0  0  0  0  0  0  0  0  0
    0.6726   -1.6146   -0.8252 H   0  0  0  0  0  0  0  0  0  0  0  0
   -0.6462    0.0851   -0.6454 C   0  0  0  0  0  0  0  0  0  0  0  0
   -1.6996   -0.0055   -0.9307 H   0  0  0  0  0  0  0  0  0  0  0  0
   -0.6010    0.8211    0.1656 H   0  0  0  0  0  0  0  0  0  0  0  0
    0.1386    0.6263   -1.8544 C   0  0  0  0  0  0  0  0  0  0  0  0
    0.0090   -0.0466   -2.7089 H   0  0  0  0  0  0  0  0  0  0  0  0
   -0.2947    1.5919   -2.1374 H   0  0  0  0  0  0  0  0  0  0  0  0
    1.6317    0.8378   -1.5495 C   0  0  0  0  0  0  0  0  0  0  0  0
    1.9234    1.8350   -1.8979 H   0  0  0  0  0  0  0  0  0  0  0  0
    1.7928    0.8092   -0.4670 H   0  0  0  0  0  0  0  0  0  0  0  0
    2.4651   -0.1699   -2.2399 N   0  3  0  0  0  0  0  0  0  0  0  0
    2.2462   -0.3504   -3.2179 H   0  0  0  0  0  0  0  0  0  0  0  0
    3.5202   -0.7371   -1.7238 C   0  0  0  0  0  0  0  0  0  0  0  0
    3.9091   -0.5443   -0.4209 N   0  0  0  0  0  0  0  0  0  0  0  0
    3.1629   -0.2823    0.2321 H   0  0  0  0  0  0  0  0  0  0  0  0
    4.6065   -1.1820   -0.0469 H   0  0  0  0  0  0  0  0  0  0  0  0
    4.2899   -1.5611   -2.5099 N   0  0  0  0  0  0  0  0  0  0  0  0
    4.1305   -1.5784   -3.5145 H   0  0  0  0  0  0  0  0  0  0  0  0
    5.2006   -1.8539   -2.1612 H   0  0  0  0  0  0  0  0  0  0  0  0
    0.5473   -1.1397    1.2396 C   0  0  0  0  0  0  0  0  0  0  0  0
    1.7235   -0.7958    1.2963 O   0  0  0  0  0  0  0  0  0  0  0  0
   -0.2184   -1.1197    2.3901 N   0  0  0  0  0  0  0  0  0  0  0  0
   -1.1820   -1.4314    2.3088 H   0  0  0  0  0  0  0  0  0  0  0  0
    0.3410   -0.9225    3.7234 C   0  0  0  0  0  0  0  0  0  0  0  0
    0.8595    0.0401    3.7857 H   0  0  0  0  0  0  0  0  0  0  0  0
   -0.4558   -0.9311    4.4737 H   0  0  0  0  0  0  0  0  0  0  0  0
    1.0507   -1.7215    3.9636 H   0  0  0  0  0  0  0  0  0  0  0  0
  1  2  1  0  0  0  0
  2  3  1  0  0  0  0
  2  4  1  0  0  0  0
  2  5  1  0  0  0  0
  5  6  2  0  0  0  0
  5  7  1  0  0  0  0
  7  8  1  0  0  0  0
  7  9  1  0  0  0  0
  9 10  1  0  0  0  0
  9 11  1  0  0  0  0
  9 29  1  0  0  0  0
 11 12  1  0  0  0  0
 11 13  1  0  0  0  0
 11 14  1  0  0  0  0
 14 15  1  0  0  0  0
 14 16  1  0  0  0  0
 14 17  1  0  0  0  0
 17 18  1  0  0  0  0
 17 19  1  0  0  0  0
 17 20  1  0  0  0  0
 20 21  1  0  0  0  0
 20 22  2  0  0  0  0
 22 23  1  0  0  0  0
 22 26  1  0  0  0  0
 23 24  1  0  0  0  0
 23 25  1  0  0  0  0
 26 27  1  0  0  0  0
 26 28  1  0  0  0  0
 29 30  2  0  0  0  0
 29 31  1  0  0  0  0
 31 32  1  0  0  0  0
 31 33  1  0  0  0  0
 33 34  1  0  0  0  0
 33 35  1  0  0  0  0
 33 36  1  0  0  0  0
M  CHG  1  20   1
M  END
$$$$

  -OEChem-04042215563D

 36 35  0     1  0  0  0  0  0999 V2000
   -3.2627   -5.2915    1.0179 H   0  0  0  0  0  0  0  0  0  0  0  0
   -3.3023   -4.2696    0.6295 C   0  0  0  0  0  0  0  0  0  0  0  0
   -3.9336   -3.6686    1.2882 H   0  0  0  0  0  0  0  0  0  0  0  0
   -3.7447   -4.2920   -0.3693 H   0  0  0  0  0  0  0  0  0  0  0  0
   -1.9053   -3.6820    0.5672 C   0  0  0  0  0  0  0  0  0  0  0  0
   -0.9481   -4.3308    0.9520 O   0  0  0  0  0  0  0  0  0  0  0  0
   -1.7056   -2.4065    0.0718 N   0  0  0  0  0  0  0  0  0  0  0  0
   -2.5267   -1.8962   -0.2435 H   0  0  0  0  0  0  0  0  0  0  0  0
   -0.3834   -1.7612   -0.0054 C   0  0  1  0  0  0  0  0  0  0  0  0
    0.2153   -2.4860   -0.5634 H   0  0  0  0  0  0  0  0  0  0  0  0
   -0.4582   -0.4423   -0.8206 C   0  0  0  0  0  0  0  0  0  0  0  0
   -1.4892   -0.2593   -1.1412 H   0  0  0  0  0  0  0  0  0  0  0  0
   -0.1781    0.3951   -0.1712 H   0  0  0  0  0  0  0  0  0  0  0  0
    0.4492   -0.4181   -2.0694 C   0  0  0  0  0  0  0  0  0  0  0  0
    0.0125   -1.0304   -2.8656 H   0  0  0  0  0  0  0  0  0  0  0  0
    0.5223    0.6119   -2.4349 H   0  0  0  0  0  0  0  0  0  0  0  0
    1.8361   -0.9588   -1.7105 C   0  0  0  0  0  0  0  0  0  0  0  0
    2.0766   -0.5881   -0.7095 H   0  0  0  0  0  0  0  0  0  0  0  0
    1.8012   -2.0529   -1.6692 H   0  0  0  0  0  0  0  0  0  0  0  0
    2.9070   -0.5376   -2.6248 N   0  3  0  0  0  0  0  0  0  0  0  0
    2.6704   -0.3838   -3.6037 H   0  0  0  0  0  0  0  0  0  0  0  0
    4.1471   -0.4781   -2.2285 C   0  0  0  0  0  0  0  0  0  0  0  0
    4.5016   -0.7537   -0.9237 N   0  0  0  0  0  0  0  0  0  0  0  0
    3.7838   -1.1207   -0.2944 H   0  0  0  0  0  0  0  0  0  0  0  0
    5.4749   -0.9531   -0.7053 H   0  0  0  0  0  0  0  0  0  0  0  0
    5.1344   -0.1398   -3.1226 N   0  0  0  0  0  0  0  0  0  0  0  0
    4.8642    0.2501   -4.0232 H   0  0  0  0  0  0  0  0  0  0  0  0
    6.0540    0.0986   -2.7558 H   0  0  0  0  0  0  0  0  0  0  0  0
    0.3836   -1.5633    1.3221 C   0  0  0  0  0  0  0  0  0  0  0  0
    1.6128   -1.5591    1.2910 O   0  0  0  0  0  0  0  0  0  0  0  0
   -0.2683   -1.0822    2.4414 N   0  0  0  0  0  0  0  0  0  0  0  0
   -1.2820   -1.1525    2.4424 H   0  0  0  0  0  0  0  0  0  0  0  0
    0.4125   -0.8170    3.7040 C   0  0  0  0  0  0  0  0  0  0  0  0
    1.1800   -0.0470    3.5733 H   0  0  0  0  0  0  0  0  0  0  0  0
   -0.3029   -0.4647    4.4536 H   0  0  0  0  0  0  0  0  0  0  0  0
    0.8886   -1.7284    4.0812 H   0  0  0  0  0  0  0  0  0  0  0  0
  1  2  1  0  0  0  0
  2  3  1  0  0  0  0
  2  4  1  0  0  0  0
  2  5  1  0  0  0  0
  5  6  2  0  0  0  0
  5  7  1  0  0  0  0
  7  8  1  0  0  0  0
  7  9  1  0  0  0  0
  9 10  1  0  0  0  0
  9 11  1  0  0  0  0
  9 29  1  0  0  0  0
 11 12  1  0  0  0  0
 11 13  1  0  0  0  0
 11 14  1  0  0  0  0
 14 15  1  0  0  0  0
 14 16  1  0  0  0  0
 14 17  1  0  0  0  0
 17 18  1  0  0  0  0
 17 19  1  0  0  0  0
 17 20  1  0  0  0  0
 20 21  1  0  0  0  0
 20 22  2  0  0  0  0
 22 23  1  0  0  0  0
 22 26  1  0  0  0  0
 23 24  1  0  0  0  0
 23 25  1  0  0  0  0
 26 27  1  0  0  0  0
 26 28  1  0  0  0  0
 29 30  2  0  0  0  0
 29 31  1  0  0  0  0
 31 32  1  0  0  0  0
 31 33  1  0  0  0  0
 33 34  1  0  0  0  0
 33 35  1  0  0  0  0
 33 36  1  0  0  0  0
M  CHG  1  20   1
M  END
$$$$

  -OEChem-04042215563D

 36 35  0     1  0  0  0  0  0999 V2000
   -3.5099   -5.0327    1.3686 H   0  0  0  0  0  0  0  0  0  0  0  0
   -3.4780   -4.0512    0.8863 C   0  0  0  0  0  0  0  0  0  0  0  0
   -4.0150   -3.3356    1.5133 H   0  0  0  0  0  0  0  0  0  0  0  0
   -3.9748   -4.1213   -0.0843 H   0  0  0  0  0  0  0  0  0  0  0  0
   -2.0392   -3.6079    0.7033 C   0  0  0  0  0  0  0  0  0  0  0  0
   -1.1234   -4.3237    1.0693 O   0  0  0  0  0  0  0  0  0  0  0  0
   -1.7521   -2.3875    0.1200 N   0  0  0  0  0  0  0  0  0  0  0  0
   -2.5397   -1.8319   -0.2043 H   0  0  0  0  0  0  0  0  0  0  0  0
   -0.3816   -1.9082   -0.1313 C   0  0  1  0  0  0  0  0  0  0  0  0
    0.0622   -2.7157   -0.7181 H   0  0  0  0  0  0  0  0  0  0  0  0
   -0.3989   -0.6056   -0.9721 C   0  0  0  0  0  0  0  0  0  0  0  0
   -1.4338   -0.2974   -1.1552 H   0  0  0  0  0  0  0  0  0  0  0  0
    0.0578    0.1950   -0.3789 H   0  0  0  0  0  0  0  0  0  0  0  0
    0.3341   -0.6551   -2.3339 C   0  0  0  0  0  0  0  0  0  0  0  0
   -0.3854   -0.9886   -3.0897 H   0  0  0  0  0  0  0  0  0  0  0  0
    0.6324    0.3629   -2.6075 H   0  0  0  0  0  0  0  0  0  0  0  0
    1.5403   -1.6123   -2.4060 C   0  0  0  0  0  0  0  0  0  0  0  0
    1.6969   -2.1066   -1.4450 H   0  0  0  0  0  0  0  0  0  0  0  0
    1.3322   -2.3946   -3.1446 H   0  0  0  0  0  0  0  0  0  0  0  0
    2.7690   -0.8884   -2.7856 N   0  3  0  0  0  0  0  0  0  0  0  0
    2.7738   -0.4376   -3.6990 H   0  0  0  0  0  0  0  0  0  0  0  0
    3.8526   -0.8582   -2.0602 C   0  0  0  0  0  0  0  0  0  0  0  0
    3.9424   -1.4432   -0.8180 N   0  0  0  0  0  0  0  0  0  0  0  0
    3.0710   -1.6983   -0.3401 H   0  0  0  0  0  0  0  0  0  0  0  0
    4.7293   -1.1998   -0.2231 H   0  0  0  0  0  0  0  0  0  0  0  0
    4.9678   -0.2222   -2.5511 N   0  0  0  0  0  0  0  0  0  0  0  0
    4.9886    0.0339   -3.5357 H   0  0  0  0  0  0  0  0  0  0  0  0
    5.8574   -0.3883   -2.0841 H   0  0  0  0  0  0  0  0  0  0  0  0
    0.5303   -1.7532    1.1041 C   0  0  0  0  0  0  0  0  0  0  0  0
    1.7432   -1.8578    0.9385 O   0  0  0  0  0  0  0  0  0  0  0  0
    0.0548   -1.1556    2.2556 N   0  0  0  0  0  0  0  0  0  0  0  0
   -0.9556   -1.1364    2.3669 H   0  0  0  0  0  0  0  0  0  0  0  0
    0.8839   -0.9322    3.4353 C   0  0  0  0  0  0  0  0  0  0  0  0
    1.7351   -0.2874    3.1933 H   0  0  0  0  0  0  0  0  0  0  0  0
    0.2993   -0.4453    4.2221 H   0  0  0  0  0  0  0  0  0  0  0  0
    1.2621   -1.8839    3.8238 H   0  0  0  0  0  0  0  0  0  0  0  0
  1  2  1  0  0  0  0
  2  3  1  0  0  0  0
  2  4  1  0  0  0  0
  2  5  1  0  0  0  0
  5  6  2  0  0  0  0
  5  7  1  0  0  0  0
  7  8  1  0  0  0  0
  7  9  1  0  0  0  0
  9 10  1  0  0  0  0
  9 11  1  0  0  0  0
  9 29  1  0  0  0  0
 11 12  1  0  0  0  0
 11 13  1  0  0  0  0
 11 14  1  0  0  0  0
 14 15  1  0  0  0  0
 14 16  1  0  0  0  0
 14 17  1  0  0  0  0
 17 18  1  0  0  0  0
 17 19  1  0  0  0  0
 17 20  1  0  0  0  0
 20 21  1  0  0  0  0
 20 22  2  0  0  0  0
 22 23  1  0  0  0  0
 22 26  1  0  0  0  0
 23 24  1  0  0  0  0
 23 25  1  0  0  0  0
 26 27  1  0  0  0  0
 26 28  1  0  0  0  0
 29 30  2  0  0  0  0
 29 31  1  0  0  0  0
 31 32  1  0  0  0  0
 31 33  1  0  0  0  0
 33 34  1  0  0  0  0
 33 35  1  0  0  0  0
 33 36  1  0  0  0  0
M  CHG  1  20   1
M  END
$$$$

  -OEChem-04042215563D

 36 35  0     1  0  0  0  0  0999 V2000
   -3.6330   -5.1026    1.1944 H   0  0  0  0  0  0  0  0  0  0  0  0
   -3.5887   -4.0768    0.8168 C   0  0  0  0  0  0  0  0  0  0  0  0
   -4.0871   -3.4180    1.5319 H   0  0  0  0  0  0  0  0  0  0  0  0
   -4.1156   -4.0324   -0.1393 H   0  0  0  0  0  0  0  0  0  0  0  0
   -2.1445   -3.6511    0.6361 C   0  0  0  0  0  0  0  0  0  0  0  0
   -1.2373   -4.4024    0.9492 O   0  0  0  0  0  0  0  0  0  0  0  0
   -1.8415   -2.4050    0.1189 N   0  0  0  0  0  0  0  0  0  0  0  0
   -2.6216   -1.8073   -0.1427 H   0  0  0  0  0  0  0  0  0  0  0  0
   -0.4647   -1.9306   -0.1015 C   0  0  1  0  0  0  0  0  0  0  0  0
   -0.0508   -2.7421   -0.6996 H   0  0  0  0  0  0  0  0  0  0  0  0
   -0.4388   -0.6115   -0.9179 C   0  0  0  0  0  0  0  0  0  0  0  0
   -1.4675   -0.2945   -1.1186 H   0  0  0  0  0  0  0  0  0  0  0  0
    0.0001    0.1727   -0.2903 H   0  0  0  0  0  0  0  0  0  0  0  0
    0.3227   -0.6152   -2.2690 C   0  0  0  0  0  0  0  0  0  0  0  0
   -0.4108   -0.6159   -3.0828 H   0  0  0  0  0  0  0  0  0  0  0  0
    0.8745    0.3287   -2.3405 H   0  0  0  0  0  0  0  0  0  0  0  0
    1.2801   -1.7979   -2.5060 C   0  0  0  0  0  0  0  0  0  0  0  0
    1.5093   -2.2986   -1.5628 H   0  0  0  0  0  0  0  0  0  0  0  0
    0.7970   -2.5335   -3.1587 H   0  0  0  0  0  0  0  0  0  0  0  0
    2.5509   -1.3411   -3.0957 N   0  3  0  0  0  0  0  0  0  0  0  0
    2.5408   -1.0814   -4.0808 H   0  0  0  0  0  0  0  0  0  0  0  0
    3.6717   -1.2912   -2.4294 C   0  0  0  0  0  0  0  0  0  0  0  0
    3.7664   -1.6200   -1.0941 N   0  0  0  0  0  0  0  0  0  0  0  0
    2.9076   -1.7609   -0.5498 H   0  0  0  0  0  0  0  0  0  0  0  0
    4.6062   -1.3698   -0.5792 H   0  0  0  0  0  0  0  0  0  0  0  0
    4.8181   -0.8969   -3.0768 N   0  0  0  0  0  0  0  0  0  0  0  0
    4.8114   -0.8522   -4.0935 H   0  0  0  0  0  0  0  0  0  0  0  0
    5.7095   -1.0650   -2.6141 H   0  0  0  0  0  0  0  0  0  0  0  0
    0.4794   -1.8360    1.1128 C   0  0  0  0  0  0  0  0  0  0  0  0
    1.6862   -1.9269    0.8935 O   0  0  0  0  0  0  0  0  0  0  0  0
    0.0422   -1.2857    2.3019 N   0  0  0  0  0  0  0  0  0  0  0  0
   -0.9636   -1.2669    2.4484 H   0  0  0  0  0  0  0  0  0  0  0  0
    0.9143   -1.0896    3.4547 C   0  0  0  0  0  0  0  0  0  0  0  0
    1.7302   -0.4023    3.2077 H   0  0  0  0  0  0  0  0  0  0  0  0
    0.3483   -0.6640    4.2894 H   0  0  0  0  0  0  0  0  0  0  0  0
    1.3429   -2.0443    3.7782 H   0  0  0  0  0  0  0  0  0  0  0  0
  1  2  1  0  0  0  0
  2  3  1  0  0  0  0
  2  4  1  0  0  0  0
  2  5  1  0  0  0  0
  5  6  2  0  0  0  0
  5  7  1  0  0  0  0
  7  8  1  0  0  0  0
  7  9  1  0  0  0  0
  9 10  1  0  0  0  0
  9 11  1  0  0  0  0
  9 29  1  0  0  0  0
 11 12  1  0  0  0  0
 11 13  1  0  0  0  0
 11 14  1  0  0  0  0
 14 15  1  0  0  0  0
 14 16  1  0  0  0  0
 14 17  1  0  0  0  0
 17 18  1  0  0  0  0
 17 19  1  0  0  0  0
 17 20  1  0  0  0  0
 20 21  1  0  0  0  0
 20 22  2  0  0  0  0
 22 23  1  0  0  0  0
 22 26  1  0  0  0  0
 23 24  1  0  0  0  0
 23 25  1  0  0  0  0
 26 27  1  0  0  0  0
 26 28  1  0  0  0  0
 29 30  2  0  0  0  0
 29 31  1  0  0  0  0
 31 32  1  0  0  0  0
 31 33  1  0  0  0  0
 33 34  1  0  0  0  0
 33 35  1  0  0  0  0
 33 36  1  0  0  0  0
M  CHG  1  20   1
M  END
$$$$

  -OEChem-04042215563D

 36 35  0     1  0  0  0  0  0999 V2000
   -3.7284   -5.0721    1.1995 H   0  0  0  0  0  0  0  0  0  0  0  0
   -3.6760   -4.0397    0.8413 C   0  0  0  0  0  0  0  0  0  0  0  0
   -4.1353   -3.3862    1.5868 H   0  0  0  0  0  0  0  0  0  0  0  0
   -4.2354   -3.9653   -0.0943 H   0  0  0  0  0  0  0  0  0  0  0  0
   -2.2304   -3.6395    0.6178 C   0  0  0  0  0  0  0  0  0  0  0  0
   -1.3290   -4.4193    0.8736 O   0  0  0  0  0  0  0  0  0  0  0  0
   -1.9188   -2.3854    0.1257 N   0  0  0  0  0  0  0  0  0  0  0  0
   -2.6935   -1.7564   -0.0702 H   0  0  0  0  0  0  0  0  0  0  0  0
   -0.5391   -1.9220   -0.1012 C   0  0  1  0  0  0  0  0  0  0  0  0
   -0.1500   -2.7410   -0.6997 H   0  0  0  0  0  0  0  0  0  0  0  0
   -0.4953   -0.6052   -0.9199 C   0  0  0  0  0  0  0  0  0  0  0  0
   -1.5258   -0.3003   -1.1306 H   0  0  0  0  0  0  0  0  0  0  0  0
   -0.0734    0.1870   -0.2903 H   0  0  0  0  0  0  0  0  0  0  0  0
    0.2643   -0.6004   -2.2746 C   0  0  0  0  0  0  0  0  0  0  0  0
   -0.4254   -0.2836   -3.0646 H   0  0  0  0  0  0  0  0  0  0  0  0
    1.0315    0.1783   -2.1984 H   0  0  0  0  0  0  0  0  0  0  0  0
    0.9375   -1.9105   -2.7259 C   0  0  0  0  0  0  0  0  0  0  0  0
    1.1623   -2.5542   -1.8747 H   0  0  0  0  0  0  0  0  0  0  0  0
    0.2624   -2.4637   -3.3886 H   0  0  0  0  0  0  0  0  0  0  0  0
    2.2181   -1.6274   -3.3974 N   0  3  0  0  0  0  0  0  0  0  0  0
    2.1858   -1.3926   -4.3884 H   0  0  0  0  0  0  0  0  0  0  0  0
    3.3700   -1.7009   -2.7874 C   0  0  0  0  0  0  0  0  0  0  0  0
    3.4917   -2.0044   -1.4469 N   0  0  0  0  0  0  0  0  0  0  0  0
    2.6564   -2.0085   -0.8511 H   0  0  0  0  0  0  0  0  0  0  0  0
    4.3871   -1.8670   -0.9854 H   0  0  0  0  0  0  0  0  0  0  0  0
    4.5213   -1.4689   -3.5014 N   0  0  0  0  0  0  0  0  0  0  0  0
    4.4682   -1.4424   -4.5174 H   0  0  0  0  0  0  0  0  0  0  0  0
    5.4089   -1.7327   -3.0777 H   0  0  0  0  0  0  0  0  0  0  0  0
    0.4427   -1.8557    1.0817 C   0  0  0  0  0  0  0  0  0  0  0  0
    1.6376   -1.9727    0.8134 O   0  0  0  0  0  0  0  0  0  0  0  0
    0.0570   -1.3236    2.2965 N   0  0  0  0  0  0  0  0  0  0  0  0
   -0.9423   -1.2798    2.4777 H   0  0  0  0  0  0  0  0  0  0  0  0
    0.9749   -1.1557    3.4179 C   0  0  0  0  0  0  0  0  0  0  0  0
    1.8055   -0.4975    3.1412 H   0  0  0  0  0  0  0  0  0  0  0  0
    0.4537   -0.7087    4.2705 H   0  0  0  0  0  0  0  0  0  0  0  0
    1.3810   -2.1242    3.7294 H   0  0  0  0  0  0  0  0  0  0  0  0
  1  2  1  0  0  0  0
  2  3  1  0  0  0  0
  2  4  1  0  0  0  0
  2  5  1  0  0  0  0
  5  6  2  0  0  0  0
  5  7  1  0  0  0  0
  7  8  1  0  0  0  0
  7  9  1  0  0  0  0
  9 10  1  0  0  0  0
  9 11  1  0  0  0  0
  9 29  1  0  0  0  0
 11 12  1  0  0  0  0
 11 13  1  0  0  0  0
 11 14  1  0  0  0  0
 14 15  1  0  0  0  0
 14 16  1  0  0  0  0
 14 17  1  0  0  0  0
 17 18  1  0  0  0  0
 17 19  1  0  0  0  0
 17 20  1  0  0  0  0
 20 21  1  0  0  0  0
 20 22  2  0  0  0  0
 22 23  1  0  0  0  0
 22 26  1  0  0  0  0
 23 24  1  0  0  0  0
 23 25  1  0  0  0  0
 26 27  1  0  0  0  0
 26 28  1  0  0  0  0
 29 30  2  0  0  0  0
 29 31  1  0  0  0  0
 31 32  1  0  0  0  0
 31 33  1  0  0  0  0
 33 34  1  0  0  0  0
 33 35  1  0  0  0  0
 33 36  1  0  0  0  0
M  CHG  1  20   1
M  END
$$$$

  -OEChem-04042215563D

 36 35  0     1  0  0  0  0  0999 V2000
   -3.6958   -5.0585    1.2634 H   0  0  0  0  0  0  0  0  0  0  0  0
   -3.6617   -4.0308    0.8897 C   0  0  0  0  0  0  0  0  0  0  0  0
   -4.0947   -3.3694    1.6437 H   0  0  0  0  0  0  0  0  0  0  0  0
   -4.2574   -3.9713   -0.0244 H   0  0  0  0  0  0  0  0  0  0  0  0
   -2.2274   -3.6288    0.6044 C   0  0  0  0  0  0  0  0  0  0  0  0
   -1.3169   -4.4165    0.7965 O   0  0  0  0  0  0  0  0  0  0  0  0
   -1.9365   -2.3684    0.1156 N   0  0  0  0  0  0  0  0  0  0  0  0
   -2.7161   -1.7287   -0.0169 H   0  0  0  0  0  0  0  0  0  0  0  0
   -0.5657   -1.8979   -0.1480 C   0  0  1  0  0  0  0  0  0  0  0  0
   -0.1647   -2.6948   -0.7643 H   0  0  0  0  0  0  0  0  0  0  0  0
   -0.5541   -0.5595   -0.9306 C   0  0  0  0  0  0  0  0  0  0  0  0
   -1.5962   -0.2710   -1.1045 H   0  0  0  0  0  0  0  0  0  0  0  0
   -0.1276    0.2272   -0.2974 H   0  0  0  0  0  0  0  0  0  0  0  0
    0.1505   -0.5117   -2.3132 C   0  0  0  0  0  0  0  0  0  0  0  0
   -0.4529    0.0970   -2.9956 H   0  0  0  0  0  0  0  0  0  0  0  0
    1.0826    0.0409   -2.1499 H   0  0  0  0  0  0  0  0  0  0  0  0
    0.5047   -1.8329   -3.0261 C   0  0  0  0  0  0  0  0  0  0  0  0
    0.5630   -2.6794   -2.3451 H   0  0  0  0  0  0  0  0  0  0  0  0
   -0.2784   -2.0660   -3.7562 H   0  0  0  0  0  0  0  0  0  0  0  0
    1.8142   -1.7176   -3.6945 N   0  3  0  0  0  0  0  0  0  0  0  0
    1.8131   -1.4274   -4.6715 H   0  0  0  0  0  0  0  0  0  0  0  0
    2.9454   -2.0221   -3.1177 C   0  0  0  0  0  0  0  0  0  0  0  0
    3.0380   -2.4112   -1.7975 N   0  0  0  0  0  0  0  0  0  0  0  0
    2.2454   -2.2466   -1.1700 H   0  0  0  0  0  0  0  0  0  0  0  0
    3.9563   -2.4534   -1.3624 H   0  0  0  0  0  0  0  0  0  0  0  0
    4.1061   -1.9573   -3.8509 N   0  0  0  0  0  0  0  0  0  0  0  0
    4.0400   -1.8756   -4.8632 H   0  0  0  0  0  0  0  0  0  0  0  0
    4.9442   -2.3853   -3.4616 H   0  0  0  0  0  0  0  0  0  0  0  0
    0.4353   -1.8472    1.0191 C   0  0  0  0  0  0  0  0  0  0  0  0
    1.6215   -1.9878    0.7297 O   0  0  0  0  0  0  0  0  0  0  0  0
    0.0762   -1.3333    2.2499 N   0  0  0  0  0  0  0  0  0  0  0  0
   -0.9187   -1.2713    2.4481 H   0  0  0  0  0  0  0  0  0  0  0  0
    1.0162   -1.1956    3.3569 C   0  0  0  0  0  0  0  0  0  0  0  0
    1.8417   -0.5308    3.0816 H   0  0  0  0  0  0  0  0  0  0  0  0
    0.5126   -0.7721    4.2316 H   0  0  0  0  0  0  0  0  0  0  0  0
    1.4279   -2.1721    3.6338 H   0  0  0  0  0  0  0  0  0  0  0  0
  1  2  1  0  0  0  0
  2  3  1  0  0  0  0
  2  4  1  0  0  0  0
  2  5  1  0  0  0  0
  5  6  2  0  0  0  0
  5  7  1  0  0  0  0
  7  8  1  0  0  0  0
  7  9  1  0  0  0  0
  9 10  1  0  0  0  0
  9 11  1  0  0  0  0
  9 29  1  0  0  0  0
 11 12  1  0  0  0  0
 11 13  1  0  0  0  0
 11 14  1  0  0  0  0
 14 15  1  0  0  0  0
 14 16  1  0  0  0  0
 14 17  1  0  0  0  0
 17 18  1  0  0  0  0
 17 19  1  0  0  0  0
 17 20  1  0  0  0  0
 20 21  1  0  0  0  0
 20 22  2  0  0  0  0
 22 23  1  0  0  0  0
 22 26  1  0  0  0  0
 23 24  1  0  0  0  0
 23 25  1  0  0  0  0
 26 27  1  0  0  0  0
 26 28  1  0  0  0  0
 29 30  2  0  0  0  0
 29 31  1  0  0  0  0
 31 32  1  0  0  0  0
 31 33  1  0  0  0  0
 33 34  1  0  0  0  0
 33 35  1  0  0  0  0
 33 36  1  0  0  0  0
M  CHG  1  20   1
M  END
$$$$

  -OEChem-04042215563D

 36 35  0     1  0  0  0  0  0999 V2000
   -3.4532   -5.2348    1.0785 H   0  0  0  0  0  0  0  0  0  0  0  0
   -3.4926   -4.1813    0.7861 C   0  0  0  0  0  0  0  0  0  0  0  0
   -3.8919   -3.6014    1.6214 H   0  0  0  0  0  0  0  0  0  0  0  0
   -4.1611   -4.0807   -0.0723 H   0  0  0  0  0  0  0  0  0  0  0  0
   -2.1040   -3.6895    0.4254 C   0  0  0  0  0  0  0  0  0  0  0  0
   -1.1503   -4.4479    0.4692 O   0  0  0  0  0  0  0  0  0  0  0  0
   -1.9045   -2.3819    0.0222 N   0  0  0  0  0  0  0  0  0  0  0  0
   -2.7135   -1.7652    0.0285 H   0  0  0  0  0  0  0  0  0  0  0  0
   -0.5704   -1.8172   -0.2421 C   0  0  1  0  0  0  0  0  0  0  0  0
   -0.1194   -2.5265   -0.9304 H   0  0  0  0  0  0  0  0  0  0  0  0
   -0.6603   -0.4210   -0.9069 C   0  0  0  0  0  0  0  0  0  0  0  0
   -1.7206   -0.1753   -1.0284 H   0  0  0  0  0  0  0  0  0  0  0  0
   -0.2465    0.3388   -0.2337 H   0  0  0  0  0  0  0  0  0  0  0  0
   -0.0032   -0.2589   -2.2998 C   0  0  0  0  0  0  0  0  0  0  0  0
   -0.4994    0.5593   -2.8334 H   0  0  0  0  0  0  0  0  0  0  0  0
    1.0248    0.0709   -2.1129 H   0  0  0  0  0  0  0  0  0  0  0  0
    0.0479   -1.4915   -3.2244 C   0  0  0  0  0  0  0  0  0  0  0  0
   -0.1655   -2.4225   -2.6989 H   0  0  0  0  0  0  0  0  0  0  0  0
   -0.7374   -1.3850   -3.9810 H   0  0  0  0  0  0  0  0  0  0  0  0
    1.3618   -1.6002   -3.8911 N   0  3  0  0  0  0  0  0  0  0  0  0
    1.4141   -1.2622   -4.8511 H   0  0  0  0  0  0  0  0  0  0  0  0
    2.4141   -2.1729   -3.3713 C   0  0  0  0  0  0  0  0  0  0  0  0
    2.4608   -2.6509   -2.0805 N   0  0  0  0  0  0  0  0  0  0  0  0
    1.7909   -2.2874   -1.3996 H   0  0  0  0  0  0  0  0  0  0  0  0
    3.3626   -2.9318   -1.7030 H   0  0  0  0  0  0  0  0  0  0  0  0
    3.5415   -2.3158   -4.1444 N   0  0  0  0  0  0  0  0  0  0  0  0
    3.4721   -2.1566   -5.1472 H   0  0  0  0  0  0  0  0  0  0  0  0
    4.2821   -2.9285   -3.8081 H   0  0  0  0  0  0  0  0  0  0  0  0
    0.4415   -1.8048    0.9175 C   0  0  0  0  0  0  0  0  0  0  0  0
    1.6256   -1.9127    0.6123 O   0  0  0  0  0  0  0  0  0  0  0  0
    0.0799   -1.4069    2.1898 N   0  0  0  0  0  0  0  0  0  0  0  0
   -0.9138   -1.3600    2.3961 H   0  0  0  0  0  0  0  0  0  0  0  0
    1.0286   -1.3208    3.2949 C   0  0  0  0  0  0  0  0  0  0  0  0
    1.8334   -0.6165    3.0580 H   0  0  0  0  0  0  0  0  0  0  0  0
    0.5242   -0.9718    4.2015 H   0  0  0  0  0  0  0  0  0  0  0  0
    1.4692   -2.3026    3.5001 H   0  0  0  0  0  0  0  0  0  0  0  0
  1  2  1  0  0  0  0
  2  3  1  0  0  0  0
  2  4  1  0  0  0  0
  2  5  1  0  0  0  0
  5  6  2  0  0  0  0
  5  7  1  0  0  0  0
  7  8  1  0  0  0  0
  7  9  1  0  0  0  0
  9 10  1  0  0  0  0
  9 11  1  0  0  0  0
  9 29  1  0  0  0  0
 11 12  1  0  0  0  0
 11 13  1  0  0  0  0
 11 14  1  0  0  0  0
 14 15  1  0  0  0  0
 14 16  1  0  0  0  0
 14 17  1  0  0  0  0
 17 18  1  0  0  0  0
 17 19  1  0  0  0  0
 17 20  1  0  0  0  0
 20 21  1  0  0  0  0
 20 22  2  0  0  0  0
 22 23  1  0  0  0  0
 22 26  1  0  0  0  0
 23 24  1  0  0  0  0
 23 25  1  0  0  0  0
 26 27  1  0  0  0  0
 26 28  1  0  0  0  0
 29 30  2  0  0  0  0
 29 31  1  0  0  0  0
 31 32  1  0  0  0  0
 31 33  1  0  0  0  0
 33 34  1  0  0  0  0
 33 35  1  0  0  0  0
 33 36  1  0  0  0  0
M  CHG  1  20   1
M  END
$$$$

  -OEChem-04042215563D

 36 35  0     1  0  0  0  0  0999 V2000
   -3.4154   -5.3101    0.7302 H   0  0  0  0  0  0  0  0  0  0  0  0
   -3.4822   -4.2298    0.5720 C   0  0  0  0  0  0  0  0  0  0  0  0
   -3.8395   -3.7632    1.4931 H   0  0  0  0  0  0  0  0  0  0  0  0
   -4.1998   -4.0367   -0.2290 H   0  0  0  0  0  0  0  0  0  0  0  0
   -2.1214   -3.6738    0.1986 C   0  0  0  0  0  0  0  0  0  0  0  0
   -1.1551   -4.4129    0.1115 O   0  0  0  0  0  0  0  0  0  0  0  0
   -1.9633   -2.3266   -0.0708 N   0  0  0  0  0  0  0  0  0  0  0  0
   -2.7760   -1.7304    0.0684 H   0  0  0  0  0  0  0  0  0  0  0  0
   -0.6461   -1.7016   -0.2759 C   0  0  1  0  0  0  0  0  0  0  0  0
   -0.1852   -2.3451   -1.0219 H   0  0  0  0  0  0  0  0  0  0  0  0
   -0.7680   -0.2778   -0.8674 C   0  0  0  0  0  0  0  0  0  0  0  0
   -1.8288   -0.0448   -1.0086 H   0  0  0  0  0  0  0  0  0  0  0  0
   -0.3770    0.4581   -0.1554 H   0  0  0  0  0  0  0  0  0  0  0  0
   -0.0642   -0.0900   -2.2282 C   0  0  0  0  0  0  0  0  0  0  0  0
   -0.3754    0.8655   -2.6643 H   0  0  0  0  0  0  0  0  0  0  0  0
    1.0077   -0.0043   -2.0200 H   0  0  0  0  0  0  0  0  0  0  0  0
   -0.2938   -1.2056   -3.2625 C   0  0  0  0  0  0  0  0  0  0  0  0
   -0.6052   -2.1407   -2.7908 H   0  0  0  0  0  0  0  0  0  0  0  0
   -1.1147   -0.9053   -3.9234 H   0  0  0  0  0  0  0  0  0  0  0  0
    0.9288   -1.4458   -4.0584 N   0  3  0  0  0  0  0  0  0  0  0  0
    0.9147   -1.1115   -5.0210 H   0  0  0  0  0  0  0  0  0  0  0  0
    1.9675   -2.1274   -3.6511 C   0  0  0  0  0  0  0  0  0  0  0  0
    2.1127   -2.6112   -2.3681 N   0  0  0  0  0  0  0  0  0  0  0  0
    1.5556   -2.1955   -1.6200 H   0  0  0  0  0  0  0  0  0  0  0  0
    3.0150   -2.9924   -2.0929 H   0  0  0  0  0  0  0  0  0  0  0  0
    2.9812   -2.3830   -4.5435 N   0  0  0  0  0  0  0  0  0  0  0  0
    2.8183   -2.2116   -5.5334 H   0  0  0  0  0  0  0  0  0  0  0  0
    3.6863   -3.0720   -4.2877 H   0  0  0  0  0  0  0  0  0  0  0  0
    0.3889   -1.7597    0.8593 C   0  0  0  0  0  0  0  0  0  0  0  0
    1.5650   -1.8409    0.5169 O   0  0  0  0  0  0  0  0  0  0  0  0
    0.0510   -1.4950    2.1717 N   0  0  0  0  0  0  0  0  0  0  0  0
   -0.9378   -1.4691    2.4040 H   0  0  0  0  0  0  0  0  0  0  0  0
    1.0267   -1.4939    3.2565 C   0  0  0  0  0  0  0  0  0  0  0  0
    1.8228   -0.7683    3.0583 H   0  0  0  0  0  0  0  0  0  0  0  0
    0.5444   -1.2233    4.2010 H   0  0  0  0  0  0  0  0  0  0  0  0
    1.4757   -2.4864    3.3690 H   0  0  0  0  0  0  0  0  0  0  0  0
  1  2  1  0  0  0  0
  2  3  1  0  0  0  0
  2  4  1  0  0  0  0
  2  5  1  0  0  0  0
  5  6  2  0  0  0  0
  5  7  1  0  0  0  0
  7  8  1  0  0  0  0
  7  9  1  0  0  0  0
  9 10  1  0  0  0  0
  9 11  1  0  0  0  0
  9 29  1  0  0  0  0
 11 12  1  0  0  0  0
 11 13  1  0  0  0  0
 11 14  1  0  0  0  0
 14 15  1  0  0  0  0
 14 16  1  0  0  0  0
 14 17  1  0  0  0  0
 17 18  1  0  0  0  0
 17 19  1  0  0  0  0
 17 20  1  0  0  0  0
 20 21  1  0  0  0  0
 20 22  2  0  0  0  0
 22 23  1  0  0  0  0
 22 26  1  0  0  0  0
 23 24  1  0  0  0  0
 23 25  1  0  0  0  0
 26 27  1  0  0  0  0
 26 28  1  0  0  0  0
 29 30  2  0  0  0  0
 29 31  1  0  0  0  0
 31 32  1  0  0  0  0
 31 33  1  0  0  0  0
 33 34  1  0  0  0  0
 33 35  1  0  0  0  0
 33 36  1  0  0  0  0
M  CHG  1  20   1
M  END
$$$$

  -OEChem-04042215563D

 36 35  0     1  0  0  0  0  0999 V2000
   -2.5722   -5.5117    0.2479 H   0  0  0  0  0  0  0  0  0  0  0  0
   -2.8187   -4.4459    0.2433 C   0  0  0  0  0  0  0  0  0  0  0  0
   -3.0732   -4.1434    1.2621 H   0  0  0  0  0  0  0  0  0  0  0  0
   -3.6853   -4.2883   -0.4036 H   0  0  0  0  0  0  0  0  0  0  0  0
   -1.6370   -3.6399   -0.2601 C   0  0  0  0  0  0  0  0  0  0  0  0
   -0.6447   -4.1961   -0.7049 O   0  0  0  0  0  0  0  0  0  0  0  0
   -1.7105   -2.2646   -0.3695 N   0  0  0  0  0  0  0  0  0  0  0  0
   -2.5606   -1.8475    0.0044 H   0  0  0  0  0  0  0  0  0  0  0  0
   -0.4978   -1.4250   -0.3772 C   0  0  1  0  0  0  0  0  0  0  0  0
    0.1559   -1.8396   -1.1444 H   0  0  0  0  0  0  0  0  0  0  0  0
   -0.8478    0.0163   -0.7972 C   0  0  0  0  0  0  0  0  0  0  0  0
   -1.9231    0.1113   -0.9835 H   0  0  0  0  0  0  0  0  0  0  0  0
   -0.5978    0.7120    0.0117 H   0  0  0  0  0  0  0  0  0  0  0  0
   -0.0813    0.4189   -2.0692 C   0  0  0  0  0  0  0  0  0  0  0  0
   -0.3363    1.4506   -2.3344 H   0  0  0  0  0  0  0  0  0  0  0  0
    0.9931    0.3971   -1.8508 H   0  0  0  0  0  0  0  0  0  0  0  0
   -0.4130   -0.5020   -3.2577 C   0  0  0  0  0  0  0  0  0  0  0  0
   -1.0558   -1.3233   -2.9248 H   0  0  0  0  0  0  0  0  0  0  0  0
   -0.9757    0.0661   -4.0070 H   0  0  0  0  0  0  0  0  0  0  0  0
    0.8296   -1.0287   -3.8606 N   0  3  0  0  0  0  0  0  0  0  0  0
    1.4499   -0.3446   -4.2917 H   0  0  0  0  0  0  0  0  0  0  0  0
    1.1891   -2.2836   -3.8651 C   0  0  0  0  0  0  0  0  0  0  0  0
    0.4390   -3.2879   -3.2963 N   0  0  0  0  0  0  0  0  0  0  0  0
   -0.2769   -3.0192   -2.6222 H   0  0  0  0  0  0  0  0  0  0  0  0
    0.9044   -4.1734   -3.1062 H   0  0  0  0  0  0  0  0  0  0  0  0
    2.3747   -2.6350   -4.4648 N   0  0  0  0  0  0  0  0  0  0  0  0
    2.8698   -1.9494   -5.0309 H   0  0  0  0  0  0  0  0  0  0  0  0
    2.5734   -3.6224   -4.6159 H   0  0  0  0  0  0  0  0  0  0  0  0
    0.3958   -1.5049    0.8773 C   0  0  0  0  0  0  0  0  0  0  0  0
    1.6088   -1.4845    0.7255 O   0  0  0  0  0  0  0  0  0  0  0  0
   -0.1431   -1.4696    2.1504 N   0  0  0  0  0  0  0  0  0  0  0  0
   -1.1529   -1.4250    2.2418 H   0  0  0  0  0  0  0  0  0  0  0  0
    0.6741   -1.4699    3.3598 C   0  0  0  0  0  0  0  0  0  0  0  0
    1.3430   -0.6025    3.3728 H   0  0  0  0  0  0  0  0  0  0  0  0
    0.0378   -1.4271    4.2490 H   0  0  0  0  0  0  0  0  0  0  0  0
    1.2797   -2.3810    3.4126 H   0  0  0  0  0  0  0  0  0  0  0  0
  1  2  1  0  0  0  0
  2  3  1  0  0  0  0
  2  4  1  0  0  0  0
  2  5  1  0  0  0  0
  5  6  2  0  0  0  0
  5  7  1  0  0  0  0
  7  8  1  0  0  0  0
  7  9  1  0  0  0  0
  9 10  1  0  0  0  0
  9 11  1  0  0  0  0
  9 29  1  0  0  0  0
 11 12  1  0  0  0  0
 11 13  1  0  0  0  0
 11 14  1  0  0  0  0
 14 15  1  0  0  0  0
 14 16  1  0  0  0  0
 14 17  1  0  0  0  0
 17 18  1  0  0  0  0
 17 19  1  0  0  0  0
 17 20  1  0  0  0  0
 20 21  1  0  0  0  0
 20 22  2  0  0  0  0
 22 23  1  0  0  0  0
 22 26  1  0  0  0  0
 23 24  1  0  0  0  0
 23 25  1  0  0  0  0
 26 27  1  0  0  0  0
 26 28  1  0  0  0  0
 29 30  2  0  0  0  0
 29 31  1  0  0  0  0
 31 32  1  0  0  0  0
 31 33  1  0  0  0  0
 33 34  1  0  0  0  0
 33 35  1  0  0  0  0
 33 36  1  0  0  0  0
M  CHG  1  20   1
M  END
$$$$

  -OEChem-04042215563D

 36 35  0     1  0  0  0  0  0999 V2000
   -2.6350   -5.4531   -0.0072 H   0  0  0  0  0  0  0  0  0  0  0  0
   -2.8506   -4.3855    0.0961 C   0  0  0  0  0  0  0  0  0  0  0  0
   -3.0561   -4.1711    1.1478 H   0  0  0  0  0  0  0  0  0  0  0  0
   -3.7371   -4.1480   -0.4968 H   0  0  0  0  0  0  0  0  0  0  0  0
   -1.6662   -3.5670   -0.3795 C   0  0  0  0  0  0  0  0  0  0  0  0
   -0.6785   -4.1099   -0.8493 O   0  0  0  0  0  0  0  0  0  0  0  0
   -1.7331   -2.1884   -0.4414 N   0  0  0  0  0  0  0  0  0  0  0  0
   -2.5845   -1.7860   -0.0547 H   0  0  0  0  0  0  0  0  0  0  0  0
   -0.5149   -1.3595   -0.3704 C   0  0  1  0  0  0  0  0  0  0  0  0
    0.1619   -1.7525   -1.1322 H   0  0  0  0  0  0  0  0  0  0  0  0
   -0.8459    0.0943   -0.7581 C   0  0  0  0  0  0  0  0  0  0  0  0
   -1.9128    0.2175   -0.9743 H   0  0  0  0  0  0  0  0  0  0  0  0
   -0.6059    0.7608    0.0780 H   0  0  0  0  0  0  0  0  0  0  0  0
   -0.0130    0.5006   -1.9833 C   0  0  0  0  0  0  0  0  0  0  0  0
   -0.0490    1.5889   -2.1046 H   0  0  0  0  0  0  0  0  0  0  0  0
    1.0378    0.2302   -1.8219 H   0  0  0  0  0  0  0  0  0  0  0  0
   -0.5799   -0.1575   -3.2489 C   0  0  0  0  0  0  0  0  0  0  0  0
   -1.2676   -0.9638   -2.9724 H   0  0  0  0  0  0  0  0  0  0  0  0
   -1.1578    0.5815   -3.8153 H   0  0  0  0  0  0  0  0  0  0  0  0
    0.5170   -0.6919   -4.0810 N   0  3  0  0  0  0  0  0  0  0  0  0
    1.0676   -0.0114   -4.6034 H   0  0  0  0  0  0  0  0  0  0  0  0
    0.8388   -1.9545   -4.1602 C   0  0  0  0  0  0  0  0  0  0  0  0
    0.1728   -2.9446   -3.4727 N   0  0  0  0  0  0  0  0  0  0  0  0
   -0.4395   -2.6651   -2.7073 H   0  0  0  0  0  0  0  0  0  0  0  0
    0.6385   -3.8435   -3.3593 H   0  0  0  0  0  0  0  0  0  0  0  0
    1.8904   -2.3274   -4.9622 N   0  0  0  0  0  0  0  0  0  0  0  0
    2.2855   -1.6483   -5.6091 H   0  0  0  0  0  0  0  0  0  0  0  0
    2.0227   -3.3173   -5.1623 H   0  0  0  0  0  0  0  0  0  0  0  0
    0.3280   -1.4923    0.9147 C   0  0  0  0  0  0  0  0  0  0  0  0
    1.5458   -1.4706    0.8155 O   0  0  0  0  0  0  0  0  0  0  0  0
   -0.2635   -1.4982    2.1650 N   0  0  0  0  0  0  0  0  0  0  0  0
   -1.2751   -1.4390    2.2169 H   0  0  0  0  0  0  0  0  0  0  0  0
    0.5032   -1.5338    3.4067 C   0  0  0  0  0  0  0  0  0  0  0  0
    1.1377   -0.6450    3.4921 H   0  0  0  0  0  0  0  0  0  0  0  0
   -0.1700   -1.5615    4.2693 H   0  0  0  0  0  0  0  0  0  0  0  0
    1.1400   -2.4245    3.4393 H   0  0  0  0  0  0  0  0  0  0  0  0
  1  2  1  0  0  0  0
  2  3  1  0  0  0  0
  2  4  1  0  0  0  0
  2  5  1  0  0  0  0
  5  6  2  0  0  0  0
  5  7  1  0  0  0  0
  7  8  1  0  0  0  0
  7  9  1  0  0  0  0
  9 10  1  0  0  0  0
  9 11  1  0  0  0  0
  9 29  1  0  0  0  0
 11 12  1  0  0  0  0
 11 13  1  0  0  0  0
 11 14  1  0  0  0  0
 14 15  1  0  0  0  0
 14 16  1  0  0  0  0
 14 17  1  0  0  0  0
 17 18  1  0  0  0  0
 17 19  1  0  0  0  0
 17 20  1  0  0  0  0
 20 21  1  0  0  0  0
 20 22  2  0  0  0  0
 22 23  1  0  0  0  0
 22 26  1  0  0  0  0
 23 24  1  0  0  0  0
 23 25  1  0  0  0  0
 26 27  1  0  0  0  0
 26 28  1  0  0  0  0
 29 30  2  0  0  0  0
 29 31  1  0  0  0  0
 31 32  1  0  0  0  0
 31 33  1  0  0  0  0
 33 34  1  0  0  0  0
 33 35  1  0  0  0  0
 33 36  1  0  0  0  0
M  CHG  1  20   1
M  END
$$$$

  -OEChem-04042215563D

 36 35  0     1  0  0  0  0  0999 V2000
   -2.4908   -5.4385   -0.2384 H   0  0  0  0  0  0  0  0  0  0  0  0
   -2.7174   -4.3809   -0.0736 C   0  0  0  0  0  0  0  0  0  0  0  0
   -2.9071   -4.2281    0.9917 H   0  0  0  0  0  0  0  0  0  0  0  0
   -3.6171   -4.1233   -0.6378 H   0  0  0  0  0  0  0  0  0  0  0  0
   -1.5511   -3.5217   -0.5225 C   0  0  0  0  0  0  0  0  0  0  0  0
   -0.5627   -4.0277   -1.0284 O   0  0  0  0  0  0  0  0  0  0  0  0
   -1.6487   -2.1424   -0.5370 N   0  0  0  0  0  0  0  0  0  0  0  0
   -2.5067   -1.7827   -0.1230 H   0  0  0  0  0  0  0  0  0  0  0  0
   -0.4498   -1.2911   -0.3978 C   0  0  1  0  0  0  0  0  0  0  0  0
    0.2570   -1.6357   -1.1578 H   0  0  0  0  0  0  0  0  0  0  0  0
   -0.8151    0.1700   -0.7287 C   0  0  0  0  0  0  0  0  0  0  0  0
   -1.8838    0.2795   -0.9434 H   0  0  0  0  0  0  0  0  0  0  0  0
   -0.6016    0.7958    0.1455 H   0  0  0  0  0  0  0  0  0  0  0  0
    0.0221    0.6809   -1.9145 C   0  0  0  0  0  0  0  0  0  0  0  0
    0.1298    1.7672   -1.8194 H   0  0  0  0  0  0  0  0  0  0  0  0
    1.0375    0.2675   -1.8846 H   0  0  0  0  0  0  0  0  0  0  0  0
   -0.6813    0.3984   -3.2473 C   0  0  0  0  0  0  0  0  0  0  0  0
   -1.5739   -0.2146   -3.0824 H   0  0  0  0  0  0  0  0  0  0  0  0
   -1.0149    1.3450   -3.6876 H   0  0  0  0  0  0  0  0  0  0  0  0
    0.2445   -0.2859   -4.1741 N   0  3  0  0  0  0  0  0  0  0  0  0
    0.8672    0.3077   -4.7212 H   0  0  0  0  0  0  0  0  0  0  0  0
    0.3495   -1.5811   -4.2886 C   0  0  0  0  0  0  0  0  0  0  0  0
   -0.4257   -2.4488   -3.5564 N   0  0  0  0  0  0  0  0  0  0  0  0
   -0.9367   -2.0519   -2.7699 H   0  0  0  0  0  0  0  0  0  0  0  0
   -0.0689   -3.3945   -3.4138 H   0  0  0  0  0  0  0  0  0  0  0  0
    1.2725   -2.1116   -5.1571 N   0  0  0  0  0  0  0  0  0  0  0  0
    1.7298   -1.4994   -5.8296 H   0  0  0  0  0  0  0  0  0  0  0  0
    1.2296   -3.1082   -5.3636 H   0  0  0  0  0  0  0  0  0  0  0  0
    0.3560   -1.4549    0.9080 C   0  0  0  0  0  0  0  0  0  0  0  0
    1.5743   -1.3905    0.8505 O   0  0  0  0  0  0  0  0  0  0  0  0
   -0.2734   -1.5194    2.1382 N   0  0  0  0  0  0  0  0  0  0  0  0
   -1.2872   -1.4876    2.1615 H   0  0  0  0  0  0  0  0  0  0  0  0
    0.4573   -1.5662    3.4013 C   0  0  0  0  0  0  0  0  0  0  0  0
    1.0618   -0.6617    3.5297 H   0  0  0  0  0  0  0  0  0  0  0  0
   -0.2396   -1.6372    4.2421 H   0  0  0  0  0  0  0  0  0  0  0  0
    1.1204   -2.4377    3.4297 H   0  0  0  0  0  0  0  0  0  0  0  0
  1  2  1  0  0  0  0
  2  3  1  0  0  0  0
  2  4  1  0  0  0  0
  2  5  1  0  0  0  0
  5  6  2  0  0  0  0
  5  7  1  0  0  0  0
  7  8  1  0  0  0  0
  7  9  1  0  0  0  0
  9 10  1  0  0  0  0
  9 11  1  0  0  0  0
  9 29  1  0  0  0  0
 11 12  1  0  0  0  0
 11 13  1  0  0  0  0
 11 14  1  0  0  0  0
 14 15  1  0  0  0  0
 14 16  1  0  0  0  0
 14 17  1  0  0  0  0
 17 18  1  0  0  0  0
 17 19  1  0  0  0  0
 17 20  1  0  0  0  0
 20 21  1  0  0  0  0
 20 22  2  0  0  0  0
 22 23  1  0  0  0  0
 22 26  1  0  0  0  0
 23 24  1  0  0  0  0
 23 25  1  0  0  0  0
 26 27  1  0  0  0  0
 26 28  1  0  0  0  0
 29 30  2  0  0  0  0
 29 31  1  0  0  0  0
 31 32  1  0  0  0  0
 31 33  1  0  0  0  0
 33 34  1  0  0  0  0
 33 35  1  0  0  0  0
 33 36  1  0  0  0  0
M  CHG  1  20   1
M  END
$$$$

  -OEChem-04042215563D

 36 35  0     1  0  0  0  0  0999 V2000
   -2.9628   -5.4464    1.0213 H   0  0  0  0  0  0  0  0  0  0  0  0
   -3.1008   -4.4243    0.6564 C   0  0  0  0  0  0  0  0  0  0  0  0
   -3.7113   -3.8758    1.3775 H   0  0  0  0  0  0  0  0  0  0  0  0
   -3.6231   -4.4622   -0.3022 H   0  0  0  0  0  0  0  0  0  0  0  0
   -1.7541   -3.7466    0.4904 C   0  0  0  0  0  0  0  0  0  0  0  0
   -0.7300   -4.3590    0.7315 O   0  0  0  0  0  0  0  0  0  0  0  0
   -1.6828   -2.4354    0.0558 N   0  0  0  0  0  0  0  0  0  0  0  0
   -2.5660   -1.9426   -0.0405 H   0  0  0  0  0  0  0  0  0  0  0  0
   -0.4360   -1.6477    0.0885 C   0  0  1  0  0  0  0  0  0  0  0  0
    0.2961   -2.2538   -0.4560 H   0  0  0  0  0  0  0  0  0  0  0  0
   -0.6218   -0.3059   -0.6590 C   0  0  0  0  0  0  0  0  0  0  0  0
   -1.6538   -0.1983   -1.0089 H   0  0  0  0  0  0  0  0  0  0  0  0
   -0.4433    0.5187    0.0408 H   0  0  0  0  0  0  0  0  0  0  0  0
    0.3549   -0.1600   -1.8431 C   0  0  0  0  0  0  0  0  0  0  0  0
    0.7623    0.8570   -1.8234 H   0  0  0  0  0  0  0  0  0  0  0  0
    1.2068   -0.8412   -1.7387 H   0  0  0  0  0  0  0  0  0  0  0  0
   -0.3430   -0.3704   -3.1847 C   0  0  0  0  0  0  0  0  0  0  0  0
   -0.8256   -1.3542   -3.1866 H   0  0  0  0  0  0  0  0  0  0  0  0
   -1.1115    0.3986   -3.3211 H   0  0  0  0  0  0  0  0  0  0  0  0
    0.6619   -0.2951   -4.2614 N   0  3  0  0  0  0  0  0  0  0  0  0
    1.6313   -0.1569   -3.9767 H   0  0  0  0  0  0  0  0  0  0  0  0
    0.3883   -0.4350   -5.5259 C   0  0  0  0  0  0  0  0  0  0  0  0
   -0.8940   -0.6597   -5.9718 N   0  0  0  0  0  0  0  0  0  0  0  0
   -1.6049   -0.8827   -5.2788 H   0  0  0  0  0  0  0  0  0  0  0  0
   -1.0264   -1.0014   -6.9216 H   0  0  0  0  0  0  0  0  0  0  0  0
    1.4041   -0.3627   -6.4490 N   0  0  0  0  0  0  0  0  0  0  0  0
    2.3194   -0.0335   -6.1473 H   0  0  0  0  0  0  0  0  0  0  0  0
    1.1631   -0.2686   -7.4341 H   0  0  0  0  0  0  0  0  0  0  0  0
    0.2028   -1.4442    1.4789 C   0  0  0  0  0  0  0  0  0  0  0  0
    1.4177   -1.3203    1.5461 O   0  0  0  0  0  0  0  0  0  0  0  0
   -0.5738   -1.0961    2.5697 N   0  0  0  0  0  0  0  0  0  0  0  0
   -1.5735   -1.2506    2.4932 H   0  0  0  0  0  0  0  0  0  0  0  0
   -0.0062   -0.8379    3.8892 C   0  0  0  0  0  0  0  0  0  0  0  0
    0.6784    0.0163    3.8530 H   0  0  0  0  0  0  0  0  0  0  0  0
   -0.8000   -0.6115    4.6078 H   0  0  0  0  0  0  0  0  0  0  0  0
    0.5450   -1.7144    4.2472 H   0  0  0  0  0  0  0  0  0  0  0  0
  1  2  1  0  0  0  0
  2  3  1  0  0  0  0
  2  4  1  0  0  0  0
  2  5  1  0  0  0  0
  5  6  2  0  0  0  0
  5  7  1  0  0  0  0
  7  8  1  0  0  0  0
  7  9  1  0  0  0  0
  9 10  1  0  0  0  0
  9 11  1  0  0  0  0
  9 29  1  0  0  0  0
 11 12  1  0  0  0  0
 11 13  1  0  0  0  0
 11 14  1  0  0  0  0
 14 15  1  0  0  0  0
 14 16  1  0  0  0  0
 14 17  1  0  0  0  0
 17 18  1  0  0  0  0
 17 19  1  0  0  0  0
 17 20  1  0  0  0  0
 20 21  1  0  0  0  0
 20 22  2  0  0  0  0
 22 23  1  0  0  0  0
 22 26  1  0  0  0  0
 23 24  1  0  0  0  0
 23 25  1  0  0  0  0
 26 27  1  0  0  0  0
 26 28  1  0  0  0  0
 29 30  2  0  0  0  0
 29 31  1  0  0  0  0
 31 32  1  0  0  0  0
 31 33  1  0  0  0  0
 33 34  1  0  0  0  0
 33 35  1  0  0  0  0
 33 36  1  0  0  0  0
M  CHG  1  20   1
M  END
$$$$

  -OEChem-04042215563D

 36 35  0     1  0  0  0  0  0999 V2000
   -2.9567   -5.4639    1.0343 H   0  0  0  0  0  0  0  0  0  0  0  0
   -3.0787   -4.4667    0.6013 C   0  0  0  0  0  0  0  0  0  0  0  0
   -3.7653   -3.8953    1.2303 H   0  0  0  0  0  0  0  0  0  0  0  0
   -3.5068   -4.5694   -0.3986 H   0  0  0  0  0  0  0  0  0  0  0  0
   -1.7353   -3.7672    0.5226 C   0  0  0  0  0  0  0  0  0  0  0  0
   -0.7212   -4.3582    0.8451 O   0  0  0  0  0  0  0  0  0  0  0  0
   -1.6545   -2.4621    0.0718 N   0  0  0  0  0  0  0  0  0  0  0  0
   -2.5330   -1.9865   -0.1115 H   0  0  0  0  0  0  0  0  0  0  0  0
   -0.4088   -1.6720    0.1033 C   0  0  1  0  0  0  0  0  0  0  0  0
    0.3309   -2.2791   -0.4287 H   0  0  0  0  0  0  0  0  0  0  0  0
   -0.5957   -0.3262   -0.6400 C   0  0  0  0  0  0  0  0  0  0  0  0
   -1.6298   -0.2394   -0.9890 H   0  0  0  0  0  0  0  0  0  0  0  0
   -0.4361    0.5029    0.0593 H   0  0  0  0  0  0  0  0  0  0  0  0
    0.3717   -0.1576   -1.8323 C   0  0  0  0  0  0  0  0  0  0  0  0
    0.9900    0.7283   -1.6489 H   0  0  0  0  0  0  0  0  0  0  0  0
    1.0558   -1.0084   -1.9148 H   0  0  0  0  0  0  0  0  0  0  0  0
   -0.3792    0.0150   -3.1512 C   0  0  0  0  0  0  0  0  0  0  0  0
   -1.0004   -0.8699   -3.3301 H   0  0  0  0  0  0  0  0  0  0  0  0
   -1.0301    0.8939   -3.0845 H   0  0  0  0  0  0  0  0  0  0  0  0
    0.5971    0.1821   -4.2440 N   0  3  0  0  0  0  0  0  0  0  0  0
    1.5801    0.2435   -3.9792 H   0  0  0  0  0  0  0  0  0  0  0  0
    0.2744    0.2498   -5.5030 C   0  0  0  0  0  0  0  0  0  0  0  0
   -1.0357    0.1914   -5.9207 N   0  0  0  0  0  0  0  0  0  0  0  0
   -1.7639    0.2641   -5.2135 H   0  0  0  0  0  0  0  0  0  0  0  0
   -1.2581    0.4839   -6.8702 H   0  0  0  0  0  0  0  0  0  0  0  0
    1.2622    0.3865   -6.4490 N   0  0  0  0  0  0  0  0  0  0  0  0
    2.2315    0.2498   -6.1678 H   0  0  0  0  0  0  0  0  0  0  0  0
    1.0235    0.2301   -7.4267 H   0  0  0  0  0  0  0  0  0  0  0  0
    0.2142   -1.4511    1.4988 C   0  0  0  0  0  0  0  0  0  0  0  0
    1.4263   -1.3063    1.5769 O   0  0  0  0  0  0  0  0  0  0  0  0
   -0.5792   -1.0908    2.5735 N   0  0  0  0  0  0  0  0  0  0  0  0
   -1.5734   -1.2749    2.4907 H   0  0  0  0  0  0  0  0  0  0  0  0
   -0.0320   -0.7997    3.8947 C   0  0  0  0  0  0  0  0  0  0  0  0
    0.6842    0.0274    3.8419 H   0  0  0  0  0  0  0  0  0  0  0  0
   -0.8333   -0.5151    4.5835 H   0  0  0  0  0  0  0  0  0  0  0  0
    0.4782   -1.6801    4.3002 H   0  0  0  0  0  0  0  0  0  0  0  0
  1  2  1  0  0  0  0
  2  3  1  0  0  0  0
  2  4  1  0  0  0  0
  2  5  1  0  0  0  0
  5  6  2  0  0  0  0
  5  7  1  0  0  0  0
  7  8  1  0  0  0  0
  7  9  1  0  0  0  0
  9 10  1  0  0  0  0
  9 11  1  0  0  0  0
  9 29  1  0  0  0  0
 11 12  1  0  0  0  0
 11 13  1  0  0  0  0
 11 14  1  0  0  0  0
 14 15  1  0  0  0  0
 14 16  1  0  0  0  0
 14 17  1  0  0  0  0
 17 18  1  0  0  0  0
 17 19  1  0  0  0  0
 17 20  1  0  0  0  0
 20 21  1  0  0  0  0
 20 22  2  0  0  0  0
 22 23  1  0  0  0  0
 22 26  1  0  0  0  0
 23 24  1  0  0  0  0
 23 25  1  0  0  0  0
 26 27  1  0  0  0  0
 26 28  1  0  0  0  0
 29 30  2  0  0  0  0
 29 31  1  0  0  0  0
 31 32  1  0  0  0  0
 31 33  1  0  0  0  0
 33 34  1  0  0  0  0
 33 35  1  0  0  0  0
 33 36  1  0  0  0  0
M  CHG  1  20   1
M  END
$$$$

  -OEChem-04042215563D

 36 35  0     1  0  0  0  0  0999 V2000
   -2.9426   -5.4762    1.0063 H   0  0  0  0  0  0  0  0  0  0  0  0
   -3.0575   -4.4840    0.5597 C   0  0  0  0  0  0  0  0  0  0  0  0
   -3.7737   -3.9134    1.1555 H   0  0  0  0  0  0  0  0  0  0  0  0
   -3.4447   -4.5993   -0.4555 H   0  0  0  0  0  0  0  0  0  0  0  0
   -1.7191   -3.7710    0.5281 C   0  0  0  0  0  0  0  0  0  0  0  0
   -0.7128   -4.3471    0.8988 O   0  0  0  0  0  0  0  0  0  0  0  0
   -1.6358   -2.4678    0.0728 N   0  0  0  0  0  0  0  0  0  0  0  0
   -2.5077   -2.0114   -0.1777 H   0  0  0  0  0  0  0  0  0  0  0  0
   -0.3936   -1.6724    0.1051 C   0  0  1  0  0  0  0  0  0  0  0  0
    0.3554   -2.2711   -0.4237 H   0  0  0  0  0  0  0  0  0  0  0  0
   -0.5857   -0.3207   -0.6269 C   0  0  0  0  0  0  0  0  0  0  0  0
   -1.6185   -0.2567   -0.9849 H   0  0  0  0  0  0  0  0  0  0  0  0
   -0.4454    0.5131    0.0705 H   0  0  0  0  0  0  0  0  0  0  0  0
    0.3777   -0.1444   -1.8193 C   0  0  0  0  0  0  0  0  0  0  0  0
    1.1870    0.5312   -1.5200 H   0  0  0  0  0  0  0  0  0  0  0  0
    0.8370   -1.0998   -2.0928 H   0  0  0  0  0  0  0  0  0  0  0  0
   -0.3440    0.4002   -3.0511 C   0  0  0  0  0  0  0  0  0  0  0  0
   -1.1350   -0.2984   -3.3453 H   0  0  0  0  0  0  0  0  0  0  0  0
   -0.8015    1.3648   -2.8040 H   0  0  0  0  0  0  0  0  0  0  0  0
    0.6297    0.5632   -4.1468 N   0  3  0  0  0  0  0  0  0  0  0  0
    1.6104    0.4014   -3.9188 H   0  0  0  0  0  0  0  0  0  0  0  0
    0.3099    0.9008   -5.3626 C   0  0  0  0  0  0  0  0  0  0  0  0
   -0.9911    1.1619   -5.7273 N   0  0  0  0  0  0  0  0  0  0  0  0
   -1.6786    1.2688   -4.9848 H   0  0  0  0  0  0  0  0  0  0  0  0
   -1.1620    1.6399   -6.6101 H   0  0  0  0  0  0  0  0  0  0  0  0
    1.2937    1.0046   -6.3168 N   0  0  0  0  0  0  0  0  0  0  0  0
    2.2237    0.6491   -6.1022 H   0  0  0  0  0  0  0  0  0  0  0  0
    1.0183    1.0587   -7.2959 H   0  0  0  0  0  0  0  0  0  0  0  0
    0.2182   -1.4461    1.5046 C   0  0  0  0  0  0  0  0  0  0  0  0
    1.4281   -1.2858    1.5894 O   0  0  0  0  0  0  0  0  0  0  0  0
   -0.5859   -1.0866    2.5716 N   0  0  0  0  0  0  0  0  0  0  0  0
   -1.5751   -1.2966    2.4871 H   0  0  0  0  0  0  0  0  0  0  0  0
   -0.0491   -0.7827    3.8943 C   0  0  0  0  0  0  0  0  0  0  0  0
    0.6778    0.0348    3.8369 H   0  0  0  0  0  0  0  0  0  0  0  0
   -0.8540   -0.4776    4.5701 H   0  0  0  0  0  0  0  0  0  0  0  0
    0.4460   -1.6631    4.3177 H   0  0  0  0  0  0  0  0  0  0  0  0
  1  2  1  0  0  0  0
  2  3  1  0  0  0  0
  2  4  1  0  0  0  0
  2  5  1  0  0  0  0
  5  6  2  0  0  0  0
  5  7  1  0  0  0  0
  7  8  1  0  0  0  0
  7  9  1  0  0  0  0
  9 10  1  0  0  0  0
  9 11  1  0  0  0  0
  9 29  1  0  0  0  0
 11 12  1  0  0  0  0
 11 13  1  0  0  0  0
 11 14  1  0  0  0  0
 14 15  1  0  0  0  0
 14 16  1  0  0  0  0
 14 17  1  0  0  0  0
 17 18  1  0  0  0  0
 17 19  1  0  0  0  0
 17 20  1  0  0  0  0
 20 21  1  0  0  0  0
 20 22  2  0  0  0  0
 22 23  1  0  0  0  0
 22 26  1  0  0  0  0
 23 24  1  0  0  0  0
 23 25  1  0  0  0  0
 26 27  1  0  0  0  0
 26 28  1  0  0  0  0
 29 30  2  0  0  0  0
 29 31  1  0  0  0  0
 31 32  1  0  0  0  0
 31 33  1  0  0  0  0
 33 34  1  0  0  0  0
 33 35  1  0  0  0  0
 33 36  1  0  0  0  0
M  CHG  1  20   1
M  END
$$$$

  -OEChem-04042215563D

 36 35  0     1  0  0  0  0  0999 V2000
   -2.9037   -5.4981    0.9462 H   0  0  0  0  0  0  0  0  0  0  0  0
   -3.0322   -4.4981    0.5211 C   0  0  0  0  0  0  0  0  0  0  0  0
   -3.7687   -3.9560    1.1187 H   0  0  0  0  0  0  0  0  0  0  0  0
   -3.4019   -4.5969   -0.5023 H   0  0  0  0  0  0  0  0  0  0  0  0
   -1.7080   -3.7585    0.5259 C   0  0  0  0  0  0  0  0  0  0  0  0
   -0.6997   -4.3169    0.9170 O   0  0  0  0  0  0  0  0  0  0  0  0
   -1.6385   -2.4521    0.0776 N   0  0  0  0  0  0  0  0  0  0  0  0
   -2.5101   -2.0144   -0.2051 H   0  0  0  0  0  0  0  0  0  0  0  0
   -0.4040   -1.6443    0.1064 C   0  0  1  0  0  0  0  0  0  0  0  0
    0.3488   -2.2322   -0.4307 H   0  0  0  0  0  0  0  0  0  0  0  0
   -0.6033   -0.2924   -0.6208 C   0  0  0  0  0  0  0  0  0  0  0  0
   -1.6321   -0.2400   -0.9917 H   0  0  0  0  0  0  0  0  0  0  0  0
   -0.4723    0.5461    0.0728 H   0  0  0  0  0  0  0  0  0  0  0  0
    0.3665   -0.1330   -1.8062 C   0  0  0  0  0  0  0  0  0  0  0  0
    1.3073    0.2962   -1.4419 H   0  0  0  0  0  0  0  0  0  0  0  0
    0.5929   -1.1123   -2.2414 H   0  0  0  0  0  0  0  0  0  0  0  0
   -0.2373    0.7341   -2.9091 C   0  0  0  0  0  0  0  0  0  0  0  0
   -1.1515    0.2606   -3.2841 H   0  0  0  0  0  0  0  0  0  0  0  0
   -0.4951    1.7149   -2.4940 H   0  0  0  0  0  0  0  0  0  0  0  0
    0.7466    0.8850   -3.9977 N   0  3  0  0  0  0  0  0  0  0  0  0
    1.6781    0.5042   -3.8328 H   0  0  0  0  0  0  0  0  0  0  0  0
    0.4980    1.4843   -5.1261 C   0  0  0  0  0  0  0  0  0  0  0  0
   -0.7281    2.0503   -5.3923 N   0  0  0  0  0  0  0  0  0  0  0  0
   -1.3814    2.1507   -4.6183 H   0  0  0  0  0  0  0  0  0  0  0  0
   -0.8031    2.7049   -6.1685 H   0  0  0  0  0  0  0  0  0  0  0  0
    1.4813    1.5616   -6.0836 N   0  0  0  0  0  0  0  0  0  0  0  0
    2.3256    1.0042   -5.9663 H   0  0  0  0  0  0  0  0  0  0  0  0
    1.2215    1.8410   -7.0280 H   0  0  0  0  0  0  0  0  0  0  0  0
    0.2148   -1.4189    1.5029 C   0  0  0  0  0  0  0  0  0  0  0  0
    1.4231   -1.2401    1.5795 O   0  0  0  0  0  0  0  0  0  0  0  0
   -0.5872   -1.0732    2.5760 N   0  0  0  0  0  0  0  0  0  0  0  0
   -1.5727   -1.3019    2.4960 H   0  0  0  0  0  0  0  0  0  0  0  0
   -0.0465   -0.7882    3.9012 C   0  0  0  0  0  0  0  0  0  0  0  0
    0.6611    0.0467    3.8581 H   0  0  0  0  0  0  0  0  0  0  0  0
   -0.8528   -0.5181    4.5899 H   0  0  0  0  0  0  0  0  0  0  0  0
    0.4716   -1.6668    4.3006 H   0  0  0  0  0  0  0  0  0  0  0  0
  1  2  1  0  0  0  0
  2  3  1  0  0  0  0
  2  4  1  0  0  0  0
  2  5  1  0  0  0  0
  5  6  2  0  0  0  0
  5  7  1  0  0  0  0
  7  8  1  0  0  0  0
  7  9  1  0  0  0  0
  9 10  1  0  0  0  0
  9 11  1  0  0  0  0
  9 29  1  0  0  0  0
 11 12  1  0  0  0  0
 11 13  1  0  0  0  0
 11 14  1  0  0  0  0
 14 15  1  0  0  0  0
 14 16  1  0  0  0  0
 14 17  1  0  0  0  0
 17 18  1  0  0  0  0
 17 19  1  0  0  0  0
 17 20  1  0  0  0  0
 20 21  1  0  0  0  0
 20 22  2  0  0  0  0
 22 23  1  0  0  0  0
 22 26  1  0  0  0  0
 23 24  1  0  0  0  0
 23 25  1  0  0  0  0
 26 27  1  0  0  0  0
 26 28  1  0  0  0  0
 29 30  2  0  0  0  0
 29 31  1  0  0  0  0
 31 32  1  0  0  0  0
 31 33  1  0  0  0  0
 33 34  1  0  0  0  0
 33 35  1  0  0  0  0
 33 36  1  0  0  0  0
M  CHG  1  20   1
M  END
$$$$

  -OEChem-04042215563D

 36 35  0     1  0  0  0  0  0999 V2000
   -2.8735   -5.5085    0.8870 H   0  0  0  0  0  0  0  0  0  0  0  0
   -3.0094   -4.5031    0.4774 C   0  0  0  0  0  0  0  0  0  0  0  0
   -3.7651   -3.9828    1.0703 H   0  0  0  0  0  0  0  0  0  0  0  0
   -3.3587   -4.5894   -0.5542 H   0  0  0  0  0  0  0  0  0  0  0  0
   -1.6975   -3.7434    0.5201 C   0  0  0  0  0  0  0  0  0  0  0  0
   -0.6908   -4.2876    0.9352 O   0  0  0  0  0  0  0  0  0  0  0  0
   -1.6372   -2.4344    0.0787 N   0  0  0  0  0  0  0  0  0  0  0  0
   -2.5039   -2.0146   -0.2442 H   0  0  0  0  0  0  0  0  0  0  0  0
   -0.4085   -1.6183    0.1070 C   0  0  1  0  0  0  0  0  0  0  0  0
    0.3460   -2.1959   -0.4400 H   0  0  0  0  0  0  0  0  0  0  0  0
   -0.6195   -0.2676   -0.6148 C   0  0  0  0  0  0  0  0  0  0  0  0
   -1.6471   -0.2118   -0.9891 H   0  0  0  0  0  0  0  0  0  0  0  0
   -0.4820    0.5688    0.0802 H   0  0  0  0  0  0  0  0  0  0  0  0
    0.3545   -0.1241   -1.7933 C   0  0  0  0  0  0  0  0  0  0  0  0
    1.3623    0.0577   -1.4011 H   0  0  0  0  0  0  0  0  0  0  0  0
    0.3773   -1.0568   -2.3679 H   0  0  0  0  0  0  0  0  0  0  0  0
   -0.0706    1.0083   -2.7252 C   0  0  0  0  0  0  0  0  0  0  0  0
   -1.0567    0.7824   -3.1459 H   0  0  0  0  0  0  0  0  0  0  0  0
   -0.1401    1.9389   -2.1508 H   0  0  0  0  0  0  0  0  0  0  0  0
    0.9279    1.1487   -3.8016 N   0  3  0  0  0  0  0  0  0  0  0  0
    1.7694    0.5772   -3.7275 H   0  0  0  0  0  0  0  0  0  0  0  0
    0.8053    1.9694   -4.8044 C   0  0  0  0  0  0  0  0  0  0  0  0
   -0.2872    2.7959   -4.9367 N   0  0  0  0  0  0  0  0  0  0  0  0
   -0.9137    2.8838   -4.1395 H   0  0  0  0  0  0  0  0  0  0  0  0
   -0.2288    3.5776   -5.5864 H   0  0  0  0  0  0  0  0  0  0  0  0
    1.7904    2.0207   -5.7617 N   0  0  0  0  0  0  0  0  0  0  0  0
    2.5119    1.3020   -5.7631 H   0  0  0  0  0  0  0  0  0  0  0  0
    1.5949    2.5026   -6.6374 H   0  0  0  0  0  0  0  0  0  0  0  0
    0.2153   -1.3950    1.5014 C   0  0  0  0  0  0  0  0  0  0  0  0
    1.4217   -1.2015    1.5721 O   0  0  0  0  0  0  0  0  0  0  0  0
   -0.5852   -1.0603    2.5786 N   0  0  0  0  0  0  0  0  0  0  0  0
   -1.5674   -1.3041    2.5015 H   0  0  0  0  0  0  0  0  0  0  0  0
   -0.0410   -0.7899    3.9052 C   0  0  0  0  0  0  0  0  0  0  0  0
    0.6550    0.0552    3.8723 H   0  0  0  0  0  0  0  0  0  0  0  0
   -0.8471   -0.5434    4.6030 H   0  0  0  0  0  0  0  0  0  0  0  0
    0.4913   -1.6682    4.2863 H   0  0  0  0  0  0  0  0  0  0  0  0
  1  2  1  0  0  0  0
  2  3  1  0  0  0  0
  2  4  1  0  0  0  0
  2  5  1  0  0  0  0
  5  6  2  0  0  0  0
  5  7  1  0  0  0  0
  7  8  1  0  0  0  0
  7  9  1  0  0  0  0
  9 10  1  0  0  0  0
  9 11  1  0  0  0  0
  9 29  1  0  0  0  0
 11 12  1  0  0  0  0
 11 13  1  0  0  0  0
 11 14  1  0  0  0  0
 14 15  1  0  0  0  0
 14 16  1  0  0  0  0
 14 17  1  0  0  0  0
 17 18  1  0  0  0  0
 17 19  1  0  0  0  0
 17 20  1  0  0  0  0
 20 21  1  0  0  0  0
 20 22  2  0  0  0  0
 22 23  1  0  0  0  0
 22 26  1  0  0  0  0
 23 24  1  0  0  0  0
 23 25  1  0  0  0  0
 26 27  1  0  0  0  0
 26 28  1  0  0  0  0
 29 30  2  0  0  0  0
 29 31  1  0  0  0  0
 31 32  1  0  0  0  0
 31 33  1  0  0  0  0
 33 34  1  0  0  0  0
 33 35  1  0  0  0  0
 33 36  1  0  0  0  0
M  CHG  1  20   1
M  END
$$$$

  -OEChem-04042215563D

 36 35  0     1  0  0  0  0  0999 V2000
   -2.8857   -5.4854    0.8616 H   0  0  0  0  0  0  0  0  0  0  0  0
   -3.0111   -4.4746    0.4627 C   0  0  0  0  0  0  0  0  0  0  0  0
   -3.7633   -3.9539    1.0597 H   0  0  0  0  0  0  0  0  0  0  0  0
   -3.3581   -4.5473   -0.5707 H   0  0  0  0  0  0  0  0  0  0  0  0
   -1.6926   -3.7271    0.5169 C   0  0  0  0  0  0  0  0  0  0  0  0
   -0.6948   -4.2802    0.9409 O   0  0  0  0  0  0  0  0  0  0  0  0
   -1.6157   -2.4200    0.0723 N   0  0  0  0  0  0  0  0  0  0  0  0
   -2.4743   -1.9951   -0.2649 H   0  0  0  0  0  0  0  0  0  0  0  0
   -0.3804   -1.6143    0.1106 C   0  0  1  0  0  0  0  0  0  0  0  0
    0.3859   -2.1822   -0.4305 H   0  0  0  0  0  0  0  0  0  0  0  0
   -0.5939   -0.2609   -0.6025 C   0  0  0  0  0  0  0  0  0  0  0  0
   -1.6631   -0.0535   -0.7144 H   0  0  0  0  0  0  0  0  0  0  0  0
   -0.1674    0.5501   -0.0002 H   0  0  0  0  0  0  0  0  0  0  0  0
    0.0916   -0.2661   -1.9744 C   0  0  0  0  0  0  0  0  0  0  0  0
    1.1644   -0.4467   -1.8366 H   0  0  0  0  0  0  0  0  0  0  0  0
   -0.3155   -1.0789   -2.5859 H   0  0  0  0  0  0  0  0  0  0  0  0
   -0.1156    1.0699   -2.6834 C   0  0  0  0  0  0  0  0  0  0  0  0
   -1.1854    1.2211   -2.8659 H   0  0  0  0  0  0  0  0  0  0  0  0
    0.2459    1.8774   -2.0367 H   0  0  0  0  0  0  0  0  0  0  0  0
    0.6292    1.0690   -3.9563 N   0  3  0  0  0  0  0  0  0  0  0  0
    1.2168    0.2580   -4.1471 H   0  0  0  0  0  0  0  0  0  0  0  0
    0.6084    2.0522   -4.8091 C   0  0  0  0  0  0  0  0  0  0  0  0
   -0.1300    3.1917   -4.5844 N   0  0  0  0  0  0  0  0  0  0  0  0
   -0.5162    3.3295   -3.6528 H   0  0  0  0  0  0  0  0  0  0  0  0
    0.0675    4.0176   -5.1459 H   0  0  0  0  0  0  0  0  0  0  0  0
    1.3426    1.9609   -5.9678 N   0  0  0  0  0  0  0  0  0  0  0  0
    1.7546    1.0647   -6.2209 H   0  0  0  0  0  0  0  0  0  0  0  0
    1.1659    2.6331   -6.7122 H   0  0  0  0  0  0  0  0  0  0  0  0
    0.2175   -1.4016    1.5192 C   0  0  0  0  0  0  0  0  0  0  0  0
    1.4252   -1.2303    1.6175 O   0  0  0  0  0  0  0  0  0  0  0  0
   -0.5989   -1.0625    2.5834 N   0  0  0  0  0  0  0  0  0  0  0  0
   -1.5828   -1.2913    2.4862 H   0  0  0  0  0  0  0  0  0  0  0  0
   -0.0745   -0.8126    3.9221 C   0  0  0  0  0  0  0  0  0  0  0  0
    0.6273    0.0282    3.9099 H   0  0  0  0  0  0  0  0  0  0  0  0
   -0.8896   -0.5687    4.6102 H   0  0  0  0  0  0  0  0  0  0  0  0
    0.4468   -1.6986    4.3010 H   0  0  0  0  0  0  0  0  0  0  0  0
  1  2  1  0  0  0  0
  2  3  1  0  0  0  0
  2  4  1  0  0  0  0
  2  5  1  0  0  0  0
  5  6  2  0  0  0  0
  5  7  1  0  0  0  0
  7  8  1  0  0  0  0
  7  9  1  0  0  0  0
  9 10  1  0  0  0  0
  9 11  1  0  0  0  0
  9 29  1  0  0  0  0
 11 12  1  0  0  0  0
 11 13  1  0  0  0  0
 11 14  1  0  0  0  0
 14 15  1  0  0  0  0
 14 16  1  0  0  0  0
 14 17  1  0  0  0  0
 17 18  1  0  0  0  0
 17 19  1  0  0  0  0
 17 20  1  0  0  0  0
 20 21  1  0  0  0  0
 20 22  2  0  0  0  0
 22 23  1  0  0  0  0
 22 26  1  0  0  0  0
 23 24  1  0  0  0  0
 23 25  1  0  0  0  0
 26 27  1  0  0  0  0
 26 28  1  0  0  0  0
 29 30  2  0  0  0  0
 29 31  1  0  0  0  0
 31 32  1  0  0  0  0
 31 33  1  0  0  0  0
 33 34  1  0  0  0  0
 33 35  1  0  0  0  0
 33 36  1  0  0  0  0
M  CHG  1  20   1
M  END
$$$$

  -OEChem-04042215563D

 36 35  0     1  0  0  0  0  0999 V2000
   -2.1069   -5.4699    1.4794 H   0  0  0  0  0  0  0  0  0  0  0  0
   -2.4915   -4.6160    0.9142 C   0  0  0  0  0  0  0  0  0  0  0  0
   -3.2655   -4.1239    1.5078 H   0  0  0  0  0  0  0  0  0  0  0  0
   -2.9310   -4.9810   -0.0170 H   0  0  0  0  0  0  0  0  0  0  0  0
   -1.3666   -3.6452    0.6107 C   0  0  0  0  0  0  0  0  0  0  0  0
   -0.2160   -3.9326    0.8888 O   0  0  0  0  0  0  0  0  0  0  0  0
   -1.6358   -2.4229    0.0228 N   0  0  0  0  0  0  0  0  0  0  0  0
   -2.6013   -2.2375   -0.2360 H   0  0  0  0  0  0  0  0  0  0  0  0
   -0.5872   -1.4701   -0.3801 C   0  0  1  0  0  0  0  0  0  0  0  0
    0.0799   -2.0402   -1.0371 H   0  0  0  0  0  0  0  0  0  0  0  0
   -1.1440   -0.2669   -1.1665 C   0  0  0  0  0  0  0  0  0  0  0  0
   -2.2296   -0.2040   -1.0343 H   0  0  0  0  0  0  0  0  0  0  0  0
   -0.7339    0.6687   -0.7728 H   0  0  0  0  0  0  0  0  0  0  0  0
   -0.8189   -0.3968   -2.6609 C   0  0  0  0  0  0  0  0  0  0  0  0
    0.2116   -0.7389   -2.8090 H   0  0  0  0  0  0  0  0  0  0  0  0
   -1.4751   -1.1484   -3.1137 H   0  0  0  0  0  0  0  0  0  0  0  0
   -1.0358    0.9565   -3.3431 C   0  0  0  0  0  0  0  0  0  0  0  0
   -1.8013    0.8404   -4.1186 H   0  0  0  0  0  0  0  0  0  0  0  0
   -1.4175    1.6871   -2.6209 H   0  0  0  0  0  0  0  0  0  0  0  0
    0.2108    1.4668   -3.9609 N   0  3  0  0  0  0  0  0  0  0  0  0
    0.1807    1.6114   -4.9695 H   0  0  0  0  0  0  0  0  0  0  0  0
    1.3043    1.8028   -3.3261 C   0  0  0  0  0  0  0  0  0  0  0  0
    1.4888    1.6342   -1.9709 N   0  0  0  0  0  0  0  0  0  0  0  0
    0.8696    0.9880   -1.4831 H   0  0  0  0  0  0  0  0  0  0  0  0
    2.4366    1.6989   -1.6046 H   0  0  0  0  0  0  0  0  0  0  0  0
    2.3428    2.3484   -4.0422 N   0  0  0  0  0  0  0  0  0  0  0  0
    2.1730    2.6586   -4.9966 H   0  0  0  0  0  0  0  0  0  0  0  0
    3.1096    2.7793   -3.5288 H   0  0  0  0  0  0  0  0  0  0  0  0
    0.3460   -0.9435    0.7302 C   0  0  0  0  0  0  0  0  0  0  0  0
    1.4111   -0.4531    0.3610 O   0  0  0  0  0  0  0  0  0  0  0  0
   -0.1794   -0.5365    1.9422 N   0  0  0  0  0  0  0  0  0  0  0  0
   -1.0452   -0.9901    2.2220 H   0  0  0  0  0  0  0  0  0  0  0  0
    0.6365    0.0797    2.9836 C   0  0  0  0  0  0  0  0  0  0  0  0
    1.0615    1.0259    2.6329 H   0  0  0  0  0  0  0  0  0  0  0  0
    0.0281    0.2852    3.8699 H   0  0  0  0  0  0  0  0  0  0  0  0
    1.4553   -0.5875    3.2739 H   0  0  0  0  0  0  0  0  0  0  0  0
  1  2  1  0  0  0  0
  2  3  1  0  0  0  0
  2  4  1  0  0  0  0
  2  5  1  0  0  0  0
  5  6  2  0  0  0  0
  5  7  1  0  0  0  0
  7  8  1  0  0  0  0
  7  9  1  0  0  0  0
  9 10  1  0  0  0  0
  9 11  1  0  0  0  0
  9 29  1  0  0  0  0
 11 12  1  0  0  0  0
 11 13  1  0  0  0  0
 11 14  1  0  0  0  0
 14 15  1  0  0  0  0
 14 16  1  0  0  0  0
 14 17  1  0  0  0  0
 17 18  1  0  0  0  0
 17 19  1  0  0  0  0
 17 20  1  0  0  0  0
 20 21  1  0  0  0  0
 20 22  2  0  0  0  0
 22 23  1  0  0  0  0
 22 26  1  0  0  0  0
 23 24  1  0  0  0  0
 23 25  1  0  0  0  0
 26 27  1  0  0  0  0
 26 28  1  0  0  0  0
 29 30  2  0  0  0  0
 29 31  1  0  0  0  0
 31 32  1  0  0  0  0
 31 33  1  0  0  0  0
 33 34  1  0  0  0  0
 33 35  1  0  0  0  0
 33 36  1  0  0  0  0
M  CHG  1  20   1
M  END
$$$$

  -OEChem-04042215563D

 36 35  0     1  0  0  0  0  0999 V2000
   -2.0450   -5.5231    1.1979 H   0  0  0  0  0  0  0  0  0  0  0  0
   -2.4349   -4.6040    0.7503 C   0  0  0  0  0  0  0  0  0  0  0  0
   -3.1431   -4.1493    1.4470 H   0  0  0  0  0  0  0  0  0  0  0  0
   -2.9558   -4.8587   -0.1759 H   0  0  0  0  0  0  0  0  0  0  0  0
   -1.2979   -3.6430    0.4603 C   0  0  0  0  0  0  0  0  0  0  0  0
   -0.1456   -3.9698    0.6823 O   0  0  0  0  0  0  0  0  0  0  0  0
   -1.5586   -2.3820   -0.0442 N   0  0  0  0  0  0  0  0  0  0  0  0
   -2.5285   -2.1591   -0.2525 H   0  0  0  0  0  0  0  0  0  0  0  0
   -0.5054   -1.4149   -0.4000 C   0  0  1  0  0  0  0  0  0  0  0  0
    0.1490   -1.9407   -1.1038 H   0  0  0  0  0  0  0  0  0  0  0  0
   -1.0828   -0.1568   -1.0853 C   0  0  0  0  0  0  0  0  0  0  0  0
   -2.1616   -0.0896   -0.9079 H   0  0  0  0  0  0  0  0  0  0  0  0
   -0.6436    0.7385   -0.6326 H   0  0  0  0  0  0  0  0  0  0  0  0
   -0.8125   -0.1559   -2.6005 C   0  0  0  0  0  0  0  0  0  0  0  0
    0.1051   -0.7050   -2.8380 H   0  0  0  0  0  0  0  0  0  0  0  0
   -1.6325   -0.6650   -3.1189 H   0  0  0  0  0  0  0  0  0  0  0  0
   -0.6878    1.2878   -3.1036 C   0  0  0  0  0  0  0  0  0  0  0  0
   -1.4659    1.4662   -3.8542 H   0  0  0  0  0  0  0  0  0  0  0  0
   -0.8659    1.9941   -2.2850 H   0  0  0  0  0  0  0  0  0  0  0  0
    0.6389    1.5436   -3.7072 N   0  3  0  0  0  0  0  0  0  0  0  0
    0.6576    1.6655   -4.7191 H   0  0  0  0  0  0  0  0  0  0  0  0
    1.7546    1.6923   -3.0441 C   0  0  0  0  0  0  0  0  0  0  0  0
    1.8523    1.5302   -1.6813 N   0  0  0  0  0  0  0  0  0  0  0  0
    1.1203    0.9943   -1.2158 H   0  0  0  0  0  0  0  0  0  0  0  0
    2.7829    1.4296   -1.2807 H   0  0  0  0  0  0  0  0  0  0  0  0
    2.8987    2.0247   -3.7294 N   0  0  0  0  0  0  0  0  0  0  0  0
    2.8212    2.3362   -4.6952 H   0  0  0  0  0  0  0  0  0  0  0  0
    3.7115    2.3245   -3.1938 H   0  0  0  0  0  0  0  0  0  0  0  0
    0.4382   -0.9813    0.7410 C   0  0  0  0  0  0  0  0  0  0  0  0
    1.5203   -0.5023    0.4109 O   0  0  0  0  0  0  0  0  0  0  0  0
   -0.0780   -0.6562    1.9807 N   0  0  0  0  0  0  0  0  0  0  0  0
   -0.9591   -1.1015    2.2232 H   0  0  0  0  0  0  0  0  0  0  0  0
    0.7466   -0.1341    3.0654 C   0  0  0  0  0  0  0  0  0  0  0  0
    1.1897    0.8272    2.7856 H   0  0  0  0  0  0  0  0  0  0  0  0
    0.1392    0.0173    3.9632 H   0  0  0  0  0  0  0  0  0  0  0  0
    1.5518   -0.8365    3.3067 H   0  0  0  0  0  0  0  0  0  0  0  0
  1  2  1  0  0  0  0
  2  3  1  0  0  0  0
  2  4  1  0  0  0  0
  2  5  1  0  0  0  0
  5  6  2  0  0  0  0
  5  7  1  0  0  0  0
  7  8  1  0  0  0  0
  7  9  1  0  0  0  0
  9 10  1  0  0  0  0
  9 11  1  0  0  0  0
  9 29  1  0  0  0  0
 11 12  1  0  0  0  0
 11 13  1  0  0  0  0
 11 14  1  0  0  0  0
 14 15  1  0  0  0  0
 14 16  1  0  0  0  0
 14 17  1  0  0  0  0
 17 18  1  0  0  0  0
 17 19  1  0  0  0  0
 17 20  1  0  0  0  0
 20 21  1  0  0  0  0
 20 22  2  0  0  0  0
 22 23  1  0  0  0  0
 22 26  1  0  0  0  0
 23 24  1  0  0  0  0
 23 25  1  0  0  0  0
 26 27  1  0  0  0  0
 26 28  1  0  0  0  0
 29 30  2  0  0  0  0
 29 31  1  0  0  0  0
 31 32  1  0  0  0  0
 31 33  1  0  0  0  0
 33 34  1  0  0  0  0
 33 35  1  0  0  0  0
 33 36  1  0  0  0  0
M  CHG  1  20   1
M  END
$$$$

  -OEChem-04042215563D

 36 35  0     1  0  0  0  0  0999 V2000
   -1.9733   -5.5502    0.9829 H   0  0  0  0  0  0  0  0  0  0  0  0
   -2.3628   -4.5987    0.6091 C   0  0  0  0  0  0  0  0  0  0  0  0
   -3.0648   -4.1954    1.3427 H   0  0  0  0  0  0  0  0  0  0  0  0
   -2.8901   -4.7806   -0.3303 H   0  0  0  0  0  0  0  0  0  0  0  0
   -1.2240   -3.6226    0.3851 C   0  0  0  0  0  0  0  0  0  0  0  0
   -0.0734   -3.9603    0.6004 O   0  0  0  0  0  0  0  0  0  0  0  0
   -1.4803   -2.3408   -0.0659 N   0  0  0  0  0  0  0  0  0  0  0  0
   -2.4483   -2.1083   -0.2729 H   0  0  0  0  0  0  0  0  0  0  0  0
   -0.4249   -1.3552   -0.3586 C   0  0  1  0  0  0  0  0  0  0  0  0
    0.2484   -1.8380   -1.0743 H   0  0  0  0  0  0  0  0  0  0  0  0
   -1.0103   -0.0668   -0.9822 C   0  0  0  0  0  0  0  0  0  0  0  0
   -2.0900   -0.0198   -0.8033 H   0  0  0  0  0  0  0  0  0  0  0  0
   -0.5816    0.8045   -0.4748 H   0  0  0  0  0  0  0  0  0  0  0  0
   -0.7407    0.0328   -2.4984 C   0  0  0  0  0  0  0  0  0  0  0  0
    0.0025   -0.7026   -2.8235 H   0  0  0  0  0  0  0  0  0  0  0  0
   -1.6641   -0.1939   -3.0425 H   0  0  0  0  0  0  0  0  0  0  0  0
   -0.2634    1.4443   -2.8701 C   0  0  0  0  0  0  0  0  0  0  0  0
   -0.9918    1.8933   -3.5548 H   0  0  0  0  0  0  0  0  0  0  0  0
   -0.2238    2.0854   -1.9828 H   0  0  0  0  0  0  0  0  0  0  0  0
    1.0622    1.4077   -3.5227 N   0  3  0  0  0  0  0  0  0  0  0  0
    1.0695    1.4514   -4.5410 H   0  0  0  0  0  0  0  0  0  0  0  0
    2.2029    1.3883   -2.8893 C   0  0  0  0  0  0  0  0  0  0  0  0
    2.2986    1.3115   -1.5199 N   0  0  0  0  0  0  0  0  0  0  0  0
    1.4940    0.9442   -1.0105 H   0  0  0  0  0  0  0  0  0  0  0  0
    3.2035    1.0668   -1.1233 H   0  0  0  0  0  0  0  0  0  0  0  0
    3.3709    1.4476   -3.6111 N   0  0  0  0  0  0  0  0  0  0  0  0
    3.3281    1.6997   -4.5962 H   0  0  0  0  0  0  0  0  0  0  0  0
    4.2391    1.6257   -3.1093 H   0  0  0  0  0  0  0  0  0  0  0  0
    0.4873   -0.9824    0.8291 C   0  0  0  0  0  0  0  0  0  0  0  0
    1.5916   -0.5179    0.5597 O   0  0  0  0  0  0  0  0  0  0  0  0
   -0.0582   -0.7219    2.0718 N   0  0  0  0  0  0  0  0  0  0  0  0
   -0.9565   -1.1570    2.2646 H   0  0  0  0  0  0  0  0  0  0  0  0
    0.7379   -0.2576    3.2032 C   0  0  0  0  0  0  0  0  0  0  0  0
    1.1823    0.7197    2.9872 H   0  0  0  0  0  0  0  0  0  0  0  0
    0.1088   -0.1584    4.0935 H   0  0  0  0  0  0  0  0  0  0  0  0
    1.5414   -0.9686    3.4249 H   0  0  0  0  0  0  0  0  0  0  0  0
  1  2  1  0  0  0  0
  2  3  1  0  0  0  0
  2  4  1  0  0  0  0
  2  5  1  0  0  0  0
  5  6  2  0  0  0  0
  5  7  1  0  0  0  0
  7  8  1  0  0  0  0
  7  9  1  0  0  0  0
  9 10  1  0  0  0  0
  9 11  1  0  0  0  0
  9 29  1  0  0  0  0
 11 12  1  0  0  0  0
 11 13  1  0  0  0  0
 11 14  1  0  0  0  0
 14 15  1  0  0  0  0
 14 16  1  0  0  0  0
 14 17  1  0  0  0  0
 17 18  1  0  0  0  0
 17 19  1  0  0  0  0
 17 20  1  0  0  0  0
 20 21  1  0  0  0  0
 20 22  2  0  0  0  0
 22 23  1  0  0  0  0
 22 26  1  0  0  0  0
 23 24  1  0  0  0  0
 23 25  1  0  0  0  0
 26 27  1  0  0  0  0
 26 28  1  0  0  0  0
 29 30  2  0  0  0  0
 29 31  1  0  0  0  0
 31 32  1  0  0  0  0
 31 33  1  0  0  0  0
 33 34  1  0  0  0  0
 33 35  1  0  0  0  0
 33 36  1  0  0  0  0
M  CHG  1  20   1
M  END
$$$$

  -OEChem-04042215563D

 36 35  0     1  0  0  0  0  0999 V2000
   -1.8683   -5.5969    0.7576 H   0  0  0  0  0  0  0  0  0  0  0  0
   -2.2699   -4.6287    0.4445 C   0  0  0  0  0  0  0  0  0  0  0  0
   -2.9805   -4.2836    1.1994 H   0  0  0  0  0  0  0  0  0  0  0  0
   -2.7913   -4.7574   -0.5072 H   0  0  0  0  0  0  0  0  0  0  0  0
   -1.1444   -3.6242    0.2893 C   0  0  0  0  0  0  0  0  0  0  0  0
    0.0098   -3.9565    0.4956 O   0  0  0  0  0  0  0  0  0  0  0  0
   -1.4149   -2.3238   -0.0949 N   0  0  0  0  0  0  0  0  0  0  0  0
   -2.3855   -2.0869   -0.2846 H   0  0  0  0  0  0  0  0  0  0  0  0
   -0.3722   -1.3017   -0.2887 C   0  0  1  0  0  0  0  0  0  0  0  0
    0.3395   -1.7326   -1.0004 H   0  0  0  0  0  0  0  0  0  0  0  0
   -0.9540    0.0058   -0.8720 C   0  0  0  0  0  0  0  0  0  0  0  0
   -2.0432    0.0006   -0.7571 H   0  0  0  0  0  0  0  0  0  0  0  0
   -0.5965    0.8668   -0.2958 H   0  0  0  0  0  0  0  0  0  0  0  0
   -0.6119    0.1829   -2.3664 C   0  0  0  0  0  0  0  0  0  0  0  0
   -0.0745   -0.6828   -2.7668 H   0  0  0  0  0  0  0  0  0  0  0  0
   -1.5433    0.2594   -2.9380 H   0  0  0  0  0  0  0  0  0  0  0  0
    0.1977    1.4701   -2.5776 C   0  0  0  0  0  0  0  0  0  0  0  0
   -0.4206    2.1959   -3.1177 H   0  0  0  0  0  0  0  0  0  0  0  0
    0.4570    1.9237   -1.6150 H   0  0  0  0  0  0  0  0  0  0  0  0
    1.4292    1.1973   -3.3445 N   0  3  0  0  0  0  0  0  0  0  0  0
    1.3555    1.2428   -4.3599 H   0  0  0  0  0  0  0  0  0  0  0  0
    2.5961    0.9664   -2.8083 C   0  0  0  0  0  0  0  0  0  0  0  0
    2.7973    0.8704   -1.4506 N   0  0  0  0  0  0  0  0  0  0  0  0
    1.9897    0.6738   -0.8538 H   0  0  0  0  0  0  0  0  0  0  0  0
    3.6809    0.4852   -1.1257 H   0  0  0  0  0  0  0  0  0  0  0  0
    3.6885    0.8148   -3.6284 N   0  0  0  0  0  0  0  0  0  0  0  0
    3.6081    1.0824   -4.6070 H   0  0  0  0  0  0  0  0  0  0  0  0
    4.6144    0.8287   -3.2042 H   0  0  0  0  0  0  0  0  0  0  0  0
    0.4924   -0.9743    0.9457 C   0  0  0  0  0  0  0  0  0  0  0  0
    1.6081   -0.5061    0.7355 O   0  0  0  0  0  0  0  0  0  0  0  0
   -0.0909   -0.7926    2.1852 N   0  0  0  0  0  0  0  0  0  0  0  0
   -1.0017   -1.2224    2.3225 H   0  0  0  0  0  0  0  0  0  0  0  0
    0.6625   -0.3773    3.3639 C   0  0  0  0  0  0  0  0  0  0  0  0
    1.1132    0.6083    3.2066 H   0  0  0  0  0  0  0  0  0  0  0  0
    0.0012   -0.3164    4.2341 H   0  0  0  0  0  0  0  0  0  0  0  0
    1.4580   -1.0975    3.5840 H   0  0  0  0  0  0  0  0  0  0  0  0
  1  2  1  0  0  0  0
  2  3  1  0  0  0  0
  2  4  1  0  0  0  0
  2  5  1  0  0  0  0
  5  6  2  0  0  0  0
  5  7  1  0  0  0  0
  7  8  1  0  0  0  0
  7  9  1  0  0  0  0
  9 10  1  0  0  0  0
  9 11  1  0  0  0  0
  9 29  1  0  0  0  0
 11 12  1  0  0  0  0
 11 13  1  0  0  0  0
 11 14  1  0  0  0  0
 14 15  1  0  0  0  0
 14 16  1  0  0  0  0
 14 17  1  0  0  0  0
 17 18  1  0  0  0  0
 17 19  1  0  0  0  0
 17 20  1  0  0  0  0
 20 21  1  0  0  0  0
 20 22  2  0  0  0  0
 22 23  1  0  0  0  0
 22 26  1  0  0  0  0
 23 24  1  0  0  0  0
 23 25  1  0  0  0  0
 26 27  1  0  0  0  0
 26 28  1  0  0  0  0
 29 30  2  0  0  0  0
 29 31  1  0  0  0  0
 31 32  1  0  0  0  0
 31 33  1  0  0  0  0
 33 34  1  0  0  0  0
 33 35  1  0  0  0  0
 33 36  1  0  0  0  0
M  CHG  1  20   1
M  END
$$$$

  -OEChem-04042215563D

 36 35  0     1  0  0  0  0  0999 V2000
   -1.7611   -5.6257    0.5793 H   0  0  0  0  0  0  0  0  0  0  0  0
   -2.1757   -4.6486    0.3149 C   0  0  0  0  0  0  0  0  0  0  0  0
   -2.8819   -4.3458    1.0917 H   0  0  0  0  0  0  0  0  0  0  0  0
   -2.7060   -4.7387   -0.6362 H   0  0  0  0  0  0  0  0  0  0  0  0
   -1.0619   -3.6266    0.1952 C   0  0  0  0  0  0  0  0  0  0  0  0
    0.0978   -3.9539    0.3791 O   0  0  0  0  0  0  0  0  0  0  0  0
   -1.3484   -2.3153   -0.1366 N   0  0  0  0  0  0  0  0  0  0  0  0
   -2.3243   -2.0766   -0.2949 H   0  0  0  0  0  0  0  0  0  0  0  0
   -0.3203   -1.2668   -0.2507 C   0  0  1  0  0  0  0  0  0  0  0  0
    0.4210   -1.6532   -0.9581 H   0  0  0  0  0  0  0  0  0  0  0  0
   -0.8996    0.0515   -0.8069 C   0  0  0  0  0  0  0  0  0  0  0  0
   -1.9926    0.0106   -0.7512 H   0  0  0  0  0  0  0  0  0  0  0  0
   -0.5960    0.9061   -0.1911 H   0  0  0  0  0  0  0  0  0  0  0  0
   -0.4881    0.2693   -2.2744 C   0  0  0  0  0  0  0  0  0  0  0  0
   -0.1769   -0.6664   -2.7519 H   0  0  0  0  0  0  0  0  0  0  0  0
   -1.3550    0.6327   -2.8369 H   0  0  0  0  0  0  0  0  0  0  0  0
    0.6088    1.3402   -2.3455 C   0  0  0  0  0  0  0  0  0  0  0  0
    0.1885    2.2605   -2.7665 H   0  0  0  0  0  0  0  0  0  0  0  0
    0.9665    1.5799   -1.3383 H   0  0  0  0  0  0  0  0  0  0  0  0
    1.7355    0.8760   -3.1778 N   0  3  0  0  0  0  0  0  0  0  0  0
    1.6060    0.9153   -4.1877 H   0  0  0  0  0  0  0  0  0  0  0  0
    2.8808    0.4678   -2.7047 C   0  0  0  0  0  0  0  0  0  0  0  0
    3.1518    0.3703   -1.3589 N   0  0  0  0  0  0  0  0  0  0  0  0
    2.3646    0.3490   -0.7032 H   0  0  0  0  0  0  0  0  0  0  0  0
    3.9774   -0.1500   -1.0726 H   0  0  0  0  0  0  0  0  0  0  0  0
    3.8783    0.1192   -3.5836 N   0  0  0  0  0  0  0  0  0  0  0  0
    3.7770    0.3682   -4.5650 H   0  0  0  0  0  0  0  0  0  0  0  0
    4.8203   -0.0052   -3.2172 H   0  0  0  0  0  0  0  0  0  0  0  0
    0.5022   -0.9793    1.0212 C   0  0  0  0  0  0  0  0  0  0  0  0
    1.6315   -0.5223    0.8653 O   0  0  0  0  0  0  0  0  0  0  0  0
   -0.1146   -0.8633    2.2522 N   0  0  0  0  0  0  0  0  0  0  0  0
   -1.0382   -1.2783    2.3397 H   0  0  0  0  0  0  0  0  0  0  0  0
    0.6033   -0.5045    3.4709 C   0  0  0  0  0  0  0  0  0  0  0  0
    1.0633    0.4841    3.3705 H   0  0  0  0  0  0  0  0  0  0  0  0
   -0.0845   -0.4775    4.3219 H   0  0  0  0  0  0  0  0  0  0  0  0
    1.3882   -1.2382    3.6840 H   0  0  0  0  0  0  0  0  0  0  0  0
  1  2  1  0  0  0  0
  2  3  1  0  0  0  0
  2  4  1  0  0  0  0
  2  5  1  0  0  0  0
  5  6  2  0  0  0  0
  5  7  1  0  0  0  0
  7  8  1  0  0  0  0
  7  9  1  0  0  0  0
  9 10  1  0  0  0  0
  9 11  1  0  0  0  0
  9 29  1  0  0  0  0
 11 12  1  0  0  0  0
 11 13  1  0  0  0  0
 11 14  1  0  0  0  0
 14 15  1  0  0  0  0
 14 16  1  0  0  0  0
 14 17  1  0  0  0  0
 17 18  1  0  0  0  0
 17 19  1  0  0  0  0
 17 20  1  0  0  0  0
 20 21  1  0  0  0  0
 20 22  2  0  0  0  0
 22 23  1  0  0  0  0
 22 26  1  0  0  0  0
 23 24  1  0  0  0  0
 23 25  1  0  0  0  0
 26 27  1  0  0  0  0
 26 28  1  0  0  0  0
 29 30  2  0  0  0  0
 29 31  1  0  0  0  0
 31 32  1  0  0  0  0
 31 33  1  0  0  0  0
 33 34  1  0  0  0  0
 33 35  1  0  0  0  0
 33 36  1  0  0  0  0
M  CHG  1  20   1
M  END
$$$$

  -OEChem-04042215563D

 36 35  0     1  0  0  0  0  0999 V2000
   -1.6807   -5.6468    0.4452 H   0  0  0  0  0  0  0  0  0  0  0  0
   -2.1051   -4.6647    0.2171 C   0  0  0  0  0  0  0  0  0  0  0  0
   -2.8025   -4.3914    1.0125 H   0  0  0  0  0  0  0  0  0  0  0  0
   -2.6476   -4.7287   -0.7291 H   0  0  0  0  0  0  0  0  0  0  0  0
   -0.9992   -3.6321    0.1138 C   0  0  0  0  0  0  0  0  0  0  0  0
    0.1656   -3.9592    0.2662 O   0  0  0  0  0  0  0  0  0  0  0  0
   -1.2953   -2.3138   -0.1799 N   0  0  0  0  0  0  0  0  0  0  0  0
   -2.2758   -2.0692   -0.2966 H   0  0  0  0  0  0  0  0  0  0  0  0
   -0.2744   -1.2541   -0.2364 C   0  0  1  0  0  0  0  0  0  0  0  0
    0.4828   -1.6121   -0.9426 H   0  0  0  0  0  0  0  0  0  0  0  0
   -0.8500    0.0725   -0.7728 C   0  0  0  0  0  0  0  0  0  0  0  0
   -1.9440    0.0246   -0.7519 H   0  0  0  0  0  0  0  0  0  0  0  0
   -0.5638    0.9189   -0.1373 H   0  0  0  0  0  0  0  0  0  0  0  0
   -0.3883    0.3125   -2.2179 C   0  0  0  0  0  0  0  0  0  0  0  0
   -0.3067   -0.6321   -2.7676 H   0  0  0  0  0  0  0  0  0  0  0  0
   -1.1365    0.9215   -2.7372 H   0  0  0  0  0  0  0  0  0  0  0  0
    0.9352    1.0907   -2.1987 C   0  0  0  0  0  0  0  0  0  0  0  0
    0.7592    2.1108   -2.5580 H   0  0  0  0  0  0  0  0  0  0  0  0
    1.3030    1.1682   -1.1697 H   0  0  0  0  0  0  0  0  0  0  0  0
    1.9438    0.4278   -3.0484 N   0  3  0  0  0  0  0  0  0  0  0  0
    1.7714    0.4342   -4.0525 H   0  0  0  0  0  0  0  0  0  0  0  0
    3.0478   -0.1066   -2.6033 C   0  0  0  0  0  0  0  0  0  0  0  0
    3.3755   -0.1649   -1.2682 N   0  0  0  0  0  0  0  0  0  0  0  0
    2.6300   -0.0220   -0.5789 H   0  0  0  0  0  0  0  0  0  0  0  0
    4.1265   -0.7894   -0.9853 H   0  0  0  0  0  0  0  0  0  0  0  0
    3.9410   -0.6370   -3.5033 N   0  0  0  0  0  0  0  0  0  0  0  0
    3.8227   -0.4294   -4.4924 H   0  0  0  0  0  0  0  0  0  0  0  0
    4.8756   -0.8699   -3.1727 H   0  0  0  0  0  0  0  0  0  0  0  0
    0.5180   -1.0036    1.0622 C   0  0  0  0  0  0  0  0  0  0  0  0
    1.6633   -0.5760    0.9489 O   0  0  0  0  0  0  0  0  0  0  0  0
   -0.1210   -0.9326    2.2850 N   0  0  0  0  0  0  0  0  0  0  0  0
   -1.0614   -1.3142    2.3363 H   0  0  0  0  0  0  0  0  0  0  0  0
    0.5703   -0.6102    3.5288 C   0  0  0  0  0  0  0  0  0  0  0  0
    1.0293    0.3823    3.4688 H   0  0  0  0  0  0  0  0  0  0  0  0
   -0.1346   -0.6113    4.3660 H   0  0  0  0  0  0  0  0  0  0  0  0
    1.3528   -1.3483    3.7347 H   0  0  0  0  0  0  0  0  0  0  0  0
  1  2  1  0  0  0  0
  2  3  1  0  0  0  0
  2  4  1  0  0  0  0
  2  5  1  0  0  0  0
  5  6  2  0  0  0  0
  5  7  1  0  0  0  0
  7  8  1  0  0  0  0
  7  9  1  0  0  0  0
  9 10  1  0  0  0  0
  9 11  1  0  0  0  0
  9 29  1  0  0  0  0
 11 12  1  0  0  0  0
 11 13  1  0  0  0  0
 11 14  1  0  0  0  0
 14 15  1  0  0  0  0
 14 16  1  0  0  0  0
 14 17  1  0  0  0  0
 17 18  1  0  0  0  0
 17 19  1  0  0  0  0
 17 20  1  0  0  0  0
 20 21  1  0  0  0  0
 20 22  2  0  0  0  0
 22 23  1  0  0  0  0
 22 26  1  0  0  0  0
 23 24  1  0  0  0  0
 23 25  1  0  0  0  0
 26 27  1  0  0  0  0
 26 28  1  0  0  0  0
 29 30  2  0  0  0  0
 29 31  1  0  0  0  0
 31 32  1  0  0  0  0
 31 33  1  0  0  0  0
 33 34  1  0  0  0  0
 33 35  1  0  0  0  0
 33 36  1  0  0  0  0
M  CHG  1  20   1
M  END
$$$$

  -OEChem-04042215563D

 36 35  0     1  0  0  0  0  0999 V2000
   -1.7110   -5.6632    0.2167 H   0  0  0  0  0  0  0  0  0  0  0  0
   -2.1150   -4.6601    0.0513 C   0  0  0  0  0  0  0  0  0  0  0  0
   -2.7686   -4.4039    0.8885 H   0  0  0  0  0  0  0  0  0  0  0  0
   -2.7004   -4.6660   -0.8713 H   0  0  0  0  0  0  0  0  0  0  0  0
   -0.9852   -3.6541   -0.0550 C   0  0  0  0  0  0  0  0  0  0  0  0
    0.1760   -4.0179    0.0309 O   0  0  0  0  0  0  0  0  0  0  0  0
   -1.2558   -2.3167   -0.2782 N   0  0  0  0  0  0  0  0  0  0  0  0
   -2.2335   -2.0408   -0.3316 H   0  0  0  0  0  0  0  0  0  0  0  0
   -0.2124   -1.2780   -0.2845 C   0  0  1  0  0  0  0  0  0  0  0  0
    0.5297   -1.6058   -1.0190 H   0  0  0  0  0  0  0  0  0  0  0  0
   -0.7728    0.0868   -0.7318 C   0  0  0  0  0  0  0  0  0  0  0  0
   -1.8667    0.0689   -0.6808 H   0  0  0  0  0  0  0  0  0  0  0  0
   -0.4386    0.8846   -0.0580 H   0  0  0  0  0  0  0  0  0  0  0  0
   -0.3409    0.4247   -2.1659 C   0  0  0  0  0  0  0  0  0  0  0  0
   -0.5400   -0.4174   -2.8381 H   0  0  0  0  0  0  0  0  0  0  0  0
   -0.9452    1.2684   -2.5170 H   0  0  0  0  0  0  0  0  0  0  0  0
    1.1372    0.8468   -2.2014 C   0  0  0  0  0  0  0  0  0  0  0  0
    1.2213    1.7940   -2.7457 H   0  0  0  0  0  0  0  0  0  0  0  0
    1.4947    1.0226   -1.1809 H   0  0  0  0  0  0  0  0  0  0  0  0
    1.9634   -0.1726   -2.8820 N   0  3  0  0  0  0  0  0  0  0  0  0
    1.6852   -0.4250   -3.8287 H   0  0  0  0  0  0  0  0  0  0  0  0
    3.0717   -0.6705   -2.4071 C   0  0  0  0  0  0  0  0  0  0  0  0
    3.5442   -0.3878   -1.1482 N   0  0  0  0  0  0  0  0  0  0  0  0
    2.8423   -0.1277   -0.4477 H   0  0  0  0  0  0  0  0  0  0  0  0
    4.3039   -0.9658   -0.7986 H   0  0  0  0  0  0  0  0  0  0  0  0
    3.8165   -1.5131   -3.1972 N   0  0  0  0  0  0  0  0  0  0  0  0
    3.5908   -1.5941   -4.1860 H   0  0  0  0  0  0  0  0  0  0  0  0
    4.7581   -1.7572   -2.8962 H   0  0  0  0  0  0  0  0  0  0  0  0
    0.5791   -1.1284    1.0316 C   0  0  0  0  0  0  0  0  0  0  0  0
    1.7399   -0.7371    0.9595 O   0  0  0  0  0  0  0  0  0  0  0  0
   -0.0677   -1.1161    2.2525 N   0  0  0  0  0  0  0  0  0  0  0  0
   -1.0262   -1.4523    2.2725 H   0  0  0  0  0  0  0  0  0  0  0  0
    0.6167   -0.8786    3.5191 C   0  0  0  0  0  0  0  0  0  0  0  0
    1.0804    0.1136    3.5266 H   0  0  0  0  0  0  0  0  0  0  0  0
   -0.0938   -0.9311    4.3501 H   0  0  0  0  0  0  0  0  0  0  0  0
    1.3947   -1.6322    3.6820 H   0  0  0  0  0  0  0  0  0  0  0  0
  1  2  1  0  0  0  0
  2  3  1  0  0  0  0
  2  4  1  0  0  0  0
  2  5  1  0  0  0  0
  5  6  2  0  0  0  0
  5  7  1  0  0  0  0
  7  8  1  0  0  0  0
  7  9  1  0  0  0  0
  9 10  1  0  0  0  0
  9 11  1  0  0  0  0
  9 29  1  0  0  0  0
 11 12  1  0  0  0  0
 11 13  1  0  0  0  0
 11 14  1  0  0  0  0
 14 15  1  0  0  0  0
 14 16  1  0  0  0  0
 14 17  1  0  0  0  0
 17 18  1  0  0  0  0
 17 19  1  0  0  0  0
 17 20  1  0  0  0  0
 20 21  1  0  0  0  0
 20 22  2  0  0  0  0
 22 23  1  0  0  0  0
 22 26  1  0  0  0  0
 23 24  1  0  0  0  0
 23 25  1  0  0  0  0
 26 27  1  0  0  0  0
 26 28  1  0  0  0  0
 29 30  2  0  0  0  0
 29 31  1  0  0  0  0
 31 32  1  0  0  0  0
 31 33  1  0  0  0  0
 33 34  1  0  0  0  0
 33 35  1  0  0  0  0
 33 36  1  0  0  0  0
M  CHG  1  20   1
M  END
$$$$

  -OEChem-04042215563D

 36 35  0     1  0  0  0  0  0999 V2000
   -2.8945   -5.4738    0.8638 H   0  0  0  0  0  0  0  0  0  0  0  0
   -3.0272   -4.4616    0.4712 C   0  0  0  0  0  0  0  0  0  0  0  0
   -3.7353   -3.9286    1.1102 H   0  0  0  0  0  0  0  0  0  0  0  0
   -3.4360   -4.5286   -0.5399 H   0  0  0  0  0  0  0  0  0  0  0  0
   -1.6963   -3.7344    0.4469 C   0  0  0  0  0  0  0  0  0  0  0  0
   -0.6786   -4.3030    0.8019 O   0  0  0  0  0  0  0  0  0  0  0  0
   -1.6261   -2.4237    0.0130 N   0  0  0  0  0  0  0  0  0  0  0  0
   -2.4992   -1.9746   -0.2506 H   0  0  0  0  0  0  0  0  0  0  0  0
   -0.3872   -1.6272    0.0311 C   0  0  1  0  0  0  0  0  0  0  0  0
    0.3254   -2.2547   -0.5098 H   0  0  0  0  0  0  0  0  0  0  0  0
   -0.5697   -0.2996   -0.7437 C   0  0  0  0  0  0  0  0  0  0  0  0
   -1.6361   -0.0960   -0.8862 H   0  0  0  0  0  0  0  0  0  0  0  0
   -0.1670    0.5324   -0.1544 H   0  0  0  0  0  0  0  0  0  0  0  0
    0.1273   -0.3110   -2.1141 C   0  0  0  0  0  0  0  0  0  0  0  0
   -0.2920   -1.1076   -2.7385 H   0  0  0  0  0  0  0  0  0  0  0  0
   -0.0439    0.6457   -2.6192 H   0  0  0  0  0  0  0  0  0  0  0  0
    1.6317   -0.5344   -1.9042 C   0  0  0  0  0  0  0  0  0  0  0  0
    2.0054    0.2476   -1.2333 H   0  0  0  0  0  0  0  0  0  0  0  0
    1.7968   -1.4994   -1.4159 H   0  0  0  0  0  0  0  0  0  0  0  0
    2.3913   -0.5044   -3.1640 N   0  3  0  0  0  0  0  0  0  0  0  0
    1.8740   -0.3617   -4.0299 H   0  0  0  0  0  0  0  0  0  0  0  0
    3.6801   -0.6899   -3.1951 C   0  0  0  0  0  0  0  0  0  0  0  0
    4.4030   -0.9133   -2.0432 N   0  0  0  0  0  0  0  0  0  0  0  0
    3.8881   -1.0708   -1.1763 H   0  0  0  0  0  0  0  0  0  0  0  0
    5.3443   -1.2929   -2.1157 H   0  0  0  0  0  0  0  0  0  0  0  0
    4.3451   -0.6670   -4.3975 N   0  0  0  0  0  0  0  0  0  0  0  0
    3.8564   -0.3189   -5.2197 H   0  0  0  0  0  0  0  0  0  0  0  0
    5.3617   -0.6096   -4.3862 H   0  0  0  0  0  0  0  0  0  0  0  0
    0.2976   -1.3929    1.3917 C   0  0  0  0  0  0  0  0  0  0  0  0
    1.5164   -1.2478    1.3917 O   0  0  0  0  0  0  0  0  0  0  0  0
   -0.4379   -1.0352    2.5057 N   0  0  0  0  0  0  0  0  0  0  0  0
   -1.4375   -1.2121    2.4709 H   0  0  0  0  0  0  0  0  0  0  0  0
    0.1745   -0.7419    3.7971 C   0  0  0  0  0  0  0  0  0  0  0  0
    0.8808    0.0906    3.7085 H   0  0  0  0  0  0  0  0  0  0  0  0
   -0.5925   -0.4642    4.5269 H   0  0  0  0  0  0  0  0  0  0  0  0
    0.7109   -1.6191    4.1747 H   0  0  0  0  0  0  0  0  0  0  0  0
  1  2  1  0  0  0  0
  2  3  1  0  0  0  0
  2  4  1  0  0  0  0
  2  5  1  0  0  0  0
  5  6  2  0  0  0  0
  5  7  1  0  0  0  0
  7  8  1  0  0  0  0
  7  9  1  0  0  0  0
  9 10  1  0  0  0  0
  9 11  1  0  0  0  0
  9 29  1  0  0  0  0
 11 12  1  0  0  0  0
 11 13  1  0  0  0  0
 11 14  1  0  0  0  0
 14 15  1  0  0  0  0
 14 16  1  0  0  0  0
 14 17  1  0  0  0  0
 17 18  1  0  0  0  0
 17 19  1  0  0  0  0
 17 20  1  0  0  0  0
 20 21  1  0  0  0  0
 20 22  2  0  0  0  0
 22 23  1  0  0  0  0
 22 26  1  0  0  0  0
 23 24  1  0  0  0  0
 23 25  1  0  0  0  0
 26 27  1  0  0  0  0
 26 28  1  0  0  0  0
 29 30  2  0  0  0  0
 29 31  1  0  0  0  0
 31 32  1  0  0  0  0
 31 33  1  0  0  0  0
 33 34  1  0  0  0  0
 33 35  1  0  0  0  0
 33 36  1  0  0  0  0
M  CHG  1  20   1
M  END
$$$$

  -OEChem-04042215563D

 36 35  0     1  0  0  0  0  0999 V2000
   -3.0652   -4.9719    1.8055 H   0  0  0  0  0  0  0  0  0  0  0  0
   -3.1557   -4.0663    1.1985 C   0  0  0  0  0  0  0  0  0  0  0  0
   -3.6923   -3.3097    1.7759 H   0  0  0  0  0  0  0  0  0  0  0  0
   -3.7285   -4.3039    0.2988 H   0  0  0  0  0  0  0  0  0  0  0  0
   -1.7792   -3.5548    0.8196 C   0  0  0  0  0  0  0  0  0  0  0  0
   -0.7801   -4.1647    1.1594 O   0  0  0  0  0  0  0  0  0  0  0  0
   -1.6428   -2.4006    0.0700 N   0  0  0  0  0  0  0  0  0  0  0  0
   -2.4964   -1.9309   -0.2216 H   0  0  0  0  0  0  0  0  0  0  0  0
   -0.3393   -1.8492   -0.3386 C   0  0  1  0  0  0  0  0  0  0  0  0
    0.1642   -2.6648   -0.8582 H   0  0  0  0  0  0  0  0  0  0  0  0
   -0.5496   -0.6544   -1.3006 C   0  0  0  0  0  0  0  0  0  0  0  0
   -1.5733   -0.2759   -1.2089 H   0  0  0  0  0  0  0  0  0  0  0  0
    0.1113    0.1632   -0.9916 H   0  0  0  0  0  0  0  0  0  0  0  0
   -0.2524   -0.9447   -2.7878 C   0  0  0  0  0  0  0  0  0  0  0  0
   -1.0780   -1.5518   -3.1748 H   0  0  0  0  0  0  0  0  0  0  0  0
   -0.2575   -0.0044   -3.3495 H   0  0  0  0  0  0  0  0  0  0  0  0
    1.0499   -1.7158   -3.0717 C   0  0  0  0  0  0  0  0  0  0  0  0
    1.1419   -2.5935   -2.4281 H   0  0  0  0  0  0  0  0  0  0  0  0
    1.0158   -2.0814   -4.1041 H   0  0  0  0  0  0  0  0  0  0  0  0
    2.2196   -0.8240   -2.9261 N   0  3  0  0  0  0  0  0  0  0  0  0
    2.2045    0.0356   -3.4714 H   0  0  0  0  0  0  0  0  0  0  0  0
    3.3205   -1.1415   -2.3031 C   0  0  0  0  0  0  0  0  0  0  0  0
    3.4407   -2.2753   -1.5372 N   0  0  0  0  0  0  0  0  0  0  0  0
    2.6018   -2.5072   -0.9997 H   0  0  0  0  0  0  0  0  0  0  0  0
    4.3067   -2.3728   -1.0141 H   0  0  0  0  0  0  0  0  0  0  0  0
    4.4169   -0.3205   -2.4217 N   0  0  0  0  0  0  0  0  0  0  0  0
    4.4078    0.4272   -3.1115 H   0  0  0  0  0  0  0  0  0  0  0  0
    5.3153   -0.6462   -2.0704 H   0  0  0  0  0  0  0  0  0  0  0  0
    0.6051   -1.4726    0.8211 C   0  0  0  0  0  0  0  0  0  0  0  0
    1.8121   -1.5929    0.6387 O   0  0  0  0  0  0  0  0  0  0  0  0
    0.1396   -0.7793    1.9217 N   0  0  0  0  0  0  0  0  0  0  0  0
   -0.8671   -0.7699    2.0609 H   0  0  0  0  0  0  0  0  0  0  0  0
    0.9973   -0.3948    3.0372 C   0  0  0  0  0  0  0  0  0  0  0  0
    1.8084    0.2556    2.6933 H   0  0  0  0  0  0  0  0  0  0  0  0
    0.4185    0.1486    3.7906 H   0  0  0  0  0  0  0  0  0  0  0  0
    1.4331   -1.2821    3.5091 H   0  0  0  0  0  0  0  0  0  0  0  0
  1  2  1  0  0  0  0
  2  3  1  0  0  0  0
  2  4  1  0  0  0  0
  2  5  1  0  0  0  0
  5  6  2  0  0  0  0
  5  7  1  0  0  0  0
  7  8  1  0  0  0  0
  7  9  1  0  0  0  0
  9 10  1  0  0  0  0
  9 11  1  0  0  0  0
  9 29  1  0  0  0  0
 11 12  1  0  0  0  0
 11 13  1  0  0  0  0
 11 14  1  0  0  0  0
 14 15  1  0  0  0  0
 14 16  1  0  0  0  0
 14 17  1  0  0  0  0
 17 18  1  0  0  0  0
 17 19  1  0  0  0  0
 17 20  1  0  0  0  0
 20 21  1  0  0  0  0
 20 22  2  0  0  0  0
 22 23  1  0  0  0  0
 22 26  1  0  0  0  0
 23 24  1  0  0  0  0
 23 25  1  0  0  0  0
 26 27  1  0  0  0  0
 26 28  1  0  0  0  0
 29 30  2  0  0  0  0
 29 31  1  0  0  0  0
 31 32  1  0  0  0  0
 31 33  1  0  0  0  0
 33 34  1  0  0  0  0
 33 35  1  0  0  0  0
 33 36  1  0  0  0  0
M  CHG  1  20   1
M  END
$$$$

  -OEChem-04042215563D

 36 35  0     1  0  0  0  0  0999 V2000
   -2.6215   -5.0546    2.0073 H   0  0  0  0  0  0  0  0  0  0  0  0
   -2.8393   -4.1635    1.4113 C   0  0  0  0  0  0  0  0  0  0  0  0
   -3.3911   -3.4538    2.0321 H   0  0  0  0  0  0  0  0  0  0  0  0
   -3.4608   -4.4542    0.5609 H   0  0  0  0  0  0  0  0  0  0  0  0
   -1.5480   -3.5360    0.9224 C   0  0  0  0  0  0  0  0  0  0  0  0
   -0.4736   -4.0528    1.1791 O   0  0  0  0  0  0  0  0  0  0  0  0
   -1.5721   -2.3774    0.1677 N   0  0  0  0  0  0  0  0  0  0  0  0
   -2.4830   -1.9784   -0.0469 H   0  0  0  0  0  0  0  0  0  0  0  0
   -0.3562   -1.7089   -0.3248 C   0  0  1  0  0  0  0  0  0  0  0  0
    0.1809   -2.4912   -0.8633 H   0  0  0  0  0  0  0  0  0  0  0  0
   -0.7136   -0.5467   -1.2893 C   0  0  0  0  0  0  0  0  0  0  0  0
   -1.7570   -0.2499   -1.1385 H   0  0  0  0  0  0  0  0  0  0  0  0
   -0.1101    0.3258   -1.0138 H   0  0  0  0  0  0  0  0  0  0  0  0
   -0.4789   -0.7909   -2.8033 C   0  0  0  0  0  0  0  0  0  0  0  0
   -1.3995   -1.2035   -3.2303 H   0  0  0  0  0  0  0  0  0  0  0  0
   -0.3094    0.1777   -3.2866 H   0  0  0  0  0  0  0  0  0  0  0  0
    0.6675   -1.7452   -3.1830 C   0  0  0  0  0  0  0  0  0  0  0  0
    0.3701   -2.7742   -2.9514 H   0  0  0  0  0  0  0  0  0  0  0  0
    0.8472   -1.6758   -4.2613 H   0  0  0  0  0  0  0  0  0  0  0  0
    1.8937   -1.4039   -2.4356 N   0  3  0  0  0  0  0  0  0  0  0  0
    1.7772   -0.8013   -1.6163 H   0  0  0  0  0  0  0  0  0  0  0  0
    2.9852   -2.1058   -2.4735 C   0  0  0  0  0  0  0  0  0  0  0  0
    3.2358   -3.0266   -3.4640 N   0  0  0  0  0  0  0  0  0  0  0  0
    2.6473   -2.9961   -4.2933 H   0  0  0  0  0  0  0  0  0  0  0  0
    4.1863   -3.3759   -3.5657 H   0  0  0  0  0  0  0  0  0  0  0  0
    3.8970   -1.9241   -1.4645 N   0  0  0  0  0  0  0  0  0  0  0  0
    3.5266   -1.5023   -0.6054 H   0  0  0  0  0  0  0  0  0  0  0  0
    4.6170   -2.6326   -1.3479 H   0  0  0  0  0  0  0  0  0  0  0  0
    0.6408   -1.2311    0.7560 C   0  0  0  0  0  0  0  0  0  0  0  0
    1.8293   -1.1557    0.4443 O   0  0  0  0  0  0  0  0  0  0  0  0
    0.1945   -0.5730    1.8853 N   0  0  0  0  0  0  0  0  0  0  0  0
   -0.7892   -0.6805    2.1180 H   0  0  0  0  0  0  0  0  0  0  0  0
    1.0907   -0.0242    2.8978 C   0  0  0  0  0  0  0  0  0  0  0  0
    1.7489    0.7342    2.4609 H   0  0  0  0  0  0  0  0  0  0  0  0
    0.5132    0.4456    3.7004 H   0  0  0  0  0  0  0  0  0  0  0  0
    1.7070   -0.8173    3.3347 H   0  0  0  0  0  0  0  0  0  0  0  0
  1  2  1  0  0  0  0
  2  3  1  0  0  0  0
  2  4  1  0  0  0  0
  2  5  1  0  0  0  0
  5  6  2  0  0  0  0
  5  7  1  0  0  0  0
  7  8  1  0  0  0  0
  7  9  1  0  0  0  0
  9 10  1  0  0  0  0
  9 11  1  0  0  0  0
  9 29  1  0  0  0  0
 11 12  1  0  0  0  0
 11 13  1  0  0  0  0
 11 14  1  0  0  0  0
 14 15  1  0  0  0  0
 14 16  1  0  0  0  0
 14 17  1  0  0  0  0
 17 18  1  0  0  0  0
 17 19  1  0  0  0  0
 17 20  1  0  0  0  0
 20 21  1  0  0  0  0
 20 22  2  0  0  0  0
 22 23  1  0  0  0  0
 22 26  1  0  0  0  0
 23 24  1  0  0  0  0
 23 25  1  0  0  0  0
 26 27  1  0  0  0  0
 26 28  1  0  0  0  0
 29 30  2  0  0  0  0
 29 31  1  0  0  0  0
 31 32  1  0  0  0  0
 31 33  1  0  0  0  0
 33 34  1  0  0  0  0
 33 35  1  0  0  0  0
 33 36  1  0  0  0  0
M  CHG  1  20   1
M  END
$$$$

  -OEChem-04042215563D

 36 35  0     1  0  0  0  0  0999 V2000
   -2.4951   -5.2417    1.7791 H   0  0  0  0  0  0  0  0  0  0  0  0
   -2.7479   -4.2746    1.3345 C   0  0  0  0  0  0  0  0  0  0  0  0
   -3.1882   -3.6389    2.1064 H   0  0  0  0  0  0  0  0  0  0  0  0
   -3.4820   -4.4352    0.5411 H   0  0  0  0  0  0  0  0  0  0  0  0
   -1.5023   -3.6207    0.7682 C   0  0  0  0  0  0  0  0  0  0  0  0
   -0.4182   -4.1732    0.8610 O   0  0  0  0  0  0  0  0  0  0  0  0
   -1.5798   -2.3996    0.1234 N   0  0  0  0  0  0  0  0  0  0  0  0
   -2.4922   -1.9515    0.0795 H   0  0  0  0  0  0  0  0  0  0  0  0
   -0.3948   -1.6719   -0.3586 C   0  0  1  0  0  0  0  0  0  0  0  0
    0.1178   -2.4261   -0.9506 H   0  0  0  0  0  0  0  0  0  0  0  0
   -0.7938   -0.4704   -1.2592 C   0  0  0  0  0  0  0  0  0  0  0  0
   -1.8421   -0.2139   -1.0729 H   0  0  0  0  0  0  0  0  0  0  0  0
   -0.2115    0.4008   -0.9373 H   0  0  0  0  0  0  0  0  0  0  0  0
   -0.5857   -0.6004   -2.7949 C   0  0  0  0  0  0  0  0  0  0  0  0
   -1.5690   -0.7493   -3.2542 H   0  0  0  0  0  0  0  0  0  0  0  0
   -0.2011    0.3518   -3.1775 H   0  0  0  0  0  0  0  0  0  0  0  0
    0.3201   -1.7382   -3.2934 C   0  0  0  0  0  0  0  0  0  0  0  0
   -0.1298   -2.7033   -3.0346 H   0  0  0  0  0  0  0  0  0  0  0  0
    0.4055   -1.6783   -4.3840 H   0  0  0  0  0  0  0  0  0  0  0  0
    1.6545   -1.6092   -2.6699 N   0  3  0  0  0  0  0  0  0  0  0  0
    1.7600   -0.8715   -1.9692 H   0  0  0  0  0  0  0  0  0  0  0  0
    2.5179   -2.5789   -2.6181 C   0  0  0  0  0  0  0  0  0  0  0  0
    2.4459   -3.6709   -3.4513 N   0  0  0  0  0  0  0  0  0  0  0  0
    1.8357   -3.6038   -4.2626 H   0  0  0  0  0  0  0  0  0  0  0  0
    3.2563   -4.2837   -3.5120 H   0  0  0  0  0  0  0  0  0  0  0  0
    3.5097   -2.5116   -1.6723 N   0  0  0  0  0  0  0  0  0  0  0  0
    3.3078   -1.9104   -0.8656 H   0  0  0  0  0  0  0  0  0  0  0  0
    4.0221   -3.3673   -1.4743 H   0  0  0  0  0  0  0  0  0  0  0  0
    0.6644   -1.2613    0.6854 C   0  0  0  0  0  0  0  0  0  0  0  0
    1.8349   -1.2013    0.3091 O   0  0  0  0  0  0  0  0  0  0  0  0
    0.2970   -0.6986    1.8917 N   0  0  0  0  0  0  0  0  0  0  0  0
   -0.6781   -0.7841    2.1658 H   0  0  0  0  0  0  0  0  0  0  0  0
    1.2592   -0.2131    2.8752 C   0  0  0  0  0  0  0  0  0  0  0  0
    1.8711    0.5906    2.4520 H   0  0  0  0  0  0  0  0  0  0  0  0
    0.7376    0.1799    3.7535 H   0  0  0  0  0  0  0  0  0  0  0  0
    1.9188   -1.0247    3.2004 H   0  0  0  0  0  0  0  0  0  0  0  0
  1  2  1  0  0  0  0
  2  3  1  0  0  0  0
  2  4  1  0  0  0  0
  2  5  1  0  0  0  0
  5  6  2  0  0  0  0
  5  7  1  0  0  0  0
  7  8  1  0  0  0  0
  7  9  1  0  0  0  0
  9 10  1  0  0  0  0
  9 11  1  0  0  0  0
  9 29  1  0  0  0  0
 11 12  1  0  0  0  0
 11 13  1  0  0  0  0
 11 14  1  0  0  0  0
 14 15  1  0  0  0  0
 14 16  1  0  0  0  0
 14 17  1  0  0  0  0
 17 18  1  0  0  0  0
 17 19  1  0  0  0  0
 17 20  1  0  0  0  0
 20 21  1  0  0  0  0
 20 22  2  0  0  0  0
 22 23  1  0  0  0  0
 22 26  1  0  0  0  0
 23 24  1  0  0  0  0
 23 25  1  0  0  0  0
 26 27  1  0  0  0  0
 26 28  1  0  0  0  0
 29 30  2  0  0  0  0
 29 31  1  0  0  0  0
 31 32  1  0  0  0  0
 31 33  1  0  0  0  0
 33 34  1  0  0  0  0
 33 35  1  0  0  0  0
 33 36  1  0  0  0  0
M  CHG  1  20   1
M  END
$$$$

  -OEChem-04042215563D

 36 35  0     1  0  0  0  0  0999 V2000
   -3.3590   -5.1600    1.4584 H   0  0  0  0  0  0  0  0  0  0  0  0
   -3.4077   -4.1451    1.0526 C   0  0  0  0  0  0  0  0  0  0  0  0
   -3.7983   -3.4778    1.8246 H   0  0  0  0  0  0  0  0  0  0  0  0
   -4.0889   -4.1419    0.1982 H   0  0  0  0  0  0  0  0  0  0  0  0
   -2.0266   -3.6916    0.6201 C   0  0  0  0  0  0  0  0  0  0  0  0
   -1.0681   -4.4365    0.7326 O   0  0  0  0  0  0  0  0  0  0  0  0
   -1.8383   -2.4361    0.0718 N   0  0  0  0  0  0  0  0  0  0  0  0
   -2.6519   -1.8286    0.0109 H   0  0  0  0  0  0  0  0  0  0  0  0
   -0.5100   -1.8990   -0.2687 C   0  0  1  0  0  0  0  0  0  0  0  0
   -0.0524   -2.6556   -0.8978 H   0  0  0  0  0  0  0  0  0  0  0  0
   -0.6434   -0.5598   -1.0352 C   0  0  0  0  0  0  0  0  0  0  0  0
   -1.6424   -0.1481   -0.8549 H   0  0  0  0  0  0  0  0  0  0  0  0
    0.0569    0.1582   -0.5927 H   0  0  0  0  0  0  0  0  0  0  0  0
   -0.3814   -0.5453   -2.5659 C   0  0  0  0  0  0  0  0  0  0  0  0
   -1.3054   -0.1969   -3.0401 H   0  0  0  0  0  0  0  0  0  0  0  0
    0.3742    0.2198   -2.7777 H   0  0  0  0  0  0  0  0  0  0  0  0
    0.0069   -1.8554   -3.2816 C   0  0  0  0  0  0  0  0  0  0  0  0
   -0.1839   -2.7426   -2.6762 H   0  0  0  0  0  0  0  0  0  0  0  0
   -0.6357   -1.9540   -4.1637 H   0  0  0  0  0  0  0  0  0  0  0  0
    1.4119   -1.8131   -3.7455 N   0  3  0  0  0  0  0  0  0  0  0  0
    1.5655   -1.3744   -4.6522 H   0  0  0  0  0  0  0  0  0  0  0  0
    2.4331   -2.3861   -3.1688 C   0  0  0  0  0  0  0  0  0  0  0  0
    2.3801   -2.9961   -1.9389 N   0  0  0  0  0  0  0  0  0  0  0  0
    1.7119   -2.6217   -1.2636 H   0  0  0  0  0  0  0  0  0  0  0  0
    3.2598   -3.3079   -1.5345 H   0  0  0  0  0  0  0  0  0  0  0  0
    3.6385   -2.3976   -3.8294 N   0  0  0  0  0  0  0  0  0  0  0  0
    3.6624   -2.1386   -4.8132 H   0  0  0  0  0  0  0  0  0  0  0  0
    4.3787   -3.0008   -3.4754 H   0  0  0  0  0  0  0  0  0  0  0  0
    0.4857   -1.7694    0.9006 C   0  0  0  0  0  0  0  0  0  0  0  0
    1.6722   -1.9340    0.6374 O   0  0  0  0  0  0  0  0  0  0  0  0
    0.1056   -1.2430    2.1197 N   0  0  0  0  0  0  0  0  0  0  0  0
   -0.8910   -1.1642    2.3003 H   0  0  0  0  0  0  0  0  0  0  0  0
    1.0337   -1.0574    3.2299 C   0  0  0  0  0  0  0  0  0  0  0  0
    1.8548   -0.3936    2.9396 H   0  0  0  0  0  0  0  0  0  0  0  0
    0.5175   -0.6091    4.0844 H   0  0  0  0  0  0  0  0  0  0  0  0
    1.4531   -2.0190    3.5445 H   0  0  0  0  0  0  0  0  0  0  0  0
  1  2  1  0  0  0  0
  2  3  1  0  0  0  0
  2  4  1  0  0  0  0
  2  5  1  0  0  0  0
  5  6  2  0  0  0  0
  5  7  1  0  0  0  0
  7  8  1  0  0  0  0
  7  9  1  0  0  0  0
  9 10  1  0  0  0  0
  9 11  1  0  0  0  0
  9 29  1  0  0  0  0
 11 12  1  0  0  0  0
 11 13  1  0  0  0  0
 11 14  1  0  0  0  0
 14 15  1  0  0  0  0
 14 16  1  0  0  0  0
 14 17  1  0  0  0  0
 17 18  1  0  0  0  0
 17 19  1  0  0  0  0
 17 20  1  0  0  0  0
 20 21  1  0  0  0  0
 20 22  2  0  0  0  0
 22 23  1  0  0  0  0
 22 26  1  0  0  0  0
 23 24  1  0  0  0  0
 23 25  1  0  0  0  0
 26 27  1  0  0  0  0
 26 28  1  0  0  0  0
 29 30  2  0  0  0  0
 29 31  1  0  0  0  0
 31 32  1  0  0  0  0
 31 33  1  0  0  0  0
 33 34  1  0  0  0  0
 33 35  1  0  0  0  0
 33 36  1  0  0  0  0
M  CHG  1  20   1
M  END
$$$$

  -OEChem-04042215563D

 36 35  0     1  0  0  0  0  0999 V2000
   -3.5335   -5.1565    1.3072 H   0  0  0  0  0  0  0  0  0  0  0  0
   -3.5450   -4.1114    0.9844 C   0  0  0  0  0  0  0  0  0  0  0  0
   -3.8786   -3.4910    1.8196 H   0  0  0  0  0  0  0  0  0  0  0  0
   -4.2509   -4.0084    0.1569 H   0  0  0  0  0  0  0  0  0  0  0  0
   -2.1576   -3.6885    0.5413 C   0  0  0  0  0  0  0  0  0  0  0  0
   -1.2287   -4.4767    0.5847 O   0  0  0  0  0  0  0  0  0  0  0  0
   -1.9323   -2.4126    0.0579 N   0  0  0  0  0  0  0  0  0  0  0  0
   -2.7185   -1.7672    0.0717 H   0  0  0  0  0  0  0  0  0  0  0  0
   -0.5877   -1.8996   -0.2547 C   0  0  1  0  0  0  0  0  0  0  0  0
   -0.1448   -2.6450   -0.9091 H   0  0  0  0  0  0  0  0  0  0  0  0
   -0.6620   -0.5295   -0.9737 C   0  0  0  0  0  0  0  0  0  0  0  0
   -1.6625   -0.1145   -0.8119 H   0  0  0  0  0  0  0  0  0  0  0  0
    0.0324    0.1694   -0.4927 H   0  0  0  0  0  0  0  0  0  0  0  0
   -0.3762   -0.4915   -2.4976 C   0  0  0  0  0  0  0  0  0  0  0  0
   -1.1062    0.1786   -2.9653 H   0  0  0  0  0  0  0  0  0  0  0  0
    0.6022   -0.0159   -2.6299 H   0  0  0  0  0  0  0  0  0  0  0  0
   -0.3846   -1.8220   -3.2765 C   0  0  0  0  0  0  0  0  0  0  0  0
   -0.5927   -2.6818   -2.6383 H   0  0  0  0  0  0  0  0  0  0  0  0
   -1.2084   -1.7815   -3.9974 H   0  0  0  0  0  0  0  0  0  0  0  0
    0.8793   -2.0317   -4.0161 N   0  3  0  0  0  0  0  0  0  0  0  0
    0.8460   -1.8478   -5.0178 H   0  0  0  0  0  0  0  0  0  0  0  0
    1.9851   -2.5169   -3.5178 C   0  0  0  0  0  0  0  0  0  0  0  0
    2.1741   -2.7918   -2.1825 N   0  0  0  0  0  0  0  0  0  0  0  0
    1.5564   -2.3597   -1.4948 H   0  0  0  0  0  0  0  0  0  0  0  0
    3.1116   -3.0190   -1.8586 H   0  0  0  0  0  0  0  0  0  0  0  0
    3.0316   -2.7782   -4.3699 N   0  0  0  0  0  0  0  0  0  0  0  0
    2.8573   -2.7816   -5.3726 H   0  0  0  0  0  0  0  0  0  0  0  0
    3.8071   -3.3381   -4.0200 H   0  0  0  0  0  0  0  0  0  0  0  0
    0.4236   -1.8517    0.9055 C   0  0  0  0  0  0  0  0  0  0  0  0
    1.6040   -2.0013    0.6067 O   0  0  0  0  0  0  0  0  0  0  0  0
    0.0720   -1.3727    2.1525 N   0  0  0  0  0  0  0  0  0  0  0  0
   -0.9198   -1.2942    2.3574 H   0  0  0  0  0  0  0  0  0  0  0  0
    1.0245   -1.2391    3.2494 C   0  0  0  0  0  0  0  0  0  0  0  0
    1.8517   -0.5807    2.9637 H   0  0  0  0  0  0  0  0  0  0  0  0
    0.5337   -0.8095    4.1284 H   0  0  0  0  0  0  0  0  0  0  0  0
    1.4323   -2.2177    3.5241 H   0  0  0  0  0  0  0  0  0  0  0  0
  1  2  1  0  0  0  0
  2  3  1  0  0  0  0
  2  4  1  0  0  0  0
  2  5  1  0  0  0  0
  5  6  2  0  0  0  0
  5  7  1  0  0  0  0
  7  8  1  0  0  0  0
  7  9  1  0  0  0  0
  9 10  1  0  0  0  0
  9 11  1  0  0  0  0
  9 29  1  0  0  0  0
 11 12  1  0  0  0  0
 11 13  1  0  0  0  0
 11 14  1  0  0  0  0
 14 15  1  0  0  0  0
 14 16  1  0  0  0  0
 14 17  1  0  0  0  0
 17 18  1  0  0  0  0
 17 19  1  0  0  0  0
 17 20  1  0  0  0  0
 20 21  1  0  0  0  0
 20 22  2  0  0  0  0
 22 23  1  0  0  0  0
 22 26  1  0  0  0  0
 23 24  1  0  0  0  0
 23 25  1  0  0  0  0
 26 27  1  0  0  0  0
 26 28  1  0  0  0  0
 29 30  2  0  0  0  0
 29 31  1  0  0  0  0
 31 32  1  0  0  0  0
 31 33  1  0  0  0  0
 33 34  1  0  0  0  0
 33 35  1  0  0  0  0
 33 36  1  0  0  0  0
M  CHG  1  20   1
M  END
$$$$

  -OEChem-04042215563D

 36 35  0     1  0  0  0  0  0999 V2000
   -3.6193   -5.1779    1.0288 H   0  0  0  0  0  0  0  0  0  0  0  0
   -3.6289   -4.1087    0.7971 C   0  0  0  0  0  0  0  0  0  0  0  0
   -3.9235   -3.5593    1.6945 H   0  0  0  0  0  0  0  0  0  0  0  0
   -4.3629   -3.9272    0.0083 H   0  0  0  0  0  0  0  0  0  0  0  0
   -2.2530   -3.6627    0.3415 C   0  0  0  0  0  0  0  0  0  0  0  0
   -1.3402   -4.4662    0.2546 O   0  0  0  0  0  0  0  0  0  0  0  0
   -2.0222   -2.3446   -0.0066 N   0  0  0  0  0  0  0  0  0  0  0  0
   -2.7886   -1.6920    0.1413 H   0  0  0  0  0  0  0  0  0  0  0  0
   -0.6714   -1.8116   -0.2517 C   0  0  1  0  0  0  0  0  0  0  0  0
   -0.2332   -2.5078   -0.9617 H   0  0  0  0  0  0  0  0  0  0  0  0
   -0.7222   -0.4048   -0.8935 C   0  0  0  0  0  0  0  0  0  0  0  0
   -1.7311   -0.0004   -0.7583 H   0  0  0  0  0  0  0  0  0  0  0  0
   -0.0460    0.2721   -0.3586 H   0  0  0  0  0  0  0  0  0  0  0  0
   -0.3796   -0.3364   -2.4003 C   0  0  0  0  0  0  0  0  0  0  0  0
   -0.8768    0.5357   -2.8388 H   0  0  0  0  0  0  0  0  0  0  0  0
    0.6965   -0.1442   -2.4696 H   0  0  0  0  0  0  0  0  0  0  0  0
   -0.7186   -1.5782   -3.2469 C   0  0  0  0  0  0  0  0  0  0  0  0
   -0.9741   -2.4409   -2.6274 H   0  0  0  0  0  0  0  0  0  0  0  0
   -1.6122   -1.3557   -3.8409 H   0  0  0  0  0  0  0  0  0  0  0  0
    0.3962   -1.9324   -4.1528 N   0  3  0  0  0  0  0  0  0  0  0  0
    0.2496   -1.7375   -5.1424 H   0  0  0  0  0  0  0  0  0  0  0  0
    1.4989   -2.5395   -3.7986 C   0  0  0  0  0  0  0  0  0  0  0  0
    1.8292   -2.8373   -2.4939 N   0  0  0  0  0  0  0  0  0  0  0  0
    1.3271   -2.3752   -1.7364 H   0  0  0  0  0  0  0  0  0  0  0  0
    2.7719   -3.1594   -2.2855 H   0  0  0  0  0  0  0  0  0  0  0  0
    2.3944   -2.9037   -4.7755 N   0  0  0  0  0  0  0  0  0  0  0  0
    2.0936   -2.8830   -5.7475 H   0  0  0  0  0  0  0  0  0  0  0  0
    3.1452   -3.5441   -4.5235 H   0  0  0  0  0  0  0  0  0  0  0  0
    0.3500   -1.8745    0.8969 C   0  0  0  0  0  0  0  0  0  0  0  0
    1.5217   -2.0375    0.5719 O   0  0  0  0  0  0  0  0  0  0  0  0
    0.0190   -1.5181    2.1898 N   0  0  0  0  0  0  0  0  0  0  0  0
   -0.9672   -1.4164    2.4108 H   0  0  0  0  0  0  0  0  0  0  0  0
    0.9868   -1.5086    3.2816 C   0  0  0  0  0  0  0  0  0  0  0  0
    1.7975   -0.8029    3.0710 H   0  0  0  0  0  0  0  0  0  0  0  0
    0.5027   -1.2063    4.2155 H   0  0  0  0  0  0  0  0  0  0  0  0
    1.4161   -2.5065    3.4223 H   0  0  0  0  0  0  0  0  0  0  0  0
  1  2  1  0  0  0  0
  2  3  1  0  0  0  0
  2  4  1  0  0  0  0
  2  5  1  0  0  0  0
  5  6  2  0  0  0  0
  5  7  1  0  0  0  0
  7  8  1  0  0  0  0
  7  9  1  0  0  0  0
  9 10  1  0  0  0  0
  9 11  1  0  0  0  0
  9 29  1  0  0  0  0
 11 12  1  0  0  0  0
 11 13  1  0  0  0  0
 11 14  1  0  0  0  0
 14 15  1  0  0  0  0
 14 16  1  0  0  0  0
 14 17  1  0  0  0  0
 17 18  1  0  0  0  0
 17 19  1  0  0  0  0
 17 20  1  0  0  0  0
 20 21  1  0  0  0  0
 20 22  2  0  0  0  0
 22 23  1  0  0  0  0
 22 26  1  0  0  0  0
 23 24  1  0  0  0  0
 23 25  1  0  0  0  0
 26 27  1  0  0  0  0
 26 28  1  0  0  0  0
 29 30  2  0  0  0  0
 29 31  1  0  0  0  0
 31 32  1  0  0  0  0
 31 33  1  0  0  0  0
 33 34  1  0  0  0  0
 33 35  1  0  0  0  0
 33 36  1  0  0  0  0
M  CHG  1  20   1
M  END
$$$$

  -OEChem-04042215563D

 36 35  0     1  0  0  0  0  0999 V2000
   -2.8870   -5.4220    0.5585 H   0  0  0  0  0  0  0  0  0  0  0  0
   -3.0496   -4.3418    0.4999 C   0  0  0  0  0  0  0  0  0  0  0  0
   -3.2538   -3.9651    1.5052 H   0  0  0  0  0  0  0  0  0  0  0  0
   -3.9173   -4.1515   -0.1364 H   0  0  0  0  0  0  0  0  0  0  0  0
   -1.8221   -3.6605   -0.0725 C   0  0  0  0  0  0  0  0  0  0  0  0
   -0.8877   -4.3153   -0.5060 O   0  0  0  0  0  0  0  0  0  0  0  0
   -1.7963   -2.2945   -0.2724 N   0  0  0  0  0  0  0  0  0  0  0  0
   -2.6019   -1.7918    0.0942 H   0  0  0  0  0  0  0  0  0  0  0  0
   -0.5260   -1.5481   -0.3658 C   0  0  1  0  0  0  0  0  0  0  0  0
    0.0913   -2.0218   -1.1314 H   0  0  0  0  0  0  0  0  0  0  0  0
   -0.8109   -0.1007   -0.8141 C   0  0  0  0  0  0  0  0  0  0  0  0
   -1.8722    0.1304   -0.6731 H   0  0  0  0  0  0  0  0  0  0  0  0
   -0.2465    0.6009   -0.1890 H   0  0  0  0  0  0  0  0  0  0  0  0
   -0.4317    0.1467   -2.2883 C   0  0  0  0  0  0  0  0  0  0  0  0
   -0.8595    1.1019   -2.6123 H   0  0  0  0  0  0  0  0  0  0  0  0
    0.6580    0.2497   -2.3435 H   0  0  0  0  0  0  0  0  0  0  0  0
   -0.8975   -0.9676   -3.2465 C   0  0  0  0  0  0  0  0  0  0  0  0
   -1.4173   -1.7535   -2.6908 H   0  0  0  0  0  0  0  0  0  0  0  0
   -1.6171   -0.5468   -3.9577 H   0  0  0  0  0  0  0  0  0  0  0  0
    0.2546   -1.5264   -3.9850 N   0  3  0  0  0  0  0  0  0  0  0  0
    0.7486   -0.8857   -4.6045 H   0  0  0  0  0  0  0  0  0  0  0  0
    0.6368   -2.7737   -3.9525 C   0  0  0  0  0  0  0  0  0  0  0  0
    0.0163   -3.7383   -3.1920 N   0  0  0  0  0  0  0  0  0  0  0  0
   -0.5464   -3.4395   -2.3938 H   0  0  0  0  0  0  0  0  0  0  0  0
    0.4709   -4.6437   -3.0981 H   0  0  0  0  0  0  0  0  0  0  0  0
    1.7041   -3.1584   -4.7288 N   0  0  0  0  0  0  0  0  0  0  0  0
    2.2909   -2.4450   -5.1559 H   0  0  0  0  0  0  0  0  0  0  0  0
    2.0928   -4.0908   -4.6011 H   0  0  0  0  0  0  0  0  0  0  0  0
    0.3736   -1.6309    0.8854 C   0  0  0  0  0  0  0  0  0  0  0  0
    1.5808   -1.7392    0.7280 O   0  0  0  0  0  0  0  0  0  0  0  0
   -0.1471   -1.4806    2.1581 N   0  0  0  0  0  0  0  0  0  0  0  0
   -1.1462   -1.3293    2.2521 H   0  0  0  0  0  0  0  0  0  0  0  0
    0.6800   -1.4852    3.3609 C   0  0  0  0  0  0  0  0  0  0  0  0
    1.4217   -0.6801    3.3204 H   0  0  0  0  0  0  0  0  0  0  0  0
    0.0599   -1.3375    4.2507 H   0  0  0  0  0  0  0  0  0  0  0  0
    1.2052   -2.4413    3.4620 H   0  0  0  0  0  0  0  0  0  0  0  0
  1  2  1  0  0  0  0
  2  3  1  0  0  0  0
  2  4  1  0  0  0  0
  2  5  1  0  0  0  0
  5  6  2  0  0  0  0
  5  7  1  0  0  0  0
  7  8  1  0  0  0  0
  7  9  1  0  0  0  0
  9 10  1  0  0  0  0
  9 11  1  0  0  0  0
  9 29  1  0  0  0  0
 11 12  1  0  0  0  0
 11 13  1  0  0  0  0
 11 14  1  0  0  0  0
 14 15  1  0  0  0  0
 14 16  1  0  0  0  0
 14 17  1  0  0  0  0
 17 18  1  0  0  0  0
 17 19  1  0  0  0  0
 17 20  1  0  0  0  0
 20 21  1  0  0  0  0
 20 22  2  0  0  0  0
 22 23  1  0  0  0  0
 22 26  1  0  0  0  0
 23 24  1  0  0  0  0
 23 25  1  0  0  0  0
 26 27  1  0  0  0  0
 26 28  1  0  0  0  0
 29 30  2  0  0  0  0
 29 31  1  0  0  0  0
 31 32  1  0  0  0  0
 31 33  1  0  0  0  0
 33 34  1  0  0  0  0
 33 35  1  0  0  0  0
 33 36  1  0  0  0  0
M  CHG  1  20   1
M  END
$$$$

  -OEChem-04042215563D

 36 35  0     1  0  0  0  0  0999 V2000
   -3.0266   -5.3346    0.3801 H   0  0  0  0  0  0  0  0  0  0  0  0
   -3.1468   -4.2478    0.4152 C   0  0  0  0  0  0  0  0  0  0  0  0
   -3.2859   -3.9464    1.4564 H   0  0  0  0  0  0  0  0  0  0  0  0
   -4.0358   -3.9744   -0.1584 H   0  0  0  0  0  0  0  0  0  0  0  0
   -1.9203   -3.5690   -0.1631 C   0  0  0  0  0  0  0  0  0  0  0  0
   -1.0158   -4.2231   -0.6572 O   0  0  0  0  0  0  0  0  0  0  0  0
   -1.8644   -2.1963   -0.3031 N   0  0  0  0  0  0  0  0  0  0  0  0
   -2.6537   -1.6976    0.1025 H   0  0  0  0  0  0  0  0  0  0  0  0
   -0.5711   -1.4842   -0.3230 C   0  0  1  0  0  0  0  0  0  0  0  0
    0.0511   -1.9594   -1.0867 H   0  0  0  0  0  0  0  0  0  0  0  0
   -0.7864   -0.0197   -0.7523 C   0  0  0  0  0  0  0  0  0  0  0  0
   -1.8402    0.2633   -0.6569 H   0  0  0  0  0  0  0  0  0  0  0  0
   -0.2112    0.6466   -0.0993 H   0  0  0  0  0  0  0  0  0  0  0  0
   -0.3137    0.1866   -2.2015 C   0  0  0  0  0  0  0  0  0  0  0  0
   -0.4495    1.2352   -2.4877 H   0  0  0  0  0  0  0  0  0  0  0  0
    0.7612   -0.0254   -2.2477 H   0  0  0  0  0  0  0  0  0  0  0  0
   -1.0813   -0.7122   -3.1844 C   0  0  0  0  0  0  0  0  0  0  0  0
   -1.5645   -1.5328   -2.6466 H   0  0  0  0  0  0  0  0  0  0  0  0
   -1.8758   -0.1286   -3.6628 H   0  0  0  0  0  0  0  0  0  0  0  0
   -0.1628   -1.2536   -4.2052 N   0  3  0  0  0  0  0  0  0  0  0  0
    0.1905   -0.5946   -4.8977 H   0  0  0  0  0  0  0  0  0  0  0  0
    0.2392   -2.4944   -4.2568 C   0  0  0  0  0  0  0  0  0  0  0  0
   -0.1577   -3.4603   -3.3586 N   0  0  0  0  0  0  0  0  0  0  0  0
   -0.6239   -3.1751   -2.4959 H   0  0  0  0  0  0  0  0  0  0  0  0
    0.3677   -4.3310   -3.3170 H   0  0  0  0  0  0  0  0  0  0  0  0
    1.1034   -2.8713   -5.2565 N   0  0  0  0  0  0  0  0  0  0  0  0
    1.2662   -2.2362   -6.0349 H   0  0  0  0  0  0  0  0  0  0  0  0
    1.2702   -3.8650   -5.4038 H   0  0  0  0  0  0  0  0  0  0  0  0
    0.2892   -1.6406    0.9484 C   0  0  0  0  0  0  0  0  0  0  0  0
    1.4977   -1.7677    0.8231 O   0  0  0  0  0  0  0  0  0  0  0  0
   -0.2650   -1.5265    2.2105 N   0  0  0  0  0  0  0  0  0  0  0  0
   -1.2599   -1.3406    2.2821 H   0  0  0  0  0  0  0  0  0  0  0  0
    0.5296   -1.5850    3.4336 C   0  0  0  0  0  0  0  0  0  0  0  0
    1.2694   -0.7772    3.4507 H   0  0  0  0  0  0  0  0  0  0  0  0
   -0.1152   -1.4810    4.3118 H   0  0  0  0  0  0  0  0  0  0  0  0
    1.0554   -2.5435    3.5039 H   0  0  0  0  0  0  0  0  0  0  0  0
  1  2  1  0  0  0  0
  2  3  1  0  0  0  0
  2  4  1  0  0  0  0
  2  5  1  0  0  0  0
  5  6  2  0  0  0  0
  5  7  1  0  0  0  0
  7  8  1  0  0  0  0
  7  9  1  0  0  0  0
  9 10  1  0  0  0  0
  9 11  1  0  0  0  0
  9 29  1  0  0  0  0
 11 12  1  0  0  0  0
 11 13  1  0  0  0  0
 11 14  1  0  0  0  0
 14 15  1  0  0  0  0
 14 16  1  0  0  0  0
 14 17  1  0  0  0  0
 17 18  1  0  0  0  0
 17 19  1  0  0  0  0
 17 20  1  0  0  0  0
 20 21  1  0  0  0  0
 20 22  2  0  0  0  0
 22 23  1  0  0  0  0
 22 26  1  0  0  0  0
 23 24  1  0  0  0  0
 23 25  1  0  0  0  0
 26 27  1  0  0  0  0
 26 28  1  0  0  0  0
 29 30  2  0  0  0  0
 29 31  1  0  0  0  0
 31 32  1  0  0  0  0
 31 33  1  0  0  0  0
 33 34  1  0  0  0  0
 33 35  1  0  0  0  0
 33 36  1  0  0  0  0
M  CHG  1  20   1
M  END
$$$$

  -OEChem-04042215563D

 36 35  0     1  0  0  0  0  0999 V2000
   -3.1081   -5.2442    0.1756 H   0  0  0  0  0  0  0  0  0  0  0  0
   -3.1939   -4.1569    0.2618 C   0  0  0  0  0  0  0  0  0  0  0  0
   -3.3251   -3.9007    1.3159 H   0  0  0  0  0  0  0  0  0  0  0  0
   -4.0728   -3.8288   -0.2984 H   0  0  0  0  0  0  0  0  0  0  0  0
   -1.9452   -3.4912   -0.2824 C   0  0  0  0  0  0  0  0  0  0  0  0
   -1.0523   -4.1516   -0.7870 O   0  0  0  0  0  0  0  0  0  0  0  0
   -1.8558   -2.1163   -0.3834 N   0  0  0  0  0  0  0  0  0  0  0  0
   -2.6417   -1.6158    0.0269 H   0  0  0  0  0  0  0  0  0  0  0  0
   -0.5462   -1.4356   -0.3307 C   0  0  1  0  0  0  0  0  0  0  0  0
    0.0939   -1.9017   -1.0861 H   0  0  0  0  0  0  0  0  0  0  0  0
   -0.7277    0.0470   -0.7128 C   0  0  0  0  0  0  0  0  0  0  0  0
   -1.7738    0.3603   -0.6277 H   0  0  0  0  0  0  0  0  0  0  0  0
   -0.1470    0.6712   -0.0239 H   0  0  0  0  0  0  0  0  0  0  0  0
   -0.2019    0.2838   -2.1366 C   0  0  0  0  0  0  0  0  0  0  0  0
   -0.0927    1.3598   -2.3112 H   0  0  0  0  0  0  0  0  0  0  0  0
    0.7957   -0.1586   -2.2424 H   0  0  0  0  0  0  0  0  0  0  0  0
   -1.1843   -0.2860   -3.1658 C   0  0  0  0  0  0  0  0  0  0  0  0
   -1.8070   -1.0570   -2.7003 H   0  0  0  0  0  0  0  0  0  0  0  0
   -1.8552    0.5096   -3.5083 H   0  0  0  0  0  0  0  0  0  0  0  0
   -0.4480   -0.8634   -4.3071 N   0  3  0  0  0  0  0  0  0  0  0  0
   -0.1200   -0.2131   -5.0203 H   0  0  0  0  0  0  0  0  0  0  0  0
   -0.1777   -2.1335   -4.4360 C   0  0  0  0  0  0  0  0  0  0  0  0
   -0.5570   -3.0769   -3.5074 N   0  0  0  0  0  0  0  0  0  0  0  0
   -0.8818   -2.7597   -2.5936 H   0  0  0  0  0  0  0  0  0  0  0  0
   -0.1120   -3.9926   -3.5328 H   0  0  0  0  0  0  0  0  0  0  0  0
    0.5163   -2.5632   -5.5414 N   0  0  0  0  0  0  0  0  0  0  0  0
    0.6443   -1.9240   -6.3231 H   0  0  0  0  0  0  0  0  0  0  0  0
    0.5580   -3.5636   -5.7278 H   0  0  0  0  0  0  0  0  0  0  0  0
    0.2522   -1.6498    0.9730 C   0  0  0  0  0  0  0  0  0  0  0  0
    1.4625   -1.7953    0.9009 O   0  0  0  0  0  0  0  0  0  0  0  0
   -0.3581   -1.5561    2.2110 N   0  0  0  0  0  0  0  0  0  0  0  0
   -1.3509   -1.3500    2.2422 H   0  0  0  0  0  0  0  0  0  0  0  0
    0.3756   -1.6680    3.4680 C   0  0  0  0  0  0  0  0  0  0  0  0
    1.1032   -0.8548    3.5618 H   0  0  0  0  0  0  0  0  0  0  0  0
   -0.3134   -1.6148    4.3166 H   0  0  0  0  0  0  0  0  0  0  0  0
    0.9091   -2.6235    3.5178 H   0  0  0  0  0  0  0  0  0  0  0  0
  1  2  1  0  0  0  0
  2  3  1  0  0  0  0
  2  4  1  0  0  0  0
  2  5  1  0  0  0  0
  5  6  2  0  0  0  0
  5  7  1  0  0  0  0
  7  8  1  0  0  0  0
  7  9  1  0  0  0  0
  9 10  1  0  0  0  0
  9 11  1  0  0  0  0
  9 29  1  0  0  0  0
 11 12  1  0  0  0  0
 11 13  1  0  0  0  0
 11 14  1  0  0  0  0
 14 15  1  0  0  0  0
 14 16  1  0  0  0  0
 14 17  1  0  0  0  0
 17 18  1  0  0  0  0
 17 19  1  0  0  0  0
 17 20  1  0  0  0  0
 20 21  1  0  0  0  0
 20 22  2  0  0  0  0
 22 23  1  0  0  0  0
 22 26  1  0  0  0  0
 23 24  1  0  0  0  0
 23 25  1  0  0  0  0
 26 27  1  0  0  0  0
 26 28  1  0  0  0  0
 29 30  2  0  0  0  0
 29 31  1  0  0  0  0
 31 32  1  0  0  0  0
 31 33  1  0  0  0  0
 33 34  1  0  0  0  0
 33 35  1  0  0  0  0
 33 36  1  0  0  0  0
M  CHG  1  20   1
M  END
$$$$

  -OEChem-04042215563D

 36 35  0     1  0  0  0  0  0999 V2000
   -2.9908   -5.3848    1.1183 H   0  0  0  0  0  0  0  0  0  0  0  0
   -3.1152   -4.3754    0.7151 C   0  0  0  0  0  0  0  0  0  0  0  0
   -3.6897   -3.7832    1.4311 H   0  0  0  0  0  0  0  0  0  0  0  0
   -3.6678   -4.4389   -0.2249 H   0  0  0  0  0  0  0  0  0  0  0  0
   -1.7583   -3.7398    0.4798 C   0  0  0  0  0  0  0  0  0  0  0  0
   -0.7437   -4.3891    0.6533 O   0  0  0  0  0  0  0  0  0  0  0  0
   -1.6683   -2.4311    0.0405 N   0  0  0  0  0  0  0  0  0  0  0  0
   -2.5402   -1.9102    0.0226 H   0  0  0  0  0  0  0  0  0  0  0  0
   -0.4059   -1.6675    0.0887 C   0  0  1  0  0  0  0  0  0  0  0  0
    0.3412   -2.2633   -0.4481 H   0  0  0  0  0  0  0  0  0  0  0  0
   -0.5814   -0.3152   -0.6386 C   0  0  0  0  0  0  0  0  0  0  0  0
   -1.6396   -0.0502   -0.7325 H   0  0  0  0  0  0  0  0  0  0  0  0
   -0.1136    0.4703   -0.0335 H   0  0  0  0  0  0  0  0  0  0  0  0
    0.1058   -0.3118   -2.0148 C   0  0  0  0  0  0  0  0  0  0  0  0
    0.4050    0.7167   -2.2448 H   0  0  0  0  0  0  0  0  0  0  0  0
    1.0214   -0.9138   -1.9905 H   0  0  0  0  0  0  0  0  0  0  0  0
   -0.8372   -0.7932   -3.1146 C   0  0  0  0  0  0  0  0  0  0  0  0
   -1.2119   -1.7892   -2.8528 H   0  0  0  0  0  0  0  0  0  0  0  0
   -1.6877   -0.1069   -3.1929 H   0  0  0  0  0  0  0  0  0  0  0  0
   -0.0961   -0.8466   -4.3888 N   0  3  0  0  0  0  0  0  0  0  0  0
    0.8852   -0.5715   -4.3617 H   0  0  0  0  0  0  0  0  0  0  0  0
   -0.6070   -1.2522   -5.5149 C   0  0  0  0  0  0  0  0  0  0  0  0
   -1.9152   -1.6677   -5.6110 N   0  0  0  0  0  0  0  0  0  0  0  0
   -2.4259   -1.8274   -4.7457 H   0  0  0  0  0  0  0  0  0  0  0  0
   -2.2009   -2.1874   -6.4385 H   0  0  0  0  0  0  0  0  0  0  0  0
    0.1766   -1.2721   -6.6444 N   0  0  0  0  0  0  0  0  0  0  0  0
    1.0910   -0.8243   -6.6185 H   0  0  0  0  0  0  0  0  0  0  0  0
   -0.2721   -1.3940   -7.5505 H   0  0  0  0  0  0  0  0  0  0  0  0
    0.2007   -1.4845    1.4976 C   0  0  0  0  0  0  0  0  0  0  0  0
    1.4162   -1.4129    1.6058 O   0  0  0  0  0  0  0  0  0  0  0  0
   -0.5953   -1.1245    2.5707 N   0  0  0  0  0  0  0  0  0  0  0  0
   -1.5992   -1.2147    2.4599 H   0  0  0  0  0  0  0  0  0  0  0  0
   -0.0568   -0.8617    3.9015 C   0  0  0  0  0  0  0  0  0  0  0  0
    0.6606   -0.0346    3.8696 H   0  0  0  0  0  0  0  0  0  0  0  0
   -0.8621   -0.5913    4.5912 H   0  0  0  0  0  0  0  0  0  0  0  0
    0.4499   -1.7507    4.2921 H   0  0  0  0  0  0  0  0  0  0  0  0
  1  2  1  0  0  0  0
  2  3  1  0  0  0  0
  2  4  1  0  0  0  0
  2  5  1  0  0  0  0
  5  6  2  0  0  0  0
  5  7  1  0  0  0  0
  7  8  1  0  0  0  0
  7  9  1  0  0  0  0
  9 10  1  0  0  0  0
  9 11  1  0  0  0  0
  9 29  1  0  0  0  0
 11 12  1  0  0  0  0
 11 13  1  0  0  0  0
 11 14  1  0  0  0  0
 14 15  1  0  0  0  0
 14 16  1  0  0  0  0
 14 17  1  0  0  0  0
 17 18  1  0  0  0  0
 17 19  1  0  0  0  0
 17 20  1  0  0  0  0
 20 21  1  0  0  0  0
 20 22  2  0  0  0  0
 22 23  1  0  0  0  0
 22 26  1  0  0  0  0
 23 24  1  0  0  0  0
 23 25  1  0  0  0  0
 26 27  1  0  0  0  0
 26 28  1  0  0  0  0
 29 30  2  0  0  0  0
 29 31  1  0  0  0  0
 31 32  1  0  0  0  0
 31 33  1  0  0  0  0
 33 34  1  0  0  0  0
 33 35  1  0  0  0  0
 33 36  1  0  0  0  0
M  CHG  1  20   1
M  END
$$$$

  -OEChem-04042215563D

 36 35  0     1  0  0  0  0  0999 V2000
   -2.9679   -5.4220    1.1098 H   0  0  0  0  0  0  0  0  0  0  0  0
   -3.0861   -4.4272    0.6698 C   0  0  0  0  0  0  0  0  0  0  0  0
   -3.7253   -3.8301    1.3242 H   0  0  0  0  0  0  0  0  0  0  0  0
   -3.5663   -4.5307   -0.3060 H   0  0  0  0  0  0  0  0  0  0  0  0
   -1.7303   -3.7645    0.5157 C   0  0  0  0  0  0  0  0  0  0  0  0
   -0.7170   -4.3864    0.7752 O   0  0  0  0  0  0  0  0  0  0  0  0
   -1.6385   -2.4609    0.0616 N   0  0  0  0  0  0  0  0  0  0  0  0
   -2.5148   -1.9582   -0.0403 H   0  0  0  0  0  0  0  0  0  0  0  0
   -0.3825   -1.6863    0.1036 C   0  0  1  0  0  0  0  0  0  0  0  0
    0.3725   -2.2805   -0.4222 H   0  0  0  0  0  0  0  0  0  0  0  0
   -0.5708   -0.3336   -0.6237 C   0  0  0  0  0  0  0  0  0  0  0  0
   -1.6327   -0.0779   -0.7019 H   0  0  0  0  0  0  0  0  0  0  0  0
   -0.1070    0.4544   -0.0184 H   0  0  0  0  0  0  0  0  0  0  0  0
    0.1041   -0.3042   -2.0092 C   0  0  0  0  0  0  0  0  0  0  0  0
    0.6264    0.6537   -2.1117 H   0  0  0  0  0  0  0  0  0  0  0  0
    0.8618   -1.0898   -2.0993 H   0  0  0  0  0  0  0  0  0  0  0  0
   -0.9189   -0.4206   -3.1369 C   0  0  0  0  0  0  0  0  0  0  0  0
   -1.4682   -1.3624   -3.0266 H   0  0  0  0  0  0  0  0  0  0  0  0
   -1.6294    0.4108   -3.0707 H   0  0  0  0  0  0  0  0  0  0  0  0
   -0.2118   -0.3906   -4.4310 N   0  3  0  0  0  0  0  0  0  0  0  0
    0.7932   -0.2205   -4.4031 H   0  0  0  0  0  0  0  0  0  0  0  0
   -0.7895   -0.5798   -5.5817 C   0  0  0  0  0  0  0  0  0  0  0  0
   -2.1445   -0.7958   -5.6863 N   0  0  0  0  0  0  0  0  0  0  0  0
   -2.7156   -0.6313   -4.8604 H   0  0  0  0  0  0  0  0  0  0  0  0
   -2.5838   -0.7013   -6.6001 H   0  0  0  0  0  0  0  0  0  0  0  0
   -0.0332   -0.5619   -6.7293 N   0  0  0  0  0  0  0  0  0  0  0  0
    0.9817   -0.5850   -6.6462 H   0  0  0  0  0  0  0  0  0  0  0  0
   -0.4479   -0.9168   -7.5892 H   0  0  0  0  0  0  0  0  0  0  0  0
    0.2132   -1.4830    1.5147 C   0  0  0  0  0  0  0  0  0  0  0  0
    1.4263   -1.3795    1.6274 O   0  0  0  0  0  0  0  0  0  0  0  0
   -0.5965   -1.1176    2.5758 N   0  0  0  0  0  0  0  0  0  0  0  0
   -1.5949   -1.2572    2.4658 H   0  0  0  0  0  0  0  0  0  0  0  0
   -0.0718   -0.8341    3.9079 C   0  0  0  0  0  0  0  0  0  0  0  0
    0.6541   -0.0148    3.8696 H   0  0  0  0  0  0  0  0  0  0  0  0
   -0.8829   -0.5418    4.5816 H   0  0  0  0  0  0  0  0  0  0  0  0
    0.4214   -1.7200    4.3219 H   0  0  0  0  0  0  0  0  0  0  0  0
  1  2  1  0  0  0  0
  2  3  1  0  0  0  0
  2  4  1  0  0  0  0
  2  5  1  0  0  0  0
  5  6  2  0  0  0  0
  5  7  1  0  0  0  0
  7  8  1  0  0  0  0
  7  9  1  0  0  0  0
  9 10  1  0  0  0  0
  9 11  1  0  0  0  0
  9 29  1  0  0  0  0
 11 12  1  0  0  0  0
 11 13  1  0  0  0  0
 11 14  1  0  0  0  0
 14 15  1  0  0  0  0
 14 16  1  0  0  0  0
 14 17  1  0  0  0  0
 17 18  1  0  0  0  0
 17 19  1  0  0  0  0
 17 20  1  0  0  0  0
 20 21  1  0  0  0  0
 20 22  2  0  0  0  0
 22 23  1  0  0  0  0
 22 26  1  0  0  0  0
 23 24  1  0  0  0  0
 23 25  1  0  0  0  0
 26 27  1  0  0  0  0
 26 28  1  0  0  0  0
 29 30  2  0  0  0  0
 29 31  1  0  0  0  0
 31 32  1  0  0  0  0
 31 33  1  0  0  0  0
 33 34  1  0  0  0  0
 33 35  1  0  0  0  0
 33 36  1  0  0  0  0
M  CHG  1  20   1
M  END
$$$$

  -OEChem-04042215563D

 36 35  0     1  0  0  0  0  0999 V2000
   -2.9483   -5.4499    1.0687 H   0  0  0  0  0  0  0  0  0  0  0  0
   -3.0659   -4.4538    0.6316 C   0  0  0  0  0  0  0  0  0  0  0  0
   -3.7382   -3.8715    1.2659 H   0  0  0  0  0  0  0  0  0  0  0  0
   -3.5079   -4.5576   -0.3620 H   0  0  0  0  0  0  0  0  0  0  0  0
   -1.7162   -3.7687    0.5321 C   0  0  0  0  0  0  0  0  0  0  0  0
   -0.7048   -4.3706    0.8413 O   0  0  0  0  0  0  0  0  0  0  0  0
   -1.6269   -2.4668    0.0728 N   0  0  0  0  0  0  0  0  0  0  0  0
   -2.5036   -1.9808   -0.0875 H   0  0  0  0  0  0  0  0  0  0  0  0
   -0.3768   -1.6830    0.1118 C   0  0  1  0  0  0  0  0  0  0  0  0
    0.3860   -2.2736   -0.4067 H   0  0  0  0  0  0  0  0  0  0  0  0
   -0.5687   -0.3299   -0.6160 C   0  0  0  0  0  0  0  0  0  0  0  0
   -1.6358   -0.0980   -0.6988 H   0  0  0  0  0  0  0  0  0  0  0  0
   -0.1259    0.4701   -0.0108 H   0  0  0  0  0  0  0  0  0  0  0  0
    0.1057   -0.2940   -2.0044 C   0  0  0  0  0  0  0  0  0  0  0  0
    0.8566    0.5043   -2.0041 H   0  0  0  0  0  0  0  0  0  0  0  0
    0.6333   -1.2307   -2.2114 H   0  0  0  0  0  0  0  0  0  0  0  0
   -0.9073   -0.0371   -3.1186 C   0  0  0  0  0  0  0  0  0  0  0  0
   -1.6589   -0.8342   -3.1141 H   0  0  0  0  0  0  0  0  0  0  0  0
   -1.4091    0.9198   -2.9369 H   0  0  0  0  0  0  0  0  0  0  0  0
   -0.2023   -0.0076   -4.4140 N   0  3  0  0  0  0  0  0  0  0  0  0
    0.8149   -0.0736   -4.3870 H   0  0  0  0  0  0  0  0  0  0  0  0
   -0.7994    0.0932   -5.5663 C   0  0  0  0  0  0  0  0  0  0  0  0
   -2.1669    0.2101   -5.6676 N   0  0  0  0  0  0  0  0  0  0  0  0
   -2.6909    0.3958   -4.8153 H   0  0  0  0  0  0  0  0  0  0  0  0
   -2.5637    0.5249   -6.5509 H   0  0  0  0  0  0  0  0  0  0  0  0
   -0.0518    0.0868   -6.7198 N   0  0  0  0  0  0  0  0  0  0  0  0
    0.9307   -0.1761   -6.6653 H   0  0  0  0  0  0  0  0  0  0  0  0
   -0.5307   -0.0428   -7.6093 H   0  0  0  0  0  0  0  0  0  0  0  0
    0.2134   -1.4699    1.5242 C   0  0  0  0  0  0  0  0  0  0  0  0
    1.4248   -1.3489    1.6389 O   0  0  0  0  0  0  0  0  0  0  0  0
   -0.6018   -1.1063    2.5817 N   0  0  0  0  0  0  0  0  0  0  0  0
   -1.5962   -1.2746    2.4744 H   0  0  0  0  0  0  0  0  0  0  0  0
   -0.0818   -0.8242    3.9161 C   0  0  0  0  0  0  0  0  0  0  0  0
    0.6414   -0.0020    3.8819 H   0  0  0  0  0  0  0  0  0  0  0  0
   -0.8957   -0.5364    4.5885 H   0  0  0  0  0  0  0  0  0  0  0  0
    0.4135   -1.7097    4.3292 H   0  0  0  0  0  0  0  0  0  0  0  0
  1  2  1  0  0  0  0
  2  3  1  0  0  0  0
  2  4  1  0  0  0  0
  2  5  1  0  0  0  0
  5  6  2  0  0  0  0
  5  7  1  0  0  0  0
  7  8  1  0  0  0  0
  7  9  1  0  0  0  0
  9 10  1  0  0  0  0
  9 11  1  0  0  0  0
  9 29  1  0  0  0  0
 11 12  1  0  0  0  0
 11 13  1  0  0  0  0
 11 14  1  0  0  0  0
 14 15  1  0  0  0  0
 14 16  1  0  0  0  0
 14 17  1  0  0  0  0
 17 18  1  0  0  0  0
 17 19  1  0  0  0  0
 17 20  1  0  0  0  0
 20 21  1  0  0  0  0
 20 22  2  0  0  0  0
 22 23  1  0  0  0  0
 22 26  1  0  0  0  0
 23 24  1  0  0  0  0
 23 25  1  0  0  0  0
 26 27  1  0  0  0  0
 26 28  1  0  0  0  0
 29 30  2  0  0  0  0
 29 31  1  0  0  0  0
 31 32  1  0  0  0  0
 31 33  1  0  0  0  0
 33 34  1  0  0  0  0
 33 35  1  0  0  0  0
 33 36  1  0  0  0  0
M  CHG  1  20   1
M  END
$$$$

  -OEChem-04042215563D

 36 35  0     1  0  0  0  0  0999 V2000
   -2.9264   -5.4657    1.0146 H   0  0  0  0  0  0  0  0  0  0  0  0
   -3.0460   -4.4634    0.5924 C   0  0  0  0  0  0  0  0  0  0  0  0
   -3.7403   -3.9005    1.2205 H   0  0  0  0  0  0  0  0  0  0  0  0
   -3.4630   -4.5544   -0.4132 H   0  0  0  0  0  0  0  0  0  0  0  0
   -1.7031   -3.7605    0.5367 C   0  0  0  0  0  0  0  0  0  0  0  0
   -0.6952   -4.3458    0.8866 O   0  0  0  0  0  0  0  0  0  0  0  0
   -1.6165   -2.4595    0.0753 N   0  0  0  0  0  0  0  0  0  0  0  0
   -2.4900   -1.9944   -0.1516 H   0  0  0  0  0  0  0  0  0  0  0  0
   -0.3721   -1.6673    0.1124 C   0  0  1  0  0  0  0  0  0  0  0  0
    0.3974   -2.2497   -0.4065 H   0  0  0  0  0  0  0  0  0  0  0  0
   -0.5695   -0.3145   -0.6121 C   0  0  0  0  0  0  0  0  0  0  0  0
   -1.6407   -0.1083   -0.7076 H   0  0  0  0  0  0  0  0  0  0  0  0
   -0.1474    0.4996   -0.0111 H   0  0  0  0  0  0  0  0  0  0  0  0
    0.1079   -0.2900   -1.9968 C   0  0  0  0  0  0  0  0  0  0  0  0
    1.0420    0.2788   -1.9254 H   0  0  0  0  0  0  0  0  0  0  0  0
    0.3648   -1.3056   -2.3171 H   0  0  0  0  0  0  0  0  0  0  0  0
   -0.8105    0.3179   -3.0550 C   0  0  0  0  0  0  0  0  0  0  0  0
   -1.7226   -0.2842   -3.1314 H   0  0  0  0  0  0  0  0  0  0  0  0
   -1.0860    1.3341   -2.7515 H   0  0  0  0  0  0  0  0  0  0  0  0
   -0.1046    0.3450   -4.3498 N   0  3  0  0  0  0  0  0  0  0  0  0
    0.8708    0.0476   -4.3495 H   0  0  0  0  0  0  0  0  0  0  0  0
   -0.6481    0.7322   -5.4675 C   0  0  0  0  0  0  0  0  0  0  0  0
   -1.9506    1.1732   -5.5264 N   0  0  0  0  0  0  0  0  0  0  0  0
   -2.4251    1.3670   -4.6472 H   0  0  0  0  0  0  0  0  0  0  0  0
   -2.2558    1.6794   -6.3556 H   0  0  0  0  0  0  0  0  0  0  0  0
    0.0927    0.7062   -6.6254 N   0  0  0  0  0  0  0  0  0  0  0  0
    0.9904    0.2251   -6.6235 H   0  0  0  0  0  0  0  0  0  0  0  0
   -0.3892    0.8141   -7.5162 H   0  0  0  0  0  0  0  0  0  0  0  0
    0.2124   -1.4490    1.5259 C   0  0  0  0  0  0  0  0  0  0  0  0
    1.4222   -1.3124    1.6417 O   0  0  0  0  0  0  0  0  0  0  0  0
   -0.6084   -1.0899    2.5804 N   0  0  0  0  0  0  0  0  0  0  0  0
   -1.5996   -1.2760    2.4717 H   0  0  0  0  0  0  0  0  0  0  0  0
   -0.0919   -0.8255    3.9196 C   0  0  0  0  0  0  0  0  0  0  0  0
    0.6209    0.0057    3.8994 H   0  0  0  0  0  0  0  0  0  0  0  0
   -0.9087   -0.5605    4.5978 H   0  0  0  0  0  0  0  0  0  0  0  0
    0.4147   -1.7120    4.3162 H   0  0  0  0  0  0  0  0  0  0  0  0
  1  2  1  0  0  0  0
  2  3  1  0  0  0  0
  2  4  1  0  0  0  0
  2  5  1  0  0  0  0
  5  6  2  0  0  0  0
  5  7  1  0  0  0  0
  7  8  1  0  0  0  0
  7  9  1  0  0  0  0
  9 10  1  0  0  0  0
  9 11  1  0  0  0  0
  9 29  1  0  0  0  0
 11 12  1  0  0  0  0
 11 13  1  0  0  0  0
 11 14  1  0  0  0  0
 14 15  1  0  0  0  0
 14 16  1  0  0  0  0
 14 17  1  0  0  0  0
 17 18  1  0  0  0  0
 17 19  1  0  0  0  0
 17 20  1  0  0  0  0
 20 21  1  0  0  0  0
 20 22  2  0  0  0  0
 22 23  1  0  0  0  0
 22 26  1  0  0  0  0
 23 24  1  0  0  0  0
 23 25  1  0  0  0  0
 26 27  1  0  0  0  0
 26 28  1  0  0  0  0
 29 30  2  0  0  0  0
 29 31  1  0  0  0  0
 31 32  1  0  0  0  0
 31 33  1  0  0  0  0
 33 34  1  0  0  0  0
 33 35  1  0  0  0  0
 33 36  1  0  0  0  0
M  CHG  1  20   1
M  END
$$$$

  -OEChem-04042215563D

 36 35  0     1  0  0  0  0  0999 V2000
   -2.9131   -5.4730    0.9567 H   0  0  0  0  0  0  0  0  0  0  0  0
   -3.0332   -4.4700    0.5366 C   0  0  0  0  0  0  0  0  0  0  0  0
   -3.7541   -3.9199    1.1457 H   0  0  0  0  0  0  0  0  0  0  0  0
   -3.4177   -4.5607   -0.4820 H   0  0  0  0  0  0  0  0  0  0  0  0
   -1.6989   -3.7487    0.5261 C   0  0  0  0  0  0  0  0  0  0  0  0
   -0.6932   -4.3228    0.9003 O   0  0  0  0  0  0  0  0  0  0  0  0
   -1.6166   -2.4436    0.0755 N   0  0  0  0  0  0  0  0  0  0  0  0
   -2.4872   -1.9920   -0.1875 H   0  0  0  0  0  0  0  0  0  0  0  0
   -0.3758   -1.6451    0.1128 C   0  0  1  0  0  0  0  0  0  0  0  0
    0.3925   -2.2173   -0.4197 H   0  0  0  0  0  0  0  0  0  0  0  0
   -0.5786   -0.2883   -0.5999 C   0  0  0  0  0  0  0  0  0  0  0  0
   -1.6511   -0.0935   -0.7051 H   0  0  0  0  0  0  0  0  0  0  0  0
   -0.1641    0.5288    0.0021 H   0  0  0  0  0  0  0  0  0  0  0  0
    0.1013   -0.2760   -1.9797 C   0  0  0  0  0  0  0  0  0  0  0  0
    1.1458    0.0350   -1.8616 H   0  0  0  0  0  0  0  0  0  0  0  0
    0.0975   -1.2865   -2.4043 H   0  0  0  0  0  0  0  0  0  0  0  0
   -0.6346    0.6442   -2.9518 C   0  0  0  0  0  0  0  0  0  0  0  0
   -1.6594    0.2819   -3.0887 H   0  0  0  0  0  0  0  0  0  0  0  0
   -0.6734    1.6543   -2.5288 H   0  0  0  0  0  0  0  0  0  0  0  0
    0.0801    0.6615   -4.2422 N   0  3  0  0  0  0  0  0  0  0  0  0
    0.9671    0.1602   -4.2855 H   0  0  0  0  0  0  0  0  0  0  0  0
   -0.3448    1.2907   -5.2998 C   0  0  0  0  0  0  0  0  0  0  0  0
   -1.5154    2.0147   -5.2924 N   0  0  0  0  0  0  0  0  0  0  0  0
   -1.9542    2.1980   -4.3925 H   0  0  0  0  0  0  0  0  0  0  0  0
   -1.6840    2.6743   -6.0494 H   0  0  0  0  0  0  0  0  0  0  0  0
    0.3896    1.2377   -6.4605 N   0  0  0  0  0  0  0  0  0  0  0  0
    1.1592    0.5739   -6.5255 H   0  0  0  0  0  0  0  0  0  0  0  0
   -0.0447    1.5516   -7.3266 H   0  0  0  0  0  0  0  0  0  0  0  0
    0.2169   -1.4332    1.5239 C   0  0  0  0  0  0  0  0  0  0  0  0
    1.4258   -1.2816    1.6321 O   0  0  0  0  0  0  0  0  0  0  0  0
   -0.6026   -1.0858    2.5834 N   0  0  0  0  0  0  0  0  0  0  0  0
   -1.5903   -1.2922    2.4782 H   0  0  0  0  0  0  0  0  0  0  0  0
   -0.0860   -0.8271    3.9237 C   0  0  0  0  0  0  0  0  0  0  0  0
    0.6260    0.0050    3.9088 H   0  0  0  0  0  0  0  0  0  0  0  0
   -0.9041   -0.5660    4.6020 H   0  0  0  0  0  0  0  0  0  0  0  0
    0.4209   -1.7152    4.3166 H   0  0  0  0  0  0  0  0  0  0  0  0
  1  2  1  0  0  0  0
  2  3  1  0  0  0  0
  2  4  1  0  0  0  0
  2  5  1  0  0  0  0
  5  6  2  0  0  0  0
  5  7  1  0  0  0  0
  7  8  1  0  0  0  0
  7  9  1  0  0  0  0
  9 10  1  0  0  0  0
  9 11  1  0  0  0  0
  9 29  1  0  0  0  0
 11 12  1  0  0  0  0
 11 13  1  0  0  0  0
 11 14  1  0  0  0  0
 14 15  1  0  0  0  0
 14 16  1  0  0  0  0
 14 17  1  0  0  0  0
 17 18  1  0  0  0  0
 17 19  1  0  0  0  0
 17 20  1  0  0  0  0
 20 21  1  0  0  0  0
 20 22  2  0  0  0  0
 22 23  1  0  0  0  0
 22 26  1  0  0  0  0
 23 24  1  0  0  0  0
 23 25  1  0  0  0  0
 26 27  1  0  0  0  0
 26 28  1  0  0  0  0
 29 30  2  0  0  0  0
 29 31  1  0  0  0  0
 31 32  1  0  0  0  0
 31 33  1  0  0  0  0
 33 34  1  0  0  0  0
 33 35  1  0  0  0  0
 33 36  1  0  0  0  0
M  CHG  1  20   1
M  END
$$$$

  -OEChem-04042215563D

 36 35  0     1  0  0  0  0  0999 V2000
   -2.8946   -5.4812    0.8998 H   0  0  0  0  0  0  0  0  0  0  0  0
   -3.0196   -4.4752    0.4884 C   0  0  0  0  0  0  0  0  0  0  0  0
   -3.7583   -3.9404    1.0897 H   0  0  0  0  0  0  0  0  0  0  0  0
   -3.3841   -4.5594   -0.5381 H   0  0  0  0  0  0  0  0  0  0  0  0
   -1.6946   -3.7378    0.5100 C   0  0  0  0  0  0  0  0  0  0  0  0
   -0.6888   -4.3038    0.8961 O   0  0  0  0  0  0  0  0  0  0  0  0
   -1.6191   -2.4289    0.0706 N   0  0  0  0  0  0  0  0  0  0  0  0
   -2.4875   -1.9877   -0.2168 H   0  0  0  0  0  0  0  0  0  0  0  0
   -0.3822   -1.6251    0.1113 C   0  0  1  0  0  0  0  0  0  0  0  0
    0.3850   -2.1902   -0.4315 H   0  0  0  0  0  0  0  0  0  0  0  0
   -0.5915   -0.2666   -0.5928 C   0  0  0  0  0  0  0  0  0  0  0  0
   -1.6626   -0.0688   -0.7030 H   0  0  0  0  0  0  0  0  0  0  0  0
   -0.1734    0.5472    0.0114 H   0  0  0  0  0  0  0  0  0  0  0  0
    0.0924   -0.2636   -1.9663 C   0  0  0  0  0  0  0  0  0  0  0  0
    1.1779   -0.2047   -1.8242 H   0  0  0  0  0  0  0  0  0  0  0  0
   -0.1310   -1.2009   -2.4883 H   0  0  0  0  0  0  0  0  0  0  0  0
   -0.3989    0.9036   -2.8191 C   0  0  0  0  0  0  0  0  0  0  0  0
   -1.4761    0.8003   -2.9915 H   0  0  0  0  0  0  0  0  0  0  0  0
   -0.2190    1.8407   -2.2803 H   0  0  0  0  0  0  0  0  0  0  0  0
    0.3293    0.9077   -4.1017 N   0  3  0  0  0  0  0  0  0  0  0  0
    1.0844    0.2304   -4.2059 H   0  0  0  0  0  0  0  0  0  0  0  0
    0.0841    1.7375   -5.0743 C   0  0  0  0  0  0  0  0  0  0  0  0
   -0.8936    2.7016   -4.9780 N   0  0  0  0  0  0  0  0  0  0  0  0
   -1.3014    2.8737   -4.0614 H   0  0  0  0  0  0  0  0  0  0  0  0
   -0.8902    3.4662   -5.6504 H   0  0  0  0  0  0  0  0  0  0  0  0
    0.8189    1.6574   -6.2333 N   0  0  0  0  0  0  0  0  0  0  0  0
    1.4194    0.8481   -6.3795 H   0  0  0  0  0  0  0  0  0  0  0  0
    0.4919    2.1637   -7.0542 H   0  0  0  0  0  0  0  0  0  0  0  0
    0.2166   -1.4200    1.5204 C   0  0  0  0  0  0  0  0  0  0  0  0
    1.4244   -1.2524    1.6206 O   0  0  0  0  0  0  0  0  0  0  0  0
   -0.5996   -1.0842    2.5860 N   0  0  0  0  0  0  0  0  0  0  0  0
   -1.5858   -1.3014    2.4872 H   0  0  0  0  0  0  0  0  0  0  0  0
   -0.0763   -0.8226    3.9231 C   0  0  0  0  0  0  0  0  0  0  0  0
    0.6328    0.0118    3.9023 H   0  0  0  0  0  0  0  0  0  0  0  0
   -0.8908   -0.5628    4.6063 H   0  0  0  0  0  0  0  0  0  0  0  0
    0.4360   -1.7083    4.3141 H   0  0  0  0  0  0  0  0  0  0  0  0
  1  2  1  0  0  0  0
  2  3  1  0  0  0  0
  2  4  1  0  0  0  0
  2  5  1  0  0  0  0
  5  6  2  0  0  0  0
  5  7  1  0  0  0  0
  7  8  1  0  0  0  0
  7  9  1  0  0  0  0
  9 10  1  0  0  0  0
  9 11  1  0  0  0  0
  9 29  1  0  0  0  0
 11 12  1  0  0  0  0
 11 13  1  0  0  0  0
 11 14  1  0  0  0  0
 14 15  1  0  0  0  0
 14 16  1  0  0  0  0
 14 17  1  0  0  0  0
 17 18  1  0  0  0  0
 17 19  1  0  0  0  0
 17 20  1  0  0  0  0
 20 21  1  0  0  0  0
 20 22  2  0  0  0  0
 22 23  1  0  0  0  0
 22 26  1  0  0  0  0
 23 24  1  0  0  0  0
 23 25  1  0  0  0  0
 26 27  1  0  0  0  0
 26 28  1  0  0  0  0
 29 30  2  0  0  0  0
 29 31  1  0  0  0  0
 31 32  1  0  0  0  0
 31 33  1  0  0  0  0
 33 34  1  0  0  0  0
 33 35  1  0  0  0  0
 33 36  1  0  0  0  0
M  CHG  1  20   1
M  END
$$$$

  -OEChem-04042215563D

 36 35  0     1  0  0  0  0  0999 V2000
   -2.9084   -5.4644    0.8901 H   0  0  0  0  0  0  0  0  0  0  0  0
   -3.0251   -4.4523    0.4915 C   0  0  0  0  0  0  0  0  0  0  0  0
   -3.7535   -3.9167    1.1046 H   0  0  0  0  0  0  0  0  0  0  0  0
   -3.3984   -4.5208   -0.5329 H   0  0  0  0  0  0  0  0  0  0  0  0
   -1.6917   -3.7292    0.5127 C   0  0  0  0  0  0  0  0  0  0  0  0
   -0.6943   -4.3016    0.9107 O   0  0  0  0  0  0  0  0  0  0  0  0
   -1.6010   -2.4243    0.0637 N   0  0  0  0  0  0  0  0  0  0  0  0
   -2.4642   -1.9770   -0.2293 H   0  0  0  0  0  0  0  0  0  0  0  0
   -0.3590   -1.6285    0.1113 C   0  0  1  0  0  0  0  0  0  0  0  0
    0.4155   -2.1887   -0.4257 H   0  0  0  0  0  0  0  0  0  0  0  0
   -0.5680   -0.2726   -0.5920 C   0  0  0  0  0  0  0  0  0  0  0  0
   -1.5994    0.0698   -0.4561 H   0  0  0  0  0  0  0  0  0  0  0  0
    0.0892    0.4797   -0.1398 H   0  0  0  0  0  0  0  0  0  0  0  0
   -0.2227   -0.3810   -2.0822 C   0  0  0  0  0  0  0  0  0  0  0  0
    0.8233   -0.6917   -2.1869 H   0  0  0  0  0  0  0  0  0  0  0  0
   -0.8530   -1.1439   -2.5520 H   0  0  0  0  0  0  0  0  0  0  0  0
   -0.4300    0.9640   -2.7746 C   0  0  0  0  0  0  0  0  0  0  0  0
   -1.4880    1.2427   -2.7159 H   0  0  0  0  0  0  0  0  0  0  0  0
    0.1608    1.7266   -2.2546 H   0  0  0  0  0  0  0  0  0  0  0  0
   -0.0014    0.8681   -4.1827 N   0  3  0  0  0  0  0  0  0  0  0  0
    0.4223   -0.0104   -4.4795 H   0  0  0  0  0  0  0  0  0  0  0  0
   -0.0902    1.8490   -5.0342 C   0  0  0  0  0  0  0  0  0  0  0  0
   -0.6101    3.0729   -4.6793 N   0  0  0  0  0  0  0  0  0  0  0  0
   -0.7585    3.2557   -3.6890 H   0  0  0  0  0  0  0  0  0  0  0  0
   -0.4429    3.8688   -5.2917 H   0  0  0  0  0  0  0  0  0  0  0  0
    0.3474    1.6688   -6.3250 N   0  0  0  0  0  0  0  0  0  0  0  0
    0.5768    0.7284   -6.6417 H   0  0  0  0  0  0  0  0  0  0  0  0
    0.0994    2.3638   -7.0272 H   0  0  0  0  0  0  0  0  0  0  0  0
    0.2188   -1.4207    1.5293 C   0  0  0  0  0  0  0  0  0  0  0  0
    1.4271   -1.2750    1.6518 O   0  0  0  0  0  0  0  0  0  0  0  0
   -0.6100   -1.0736    2.5815 N   0  0  0  0  0  0  0  0  0  0  0  0
   -1.5960   -1.2845    2.4690 H   0  0  0  0  0  0  0  0  0  0  0  0
   -0.1024   -0.8252    3.9272 C   0  0  0  0  0  0  0  0  0  0  0  0
    0.6106    0.0062    3.9224 H   0  0  0  0  0  0  0  0  0  0  0  0
   -0.9240   -0.5682    4.6028 H   0  0  0  0  0  0  0  0  0  0  0  0
    0.4014   -1.7167    4.3164 H   0  0  0  0  0  0  0  0  0  0  0  0
  1  2  1  0  0  0  0
  2  3  1  0  0  0  0
  2  4  1  0  0  0  0
  2  5  1  0  0  0  0
  5  6  2  0  0  0  0
  5  7  1  0  0  0  0
  7  8  1  0  0  0  0
  7  9  1  0  0  0  0
  9 10  1  0  0  0  0
  9 11  1  0  0  0  0
  9 29  1  0  0  0  0
 11 12  1  0  0  0  0
 11 13  1  0  0  0  0
 11 14  1  0  0  0  0
 14 15  1  0  0  0  0
 14 16  1  0  0  0  0
 14 17  1  0  0  0  0
 17 18  1  0  0  0  0
 17 19  1  0  0  0  0
 17 20  1  0  0  0  0
 20 21  1  0  0  0  0
 20 22  2  0  0  0  0
 22 23  1  0  0  0  0
 22 26  1  0  0  0  0
 23 24  1  0  0  0  0
 23 25  1  0  0  0  0
 26 27  1  0  0  0  0
 26 28  1  0  0  0  0
 29 30  2  0  0  0  0
 29 31  1  0  0  0  0
 31 32  1  0  0  0  0
 31 33  1  0  0  0  0
 33 34  1  0  0  0  0
 33 35  1  0  0  0  0
 33 36  1  0  0  0  0
M  CHG  1  20   1
M  END
$$$$

  -OEChem-04042215563D

 36 35  0     1  0  0  0  0  0999 V2000
   -2.0644   -5.7016    0.8747 H   0  0  0  0  0  0  0  0  0  0  0  0
   -2.4427   -4.7299    0.5437 C   0  0  0  0  0  0  0  0  0  0  0  0
   -3.1664   -4.3674    1.2774 H   0  0  0  0  0  0  0  0  0  0  0  0
   -2.9414   -4.8586   -0.4197 H   0  0  0  0  0  0  0  0  0  0  0  0
   -1.2972   -3.7449    0.4107 C   0  0  0  0  0  0  0  0  0  0  0  0
   -0.1612   -4.0888    0.6819 O   0  0  0  0  0  0  0  0  0  0  0  0
   -1.5341   -2.4539   -0.0249 N   0  0  0  0  0  0  0  0  0  0  0  0
   -2.5003   -2.1979   -0.2073 H   0  0  0  0  0  0  0  0  0  0  0  0
   -0.4884   -1.4173   -0.1052 C   0  0  1  0  0  0  0  0  0  0  0  0
    0.3173   -1.8200   -0.7297 H   0  0  0  0  0  0  0  0  0  0  0  0
   -1.0416   -0.1383   -0.7647 C   0  0  0  0  0  0  0  0  0  0  0  0
   -2.0981    0.0006   -0.5116 H   0  0  0  0  0  0  0  0  0  0  0  0
   -0.4978    0.7271   -0.3682 H   0  0  0  0  0  0  0  0  0  0  0  0
   -0.8501   -0.1723   -2.2870 C   0  0  0  0  0  0  0  0  0  0  0  0
    0.1662   -0.5106   -2.5152 H   0  0  0  0  0  0  0  0  0  0  0  0
   -1.5480   -0.8831   -2.7426 H   0  0  0  0  0  0  0  0  0  0  0  0
   -1.0556    1.2282   -2.8671 C   0  0  0  0  0  0  0  0  0  0  0  0
   -2.1264    1.4606   -2.8839 H   0  0  0  0  0  0  0  0  0  0  0  0
   -0.5728    1.9724   -2.2242 H   0  0  0  0  0  0  0  0  0  0  0  0
   -0.4968    1.3095   -4.2306 N   0  3  0  0  0  0  0  0  0  0  0  0
   -1.1289    1.1026   -5.0034 H   0  0  0  0  0  0  0  0  0  0  0  0
    0.7351    1.6509   -4.4879 C   0  0  0  0  0  0  0  0  0  0  0  0
    1.6410    1.9224   -3.4862 N   0  0  0  0  0  0  0  0  0  0  0  0
    1.3836    1.6808   -2.5305 H   0  0  0  0  0  0  0  0  0  0  0  0
    2.6321    1.9537   -3.7177 H   0  0  0  0  0  0  0  0  0  0  0  0
    1.1571    1.7371   -5.7933 N   0  0  0  0  0  0  0  0  0  0  0  0
    0.4613    1.7204   -6.5363 H   0  0  0  0  0  0  0  0  0  0  0  0
    2.0495    2.1889   -5.9857 H   0  0  0  0  0  0  0  0  0  0  0  0
    0.1988   -1.0741    1.2343 C   0  0  0  0  0  0  0  0  0  0  0  0
    1.3435   -0.6407    1.1971 O   0  0  0  0  0  0  0  0  0  0  0  0
   -0.5523   -0.8940    2.3817 N   0  0  0  0  0  0  0  0  0  0  0  0
   -1.4736   -1.3201    2.3909 H   0  0  0  0  0  0  0  0  0  0  0  0
    0.0412   -0.4993    3.6551 C   0  0  0  0  0  0  0  0  0  0  0  0
    0.5206    0.4816    3.5686 H   0  0  0  0  0  0  0  0  0  0  0  0
   -0.7287   -0.4377    4.4306 H   0  0  0  0  0  0  0  0  0  0  0  0
    0.7929   -1.2310    3.9705 H   0  0  0  0  0  0  0  0  0  0  0  0
  1  2  1  0  0  0  0
  2  3  1  0  0  0  0
  2  4  1  0  0  0  0
  2  5  1  0  0  0  0
  5  6  2  0  0  0  0
  5  7  1  0  0  0  0
  7  8  1  0  0  0  0
  7  9  1  0  0  0  0
  9 10  1  0  0  0  0
  9 11  1  0  0  0  0
  9 29  1  0  0  0  0
 11 12  1  0  0  0  0
 11 13  1  0  0  0  0
 11 14  1  0  0  0  0
 14 15  1  0  0  0  0
 14 16  1  0  0  0  0
 14 17  1  0  0  0  0
 17 18  1  0  0  0  0
 17 19  1  0  0  0  0
 17 20  1  0  0  0  0
 20 21  1  0  0  0  0
 20 22  2  0  0  0  0
 22 23  1  0  0  0  0
 22 26  1  0  0  0  0
 23 24  1  0  0  0  0
 23 25  1  0  0  0  0
 26 27  1  0  0  0  0
 26 28  1  0  0  0  0
 29 30  2  0  0  0  0
 29 31  1  0  0  0  0
 31 32  1  0  0  0  0
 31 33  1  0  0  0  0
 33 34  1  0  0  0  0
 33 35  1  0  0  0  0
 33 36  1  0  0  0  0
M  CHG  1  20   1
M  END
$$$$

  -OEChem-04042215563D

 36 35  0     1  0  0  0  0  0999 V2000
   -2.0571   -5.5485    1.1057 H   0  0  0  0  0  0  0  0  0  0  0  0
   -2.4657   -4.6168    0.7035 C   0  0  0  0  0  0  0  0  0  0  0  0
   -3.1324   -4.1768    1.4487 H   0  0  0  0  0  0  0  0  0  0  0  0
   -3.0378   -4.8452   -0.1987 H   0  0  0  0  0  0  0  0  0  0  0  0
   -1.3404   -3.6547    0.3747 C   0  0  0  0  0  0  0  0  0  0  0  0
   -0.1791   -3.9994    0.5027 O   0  0  0  0  0  0  0  0  0  0  0  0
   -1.6204   -2.3767   -0.0724 N   0  0  0  0  0  0  0  0  0  0  0  0
   -2.6000   -2.1259   -0.1787 H   0  0  0  0  0  0  0  0  0  0  0  0
   -0.5809   -1.3954   -0.4263 C   0  0  1  0  0  0  0  0  0  0  0  0
    0.0561   -1.8874   -1.1698 H   0  0  0  0  0  0  0  0  0  0  0  0
   -1.1790   -0.1211   -1.0516 C   0  0  0  0  0  0  0  0  0  0  0  0
   -2.1695    0.0734   -0.6262 H   0  0  0  0  0  0  0  0  0  0  0  0
   -0.5651    0.7439   -0.7850 H   0  0  0  0  0  0  0  0  0  0  0  0
   -1.2869   -0.2354   -2.5813 C   0  0  0  0  0  0  0  0  0  0  0  0
   -0.5255   -0.9075   -2.9912 H   0  0  0  0  0  0  0  0  0  0  0  0
   -2.2614   -0.6622   -2.8422 H   0  0  0  0  0  0  0  0  0  0  0  0
   -1.1433    1.1556   -3.2109 C   0  0  0  0  0  0  0  0  0  0  0  0
   -2.0021    1.3304   -3.8687 H   0  0  0  0  0  0  0  0  0  0  0  0
   -1.1704    1.9311   -2.4371 H   0  0  0  0  0  0  0  0  0  0  0  0
    0.1009    1.2707   -4.0074 N   0  3  0  0  0  0  0  0  0  0  0  0
   -0.0230    1.3513   -5.0159 H   0  0  0  0  0  0  0  0  0  0  0  0
    1.3182    1.3364   -3.5348 C   0  0  0  0  0  0  0  0  0  0  0  0
    1.6319    1.2223   -2.1993 N   0  0  0  0  0  0  0  0  0  0  0  0
    0.9373    0.8144   -1.5766 H   0  0  0  0  0  0  0  0  0  0  0  0
    2.6044    1.0623   -1.9429 H   0  0  0  0  0  0  0  0  0  0  0  0
    2.3583    1.5256   -4.4130 N   0  0  0  0  0  0  0  0  0  0  0  0
    2.1512    1.8023   -5.3704 H   0  0  0  0  0  0  0  0  0  0  0  0
    3.2732    1.7639   -4.0339 H   0  0  0  0  0  0  0  0  0  0  0  0
    0.4067   -0.9944    0.6881 C   0  0  0  0  0  0  0  0  0  0  0  0
    1.4804   -0.5223    0.3218 O   0  0  0  0  0  0  0  0  0  0  0  0
   -0.0514   -0.7088    1.9601 N   0  0  0  0  0  0  0  0  0  0  0  0
   -0.9259   -1.1503    2.2305 H   0  0  0  0  0  0  0  0  0  0  0  0
    0.8175   -0.1985    3.0156 C   0  0  0  0  0  0  0  0  0  0  0  0
    1.2509    0.7649    2.7272 H   0  0  0  0  0  0  0  0  0  0  0  0
    0.2479   -0.0545    3.9389 H   0  0  0  0  0  0  0  0  0  0  0  0
    1.6308   -0.9040    3.2171 H   0  0  0  0  0  0  0  0  0  0  0  0
  1  2  1  0  0  0  0
  2  3  1  0  0  0  0
  2  4  1  0  0  0  0
  2  5  1  0  0  0  0
  5  6  2  0  0  0  0
  5  7  1  0  0  0  0
  7  8  1  0  0  0  0
  7  9  1  0  0  0  0
  9 10  1  0  0  0  0
  9 11  1  0  0  0  0
  9 29  1  0  0  0  0
 11 12  1  0  0  0  0
 11 13  1  0  0  0  0
 11 14  1  0  0  0  0
 14 15  1  0  0  0  0
 14 16  1  0  0  0  0
 14 17  1  0  0  0  0
 17 18  1  0  0  0  0
 17 19  1  0  0  0  0
 17 20  1  0  0  0  0
 20 21  1  0  0  0  0
 20 22  2  0  0  0  0
 22 23  1  0  0  0  0
 22 26  1  0  0  0  0
 23 24  1  0  0  0  0
 23 25  1  0  0  0  0
 26 27  1  0  0  0  0
 26 28  1  0  0  0  0
 29 30  2  0  0  0  0
 29 31  1  0  0  0  0
 31 32  1  0  0  0  0
 31 33  1  0  0  0  0
 33 34  1  0  0  0  0
 33 35  1  0  0  0  0
 33 36  1  0  0  0  0
M  CHG  1  20   1
M  END
$$$$

  -OEChem-04042215563D

 36 35  0     1  0  0  0  0  0999 V2000
   -2.0827   -5.5746    0.7466 H   0  0  0  0  0  0  0  0  0  0  0  0
   -2.4674   -4.5956    0.4455 C   0  0  0  0  0  0  0  0  0  0  0  0
   -3.0937   -4.2035    1.2504 H   0  0  0  0  0  0  0  0  0  0  0  0
   -3.0748   -4.7195   -0.4543 H   0  0  0  0  0  0  0  0  0  0  0  0
   -1.3165   -3.6476    0.1685 C   0  0  0  0  0  0  0  0  0  0  0  0
   -0.1658   -4.0407    0.2394 O   0  0  0  0  0  0  0  0  0  0  0  0
   -1.5605   -2.3310   -0.1763 N   0  0  0  0  0  0  0  0  0  0  0  0
   -2.5328   -2.0419   -0.2462 H   0  0  0  0  0  0  0  0  0  0  0  0
   -0.4954   -1.3608   -0.4829 C   0  0  1  0  0  0  0  0  0  0  0  0
    0.1118   -1.8032   -1.2804 H   0  0  0  0  0  0  0  0  0  0  0  0
   -1.0761   -0.0211   -0.9779 C   0  0  0  0  0  0  0  0  0  0  0  0
   -2.0437    0.1625   -0.4981 H   0  0  0  0  0  0  0  0  0  0  0  0
   -0.4265    0.7999   -0.6621 H   0  0  0  0  0  0  0  0  0  0  0  0
   -1.2475    0.0062   -2.5092 C   0  0  0  0  0  0  0  0  0  0  0  0
   -0.7453   -0.8373   -2.9952 H   0  0  0  0  0  0  0  0  0  0  0  0
   -2.3141   -0.0904   -2.7402 H   0  0  0  0  0  0  0  0  0  0  0  0
   -0.7302    1.3314   -3.0876 C   0  0  0  0  0  0  0  0  0  0  0  0
   -1.4770    1.7215   -3.7884 H   0  0  0  0  0  0  0  0  0  0  0  0
   -0.6126    2.0800   -2.2964 H   0  0  0  0  0  0  0  0  0  0  0  0
    0.5445    1.1341   -3.8143 N   0  3  0  0  0  0  0  0  0  0  0  0
    0.4745    1.0523   -4.8278 H   0  0  0  0  0  0  0  0  0  0  0  0
    1.7327    1.0853   -3.2750 C   0  0  0  0  0  0  0  0  0  0  0  0
    1.9526    1.1654   -1.9215 N   0  0  0  0  0  0  0  0  0  0  0  0
    1.1579    0.9888   -1.3119 H   0  0  0  0  0  0  0  0  0  0  0  0
    2.8468    0.8269   -1.5690 H   0  0  0  0  0  0  0  0  0  0  0  0
    2.8308    0.9397   -4.0881 N   0  0  0  0  0  0  0  0  0  0  0  0
    2.7230    1.0695   -5.0916 H   0  0  0  0  0  0  0  0  0  0  0  0
    3.7534    1.0878   -3.6826 H   0  0  0  0  0  0  0  0  0  0  0  0
    0.5173   -1.0947    0.6516 C   0  0  0  0  0  0  0  0  0  0  0  0
    1.6199   -0.6644    0.3240 O   0  0  0  0  0  0  0  0  0  0  0  0
    0.0830   -0.9001    1.9491 N   0  0  0  0  0  0  0  0  0  0  0  0
   -0.8174   -1.3077    2.1861 H   0  0  0  0  0  0  0  0  0  0  0  0
    0.9886   -0.5526    3.0397 C   0  0  0  0  0  0  0  0  0  0  0  0
    1.4763    0.4085    2.8453 H   0  0  0  0  0  0  0  0  0  0  0  0
    0.4355   -0.4717    3.9807 H   0  0  0  0  0  0  0  0  0  0  0  0
    1.7600   -1.3213    3.1573 H   0  0  0  0  0  0  0  0  0  0  0  0
  1  2  1  0  0  0  0
  2  3  1  0  0  0  0
  2  4  1  0  0  0  0
  2  5  1  0  0  0  0
  5  6  2  0  0  0  0
  5  7  1  0  0  0  0
  7  8  1  0  0  0  0
  7  9  1  0  0  0  0
  9 10  1  0  0  0  0
  9 11  1  0  0  0  0
  9 29  1  0  0  0  0
 11 12  1  0  0  0  0
 11 13  1  0  0  0  0
 11 14  1  0  0  0  0
 14 15  1  0  0  0  0
 14 16  1  0  0  0  0
 14 17  1  0  0  0  0
 17 18  1  0  0  0  0
 17 19  1  0  0  0  0
 17 20  1  0  0  0  0
 20 21  1  0  0  0  0
 20 22  2  0  0  0  0
 22 23  1  0  0  0  0
 22 26  1  0  0  0  0
 23 24  1  0  0  0  0
 23 25  1  0  0  0  0
 26 27  1  0  0  0  0
 26 28  1  0  0  0  0
 29 30  2  0  0  0  0
 29 31  1  0  0  0  0
 31 32  1  0  0  0  0
 31 33  1  0  0  0  0
 33 34  1  0  0  0  0
 33 35  1  0  0  0  0
 33 36  1  0  0  0  0
M  CHG  1  20   1
M  END
$$$$

  -OEChem-04042215563D

 36 35  0     1  0  0  0  0  0999 V2000
   -2.1274   -5.5386    0.4785 H   0  0  0  0  0  0  0  0  0  0  0  0
   -2.4783   -4.5198    0.2895 C   0  0  0  0  0  0  0  0  0  0  0  0
   -2.9889   -4.1543    1.1836 H   0  0  0  0  0  0  0  0  0  0  0  0
   -3.1851   -4.5419   -0.5435 H   0  0  0  0  0  0  0  0  0  0  0  0
   -1.3046   -3.6201   -0.0468 C   0  0  0  0  0  0  0  0  0  0  0  0
   -0.1772   -4.0776   -0.1113 O   0  0  0  0  0  0  0  0  0  0  0  0
   -1.5005   -2.2737   -0.2951 N   0  0  0  0  0  0  0  0  0  0  0  0
   -2.4561   -1.9278   -0.2584 H   0  0  0  0  0  0  0  0  0  0  0  0
   -0.4064   -1.3435   -0.6255 C   0  0  1  0  0  0  0  0  0  0  0  0
    0.1163   -1.7564   -1.4955 H   0  0  0  0  0  0  0  0  0  0  0  0
   -0.9458    0.0544   -0.9887 C   0  0  0  0  0  0  0  0  0  0  0  0
   -1.8693    0.2366   -0.4283 H   0  0  0  0  0  0  0  0  0  0  0  0
   -0.2462    0.8291   -0.6670 H   0  0  0  0  0  0  0  0  0  0  0  0
   -1.2320    0.1856   -2.4990 C   0  0  0  0  0  0  0  0  0  0  0  0
   -1.0917   -0.7617   -3.0313 H   0  0  0  0  0  0  0  0  0  0  0  0
   -2.2873    0.4546   -2.6179 H   0  0  0  0  0  0  0  0  0  0  0  0
   -0.3884    1.3005   -3.1362 C   0  0  0  0  0  0  0  0  0  0  0  0
   -0.9099    1.6819   -4.0215 H   0  0  0  0  0  0  0  0  0  0  0  0
   -0.2657    2.1402   -2.4442 H   0  0  0  0  0  0  0  0  0  0  0  0
    0.9175    0.7411   -3.5534 N   0  3  0  0  0  0  0  0  0  0  0  0
    0.9229    0.2129   -4.4249 H   0  0  0  0  0  0  0  0  0  0  0  0
    1.9977    0.7217   -2.8230 C   0  0  0  0  0  0  0  0  0  0  0  0
    2.0986    1.3764   -1.6224 N   0  0  0  0  0  0  0  0  0  0  0  0
    1.2792    1.9008   -1.3332 H   0  0  0  0  0  0  0  0  0  0  0  0
    2.5546    0.8342   -0.8818 H   0  0  0  0  0  0  0  0  0  0  0  0
    3.0783   -0.0207   -3.2300 N   0  0  0  0  0  0  0  0  0  0  0  0
    3.1154   -0.3902   -4.1770 H   0  0  0  0  0  0  0  0  0  0  0  0
    3.9404    0.0357   -2.6896 H   0  0  0  0  0  0  0  0  0  0  0  0
    0.6928   -1.2129    0.4546 C   0  0  0  0  0  0  0  0  0  0  0  0
    1.8160   -0.8627    0.0976 O   0  0  0  0  0  0  0  0  0  0  0  0
    0.3482   -1.0817    1.7866 N   0  0  0  0  0  0  0  0  0  0  0  0
   -0.5714   -1.4271    2.0475 H   0  0  0  0  0  0  0  0  0  0  0  0
    1.3343   -0.8874    2.8450 C   0  0  0  0  0  0  0  0  0  0  0  0
    1.8828    0.0485    2.6960 H   0  0  0  0  0  0  0  0  0  0  0  0
    0.8393   -0.8420    3.8201 H   0  0  0  0  0  0  0  0  0  0  0  0
    2.0499   -1.7166    2.8593 H   0  0  0  0  0  0  0  0  0  0  0  0
  1  2  1  0  0  0  0
  2  3  1  0  0  0  0
  2  4  1  0  0  0  0
  2  5  1  0  0  0  0
  5  6  2  0  0  0  0
  5  7  1  0  0  0  0
  7  8  1  0  0  0  0
  7  9  1  0  0  0  0
  9 10  1  0  0  0  0
  9 11  1  0  0  0  0
  9 29  1  0  0  0  0
 11 12  1  0  0  0  0
 11 13  1  0  0  0  0
 11 14  1  0  0  0  0
 14 15  1  0  0  0  0
 14 16  1  0  0  0  0
 14 17  1  0  0  0  0
 17 18  1  0  0  0  0
 17 19  1  0  0  0  0
 17 20  1  0  0  0  0
 20 21  1  0  0  0  0
 20 22  2  0  0  0  0
 22 23  1  0  0  0  0
 22 26  1  0  0  0  0
 23 24  1  0  0  0  0
 23 25  1  0  0  0  0
 26 27  1  0  0  0  0
 26 28  1  0  0  0  0
 29 30  2  0  0  0  0
 29 31  1  0  0  0  0
 31 32  1  0  0  0  0
 31 33  1  0  0  0  0
 33 34  1  0  0  0  0
 33 35  1  0  0  0  0
 33 36  1  0  0  0  0
M  CHG  1  20   1
M  END
$$$$

  -OEChem-04042215563D

 36 35  0     1  0  0  0  0  0999 V2000
   -2.2481   -5.4780    0.2951 H   0  0  0  0  0  0  0  0  0  0  0  0
   -2.5448   -4.4323    0.1718 C   0  0  0  0  0  0  0  0  0  0  0  0
   -2.9836   -4.0808    1.1087 H   0  0  0  0  0  0  0  0  0  0  0  0
   -3.2950   -4.3723   -0.6203 H   0  0  0  0  0  0  0  0  0  0  0  0
   -1.3379   -3.5882   -0.1898 C   0  0  0  0  0  0  0  0  0  0  0  0
   -0.2457   -4.1071   -0.3441 O   0  0  0  0  0  0  0  0  0  0  0  0
   -1.4637   -2.2228   -0.3709 N   0  0  0  0  0  0  0  0  0  0  0  0
   -2.3890   -1.8190   -0.2463 H   0  0  0  0  0  0  0  0  0  0  0  0
   -0.3232   -1.3408   -0.6737 C   0  0  1  0  0  0  0  0  0  0  0  0
    0.1615   -1.7340   -1.5734 H   0  0  0  0  0  0  0  0  0  0  0  0
   -0.8006    0.0984   -0.9575 C   0  0  0  0  0  0  0  0  0  0  0  0
   -1.7064    0.2933   -0.3730 H   0  0  0  0  0  0  0  0  0  0  0  0
   -0.0567    0.8266   -0.6203 H   0  0  0  0  0  0  0  0  0  0  0  0
   -1.1042    0.3125   -2.4552 C   0  0  0  0  0  0  0  0  0  0  0  0
   -1.2769   -0.6383   -2.9717 H   0  0  0  0  0  0  0  0  0  0  0  0
   -2.0354    0.8848   -2.5324 H   0  0  0  0  0  0  0  0  0  0  0  0
   -0.0057    1.1270   -3.1550 C   0  0  0  0  0  0  0  0  0  0  0  0
   -0.3835    1.4834   -4.1202 H   0  0  0  0  0  0  0  0  0  0  0  0
    0.2517    2.0096   -2.5608 H   0  0  0  0  0  0  0  0  0  0  0  0
    1.1752    0.2680   -3.3867 N   0  3  0  0  0  0  0  0  0  0  0  0
    1.0962   -0.4285   -4.1267 H   0  0  0  0  0  0  0  0  0  0  0  0
    2.2448    0.2597   -2.6427 C   0  0  0  0  0  0  0  0  0  0  0  0
    2.4544    1.1751   -1.6397 N   0  0  0  0  0  0  0  0  0  0  0  0
    1.7022    1.8317   -1.4567 H   0  0  0  0  0  0  0  0  0  0  0  0
    2.9606    0.8237   -0.8257 H   0  0  0  0  0  0  0  0  0  0  0  0
    3.1802   -0.7312   -2.8129 N   0  0  0  0  0  0  0  0  0  0  0  0
    2.9218   -1.5421   -3.3697 H   0  0  0  0  0  0  0  0  0  0  0  0
    3.8184   -0.8929   -2.0345 H   0  0  0  0  0  0  0  0  0  0  0  0
    0.7841   -1.3377    0.4076 C   0  0  0  0  0  0  0  0  0  0  0  0
    1.9433   -1.1166    0.0647 O   0  0  0  0  0  0  0  0  0  0  0  0
    0.4533   -1.2567    1.7469 N   0  0  0  0  0  0  0  0  0  0  0  0
   -0.5032   -1.4969    1.9925 H   0  0  0  0  0  0  0  0  0  0  0  0
    1.4502   -1.2213    2.8122 C   0  0  0  0  0  0  0  0  0  0  0  0
    2.0968   -0.3437    2.7078 H   0  0  0  0  0  0  0  0  0  0  0  0
    0.9590   -1.1700    3.7891 H   0  0  0  0  0  0  0  0  0  0  0  0
    2.0724   -2.1225    2.7856 H   0  0  0  0  0  0  0  0  0  0  0  0
  1  2  1  0  0  0  0
  2  3  1  0  0  0  0
  2  4  1  0  0  0  0
  2  5  1  0  0  0  0
  5  6  2  0  0  0  0
  5  7  1  0  0  0  0
  7  8  1  0  0  0  0
  7  9  1  0  0  0  0
  9 10  1  0  0  0  0
  9 11  1  0  0  0  0
  9 29  1  0  0  0  0
 11 12  1  0  0  0  0
 11 13  1  0  0  0  0
 11 14  1  0  0  0  0
 14 15  1  0  0  0  0
 14 16  1  0  0  0  0
 14 17  1  0  0  0  0
 17 18  1  0  0  0  0
 17 19  1  0  0  0  0
 17 20  1  0  0  0  0
 20 21  1  0  0  0  0
 20 22  2  0  0  0  0
 22 23  1  0  0  0  0
 22 26  1  0  0  0  0
 23 24  1  0  0  0  0
 23 25  1  0  0  0  0
 26 27  1  0  0  0  0
 26 28  1  0  0  0  0
 29 30  2  0  0  0  0
 29 31  1  0  0  0  0
 31 32  1  0  0  0  0
 31 33  1  0  0  0  0
 33 34  1  0  0  0  0
 33 35  1  0  0  0  0
 33 36  1  0  0  0  0
M  CHG  1  20   1
M  END
$$$$

  -OEChem-04042215563D

 36 35  0     1  0  0  0  0  0999 V2000
   -2.2991   -5.5112   -0.0367 H   0  0  0  0  0  0  0  0  0  0  0  0
   -2.5674   -4.4509   -0.0609 C   0  0  0  0  0  0  0  0  0  0  0  0
   -2.9801   -4.1723    0.9115 H   0  0  0  0  0  0  0  0  0  0  0  0
   -3.3291   -4.3006   -0.8299 H   0  0  0  0  0  0  0  0  0  0  0  0
   -1.3422   -3.6117   -0.3687 C   0  0  0  0  0  0  0  0  0  0  0  0
   -0.2612   -4.1431   -0.5602 O   0  0  0  0  0  0  0  0  0  0  0  0
   -1.4372   -2.2355   -0.4715 N   0  0  0  0  0  0  0  0  0  0  0  0
   -2.3475   -1.8168   -0.2945 H   0  0  0  0  0  0  0  0  0  0  0  0
   -0.2625   -1.3645   -0.6498 C   0  0  1  0  0  0  0  0  0  0  0  0
    0.2604   -1.7239   -1.5389 H   0  0  0  0  0  0  0  0  0  0  0  0
   -0.7029    0.0964   -0.8815 C   0  0  0  0  0  0  0  0  0  0  0  0
   -1.6357    0.2776   -0.3365 H   0  0  0  0  0  0  0  0  0  0  0  0
    0.0403    0.7872   -0.4688 H   0  0  0  0  0  0  0  0  0  0  0  0
   -0.9134    0.4222   -2.3757 C   0  0  0  0  0  0  0  0  0  0  0  0
   -1.3163   -0.4476   -2.9063 H   0  0  0  0  0  0  0  0  0  0  0  0
   -1.6678    1.2140   -2.4443 H   0  0  0  0  0  0  0  0  0  0  0  0
    0.3566    0.9409   -3.0738 C   0  0  0  0  0  0  0  0  0  0  0  0
    0.0771    1.3434   -4.0541 H   0  0  0  0  0  0  0  0  0  0  0  0
    0.7820    1.7674   -2.4964 H   0  0  0  0  0  0  0  0  0  0  0  0
    1.3499   -0.1347   -3.2696 N   0  3  0  0  0  0  0  0  0  0  0  0
    1.1198   -0.8565   -3.9516 H   0  0  0  0  0  0  0  0  0  0  0  0
    2.4405   -0.2656   -2.5687 C   0  0  0  0  0  0  0  0  0  0  0  0
    2.8381    0.6704   -1.6441 N   0  0  0  0  0  0  0  0  0  0  0  0
    2.2072    1.4501   -1.4876 H   0  0  0  0  0  0  0  0  0  0  0  0
    3.3006    0.2925   -0.8158 H   0  0  0  0  0  0  0  0  0  0  0  0
    3.1928   -1.4078   -2.6952 N   0  0  0  0  0  0  0  0  0  0  0  0
    2.7761   -2.2053   -3.1695 H   0  0  0  0  0  0  0  0  0  0  0  0
    3.8441   -1.6117   -1.9381 H   0  0  0  0  0  0  0  0  0  0  0  0
    0.7706   -1.4585    0.4992 C   0  0  0  0  0  0  0  0  0  0  0  0
    1.9618   -1.3068    0.2424 O   0  0  0  0  0  0  0  0  0  0  0  0
    0.3578   -1.4517    1.8182 N   0  0  0  0  0  0  0  0  0  0  0  0
   -0.6274   -1.6297    1.9917 H   0  0  0  0  0  0  0  0  0  0  0  0
    1.2823   -1.5144    2.9457 C   0  0  0  0  0  0  0  0  0  0  0  0
    1.9827   -0.6730    2.9192 H   0  0  0  0  0  0  0  0  0  0  0  0
    0.7310   -1.4701    3.8903 H   0  0  0  0  0  0  0  0  0  0  0  0
    1.8529   -2.4490    2.9217 H   0  0  0  0  0  0  0  0  0  0  0  0
  1  2  1  0  0  0  0
  2  3  1  0  0  0  0
  2  4  1  0  0  0  0
  2  5  1  0  0  0  0
  5  6  2  0  0  0  0
  5  7  1  0  0  0  0
  7  8  1  0  0  0  0
  7  9  1  0  0  0  0
  9 10  1  0  0  0  0
  9 11  1  0  0  0  0
  9 29  1  0  0  0  0
 11 12  1  0  0  0  0
 11 13  1  0  0  0  0
 11 14  1  0  0  0  0
 14 15  1  0  0  0  0
 14 16  1  0  0  0  0
 14 17  1  0  0  0  0
 17 18  1  0  0  0  0
 17 19  1  0  0  0  0
 17 20  1  0  0  0  0
 20 21  1  0  0  0  0
 20 22  2  0  0  0  0
 22 23  1  0  0  0  0
 22 26  1  0  0  0  0
 23 24  1  0  0  0  0
 23 25  1  0  0  0  0
 26 27  1  0  0  0  0
 26 28  1  0  0  0  0
 29 30  2  0  0  0  0
 29 31  1  0  0  0  0
 31 32  1  0  0  0  0
 31 33  1  0  0  0  0
 33 34  1  0  0  0  0
 33 35  1  0  0  0  0
 33 36  1  0  0  0  0
M  CHG  1  20   1
M  END
$$$$

  -OEChem-04042215563D

 36 35  0     1  0  0  0  0  0999 V2000
   -2.1142   -5.5881   -0.2577 H   0  0  0  0  0  0  0  0  0  0  0  0
   -2.4428   -4.5448   -0.2763 C   0  0  0  0  0  0  0  0  0  0  0  0
   -2.9763   -4.3298    0.6527 H   0  0  0  0  0  0  0  0  0  0  0  0
   -3.1232   -4.4072   -1.1201 H   0  0  0  0  0  0  0  0  0  0  0  0
   -1.2459   -3.6242   -0.4161 C   0  0  0  0  0  0  0  0  0  0  0  0
   -0.1195   -4.0841   -0.5091 O   0  0  0  0  0  0  0  0  0  0  0  0
   -1.4169   -2.2536   -0.4804 N   0  0  0  0  0  0  0  0  0  0  0  0
   -2.3630   -1.8993   -0.3598 H   0  0  0  0  0  0  0  0  0  0  0  0
   -0.2875   -1.3107   -0.4256 C   0  0  1  0  0  0  0  0  0  0  0  0
    0.3908   -1.6320   -1.2155 H   0  0  0  0  0  0  0  0  0  0  0  0
   -0.7354    0.1295   -0.7302 C   0  0  0  0  0  0  0  0  0  0  0  0
   -1.7625    0.2703   -0.3774 H   0  0  0  0  0  0  0  0  0  0  0  0
   -0.1122    0.8445   -0.1806 H   0  0  0  0  0  0  0  0  0  0  0  0
   -0.6572    0.4648   -2.2290 C   0  0  0  0  0  0  0  0  0  0  0  0
   -1.1476   -0.3096   -2.8290 H   0  0  0  0  0  0  0  0  0  0  0  0
   -1.2063    1.3984   -2.3931 H   0  0  0  0  0  0  0  0  0  0  0  0
    0.7971    0.6859   -2.6854 C   0  0  0  0  0  0  0  0  0  0  0  0
    0.8021    1.4743   -3.4465 H   0  0  0  0  0  0  0  0  0  0  0  0
    1.3954    1.0475   -1.8423 H   0  0  0  0  0  0  0  0  0  0  0  0
    1.3966   -0.5296   -3.2772 N   0  3  0  0  0  0  0  0  0  0  0  0
    0.9702   -0.8754   -4.1354 H   0  0  0  0  0  0  0  0  0  0  0  0
    2.4937   -1.0982   -2.8563 C   0  0  0  0  0  0  0  0  0  0  0  0
    3.1477   -0.7096   -1.7107 N   0  0  0  0  0  0  0  0  0  0  0  0
    2.5648   -0.3091   -0.9709 H   0  0  0  0  0  0  0  0  0  0  0  0
    3.8889   -1.3212   -1.3777 H   0  0  0  0  0  0  0  0  0  0  0  0
    3.0270   -2.1385   -3.5790 N   0  0  0  0  0  0  0  0  0  0  0  0
    2.6476   -2.3639   -4.4958 H   0  0  0  0  0  0  0  0  0  0  0  0
    3.9450   -2.4994   -3.3267 H   0  0  0  0  0  0  0  0  0  0  0  0
    0.5780   -1.3584    0.8492 C   0  0  0  0  0  0  0  0  0  0  0  0
    1.7647   -1.0677    0.7358 O   0  0  0  0  0  0  0  0  0  0  0  0
    0.0024   -1.4215    2.1036 N   0  0  0  0  0  0  0  0  0  0  0  0
   -0.9850   -1.6540    2.1547 H   0  0  0  0  0  0  0  0  0  0  0  0
    0.7708   -1.3476    3.3418 C   0  0  0  0  0  0  0  0  0  0  0  0
    1.2723   -0.3775    3.4259 H   0  0  0  0  0  0  0  0  0  0  0  0
    0.1101   -1.4691    4.2061 H   0  0  0  0  0  0  0  0  0  0  0  0
    1.5274   -2.1390    3.3722 H   0  0  0  0  0  0  0  0  0  0  0  0
  1  2  1  0  0  0  0
  2  3  1  0  0  0  0
  2  4  1  0  0  0  0
  2  5  1  0  0  0  0
  5  6  2  0  0  0  0
  5  7  1  0  0  0  0
  7  8  1  0  0  0  0
  7  9  1  0  0  0  0
  9 10  1  0  0  0  0
  9 11  1  0  0  0  0
  9 29  1  0  0  0  0
 11 12  1  0  0  0  0
 11 13  1  0  0  0  0
 11 14  1  0  0  0  0
 14 15  1  0  0  0  0
 14 16  1  0  0  0  0
 14 17  1  0  0  0  0
 17 18  1  0  0  0  0
 17 19  1  0  0  0  0
 17 20  1  0  0  0  0
 20 21  1  0  0  0  0
 20 22  2  0  0  0  0
 22 23  1  0  0  0  0
 22 26  1  0  0  0  0
 23 24  1  0  0  0  0
 23 25  1  0  0  0  0
 26 27  1  0  0  0  0
 26 28  1  0  0  0  0
 29 30  2  0  0  0  0
 29 31  1  0  0  0  0
 31 32  1  0  0  0  0
 31 33  1  0  0  0  0
 33 34  1  0  0  0  0
 33 35  1  0  0  0  0
 33 36  1  0  0  0  0
M  CHG  1  20   1
M  END
$$$$

  -OEChem-04042215563D

 36 35  0     1  0  0  0  0  0999 V2000
   -2.9947   -5.4327    0.9682 H   0  0  0  0  0  0  0  0  0  0  0  0
   -3.0960   -4.4127    0.5862 C   0  0  0  0  0  0  0  0  0  0  0  0
   -3.7496   -3.8507    1.2573 H   0  0  0  0  0  0  0  0  0  0  0  0
   -3.5507   -4.4540   -0.4063 H   0  0  0  0  0  0  0  0  0  0  0  0
   -1.7342   -3.7494    0.5079 C   0  0  0  0  0  0  0  0  0  0  0  0
   -0.7353   -4.3577    0.8486 O   0  0  0  0  0  0  0  0  0  0  0  0
   -1.6132   -2.4591    0.0255 N   0  0  0  0  0  0  0  0  0  0  0  0
   -2.4757   -1.9698   -0.1975 H   0  0  0  0  0  0  0  0  0  0  0  0
   -0.3521   -1.6973    0.0662 C   0  0  1  0  0  0  0  0  0  0  0  0
    0.3938   -2.3250   -0.4258 H   0  0  0  0  0  0  0  0  0  0  0  0
   -0.5081   -0.3695   -0.7088 C   0  0  0  0  0  0  0  0  0  0  0  0
   -1.5345   -0.0008   -0.6080 H   0  0  0  0  0  0  0  0  0  0  0  0
    0.1460    0.3888   -0.2624 H   0  0  0  0  0  0  0  0  0  0  0  0
   -0.1422   -0.4861   -2.1984 C   0  0  0  0  0  0  0  0  0  0  0  0
   -0.8058   -1.2082   -2.6864 H   0  0  0  0  0  0  0  0  0  0  0  0
   -0.2912    0.4884   -2.6760 H   0  0  0  0  0  0  0  0  0  0  0  0
    1.3185   -0.9253   -2.3609 C   0  0  0  0  0  0  0  0  0  0  0  0
    1.9522   -0.2574   -1.7661 H   0  0  0  0  0  0  0  0  0  0  0  0
    1.4393   -1.9431   -1.9776 H   0  0  0  0  0  0  0  0  0  0  0  0
    1.7436   -0.8873   -3.7704 N   0  3  0  0  0  0  0  0  0  0  0  0
    1.0448   -0.6351   -4.4677 H   0  0  0  0  0  0  0  0  0  0  0  0
    2.9548   -1.1844   -4.1463 C   0  0  0  0  0  0  0  0  0  0  0  0
    3.9239   -1.5543   -3.2400 N   0  0  0  0  0  0  0  0  0  0  0  0
    3.6383   -1.7356   -2.2785 H   0  0  0  0  0  0  0  0  0  0  0  0
    4.7731   -2.0006   -3.5799 H   0  0  0  0  0  0  0  0  0  0  0  0
    3.2862   -1.1334   -5.4791 N   0  0  0  0  0  0  0  0  0  0  0  0
    2.6389   -0.6907   -6.1282 H   0  0  0  0  0  0  0  0  0  0  0  0
    4.2718   -1.1634   -5.7337 H   0  0  0  0  0  0  0  0  0  0  0  0
    0.2445   -1.4520    1.4673 C   0  0  0  0  0  0  0  0  0  0  0  0
    1.4624   -1.3635    1.5628 O   0  0  0  0  0  0  0  0  0  0  0  0
   -0.5558   -1.0444    2.5186 N   0  0  0  0  0  0  0  0  0  0  0  0
   -1.5573   -1.1713    2.4126 H   0  0  0  0  0  0  0  0  0  0  0  0
   -0.0256   -0.7421    3.8438 C   0  0  0  0  0  0  0  0  0  0  0  0
    0.6883    0.0867    3.7926 H   0  0  0  0  0  0  0  0  0  0  0  0
   -0.8361   -0.4558    4.5212 H   0  0  0  0  0  0  0  0  0  0  0  0
    0.4828   -1.6177    4.2616 H   0  0  0  0  0  0  0  0  0  0  0  0
  1  2  1  0  0  0  0
  2  3  1  0  0  0  0
  2  4  1  0  0  0  0
  2  5  1  0  0  0  0
  5  6  2  0  0  0  0
  5  7  1  0  0  0  0
  7  8  1  0  0  0  0
  7  9  1  0  0  0  0
  9 10  1  0  0  0  0
  9 11  1  0  0  0  0
  9 29  1  0  0  0  0
 11 12  1  0  0  0  0
 11 13  1  0  0  0  0
 11 14  1  0  0  0  0
 14 15  1  0  0  0  0
 14 16  1  0  0  0  0
 14 17  1  0  0  0  0
 17 18  1  0  0  0  0
 17 19  1  0  0  0  0
 17 20  1  0  0  0  0
 20 21  1  0  0  0  0
 20 22  2  0  0  0  0
 22 23  1  0  0  0  0
 22 26  1  0  0  0  0
 23 24  1  0  0  0  0
 23 25  1  0  0  0  0
 26 27  1  0  0  0  0
 26 28  1  0  0  0  0
 29 30  2  0  0  0  0
 29 31  1  0  0  0  0
 31 32  1  0  0  0  0
 31 33  1  0  0  0  0
 33 34  1  0  0  0  0
 33 35  1  0  0  0  0
 33 36  1  0  0  0  0
M  CHG  1  20   1
M  END
$$$$

  -OEChem-04042215563D

 36 35  0     1  0  0  0  0  0999 V2000
   -3.0761   -5.4038    1.0651 H   0  0  0  0  0  0  0  0  0  0  0  0
   -3.1527   -4.3933    0.6528 C   0  0  0  0  0  0  0  0  0  0  0  0
   -3.8004   -3.7991    1.3017 H   0  0  0  0  0  0  0  0  0  0  0  0
   -3.5995   -4.4536   -0.3424 H   0  0  0  0  0  0  0  0  0  0  0  0
   -1.7765   -3.7615    0.5682 C   0  0  0  0  0  0  0  0  0  0  0  0
   -0.7926   -4.3879    0.9197 O   0  0  0  0  0  0  0  0  0  0  0  0
   -1.6238   -2.4855    0.0578 N   0  0  0  0  0  0  0  0  0  0  0  0
   -2.4742   -1.9809   -0.1770 H   0  0  0  0  0  0  0  0  0  0  0  0
   -0.3479   -1.7490    0.1009 C   0  0  1  0  0  0  0  0  0  0  0  0
    0.3991   -2.3997   -0.3561 H   0  0  0  0  0  0  0  0  0  0  0  0
   -0.4761   -0.4285   -0.6963 C   0  0  0  0  0  0  0  0  0  0  0  0
   -1.4880   -0.0234   -0.5898 H   0  0  0  0  0  0  0  0  0  0  0  0
    0.2047    0.3072   -0.2519 H   0  0  0  0  0  0  0  0  0  0  0  0
   -0.1105   -0.5285   -2.1922 C   0  0  0  0  0  0  0  0  0  0  0  0
   -0.9266   -1.0235   -2.7295 H   0  0  0  0  0  0  0  0  0  0  0  0
   -0.0107    0.4861   -2.5933 H   0  0  0  0  0  0  0  0  0  0  0  0
    1.1856   -1.3131   -2.4252 C   0  0  0  0  0  0  0  0  0  0  0  0
    1.9480   -0.9396   -1.7316 H   0  0  0  0  0  0  0  0  0  0  0  0
    1.0096   -2.3721   -2.2080 H   0  0  0  0  0  0  0  0  0  0  0  0
    1.6678   -1.1735   -3.8101 N   0  3  0  0  0  0  0  0  0  0  0  0
    1.1314   -0.5778   -4.4390 H   0  0  0  0  0  0  0  0  0  0  0  0
    2.7574   -1.7462   -4.2361 C   0  0  0  0  0  0  0  0  0  0  0  0
    3.5297   -2.5350   -3.4121 N   0  0  0  0  0  0  0  0  0  0  0  0
    3.3169   -2.5387   -2.4154 H   0  0  0  0  0  0  0  0  0  0  0  0
    4.4792   -2.7639   -3.6985 H   0  0  0  0  0  0  0  0  0  0  0  0
    3.1581   -1.5646   -5.5383 N   0  0  0  0  0  0  0  0  0  0  0  0
    2.5072   -1.1423   -6.1973 H   0  0  0  0  0  0  0  0  0  0  0  0
    3.8862   -2.1722   -5.9095 H   0  0  0  0  0  0  0  0  0  0  0  0
    0.2217   -1.4897    1.5115 C   0  0  0  0  0  0  0  0  0  0  0  0
    1.4383   -1.4435    1.6403 O   0  0  0  0  0  0  0  0  0  0  0  0
   -0.5924   -1.0454    2.5372 N   0  0  0  0  0  0  0  0  0  0  0  0
   -1.5944   -1.1365    2.4053 H   0  0  0  0  0  0  0  0  0  0  0  0
   -0.0872   -0.7408    3.8717 C   0  0  0  0  0  0  0  0  0  0  0  0
    0.6598    0.0589    3.8272 H   0  0  0  0  0  0  0  0  0  0  0  0
   -0.9040   -0.4119    4.5215 H   0  0  0  0  0  0  0  0  0  0  0  0
    0.3742   -1.6281    4.3181 H   0  0  0  0  0  0  0  0  0  0  0  0
  1  2  1  0  0  0  0
  2  3  1  0  0  0  0
  2  4  1  0  0  0  0
  2  5  1  0  0  0  0
  5  6  2  0  0  0  0
  5  7  1  0  0  0  0
  7  8  1  0  0  0  0
  7  9  1  0  0  0  0
  9 10  1  0  0  0  0
  9 11  1  0  0  0  0
  9 29  1  0  0  0  0
 11 12  1  0  0  0  0
 11 13  1  0  0  0  0
 11 14  1  0  0  0  0
 14 15  1  0  0  0  0
 14 16  1  0  0  0  0
 14 17  1  0  0  0  0
 17 18  1  0  0  0  0
 17 19  1  0  0  0  0
 17 20  1  0  0  0  0
 20 21  1  0  0  0  0
 20 22  2  0  0  0  0
 22 23  1  0  0  0  0
 22 26  1  0  0  0  0
 23 24  1  0  0  0  0
 23 25  1  0  0  0  0
 26 27  1  0  0  0  0
 26 28  1  0  0  0  0
 29 30  2  0  0  0  0
 29 31  1  0  0  0  0
 31 32  1  0  0  0  0
 31 33  1  0  0  0  0
 33 34  1  0  0  0  0
 33 35  1  0  0  0  0
 33 36  1  0  0  0  0
M  CHG  1  20   1
M  END
$$$$

  -OEChem-04042215563D

 36 35  0     1  0  0  0  0  0999 V2000
   -3.1195   -5.3700    1.1552 H   0  0  0  0  0  0  0  0  0  0  0  0
   -3.1770   -4.3656    0.7252 C   0  0  0  0  0  0  0  0  0  0  0  0
   -3.7913   -3.7410    1.3780 H   0  0  0  0  0  0  0  0  0  0  0  0
   -3.6499   -4.4312   -0.2576 H   0  0  0  0  0  0  0  0  0  0  0  0
   -1.7860   -3.7750    0.5962 C   0  0  0  0  0  0  0  0  0  0  0  0
   -0.8106   -4.4275    0.9227 O   0  0  0  0  0  0  0  0  0  0  0  0
   -1.6098   -2.5083    0.0701 N   0  0  0  0  0  0  0  0  0  0  0  0
   -2.4539   -1.9819   -0.1385 H   0  0  0  0  0  0  0  0  0  0  0  0
   -0.3262   -1.7863    0.1387 C   0  0  1  0  0  0  0  0  0  0  0  0
    0.4372   -2.4415   -0.2838 H   0  0  0  0  0  0  0  0  0  0  0  0
   -0.4322   -0.4660   -0.6653 C   0  0  0  0  0  0  0  0  0  0  0  0
   -1.4364   -0.0419   -0.5619 H   0  0  0  0  0  0  0  0  0  0  0  0
    0.2575    0.2531   -0.2079 H   0  0  0  0  0  0  0  0  0  0  0  0
   -0.0487   -0.5405   -2.1621 C   0  0  0  0  0  0  0  0  0  0  0  0
   -0.9489   -0.7765   -2.7393 H   0  0  0  0  0  0  0  0  0  0  0  0
    0.2998    0.4482   -2.4805 H   0  0  0  0  0  0  0  0  0  0  0  0
    1.0141   -1.5958   -2.4824 C   0  0  0  0  0  0  0  0  0  0  0  0
    1.8628   -1.4522   -1.8035 H   0  0  0  0  0  0  0  0  0  0  0  0
    0.5932   -2.5923   -2.3058 H   0  0  0  0  0  0  0  0  0  0  0  0
    1.4743   -1.4929   -3.8778 N   0  3  0  0  0  0  0  0  0  0  0  0
    1.0803   -0.7474   -4.4496 H   0  0  0  0  0  0  0  0  0  0  0  0
    2.3833   -2.2783   -4.3808 C   0  0  0  0  0  0  0  0  0  0  0  0
    2.9718   -3.2760   -3.6354 N   0  0  0  0  0  0  0  0  0  0  0  0
    2.7967   -3.2899   -2.6317 H   0  0  0  0  0  0  0  0  0  0  0  0
    3.8320   -3.7009   -3.9757 H   0  0  0  0  0  0  0  0  0  0  0  0
    2.7752   -2.1149   -5.6880 N   0  0  0  0  0  0  0  0  0  0  0  0
    2.2242   -1.5100   -6.2936 H   0  0  0  0  0  0  0  0  0  0  0  0
    3.3299   -2.8498   -6.1234 H   0  0  0  0  0  0  0  0  0  0  0  0
    0.1918   -1.5211    1.5690 C   0  0  0  0  0  0  0  0  0  0  0  0
    1.4014   -1.5019    1.7523 O   0  0  0  0  0  0  0  0  0  0  0  0
   -0.6567   -1.0571    2.5579 N   0  0  0  0  0  0  0  0  0  0  0  0
   -1.6541   -1.1094    2.3798 H   0  0  0  0  0  0  0  0  0  0  0  0
   -0.1999   -0.7252    3.9033 C   0  0  0  0  0  0  0  0  0  0  0  0
    0.5562    0.0664    3.8685 H   0  0  0  0  0  0  0  0  0  0  0  0
   -1.0376   -0.3731    4.5134 H   0  0  0  0  0  0  0  0  0  0  0  0
    0.2362   -1.6057    4.3876 H   0  0  0  0  0  0  0  0  0  0  0  0
  1  2  1  0  0  0  0
  2  3  1  0  0  0  0
  2  4  1  0  0  0  0
  2  5  1  0  0  0  0
  5  6  2  0  0  0  0
  5  7  1  0  0  0  0
  7  8  1  0  0  0  0
  7  9  1  0  0  0  0
  9 10  1  0  0  0  0
  9 11  1  0  0  0  0
  9 29  1  0  0  0  0
 11 12  1  0  0  0  0
 11 13  1  0  0  0  0
 11 14  1  0  0  0  0
 14 15  1  0  0  0  0
 14 16  1  0  0  0  0
 14 17  1  0  0  0  0
 17 18  1  0  0  0  0
 17 19  1  0  0  0  0
 17 20  1  0  0  0  0
 20 21  1  0  0  0  0
 20 22  2  0  0  0  0
 22 23  1  0  0  0  0
 22 26  1  0  0  0  0
 23 24  1  0  0  0  0
 23 25  1  0  0  0  0
 26 27  1  0  0  0  0
 26 28  1  0  0  0  0
 29 30  2  0  0  0  0
 29 31  1  0  0  0  0
 31 32  1  0  0  0  0
 31 33  1  0  0  0  0
 33 34  1  0  0  0  0
 33 35  1  0  0  0  0
 33 36  1  0  0  0  0
M  CHG  1  20   1
M  END
$$$$

  -OEChem-04042215563D

 36 35  0     1  0  0  0  0  0999 V2000
   -3.1046   -5.3510    1.2012 H   0  0  0  0  0  0  0  0  0  0  0  0
   -3.1598   -4.3566    0.7483 C   0  0  0  0  0  0  0  0  0  0  0  0
   -3.7723   -3.7161    1.3873 H   0  0  0  0  0  0  0  0  0  0  0  0
   -3.6335   -4.4436   -0.2323 H   0  0  0  0  0  0  0  0  0  0  0  0
   -1.7668   -3.7738    0.6045 C   0  0  0  0  0  0  0  0  0  0  0  0
   -0.7905   -4.4402    0.8990 O   0  0  0  0  0  0  0  0  0  0  0  0
   -1.5869   -2.5088    0.0754 N   0  0  0  0  0  0  0  0  0  0  0  0
   -2.4316   -1.9734   -0.1068 H   0  0  0  0  0  0  0  0  0  0  0  0
   -0.3054   -1.7843    0.1681 C   0  0  1  0  0  0  0  0  0  0  0  0
    0.4773   -2.4326   -0.2300 H   0  0  0  0  0  0  0  0  0  0  0  0
   -0.4023   -0.4664   -0.6410 C   0  0  0  0  0  0  0  0  0  0  0  0
   -1.4098   -0.0460   -0.5533 H   0  0  0  0  0  0  0  0  0  0  0  0
    0.2749    0.2564   -0.1702 H   0  0  0  0  0  0  0  0  0  0  0  0
    0.0057   -0.5334   -2.1355 C   0  0  0  0  0  0  0  0  0  0  0  0
   -0.9076   -0.4979   -2.7391 H   0  0  0  0  0  0  0  0  0  0  0  0
    0.5938    0.3593   -2.3764 H   0  0  0  0  0  0  0  0  0  0  0  0
    0.7895   -1.7872   -2.5357 C   0  0  0  0  0  0  0  0  0  0  0  0
    1.6820   -1.8582   -1.9031 H   0  0  0  0  0  0  0  0  0  0  0  0
    0.1646   -2.6689   -2.3530 H   0  0  0  0  0  0  0  0  0  0  0  0
    1.1927   -1.7478   -3.9524 N   0  3  0  0  0  0  0  0  0  0  0  0
    0.9745   -0.9042   -4.4808 H   0  0  0  0  0  0  0  0  0  0  0  0
    1.8461   -2.7169   -4.5271 C   0  0  0  0  0  0  0  0  0  0  0  0
    2.1993   -3.8581   -3.8418 N   0  0  0  0  0  0  0  0  0  0  0  0
    2.0773   -3.8644   -2.8301 H   0  0  0  0  0  0  0  0  0  0  0  0
    2.9116   -4.4669   -4.2394 H   0  0  0  0  0  0  0  0  0  0  0  0
    2.2001   -2.6102   -5.8509 N   0  0  0  0  0  0  0  0  0  0  0  0
    1.7981   -1.8593   -6.4085 H   0  0  0  0  0  0  0  0  0  0  0  0
    2.5225   -3.4460   -6.3355 H   0  0  0  0  0  0  0  0  0  0  0  0
    0.1721   -1.5176    1.6131 C   0  0  0  0  0  0  0  0  0  0  0  0
    1.3741   -1.5121    1.8384 O   0  0  0  0  0  0  0  0  0  0  0  0
   -0.7042   -1.0539    2.5781 N   0  0  0  0  0  0  0  0  0  0  0  0
   -1.6956   -1.0862    2.3657 H   0  0  0  0  0  0  0  0  0  0  0  0
   -0.2867   -0.7227    3.9367 C   0  0  0  0  0  0  0  0  0  0  0  0
    0.4636    0.0752    3.9249 H   0  0  0  0  0  0  0  0  0  0  0  0
   -1.1435   -0.3794    4.5245 H   0  0  0  0  0  0  0  0  0  0  0  0
    0.1427   -1.6010    4.4307 H   0  0  0  0  0  0  0  0  0  0  0  0
  1  2  1  0  0  0  0
  2  3  1  0  0  0  0
  2  4  1  0  0  0  0
  2  5  1  0  0  0  0
  5  6  2  0  0  0  0
  5  7  1  0  0  0  0
  7  8  1  0  0  0  0
  7  9  1  0  0  0  0
  9 10  1  0  0  0  0
  9 11  1  0  0  0  0
  9 29  1  0  0  0  0
 11 12  1  0  0  0  0
 11 13  1  0  0  0  0
 11 14  1  0  0  0  0
 14 15  1  0  0  0  0
 14 16  1  0  0  0  0
 14 17  1  0  0  0  0
 17 18  1  0  0  0  0
 17 19  1  0  0  0  0
 17 20  1  0  0  0  0
 20 21  1  0  0  0  0
 20 22  2  0  0  0  0
 22 23  1  0  0  0  0
 22 26  1  0  0  0  0
 23 24  1  0  0  0  0
 23 25  1  0  0  0  0
 26 27  1  0  0  0  0
 26 28  1  0  0  0  0
 29 30  2  0  0  0  0
 29 31  1  0  0  0  0
 31 32  1  0  0  0  0
 31 33  1  0  0  0  0
 33 34  1  0  0  0  0
 33 35  1  0  0  0  0
 33 36  1  0  0  0  0
M  CHG  1  20   1
M  END
$$$$

  -OEChem-04042215563D

 36 35  0     1  0  0  0  0  0999 V2000
   -3.1123   -5.3269    1.2635 H   0  0  0  0  0  0  0  0  0  0  0  0
   -3.1721   -4.3231    0.8323 C   0  0  0  0  0  0  0  0  0  0  0  0
   -3.7221   -3.6795    1.5228 H   0  0  0  0  0  0  0  0  0  0  0  0
   -3.7138   -4.3789   -0.1148 H   0  0  0  0  0  0  0  0  0  0  0  0
   -1.7774   -3.7723    0.6049 C   0  0  0  0  0  0  0  0  0  0  0  0
   -0.8000   -4.4657    0.8240 O   0  0  0  0  0  0  0  0  0  0  0  0
   -1.6004   -2.5083    0.0737 N   0  0  0  0  0  0  0  0  0  0  0  0
   -2.4459   -1.9562   -0.0431 H   0  0  0  0  0  0  0  0  0  0  0  0
   -0.3147   -1.7903    0.1679 C   0  0  1  0  0  0  0  0  0  0  0  0
    0.4719   -2.4353   -0.2294 H   0  0  0  0  0  0  0  0  0  0  0  0
   -0.4014   -0.4744   -0.6426 C   0  0  0  0  0  0  0  0  0  0  0  0
   -1.4150   -0.0668   -0.5673 H   0  0  0  0  0  0  0  0  0  0  0  0
    0.2617    0.2596   -0.1695 H   0  0  0  0  0  0  0  0  0  0  0  0
    0.0112   -0.5541   -2.1359 C   0  0  0  0  0  0  0  0  0  0  0  0
   -0.8383   -0.2267   -2.7445 H   0  0  0  0  0  0  0  0  0  0  0  0
    0.8284    0.1559   -2.3059 H   0  0  0  0  0  0  0  0  0  0  0  0
    0.4548   -1.9406   -2.6149 C   0  0  0  0  0  0  0  0  0  0  0  0
    1.3232   -2.2551   -2.0255 H   0  0  0  0  0  0  0  0  0  0  0  0
   -0.3594   -2.6538   -2.4426 H   0  0  0  0  0  0  0  0  0  0  0  0
    0.8190   -1.9267   -4.0421 N   0  3  0  0  0  0  0  0  0  0  0  0
    0.7752   -1.0332   -4.5300 H   0  0  0  0  0  0  0  0  0  0  0  0
    1.2493   -2.9832   -4.6703 C   0  0  0  0  0  0  0  0  0  0  0  0
    1.3650   -4.2027   -4.0406 N   0  0  0  0  0  0  0  0  0  0  0  0
    1.2641   -4.2285   -3.0268 H   0  0  0  0  0  0  0  0  0  0  0  0
    1.9222   -4.9309   -4.4824 H   0  0  0  0  0  0  0  0  0  0  0  0
    1.6029   -2.8908   -5.9952 N   0  0  0  0  0  0  0  0  0  0  0  0
    1.3661   -2.0459   -6.5115 H   0  0  0  0  0  0  0  0  0  0  0  0
    1.7478   -3.7503   -6.5219 H   0  0  0  0  0  0  0  0  0  0  0  0
    0.1582   -1.5290    1.6153 C   0  0  0  0  0  0  0  0  0  0  0  0
    1.3573   -1.5432    1.8522 O   0  0  0  0  0  0  0  0  0  0  0  0
   -0.7191   -1.0622    2.5782 N   0  0  0  0  0  0  0  0  0  0  0  0
   -1.7078   -1.0535    2.3523 H   0  0  0  0  0  0  0  0  0  0  0  0
   -0.3038   -0.7301    3.9375 C   0  0  0  0  0  0  0  0  0  0  0  0
    0.4411    0.0728    3.9261 H   0  0  0  0  0  0  0  0  0  0  0  0
   -1.1627   -0.3944    4.5271 H   0  0  0  0  0  0  0  0  0  0  0  0
    0.1322   -1.6061    4.4300 H   0  0  0  0  0  0  0  0  0  0  0  0
  1  2  1  0  0  0  0
  2  3  1  0  0  0  0
  2  4  1  0  0  0  0
  2  5  1  0  0  0  0
  5  6  2  0  0  0  0
  5  7  1  0  0  0  0
  7  8  1  0  0  0  0
  7  9  1  0  0  0  0
  9 10  1  0  0  0  0
  9 11  1  0  0  0  0
  9 29  1  0  0  0  0
 11 12  1  0  0  0  0
 11 13  1  0  0  0  0
 11 14  1  0  0  0  0
 14 15  1  0  0  0  0
 14 16  1  0  0  0  0
 14 17  1  0  0  0  0
 17 18  1  0  0  0  0
 17 19  1  0  0  0  0
 17 20  1  0  0  0  0
 20 21  1  0  0  0  0
 20 22  2  0  0  0  0
 22 23  1  0  0  0  0
 22 26  1  0  0  0  0
 23 24  1  0  0  0  0
 23 25  1  0  0  0  0
 26 27  1  0  0  0  0
 26 28  1  0  0  0  0
 29 30  2  0  0  0  0
 29 31  1  0  0  0  0
 31 32  1  0  0  0  0
 31 33  1  0  0  0  0
 33 34  1  0  0  0  0
 33 35  1  0  0  0  0
 33 36  1  0  0  0  0
M  CHG  1  20   1
M  END
$$$$

  -OEChem-04042215563D

 36 35  0     1  0  0  0  0  0999 V2000
   -3.2634   -5.2536    1.2710 H   0  0  0  0  0  0  0  0  0  0  0  0
   -3.3004   -4.2184    0.9189 C   0  0  0  0  0  0  0  0  0  0  0  0
   -3.7487   -3.6002    1.7003 H   0  0  0  0  0  0  0  0  0  0  0  0
   -3.9253   -4.1744    0.0238 H   0  0  0  0  0  0  0  0  0  0  0  0
   -1.9005   -3.7272    0.6046 C   0  0  0  0  0  0  0  0  0  0  0  0
   -0.9449   -4.4722    0.7310 O   0  0  0  0  0  0  0  0  0  0  0  0
   -1.7007   -2.4609    0.0871 N   0  0  0  0  0  0  0  0  0  0  0  0
   -2.5262   -1.8692    0.0448 H   0  0  0  0  0  0  0  0  0  0  0  0
   -0.3827   -1.7977    0.1341 C   0  0  1  0  0  0  0  0  0  0  0  0
    0.3607   -2.4636   -0.3101 H   0  0  0  0  0  0  0  0  0  0  0  0
   -0.4390   -0.4726   -0.6599 C   0  0  0  0  0  0  0  0  0  0  0  0
   -1.4393   -0.0388   -0.5569 H   0  0  0  0  0  0  0  0  0  0  0  0
    0.2584    0.2427   -0.2082 H   0  0  0  0  0  0  0  0  0  0  0  0
   -0.0841   -0.5778   -2.1651 C   0  0  0  0  0  0  0  0  0  0  0  0
   -0.7844    0.0437   -2.7332 H   0  0  0  0  0  0  0  0  0  0  0  0
    0.9175   -0.1559   -2.3065 H   0  0  0  0  0  0  0  0  0  0  0  0
   -0.0836   -2.0040   -2.7315 C   0  0  0  0  0  0  0  0  0  0  0  0
    0.6445   -2.6064   -2.1802 H   0  0  0  0  0  0  0  0  0  0  0  0
   -1.0758   -2.4472   -2.5913 H   0  0  0  0  0  0  0  0  0  0  0  0
    0.2752   -2.0085   -4.1603 N   0  3  0  0  0  0  0  0  0  0  0  0
    0.1978   -1.1275   -4.6665 H   0  0  0  0  0  0  0  0  0  0  0  0
    0.7027   -3.0713   -4.7806 C   0  0  0  0  0  0  0  0  0  0  0  0
    0.8439   -4.2817   -4.1377 N   0  0  0  0  0  0  0  0  0  0  0  0
    0.7485   -4.2997   -3.1232 H   0  0  0  0  0  0  0  0  0  0  0  0
    1.4059   -5.0083   -4.5767 H   0  0  0  0  0  0  0  0  0  0  0  0
    1.0274   -2.9942   -6.1140 N   0  0  0  0  0  0  0  0  0  0  0  0
    0.7611   -2.1629   -6.6377 H   0  0  0  0  0  0  0  0  0  0  0  0
    1.1685   -3.8605   -6.6307 H   0  0  0  0  0  0  0  0  0  0  0  0
    0.1658   -1.5845    1.5627 C   0  0  0  0  0  0  0  0  0  0  0  0
    1.3713   -1.6637    1.7480 O   0  0  0  0  0  0  0  0  0  0  0  0
   -0.6469   -1.1014    2.5731 N   0  0  0  0  0  0  0  0  0  0  0  0
   -1.6408   -1.0254    2.3870 H   0  0  0  0  0  0  0  0  0  0  0  0
   -0.1577   -0.8174    3.9185 C   0  0  0  0  0  0  0  0  0  0  0  0
    0.6110   -0.0376    3.8909 H   0  0  0  0  0  0  0  0  0  0  0  0
   -0.9768   -0.4709    4.5562 H   0  0  0  0  0  0  0  0  0  0  0  0
    0.2730   -1.7188    4.3681 H   0  0  0  0  0  0  0  0  0  0  0  0
  1  2  1  0  0  0  0
  2  3  1  0  0  0  0
  2  4  1  0  0  0  0
  2  5  1  0  0  0  0
  5  6  2  0  0  0  0
  5  7  1  0  0  0  0
  7  8  1  0  0  0  0
  7  9  1  0  0  0  0
  9 10  1  0  0  0  0
  9 11  1  0  0  0  0
  9 29  1  0  0  0  0
 11 12  1  0  0  0  0
 11 13  1  0  0  0  0
 11 14  1  0  0  0  0
 14 15  1  0  0  0  0
 14 16  1  0  0  0  0
 14 17  1  0  0  0  0
 17 18  1  0  0  0  0
 17 19  1  0  0  0  0
 17 20  1  0  0  0  0
 20 21  1  0  0  0  0
 20 22  2  0  0  0  0
 22 23  1  0  0  0  0
 22 26  1  0  0  0  0
 23 24  1  0  0  0  0
 23 25  1  0  0  0  0
 26 27  1  0  0  0  0
 26 28  1  0  0  0  0
 29 30  2  0  0  0  0
 29 31  1  0  0  0  0
 31 32  1  0  0  0  0
 31 33  1  0  0  0  0
 33 34  1  0  0  0  0
 33 35  1  0  0  0  0
 33 36  1  0  0  0  0
M  CHG  1  20   1
M  END
$$$$

  -OEChem-04042215563D

 36 35  0     1  0  0  0  0  0999 V2000
   -3.0344   -5.3841    0.8689 H   0  0  0  0  0  0  0  0  0  0  0  0
   -3.1496   -4.3001    0.7764 C   0  0  0  0  0  0  0  0  0  0  0  0
   -3.2744   -3.8773    1.7763 H   0  0  0  0  0  0  0  0  0  0  0  0
   -4.0446   -4.0909    0.1852 H   0  0  0  0  0  0  0  0  0  0  0  0
   -1.9275   -3.7011    0.1082 C   0  0  0  0  0  0  0  0  0  0  0  0
   -1.0335   -4.4145   -0.3153 O   0  0  0  0  0  0  0  0  0  0  0  0
   -1.8619   -2.3513   -0.1744 N   0  0  0  0  0  0  0  0  0  0  0  0
   -2.6386   -1.8020    0.1881 H   0  0  0  0  0  0  0  0  0  0  0  0
   -0.5706   -1.6504   -0.3389 C   0  0  1  0  0  0  0  0  0  0  0  0
    0.0169   -2.1627   -1.1049 H   0  0  0  0  0  0  0  0  0  0  0  0
   -0.8349   -0.2159   -0.8308 C   0  0  0  0  0  0  0  0  0  0  0  0
   -1.7824    0.1384   -0.4111 H   0  0  0  0  0  0  0  0  0  0  0  0
   -0.0529    0.4500   -0.4472 H   0  0  0  0  0  0  0  0  0  0  0  0
   -0.8717   -0.0616   -2.3695 C   0  0  0  0  0  0  0  0  0  0  0  0
   -1.5214    0.7866   -2.6120 H   0  0  0  0  0  0  0  0  0  0  0  0
    0.1351    0.2113   -2.7051 H   0  0  0  0  0  0  0  0  0  0  0  0
   -1.3555   -1.2914   -3.1647 C   0  0  0  0  0  0  0  0  0  0  0  0
   -1.7854   -2.0415   -2.4966 H   0  0  0  0  0  0  0  0  0  0  0  0
   -2.1516   -0.9764   -3.8487 H   0  0  0  0  0  0  0  0  0  0  0  0
   -0.2406   -1.8578   -3.9550 N   0  3  0  0  0  0  0  0  0  0  0  0
    0.2086   -1.2260   -4.6164 H   0  0  0  0  0  0  0  0  0  0  0  0
    0.1715   -3.0947   -3.9094 C   0  0  0  0  0  0  0  0  0  0  0  0
   -0.3532   -4.0388   -3.0598 N   0  0  0  0  0  0  0  0  0  0  0  0
   -0.8438   -3.7085   -2.2267 H   0  0  0  0  0  0  0  0  0  0  0  0
    0.1668   -4.9053   -2.9403 H   0  0  0  0  0  0  0  0  0  0  0  0
    1.1792   -3.4907   -4.7561 N   0  0  0  0  0  0  0  0  0  0  0  0
    1.4715   -2.8694   -5.5072 H   0  0  0  0  0  0  0  0  0  0  0  0
    1.3774   -4.4854   -4.8473 H   0  0  0  0  0  0  0  0  0  0  0  0
    0.3454   -1.6941    0.9030 C   0  0  0  0  0  0  0  0  0  0  0  0
    1.5449   -1.8567    0.7377 O   0  0  0  0  0  0  0  0  0  0  0  0
   -0.1498   -1.4560    2.1726 N   0  0  0  0  0  0  0  0  0  0  0  0
   -1.1409   -1.2631    2.2723 H   0  0  0  0  0  0  0  0  0  0  0  0
    0.6947   -1.4329    3.3631 C   0  0  0  0  0  0  0  0  0  0  0  0
    1.4682   -0.6627    3.2716 H   0  0  0  0  0  0  0  0  0  0  0  0
    0.0945   -1.2139    4.2517 H   0  0  0  0  0  0  0  0  0  0  0  0
    1.1817   -2.4035    3.5064 H   0  0  0  0  0  0  0  0  0  0  0  0
  1  2  1  0  0  0  0
  2  3  1  0  0  0  0
  2  4  1  0  0  0  0
  2  5  1  0  0  0  0
  5  6  2  0  0  0  0
  5  7  1  0  0  0  0
  7  8  1  0  0  0  0
  7  9  1  0  0  0  0
  9 10  1  0  0  0  0
  9 11  1  0  0  0  0
  9 29  1  0  0  0  0
 11 12  1  0  0  0  0
 11 13  1  0  0  0  0
 11 14  1  0  0  0  0
 14 15  1  0  0  0  0
 14 16  1  0  0  0  0
 14 17  1  0  0  0  0
 17 18  1  0  0  0  0
 17 19  1  0  0  0  0
 17 20  1  0  0  0  0
 20 21  1  0  0  0  0
 20 22  2  0  0  0  0
 22 23  1  0  0  0  0
 22 26  1  0  0  0  0
 23 24  1  0  0  0  0
 23 25  1  0  0  0  0
 26 27  1  0  0  0  0
 26 28  1  0  0  0  0
 29 30  2  0  0  0  0
 29 31  1  0  0  0  0
 31 32  1  0  0  0  0
 31 33  1  0  0  0  0
 33 34  1  0  0  0  0
 33 35  1  0  0  0  0
 33 36  1  0  0  0  0
M  CHG  1  20   1
M  END
$$$$

  -OEChem-04042215563D

 36 35  0     1  0  0  0  0  0999 V2000
   -3.3065   -5.2419    0.7365 H   0  0  0  0  0  0  0  0  0  0  0  0
   -3.3497   -4.1487    0.7278 C   0  0  0  0  0  0  0  0  0  0  0  0
   -3.4130   -3.7953    1.7598 H   0  0  0  0  0  0  0  0  0  0  0  0
   -4.2463   -3.8366    0.1867 H   0  0  0  0  0  0  0  0  0  0  0  0
   -2.1108   -3.5839    0.0609 C   0  0  0  0  0  0  0  0  0  0  0  0
   -1.2735   -4.3212   -0.4336 O   0  0  0  0  0  0  0  0  0  0  0  0
   -1.9756   -2.2286   -0.1655 N   0  0  0  0  0  0  0  0  0  0  0  0
   -2.7138   -1.6578    0.2410 H   0  0  0  0  0  0  0  0  0  0  0  0
   -0.6393   -1.6052   -0.2673 C   0  0  1  0  0  0  0  0  0  0  0  0
   -0.0690   -2.1498   -1.0260 H   0  0  0  0  0  0  0  0  0  0  0  0
   -0.7598   -0.1550   -0.7687 C   0  0  0  0  0  0  0  0  0  0  0  0
   -1.6981    0.2814   -0.4105 H   0  0  0  0  0  0  0  0  0  0  0  0
    0.0553    0.4476   -0.3516 H   0  0  0  0  0  0  0  0  0  0  0  0
   -0.6922   -0.0547   -2.3081 C   0  0  0  0  0  0  0  0  0  0  0  0
   -0.9893    0.9529   -2.6187 H   0  0  0  0  0  0  0  0  0  0  0  0
    0.3594   -0.1789   -2.5915 H   0  0  0  0  0  0  0  0  0  0  0  0
   -1.5440   -1.0900   -3.0663 C   0  0  0  0  0  0  0  0  0  0  0  0
   -1.8739   -1.8878   -2.3995 H   0  0  0  0  0  0  0  0  0  0  0  0
   -2.4459   -0.5992   -3.4489 H   0  0  0  0  0  0  0  0  0  0  0  0
   -0.7716   -1.6700   -4.1826 N   0  3  0  0  0  0  0  0  0  0  0  0
   -0.5643   -1.0515   -4.9655 H   0  0  0  0  0  0  0  0  0  0  0  0
   -0.3152   -2.8925   -4.2102 C   0  0  0  0  0  0  0  0  0  0  0  0
   -0.5219   -3.8059   -3.2003 N   0  0  0  0  0  0  0  0  0  0  0  0
   -0.9127   -3.4928   -2.3091 H   0  0  0  0  0  0  0  0  0  0  0  0
    0.0491   -4.6479   -3.1750 H   0  0  0  0  0  0  0  0  0  0  0  0
    0.4125   -3.3055   -5.3005 N   0  0  0  0  0  0  0  0  0  0  0  0
    0.4234   -2.7248   -6.1362 H   0  0  0  0  0  0  0  0  0  0  0  0
    0.6075   -4.2997   -5.4041 H   0  0  0  0  0  0  0  0  0  0  0  0
    0.2397   -1.7494    0.9931 C   0  0  0  0  0  0  0  0  0  0  0  0
    1.4303   -1.9842    0.8542 O   0  0  0  0  0  0  0  0  0  0  0  0
   -0.2761   -1.5259    2.2571 N   0  0  0  0  0  0  0  0  0  0  0  0
   -1.2494   -1.2510    2.3353 H   0  0  0  0  0  0  0  0  0  0  0  0
    0.5385   -1.5792    3.4671 C   0  0  0  0  0  0  0  0  0  0  0  0
    1.3409   -0.8350    3.4236 H   0  0  0  0  0  0  0  0  0  0  0  0
   -0.0755   -1.3728    4.3492 H   0  0  0  0  0  0  0  0  0  0  0  0
    0.9874   -2.5716    3.5837 H   0  0  0  0  0  0  0  0  0  0  0  0
  1  2  1  0  0  0  0
  2  3  1  0  0  0  0
  2  4  1  0  0  0  0
  2  5  1  0  0  0  0
  5  6  2  0  0  0  0
  5  7  1  0  0  0  0
  7  8  1  0  0  0  0
  7  9  1  0  0  0  0
  9 10  1  0  0  0  0
  9 11  1  0  0  0  0
  9 29  1  0  0  0  0
 11 12  1  0  0  0  0
 11 13  1  0  0  0  0
 11 14  1  0  0  0  0
 14 15  1  0  0  0  0
 14 16  1  0  0  0  0
 14 17  1  0  0  0  0
 17 18  1  0  0  0  0
 17 19  1  0  0  0  0
 17 20  1  0  0  0  0
 20 21  1  0  0  0  0
 20 22  2  0  0  0  0
 22 23  1  0  0  0  0
 22 26  1  0  0  0  0
 23 24  1  0  0  0  0
 23 25  1  0  0  0  0
 26 27  1  0  0  0  0
 26 28  1  0  0  0  0
 29 30  2  0  0  0  0
 29 31  1  0  0  0  0
 31 32  1  0  0  0  0
 31 33  1  0  0  0  0
 33 34  1  0  0  0  0
 33 35  1  0  0  0  0
 33 36  1  0  0  0  0
M  CHG  1  20   1
M  END
$$$$

  -OEChem-04042215563D

 36 35  0     1  0  0  0  0  0999 V2000
   -3.4407   -5.1345    0.5936 H   0  0  0  0  0  0  0  0  0  0  0  0
   -3.4343   -4.0413    0.6382 C   0  0  0  0  0  0  0  0  0  0  0  0
   -3.4748   -3.7355    1.6867 H   0  0  0  0  0  0  0  0  0  0  0  0
   -4.3197   -3.6643    0.1207 H   0  0  0  0  0  0  0  0  0  0  0  0
   -2.1750   -3.5016   -0.0116 C   0  0  0  0  0  0  0  0  0  0  0  0
   -1.3679   -4.2523   -0.5342 O   0  0  0  0  0  0  0  0  0  0  0  0
   -1.9947   -2.1462   -0.2044 N   0  0  0  0  0  0  0  0  0  0  0  0
   -2.7169   -1.5662    0.2176 H   0  0  0  0  0  0  0  0  0  0  0  0
   -0.6376   -1.5628   -0.2558 C   0  0  1  0  0  0  0  0  0  0  0  0
   -0.0664   -2.1120   -1.0118 H   0  0  0  0  0  0  0  0  0  0  0  0
   -0.7028   -0.0985   -0.7289 C   0  0  0  0  0  0  0  0  0  0  0  0
   -1.6289    0.3744   -0.3855 H   0  0  0  0  0  0  0  0  0  0  0  0
    0.1304    0.4620   -0.2894 H   0  0  0  0  0  0  0  0  0  0  0  0
   -0.5879   -0.0010   -2.2622 C   0  0  0  0  0  0  0  0  0  0  0  0
   -0.6056    1.0528   -2.5607 H   0  0  0  0  0  0  0  0  0  0  0  0
    0.3913   -0.4001   -2.5520 H   0  0  0  0  0  0  0  0  0  0  0  0
   -1.7013   -0.7490   -3.0099 C   0  0  0  0  0  0  0  0  0  0  0  0
   -2.1233   -1.5392   -2.3865 H   0  0  0  0  0  0  0  0  0  0  0  0
   -2.5147   -0.0516   -3.2390 H   0  0  0  0  0  0  0  0  0  0  0  0
   -1.1678   -1.3402   -4.2518 N   0  3  0  0  0  0  0  0  0  0  0  0
   -1.0384   -0.7110   -5.0431 H   0  0  0  0  0  0  0  0  0  0  0  0
   -0.8219   -2.5924   -4.3752 C   0  0  0  0  0  0  0  0  0  0  0  0
   -0.9354   -3.5098   -3.3540 N   0  0  0  0  0  0  0  0  0  0  0  0
   -1.1546   -3.1878   -2.4095 H   0  0  0  0  0  0  0  0  0  0  0  0
   -0.4499   -4.4010   -3.4325 H   0  0  0  0  0  0  0  0  0  0  0  0
   -0.3165   -3.0311   -5.5755 N   0  0  0  0  0  0  0  0  0  0  0  0
   -0.3981   -2.4314   -6.3938 H   0  0  0  0  0  0  0  0  0  0  0  0
   -0.2228   -4.0344   -5.7234 H   0  0  0  0  0  0  0  0  0  0  0  0
    0.2017   -1.7607    1.0252 C   0  0  0  0  0  0  0  0  0  0  0  0
    1.3894   -2.0223    0.9154 O   0  0  0  0  0  0  0  0  0  0  0  0
   -0.3421   -1.5476    2.2795 N   0  0  0  0  0  0  0  0  0  0  0  0
   -1.3074   -1.2418    2.3374 H   0  0  0  0  0  0  0  0  0  0  0  0
    0.4392   -1.6440    3.5090 C   0  0  0  0  0  0  0  0  0  0  0  0
    1.2637   -0.9227    3.4988 H   0  0  0  0  0  0  0  0  0  0  0  0
   -0.1914   -1.4342    4.3785 H   0  0  0  0  0  0  0  0  0  0  0  0
    0.8561   -2.6509    3.6205 H   0  0  0  0  0  0  0  0  0  0  0  0
  1  2  1  0  0  0  0
  2  3  1  0  0  0  0
  2  4  1  0  0  0  0
  2  5  1  0  0  0  0
  5  6  2  0  0  0  0
  5  7  1  0  0  0  0
  7  8  1  0  0  0  0
  7  9  1  0  0  0  0
  9 10  1  0  0  0  0
  9 11  1  0  0  0  0
  9 29  1  0  0  0  0
 11 12  1  0  0  0  0
 11 13  1  0  0  0  0
 11 14  1  0  0  0  0
 14 15  1  0  0  0  0
 14 16  1  0  0  0  0
 14 17  1  0  0  0  0
 17 18  1  0  0  0  0
 17 19  1  0  0  0  0
 17 20  1  0  0  0  0
 20 21  1  0  0  0  0
 20 22  2  0  0  0  0
 22 23  1  0  0  0  0
 22 26  1  0  0  0  0
 23 24  1  0  0  0  0
 23 25  1  0  0  0  0
 26 27  1  0  0  0  0
 26 28  1  0  0  0  0
 29 30  2  0  0  0  0
 29 31  1  0  0  0  0
 31 32  1  0  0  0  0
 31 33  1  0  0  0  0
 33 34  1  0  0  0  0
 33 35  1  0  0  0  0
 33 36  1  0  0  0  0
M  CHG  1  20   1
M  END
$$$$

  -OEChem-04042215563D

 36 35  0     1  0  0  0  0  0999 V2000
   -3.4454   -5.0823    0.4394 H   0  0  0  0  0  0  0  0  0  0  0  0
   -3.4294   -3.9909    0.5144 C   0  0  0  0  0  0  0  0  0  0  0  0
   -3.4692   -3.7145    1.5711 H   0  0  0  0  0  0  0  0  0  0  0  0
   -4.3101   -3.5911    0.0057 H   0  0  0  0  0  0  0  0  0  0  0  0
   -2.1637   -3.4452   -0.1173 C   0  0  0  0  0  0  0  0  0  0  0  0
   -1.3621   -4.1893   -0.6557 O   0  0  0  0  0  0  0  0  0  0  0  0
   -1.9747   -2.0863   -0.2787 N   0  0  0  0  0  0  0  0  0  0  0  0
   -2.6980   -1.5172    0.1565 H   0  0  0  0  0  0  0  0  0  0  0  0
   -0.6134   -1.5103   -0.2776 C   0  0  1  0  0  0  0  0  0  0  0  0
   -0.0213   -2.0430   -1.0299 H   0  0  0  0  0  0  0  0  0  0  0  0
   -0.6824   -0.0302   -0.7010 C   0  0  0  0  0  0  0  0  0  0  0  0
   -1.6070    0.4405   -0.3504 H   0  0  0  0  0  0  0  0  0  0  0  0
    0.1522    0.5095   -0.2383 H   0  0  0  0  0  0  0  0  0  0  0  0
   -0.5396    0.1022   -2.2269 C   0  0  0  0  0  0  0  0  0  0  0  0
   -0.3269    1.1472   -2.4779 H   0  0  0  0  0  0  0  0  0  0  0  0
    0.3231   -0.4846   -2.5623 H   0  0  0  0  0  0  0  0  0  0  0  0
   -1.8153   -0.3212   -2.9617 C   0  0  0  0  0  0  0  0  0  0  0  0
   -2.3735   -1.0493   -2.3665 H   0  0  0  0  0  0  0  0  0  0  0  0
   -2.4644    0.5506   -3.0991 H   0  0  0  0  0  0  0  0  0  0  0  0
   -1.4679   -0.9151   -4.2672 N   0  3  0  0  0  0  0  0  0  0  0  0
   -1.3712   -0.2755   -5.0552 H   0  0  0  0  0  0  0  0  0  0  0  0
   -1.2458   -2.1878   -4.4503 C   0  0  0  0  0  0  0  0  0  0  0  0
   -1.3254   -3.1088   -3.4297 N   0  0  0  0  0  0  0  0  0  0  0  0
   -1.3875   -2.7736   -2.4673 H   0  0  0  0  0  0  0  0  0  0  0  0
   -0.9254   -4.0355   -3.5658 H   0  0  0  0  0  0  0  0  0  0  0  0
   -0.9125   -2.6405   -5.7044 N   0  0  0  0  0  0  0  0  0  0  0  0
   -1.0216   -2.0165   -6.5011 H   0  0  0  0  0  0  0  0  0  0  0  0
   -0.9153   -3.6447   -5.8754 H   0  0  0  0  0  0  0  0  0  0  0  0
    0.1839   -1.7397    1.0250 C   0  0  0  0  0  0  0  0  0  0  0  0
    1.3735   -2.0029    0.9482 O   0  0  0  0  0  0  0  0  0  0  0  0
   -0.3975   -1.5485    2.2661 N   0  0  0  0  0  0  0  0  0  0  0  0
   -1.3624   -1.2384    2.3020 H   0  0  0  0  0  0  0  0  0  0  0  0
    0.3447   -1.6793    3.5165 C   0  0  0  0  0  0  0  0  0  0  0  0
    1.1772   -0.9679    3.5459 H   0  0  0  0  0  0  0  0  0  0  0  0
   -0.3094   -1.4798    4.3709 H   0  0  0  0  0  0  0  0  0  0  0  0
    0.7465   -2.6931    3.6200 H   0  0  0  0  0  0  0  0  0  0  0  0
  1  2  1  0  0  0  0
  2  3  1  0  0  0  0
  2  4  1  0  0  0  0
  2  5  1  0  0  0  0
  5  6  2  0  0  0  0
  5  7  1  0  0  0  0
  7  8  1  0  0  0  0
  7  9  1  0  0  0  0
  9 10  1  0  0  0  0
  9 11  1  0  0  0  0
  9 29  1  0  0  0  0
 11 12  1  0  0  0  0
 11 13  1  0  0  0  0
 11 14  1  0  0  0  0
 14 15  1  0  0  0  0
 14 16  1  0  0  0  0
 14 17  1  0  0  0  0
 17 18  1  0  0  0  0
 17 19  1  0  0  0  0
 17 20  1  0  0  0  0
 20 21  1  0  0  0  0
 20 22  2  0  0  0  0
 22 23  1  0  0  0  0
 22 26  1  0  0  0  0
 23 24  1  0  0  0  0
 23 25  1  0  0  0  0
 26 27  1  0  0  0  0
 26 28  1  0  0  0  0
 29 30  2  0  0  0  0
 29 31  1  0  0  0  0
 31 32  1  0  0  0  0
 31 33  1  0  0  0  0
 33 34  1  0  0  0  0
 33 35  1  0  0  0  0
 33 36  1  0  0  0  0
M  CHG  1  20   1
M  END
$$$$

  -OEChem-04042215563D

 36 35  0     1  0  0  0  0  0999 V2000
   -2.9431   -5.3969    1.1543 H   0  0  0  0  0  0  0  0  0  0  0  0
   -3.0752   -4.3839    0.7626 C   0  0  0  0  0  0  0  0  0  0  0  0
   -3.6332   -3.7971    1.4959 H   0  0  0  0  0  0  0  0  0  0  0  0
   -3.6477   -4.4396   -0.1658 H   0  0  0  0  0  0  0  0  0  0  0  0
   -1.7225   -3.7484    0.5041 C   0  0  0  0  0  0  0  0  0  0  0  0
   -0.7059   -4.3965    0.6667 O   0  0  0  0  0  0  0  0  0  0  0  0
   -1.6412   -2.4415    0.0574 N   0  0  0  0  0  0  0  0  0  0  0  0
   -2.5129   -1.9215    0.0647 H   0  0  0  0  0  0  0  0  0  0  0  0
   -0.3811   -1.6737    0.1041 C   0  0  1  0  0  0  0  0  0  0  0  0
    0.3807   -2.2506   -0.4326 H   0  0  0  0  0  0  0  0  0  0  0  0
   -0.5713   -0.3183   -0.6077 C   0  0  0  0  0  0  0  0  0  0  0  0
   -1.5812    0.0732   -0.4476 H   0  0  0  0  0  0  0  0  0  0  0  0
    0.1229    0.4028   -0.1601 H   0  0  0  0  0  0  0  0  0  0  0  0
   -0.2360   -0.4017   -2.1076 C   0  0  0  0  0  0  0  0  0  0  0  0
    0.1174    0.5834   -2.4319 H   0  0  0  0  0  0  0  0  0  0  0  0
    0.5823   -1.1103   -2.2787 H   0  0  0  0  0  0  0  0  0  0  0  0
   -1.4559   -0.7745   -2.9474 C   0  0  0  0  0  0  0  0  0  0  0  0
   -1.8498   -1.7366   -2.6009 H   0  0  0  0  0  0  0  0  0  0  0  0
   -2.2310   -0.0108   -2.8225 H   0  0  0  0  0  0  0  0  0  0  0  0
   -1.0494   -0.8711   -4.3624 N   0  3  0  0  0  0  0  0  0  0  0  0
   -0.0855   -0.6217   -4.5821 H   0  0  0  0  0  0  0  0  0  0  0  0
   -1.8299   -1.2767   -5.3219 C   0  0  0  0  0  0  0  0  0  0  0  0
   -3.1437   -1.6185   -5.0967 N   0  0  0  0  0  0  0  0  0  0  0  0
   -3.5492   -1.3761   -4.1959 H   0  0  0  0  0  0  0  0  0  0  0  0
   -3.7683   -1.7028   -5.8964 H   0  0  0  0  0  0  0  0  0  0  0  0
   -1.3368   -1.3658   -6.6019 N   0  0  0  0  0  0  0  0  0  0  0  0
   -0.3315   -1.2882   -6.7457 H   0  0  0  0  0  0  0  0  0  0  0  0
   -1.8788   -1.8757   -7.2973 H   0  0  0  0  0  0  0  0  0  0  0  0
    0.2083   -1.4915    1.5213 C   0  0  0  0  0  0  0  0  0  0  0  0
    1.4219   -1.4331    1.6518 O   0  0  0  0  0  0  0  0  0  0  0  0
   -0.6013   -1.1342    2.5857 N   0  0  0  0  0  0  0  0  0  0  0  0
   -1.6039   -1.2121    2.4591 H   0  0  0  0  0  0  0  0  0  0  0  0
   -0.0805   -0.8911    3.9276 C   0  0  0  0  0  0  0  0  0  0  0  0
    0.6311   -0.0583    3.9187 H   0  0  0  0  0  0  0  0  0  0  0  0
   -0.8958   -0.6393    4.6128 H   0  0  0  0  0  0  0  0  0  0  0  0
    0.4283   -1.7834    4.3086 H   0  0  0  0  0  0  0  0  0  0  0  0
  1  2  1  0  0  0  0
  2  3  1  0  0  0  0
  2  4  1  0  0  0  0
  2  5  1  0  0  0  0
  5  6  2  0  0  0  0
  5  7  1  0  0  0  0
  7  8  1  0  0  0  0
  7  9  1  0  0  0  0
  9 10  1  0  0  0  0
  9 11  1  0  0  0  0
  9 29  1  0  0  0  0
 11 12  1  0  0  0  0
 11 13  1  0  0  0  0
 11 14  1  0  0  0  0
 14 15  1  0  0  0  0
 14 16  1  0  0  0  0
 14 17  1  0  0  0  0
 17 18  1  0  0  0  0
 17 19  1  0  0  0  0
 17 20  1  0  0  0  0
 20 21  1  0  0  0  0
 20 22  2  0  0  0  0
 22 23  1  0  0  0  0
 22 26  1  0  0  0  0
 23 24  1  0  0  0  0
 23 25  1  0  0  0  0
 26 27  1  0  0  0  0
 26 28  1  0  0  0  0
 29 30  2  0  0  0  0
 29 31  1  0  0  0  0
 31 32  1  0  0  0  0
 31 33  1  0  0  0  0
 33 34  1  0  0  0  0
 33 35  1  0  0  0  0
 33 36  1  0  0  0  0
M  CHG  1  20   1
M  END
$$$$

  -OEChem-04042215563D

 36 35  0     1  0  0  0  0  0999 V2000
   -2.9269   -5.4252    1.1226 H   0  0  0  0  0  0  0  0  0  0  0  0
   -3.0525   -4.4205    0.7082 C   0  0  0  0  0  0  0  0  0  0  0  0
   -3.6703   -3.8356    1.3936 H   0  0  0  0  0  0  0  0  0  0  0  0
   -3.5599   -4.4997   -0.2559 H   0  0  0  0  0  0  0  0  0  0  0  0
   -1.6987   -3.7604    0.5304 C   0  0  0  0  0  0  0  0  0  0  0  0
   -0.6823   -4.3835    0.7726 O   0  0  0  0  0  0  0  0  0  0  0  0
   -1.6148   -2.4583    0.0709 N   0  0  0  0  0  0  0  0  0  0  0  0
   -2.4931   -1.9556   -0.0058 H   0  0  0  0  0  0  0  0  0  0  0  0
   -0.3624   -1.6781    0.1177 C   0  0  1  0  0  0  0  0  0  0  0  0
    0.4105   -2.2534   -0.4046 H   0  0  0  0  0  0  0  0  0  0  0  0
   -0.5617   -0.3276   -0.6028 C   0  0  0  0  0  0  0  0  0  0  0  0
   -1.5753    0.0543   -0.4422 H   0  0  0  0  0  0  0  0  0  0  0  0
    0.1234    0.4025   -0.1551 H   0  0  0  0  0  0  0  0  0  0  0  0
   -0.2223   -0.4085   -2.1044 C   0  0  0  0  0  0  0  0  0  0  0  0
    0.3705    0.4742   -2.3692 H   0  0  0  0  0  0  0  0  0  0  0  0
    0.3951   -1.2870   -2.3203 H   0  0  0  0  0  0  0  0  0  0  0  0
   -1.4821   -0.4248   -2.9674 C   0  0  0  0  0  0  0  0  0  0  0  0
   -2.0941   -1.2909   -2.6926 H   0  0  0  0  0  0  0  0  0  0  0  0
   -2.0593    0.4876   -2.7816 H   0  0  0  0  0  0  0  0  0  0  0  0
   -1.0933   -0.5067   -4.3879 N   0  3  0  0  0  0  0  0  0  0  0  0
   -0.0946   -0.5025   -4.5931 H   0  0  0  0  0  0  0  0  0  0  0  0
   -1.9404   -0.5971   -5.3720 C   0  0  0  0  0  0  0  0  0  0  0  0
   -3.3006   -0.5941   -5.1631 N   0  0  0  0  0  0  0  0  0  0  0  0
   -3.6380   -0.3321   -4.2397 H   0  0  0  0  0  0  0  0  0  0  0  0
   -3.9141   -0.4342   -5.9597 H   0  0  0  0  0  0  0  0  0  0  0  0
   -1.4721   -0.6970   -6.6604 N   0  0  0  0  0  0  0  0  0  0  0  0
   -0.4797   -0.8704   -6.8104 H   0  0  0  0  0  0  0  0  0  0  0  0
   -2.1208   -0.9753   -7.3946 H   0  0  0  0  0  0  0  0  0  0  0  0
    0.2124   -1.4746    1.5382 C   0  0  0  0  0  0  0  0  0  0  0  0
    1.4238   -1.3880    1.6754 O   0  0  0  0  0  0  0  0  0  0  0  0
   -0.6112   -1.1133    2.5903 N   0  0  0  0  0  0  0  0  0  0  0  0
   -1.6088   -1.2411    2.4633 H   0  0  0  0  0  0  0  0  0  0  0  0
   -0.1036   -0.8660    3.9363 C   0  0  0  0  0  0  0  0  0  0  0  0
    0.6131   -0.0378    3.9306 H   0  0  0  0  0  0  0  0  0  0  0  0
   -0.9244   -0.6053    4.6114 H   0  0  0  0  0  0  0  0  0  0  0  0
    0.3963   -1.7589    4.3270 H   0  0  0  0  0  0  0  0  0  0  0  0
  1  2  1  0  0  0  0
  2  3  1  0  0  0  0
  2  4  1  0  0  0  0
  2  5  1  0  0  0  0
  5  6  2  0  0  0  0
  5  7  1  0  0  0  0
  7  8  1  0  0  0  0
  7  9  1  0  0  0  0
  9 10  1  0  0  0  0
  9 11  1  0  0  0  0
  9 29  1  0  0  0  0
 11 12  1  0  0  0  0
 11 13  1  0  0  0  0
 11 14  1  0  0  0  0
 14 15  1  0  0  0  0
 14 16  1  0  0  0  0
 14 17  1  0  0  0  0
 17 18  1  0  0  0  0
 17 19  1  0  0  0  0
 17 20  1  0  0  0  0
 20 21  1  0  0  0  0
 20 22  2  0  0  0  0
 22 23  1  0  0  0  0
 22 26  1  0  0  0  0
 23 24  1  0  0  0  0
 23 25  1  0  0  0  0
 26 27  1  0  0  0  0
 26 28  1  0  0  0  0
 29 30  2  0  0  0  0
 29 31  1  0  0  0  0
 31 32  1  0  0  0  0
 31 33  1  0  0  0  0
 33 34  1  0  0  0  0
 33 35  1  0  0  0  0
 33 36  1  0  0  0  0
M  CHG  1  20   1
M  END
$$$$

  -OEChem-04042215563D

 36 35  0     1  0  0  0  0  0999 V2000
   -2.9158   -5.4471    1.0764 H   0  0  0  0  0  0  0  0  0  0  0  0
   -3.0395   -4.4420    0.6620 C   0  0  0  0  0  0  0  0  0  0  0  0
   -3.6918   -3.8692    1.3251 H   0  0  0  0  0  0  0  0  0  0  0  0
   -3.5077   -4.5235   -0.3216 H   0  0  0  0  0  0  0  0  0  0  0  0
   -1.6893   -3.7619    0.5406 C   0  0  0  0  0  0  0  0  0  0  0  0
   -0.6757   -4.3654    0.8374 O   0  0  0  0  0  0  0  0  0  0  0  0
   -1.6045   -2.4611    0.0783 N   0  0  0  0  0  0  0  0  0  0  0  0
   -2.4836   -1.9739   -0.0623 H   0  0  0  0  0  0  0  0  0  0  0  0
   -0.3575   -1.6725    0.1225 C   0  0  1  0  0  0  0  0  0  0  0  0
    0.4215   -2.2420   -0.3981 H   0  0  0  0  0  0  0  0  0  0  0  0
   -0.5630   -0.3221   -0.5963 C   0  0  0  0  0  0  0  0  0  0  0  0
   -1.5855    0.0364   -0.4378 H   0  0  0  0  0  0  0  0  0  0  0  0
    0.1039    0.4235   -0.1473 H   0  0  0  0  0  0  0  0  0  0  0  0
   -0.2245   -0.4038   -2.0990 C   0  0  0  0  0  0  0  0  0  0  0  0
    0.5941    0.2932   -2.3113 H   0  0  0  0  0  0  0  0  0  0  0  0
    0.1259   -1.4072   -2.3634 H   0  0  0  0  0  0  0  0  0  0  0  0
   -1.4310   -0.0548   -2.9682 C   0  0  0  0  0  0  0  0  0  0  0  0
   -2.2426   -0.7604   -2.7591 H   0  0  0  0  0  0  0  0  0  0  0  0
   -1.7730    0.9564   -2.7219 H   0  0  0  0  0  0  0  0  0  0  0  0
   -1.0424   -0.1308   -4.3891 N   0  3  0  0  0  0  0  0  0  0  0  0
   -0.0685   -0.3569   -4.5897 H   0  0  0  0  0  0  0  0  0  0  0  0
   -1.8613    0.0723   -5.3803 C   0  0  0  0  0  0  0  0  0  0  0  0
   -3.1817    0.4026   -5.1754 N   0  0  0  0  0  0  0  0  0  0  0  0
   -3.4632    0.6697   -4.2347 H   0  0  0  0  0  0  0  0  0  0  0  0
   -3.7165    0.7753   -5.9576 H   0  0  0  0  0  0  0  0  0  0  0  0
   -1.4031   -0.0427   -6.6714 N   0  0  0  0  0  0  0  0  0  0  0  0
   -0.4821   -0.4469   -6.8324 H   0  0  0  0  0  0  0  0  0  0  0  0
   -2.0830   -0.0878   -7.4284 H   0  0  0  0  0  0  0  0  0  0  0  0
    0.2143   -1.4603    1.5428 C   0  0  0  0  0  0  0  0  0  0  0  0
    1.4245   -1.3529    1.6784 O   0  0  0  0  0  0  0  0  0  0  0  0
   -0.6134   -1.1010    2.5922 N   0  0  0  0  0  0  0  0  0  0  0  0
   -1.6071   -1.2612    2.4694 H   0  0  0  0  0  0  0  0  0  0  0  0
   -0.1077   -0.8598    3.9401 C   0  0  0  0  0  0  0  0  0  0  0  0
    0.6078   -0.0305    3.9400 H   0  0  0  0  0  0  0  0  0  0  0  0
   -0.9297   -0.6037    4.6157 H   0  0  0  0  0  0  0  0  0  0  0  0
    0.3934   -1.7541    4.3265 H   0  0  0  0  0  0  0  0  0  0  0  0
  1  2  1  0  0  0  0
  2  3  1  0  0  0  0
  2  4  1  0  0  0  0
  2  5  1  0  0  0  0
  5  6  2  0  0  0  0
  5  7  1  0  0  0  0
  7  8  1  0  0  0  0
  7  9  1  0  0  0  0
  9 10  1  0  0  0  0
  9 11  1  0  0  0  0
  9 29  1  0  0  0  0
 11 12  1  0  0  0  0
 11 13  1  0  0  0  0
 11 14  1  0  0  0  0
 14 15  1  0  0  0  0
 14 16  1  0  0  0  0
 14 17  1  0  0  0  0
 17 18  1  0  0  0  0
 17 19  1  0  0  0  0
 17 20  1  0  0  0  0
 20 21  1  0  0  0  0
 20 22  2  0  0  0  0
 22 23  1  0  0  0  0
 22 26  1  0  0  0  0
 23 24  1  0  0  0  0
 23 25  1  0  0  0  0
 26 27  1  0  0  0  0
 26 28  1  0  0  0  0
 29 30  2  0  0  0  0
 29 31  1  0  0  0  0
 31 32  1  0  0  0  0
 31 33  1  0  0  0  0
 33 34  1  0  0  0  0
 33 35  1  0  0  0  0
 33 36  1  0  0  0  0
M  CHG  1  20   1
M  END
$$$$

  -OEChem-04042215563D

 36 35  0     1  0  0  0  0  0999 V2000
   -2.9083   -5.4633    1.0192 H   0  0  0  0  0  0  0  0  0  0  0  0
   -3.0325   -4.4568    0.6090 C   0  0  0  0  0  0  0  0  0  0  0  0
   -3.7116   -3.8975    1.2564 H   0  0  0  0  0  0  0  0  0  0  0  0
   -3.4703   -4.5374   -0.3885 H   0  0  0  0  0  0  0  0  0  0  0  0
   -1.6885   -3.7579    0.5333 C   0  0  0  0  0  0  0  0  0  0  0  0
   -0.6763   -4.3493    0.8589 O   0  0  0  0  0  0  0  0  0  0  0  0
   -1.6076   -2.4539    0.0791 N   0  0  0  0  0  0  0  0  0  0  0  0
   -2.4860   -1.9813   -0.1093 H   0  0  0  0  0  0  0  0  0  0  0  0
   -0.3643   -1.6591    0.1228 C   0  0  1  0  0  0  0  0  0  0  0  0
    0.4139   -2.2207   -0.4079 H   0  0  0  0  0  0  0  0  0  0  0  0
   -0.5713   -0.3045   -0.5861 C   0  0  0  0  0  0  0  0  0  0  0  0
   -1.6035    0.0294   -0.4361 H   0  0  0  0  0  0  0  0  0  0  0  0
    0.0775    0.4551   -0.1341 H   0  0  0  0  0  0  0  0  0  0  0  0
   -0.2317   -0.3917   -2.0862 C   0  0  0  0  0  0  0  0  0  0  0  0
    0.7528    0.0593   -2.2549 H   0  0  0  0  0  0  0  0  0  0  0  0
   -0.1728   -1.4406   -2.3983 H   0  0  0  0  0  0  0  0  0  0  0  0
   -1.2905    0.3006   -2.9424 C   0  0  0  0  0  0  0  0  0  0  0  0
   -2.2580   -0.1896   -2.7889 H   0  0  0  0  0  0  0  0  0  0  0  0
   -1.3748    1.3482   -2.6323 H   0  0  0  0  0  0  0  0  0  0  0  0
   -0.8947    0.2196   -4.3609 N   0  3  0  0  0  0  0  0  0  0  0  0
    0.0016   -0.2219   -4.5650 H   0  0  0  0  0  0  0  0  0  0  0  0
   -1.6091    0.6854   -5.3445 C   0  0  0  0  0  0  0  0  0  0  0  0
   -2.8139    1.3169   -5.1336 N   0  0  0  0  0  0  0  0  0  0  0  0
   -3.0509    1.5818   -4.1801 H   0  0  0  0  0  0  0  0  0  0  0  0
   -3.2180    1.8597   -5.8944 H   0  0  0  0  0  0  0  0  0  0  0  0
   -1.1542    0.5485   -6.6345 N   0  0  0  0  0  0  0  0  0  0  0  0
   -0.3522   -0.0534   -6.8130 H   0  0  0  0  0  0  0  0  0  0  0  0
   -1.7992    0.7270   -7.4023 H   0  0  0  0  0  0  0  0  0  0  0  0
    0.2144   -1.4506    1.5408 C   0  0  0  0  0  0  0  0  0  0  0  0
    1.4242   -1.3271    1.6673 O   0  0  0  0  0  0  0  0  0  0  0  0
   -0.6098   -1.1007    2.5963 N   0  0  0  0  0  0  0  0  0  0  0  0
   -1.6012   -1.2808    2.4819 H   0  0  0  0  0  0  0  0  0  0  0  0
   -0.0974   -0.8549    3.9409 C   0  0  0  0  0  0  0  0  0  0  0  0
    0.6170   -0.0246    3.9347 H   0  0  0  0  0  0  0  0  0  0  0  0
   -0.9162   -0.5979    4.6198 H   0  0  0  0  0  0  0  0  0  0  0  0
    0.4067   -1.7474    4.3274 H   0  0  0  0  0  0  0  0  0  0  0  0
  1  2  1  0  0  0  0
  2  3  1  0  0  0  0
  2  4  1  0  0  0  0
  2  5  1  0  0  0  0
  5  6  2  0  0  0  0
  5  7  1  0  0  0  0
  7  8  1  0  0  0  0
  7  9  1  0  0  0  0
  9 10  1  0  0  0  0
  9 11  1  0  0  0  0
  9 29  1  0  0  0  0
 11 12  1  0  0  0  0
 11 13  1  0  0  0  0
 11 14  1  0  0  0  0
 14 15  1  0  0  0  0
 14 16  1  0  0  0  0
 14 17  1  0  0  0  0
 17 18  1  0  0  0  0
 17 19  1  0  0  0  0
 17 20  1  0  0  0  0
 20 21  1  0  0  0  0
 20 22  2  0  0  0  0
 22 23  1  0  0  0  0
 22 26  1  0  0  0  0
 23 24  1  0  0  0  0
 23 25  1  0  0  0  0
 26 27  1  0  0  0  0
 26 28  1  0  0  0  0
 29 30  2  0  0  0  0
 29 31  1  0  0  0  0
 31 32  1  0  0  0  0
 31 33  1  0  0  0  0
 33 34  1  0  0  0  0
 33 35  1  0  0  0  0
 33 36  1  0  0  0  0
M  CHG  1  20   1
M  END
$$$$

  -OEChem-04042215563D

 36 35  0     1  0  0  0  0  0999 V2000
   -2.9137   -5.4581    0.9598 H   0  0  0  0  0  0  0  0  0  0  0  0
   -3.0321   -4.4516    0.5479 C   0  0  0  0  0  0  0  0  0  0  0  0
   -3.7376   -3.8992    1.1727 H   0  0  0  0  0  0  0  0  0  0  0  0
   -3.4348   -4.5324   -0.4644 H   0  0  0  0  0  0  0  0  0  0  0  0
   -1.6917   -3.7426    0.5193 C   0  0  0  0  0  0  0  0  0  0  0  0
   -0.6858   -4.3279    0.8740 O   0  0  0  0  0  0  0  0  0  0  0  0
   -1.6054   -2.4363    0.0736 N   0  0  0  0  0  0  0  0  0  0  0  0
   -2.4783   -1.9715   -0.1555 H   0  0  0  0  0  0  0  0  0  0  0  0
   -0.3623   -1.6420    0.1208 C   0  0  1  0  0  0  0  0  0  0  0  0
    0.4133   -2.1992   -0.4186 H   0  0  0  0  0  0  0  0  0  0  0  0
   -0.5683   -0.2841   -0.5788 C   0  0  0  0  0  0  0  0  0  0  0  0
   -1.6040    0.0416   -0.4365 H   0  0  0  0  0  0  0  0  0  0  0  0
    0.0753    0.4791   -0.1253 H   0  0  0  0  0  0  0  0  0  0  0  0
   -0.2257   -0.3821   -2.0739 C   0  0  0  0  0  0  0  0  0  0  0  0
    0.8458   -0.1961   -2.2089 H   0  0  0  0  0  0  0  0  0  0  0  0
   -0.4385   -1.3948   -2.4351 H   0  0  0  0  0  0  0  0  0  0  0  0
   -1.0552    0.6026   -2.8954 C   0  0  0  0  0  0  0  0  0  0  0  0
   -2.1186    0.3622   -2.7860 H   0  0  0  0  0  0  0  0  0  0  0  0
   -0.8854    1.6165   -2.5155 H   0  0  0  0  0  0  0  0  0  0  0  0
   -0.6527    0.5172   -4.3118 N   0  3  0  0  0  0  0  0  0  0  0  0
    0.1289   -0.0988   -4.5341 H   0  0  0  0  0  0  0  0  0  0  0  0
   -1.2132    1.1989   -5.2688 C   0  0  0  0  0  0  0  0  0  0  0  0
   -2.2453    2.0764   -5.0272 N   0  0  0  0  0  0  0  0  0  0  0  0
   -2.4410    2.3224   -4.0592 H   0  0  0  0  0  0  0  0  0  0  0  0
   -2.4860    2.7527   -5.7494 H   0  0  0  0  0  0  0  0  0  0  0  0
   -0.7673    1.0470   -6.5603 N   0  0  0  0  0  0  0  0  0  0  0  0
   -0.1259    0.2851   -6.7735 H   0  0  0  0  0  0  0  0  0  0  0  0
   -1.3339    1.4217   -7.3193 H   0  0  0  0  0  0  0  0  0  0  0  0
    0.2180   -1.4409    1.5388 C   0  0  0  0  0  0  0  0  0  0  0  0
    1.4270   -1.3060    1.6626 O   0  0  0  0  0  0  0  0  0  0  0  0
   -0.6079   -1.0967    2.5946 N   0  0  0  0  0  0  0  0  0  0  0  0
   -1.5964   -1.2939    2.4812 H   0  0  0  0  0  0  0  0  0  0  0  0
   -0.0981   -0.8539    3.9406 C   0  0  0  0  0  0  0  0  0  0  0  0
    0.6179   -0.0251    3.9374 H   0  0  0  0  0  0  0  0  0  0  0  0
   -0.9181   -0.5956    4.6176 H   0  0  0  0  0  0  0  0  0  0  0  0
    0.4030   -1.7479    4.3274 H   0  0  0  0  0  0  0  0  0  0  0  0
  1  2  1  0  0  0  0
  2  3  1  0  0  0  0
  2  4  1  0  0  0  0
  2  5  1  0  0  0  0
  5  6  2  0  0  0  0
  5  7  1  0  0  0  0
  7  8  1  0  0  0  0
  7  9  1  0  0  0  0
  9 10  1  0  0  0  0
  9 11  1  0  0  0  0
  9 29  1  0  0  0  0
 11 12  1  0  0  0  0
 11 13  1  0  0  0  0
 11 14  1  0  0  0  0
 14 15  1  0  0  0  0
 14 16  1  0  0  0  0
 14 17  1  0  0  0  0
 17 18  1  0  0  0  0
 17 19  1  0  0  0  0
 17 20  1  0  0  0  0
 20 21  1  0  0  0  0
 20 22  2  0  0  0  0
 22 23  1  0  0  0  0
 22 26  1  0  0  0  0
 23 24  1  0  0  0  0
 23 25  1  0  0  0  0
 26 27  1  0  0  0  0
 26 28  1  0  0  0  0
 29 30  2  0  0  0  0
 29 31  1  0  0  0  0
 31 32  1  0  0  0  0
 31 33  1  0  0  0  0
 33 34  1  0  0  0  0
 33 35  1  0  0  0  0
 33 36  1  0  0  0  0
M  CHG  1  20   1
M  END
$$$$

  -OEChem-04042215563D

 36 35  0     1  0  0  0  0  0999 V2000
   -2.9087   -5.4607    0.9108 H   0  0  0  0  0  0  0  0  0  0  0  0
   -3.0268   -4.4486    0.5124 C   0  0  0  0  0  0  0  0  0  0  0  0
   -3.7451   -3.9093    1.1341 H   0  0  0  0  0  0  0  0  0  0  0  0
   -3.4129   -4.5167   -0.5074 H   0  0  0  0  0  0  0  0  0  0  0  0
   -1.6907   -3.7312    0.5152 C   0  0  0  0  0  0  0  0  0  0  0  0
   -0.6890   -4.3114    0.8899 O   0  0  0  0  0  0  0  0  0  0  0  0
   -1.6028   -2.4246    0.0711 N   0  0  0  0  0  0  0  0  0  0  0  0
   -2.4716   -1.9681   -0.1896 H   0  0  0  0  0  0  0  0  0  0  0  0
   -0.3606   -1.6291    0.1176 C   0  0  1  0  0  0  0  0  0  0  0  0
    0.4133   -2.1856   -0.4248 H   0  0  0  0  0  0  0  0  0  0  0  0
   -0.5725   -0.2720   -0.5807 C   0  0  0  0  0  0  0  0  0  0  0  0
   -1.6074    0.0577   -0.4405 H   0  0  0  0  0  0  0  0  0  0  0  0
    0.0765    0.4883   -0.1302 H   0  0  0  0  0  0  0  0  0  0  0  0
   -0.2310   -0.3785   -2.0729 C   0  0  0  0  0  0  0  0  0  0  0  0
    0.8572   -0.4444   -2.1870 H   0  0  0  0  0  0  0  0  0  0  0  0
   -0.6701   -1.2936   -2.4860 H   0  0  0  0  0  0  0  0  0  0  0  0
   -0.7742    0.8246   -2.8405 C   0  0  0  0  0  0  0  0  0  0  0  0
   -1.8673    0.8389   -2.7673 H   0  0  0  0  0  0  0  0  0  0  0  0
   -0.3817    1.7429   -2.3892 H   0  0  0  0  0  0  0  0  0  0  0  0
   -0.3547    0.7343   -4.2516 N   0  3  0  0  0  0  0  0  0  0  0  0
    0.2647   -0.0361   -4.5012 H   0  0  0  0  0  0  0  0  0  0  0  0
   -0.6925    1.5968   -5.1663 C   0  0  0  0  0  0  0  0  0  0  0  0
   -1.4901    2.6818   -4.8825 N   0  0  0  0  0  0  0  0  0  0  0  0
   -1.6654    2.8990   -3.9037 H   0  0  0  0  0  0  0  0  0  0  0  0
   -1.5302    3.4446   -5.5557 H   0  0  0  0  0  0  0  0  0  0  0  0
   -0.2425    1.4298   -6.4543 N   0  0  0  0  0  0  0  0  0  0  0  0
    0.2040    0.5509   -6.7098 H   0  0  0  0  0  0  0  0  0  0  0  0
   -0.6660    1.9851   -7.1957 H   0  0  0  0  0  0  0  0  0  0  0  0
    0.2208   -1.4284    1.5351 C   0  0  0  0  0  0  0  0  0  0  0  0
    1.4296   -1.2883    1.6572 O   0  0  0  0  0  0  0  0  0  0  0  0
   -0.6054   -1.0860    2.5912 N   0  0  0  0  0  0  0  0  0  0  0  0
   -1.5937   -1.2839    2.4760 H   0  0  0  0  0  0  0  0  0  0  0  0
   -0.0965   -0.8508    3.9389 C   0  0  0  0  0  0  0  0  0  0  0  0
    0.6146   -0.0178    3.9419 H   0  0  0  0  0  0  0  0  0  0  0  0
   -0.9180   -0.6031    4.6179 H   0  0  0  0  0  0  0  0  0  0  0  0
    0.4099   -1.7449    4.3187 H   0  0  0  0  0  0  0  0  0  0  0  0
  1  2  1  0  0  0  0
  2  3  1  0  0  0  0
  2  4  1  0  0  0  0
  2  5  1  0  0  0  0
  5  6  2  0  0  0  0
  5  7  1  0  0  0  0
  7  8  1  0  0  0  0
  7  9  1  0  0  0  0
  9 10  1  0  0  0  0
  9 11  1  0  0  0  0
  9 29  1  0  0  0  0
 11 12  1  0  0  0  0
 11 13  1  0  0  0  0
 11 14  1  0  0  0  0
 14 15  1  0  0  0  0
 14 16  1  0  0  0  0
 14 17  1  0  0  0  0
 17 18  1  0  0  0  0
 17 19  1  0  0  0  0
 17 20  1  0  0  0  0
 20 21  1  0  0  0  0
 20 22  2  0  0  0  0
 22 23  1  0  0  0  0
 22 26  1  0  0  0  0
 23 24  1  0  0  0  0
 23 25  1  0  0  0  0
 26 27  1  0  0  0  0
 26 28  1  0  0  0  0
 29 30  2  0  0  0  0
 29 31  1  0  0  0  0
 31 32  1  0  0  0  0
 31 33  1  0  0  0  0
 33 34  1  0  0  0  0
 33 35  1  0  0  0  0
 33 36  1  0  0  0  0
M  CHG  1  20   1
M  END
$$$$

  -OEChem-04042215563D

 36 35  0     1  0  0  0  0  0999 V2000
   -2.9081   -5.4692    0.9230 H   0  0  0  0  0  0  0  0  0  0  0  0
   -3.0333   -4.4509    0.5428 C   0  0  0  0  0  0  0  0  0  0  0  0
   -3.7292   -3.9174    1.1943 H   0  0  0  0  0  0  0  0  0  0  0  0
   -3.4518   -4.5024   -0.4650 H   0  0  0  0  0  0  0  0  0  0  0  0
   -1.6939   -3.7397    0.5150 C   0  0  0  0  0  0  0  0  0  0  0  0
   -0.6882   -4.3206    0.8776 O   0  0  0  0  0  0  0  0  0  0  0  0
   -1.6089   -2.4341    0.0669 N   0  0  0  0  0  0  0  0  0  0  0  0
   -2.4817   -1.9721   -0.1691 H   0  0  0  0  0  0  0  0  0  0  0  0
   -0.3670   -1.6375    0.1118 C   0  0  1  0  0  0  0  0  0  0  0  0
    0.4044   -2.1924   -0.4354 H   0  0  0  0  0  0  0  0  0  0  0  0
   -0.5745   -0.2842   -0.5893 C   0  0  0  0  0  0  0  0  0  0  0  0
   -1.5033    0.1778   -0.2381 H   0  0  0  0  0  0  0  0  0  0  0  0
    0.2493    0.3888   -0.3239 H   0  0  0  0  0  0  0  0  0  0  0  0
   -0.5974   -0.4521   -2.1142 C   0  0  0  0  0  0  0  0  0  0  0  0
    0.3549   -0.8862   -2.4403 H   0  0  0  0  0  0  0  0  0  0  0  0
   -1.4008   -1.1373   -2.4048 H   0  0  0  0  0  0  0  0  0  0  0  0
   -0.8030    0.9025   -2.7884 C   0  0  0  0  0  0  0  0  0  0  0  0
   -1.7922    1.2934   -2.5251 H   0  0  0  0  0  0  0  0  0  0  0  0
   -0.0435    1.6011   -2.4201 H   0  0  0  0  0  0  0  0  0  0  0  0
   -0.6814    0.7534   -4.2505 N   0  3  0  0  0  0  0  0  0  0  0  0
   -0.4347   -0.1706   -4.6037 H   0  0  0  0  0  0  0  0  0  0  0  0
   -0.8160    1.7385   -5.0908 C   0  0  0  0  0  0  0  0  0  0  0  0
   -1.1060    3.0165   -4.6700 N   0  0  0  0  0  0  0  0  0  0  0  0
   -1.0399    3.2144   -3.6736 H   0  0  0  0  0  0  0  0  0  0  0  0
   -0.9630    3.7870   -5.3200 H   0  0  0  0  0  0  0  0  0  0  0  0
   -0.6618    1.5066   -6.4368 N   0  0  0  0  0  0  0  0  0  0  0  0
   -0.6096    0.5457   -6.7695 H   0  0  0  0  0  0  0  0  0  0  0  0
   -0.9573    2.2262   -7.0941 H   0  0  0  0  0  0  0  0  0  0  0  0
    0.2180   -1.4299    1.5267 C   0  0  0  0  0  0  0  0  0  0  0  0
    1.4270   -1.2893    1.6461 O   0  0  0  0  0  0  0  0  0  0  0  0
   -0.6057   -1.0836    2.5833 N   0  0  0  0  0  0  0  0  0  0  0  0
   -1.5929   -1.2899    2.4746 H   0  0  0  0  0  0  0  0  0  0  0  0
   -0.0922   -0.8337    3.9266 C   0  0  0  0  0  0  0  0  0  0  0  0
    0.6147    0.0030    3.9191 H   0  0  0  0  0  0  0  0  0  0  0  0
   -0.9119   -0.5838    4.6070 H   0  0  0  0  0  0  0  0  0  0  0  0
    0.4201   -1.7221    4.3121 H   0  0  0  0  0  0  0  0  0  0  0  0
  1  2  1  0  0  0  0
  2  3  1  0  0  0  0
  2  4  1  0  0  0  0
  2  5  1  0  0  0  0
  5  6  2  0  0  0  0
  5  7  1  0  0  0  0
  7  8  1  0  0  0  0
  7  9  1  0  0  0  0
  9 10  1  0  0  0  0
  9 11  1  0  0  0  0
  9 29  1  0  0  0  0
 11 12  1  0  0  0  0
 11 13  1  0  0  0  0
 11 14  1  0  0  0  0
 14 15  1  0  0  0  0
 14 16  1  0  0  0  0
 14 17  1  0  0  0  0
 17 18  1  0  0  0  0
 17 19  1  0  0  0  0
 17 20  1  0  0  0  0
 20 21  1  0  0  0  0
 20 22  2  0  0  0  0
 22 23  1  0  0  0  0
 22 26  1  0  0  0  0
 23 24  1  0  0  0  0
 23 25  1  0  0  0  0
 26 27  1  0  0  0  0
 26 28  1  0  0  0  0
 29 30  2  0  0  0  0
 29 31  1  0  0  0  0
 31 32  1  0  0  0  0
 31 33  1  0  0  0  0
 33 34  1  0  0  0  0
 33 35  1  0  0  0  0
 33 36  1  0  0  0  0
M  CHG  1  20   1
M  END
$$$$

  -OEChem-04042215563D

 36 35  0     1  0  0  0  0  0999 V2000
   -2.9140   -5.4687    0.9150 H   0  0  0  0  0  0  0  0  0  0  0  0
   -3.0349   -4.4502    0.5341 C   0  0  0  0  0  0  0  0  0  0  0  0
   -3.7325   -3.9152    1.1827 H   0  0  0  0  0  0  0  0  0  0  0  0
   -3.4493   -4.5012   -0.4754 H   0  0  0  0  0  0  0  0  0  0  0  0
   -1.6939   -3.7417    0.5114 C   0  0  0  0  0  0  0  0  0  0  0  0
   -0.6917   -4.3214    0.8859 O   0  0  0  0  0  0  0  0  0  0  0  0
   -1.6034   -2.4393    0.0555 N   0  0  0  0  0  0  0  0  0  0  0  0
   -2.4721   -1.9806   -0.2014 H   0  0  0  0  0  0  0  0  0  0  0  0
   -0.3601   -1.6458    0.0984 C   0  0  1  0  0  0  0  0  0  0  0  0
    0.4122   -2.2043   -0.4435 H   0  0  0  0  0  0  0  0  0  0  0  0
   -0.5718   -0.2935   -0.6043 C   0  0  0  0  0  0  0  0  0  0  0  0
   -1.4921    0.1816   -0.2482 H   0  0  0  0  0  0  0  0  0  0  0  0
    0.2624    0.3670   -0.3390 H   0  0  0  0  0  0  0  0  0  0  0  0
   -0.6013   -0.4532   -2.1315 C   0  0  0  0  0  0  0  0  0  0  0  0
    0.2244   -1.1025   -2.4435 H   0  0  0  0  0  0  0  0  0  0  0  0
   -1.5394   -0.9245   -2.4430 H   0  0  0  0  0  0  0  0  0  0  0  0
   -0.4392    0.9112   -2.7999 C   0  0  0  0  0  0  0  0  0  0  0  0
   -1.3083    1.5350   -2.5628 H   0  0  0  0  0  0  0  0  0  0  0  0
    0.4576    1.3978   -2.3993 H   0  0  0  0  0  0  0  0  0  0  0  0
   -0.3084    0.7465   -4.2596 N   0  3  0  0  0  0  0  0  0  0  0  0
   -0.2943   -0.2066   -4.6207 H   0  0  0  0  0  0  0  0  0  0  0  0
   -0.1486    1.7407   -5.0851 C   0  0  0  0  0  0  0  0  0  0  0  0
   -0.1130    3.0459   -4.6497 N   0  0  0  0  0  0  0  0  0  0  0  0
   -0.0419    3.2103   -3.6477 H   0  0  0  0  0  0  0  0  0  0  0  0
    0.2514    3.7595   -5.2777 H   0  0  0  0  0  0  0  0  0  0  0  0
   -0.0066    1.4911   -6.4296 N   0  0  0  0  0  0  0  0  0  0  0  0
   -0.1887    0.5527   -6.7805 H   0  0  0  0  0  0  0  0  0  0  0  0
   -0.0792    2.2697   -7.0823 H   0  0  0  0  0  0  0  0  0  0  0  0
    0.2223   -1.4300    1.5131 C   0  0  0  0  0  0  0  0  0  0  0  0
    1.4308   -1.2837    1.6319 O   0  0  0  0  0  0  0  0  0  0  0  0
   -0.6031   -1.0747    2.5652 N   0  0  0  0  0  0  0  0  0  0  0  0
   -1.5904   -1.2816    2.4575 H   0  0  0  0  0  0  0  0  0  0  0  0
   -0.0918   -0.8012    3.9046 C   0  0  0  0  0  0  0  0  0  0  0  0
    0.6145    0.0357    3.8834 H   0  0  0  0  0  0  0  0  0  0  0  0
   -0.9125   -0.5399    4.5793 H   0  0  0  0  0  0  0  0  0  0  0  0
    0.4206   -1.6822    4.3060 H   0  0  0  0  0  0  0  0  0  0  0  0
  1  2  1  0  0  0  0
  2  3  1  0  0  0  0
  2  4  1  0  0  0  0
  2  5  1  0  0  0  0
  5  6  2  0  0  0  0
  5  7  1  0  0  0  0
  7  8  1  0  0  0  0
  7  9  1  0  0  0  0
  9 10  1  0  0  0  0
  9 11  1  0  0  0  0
  9 29  1  0  0  0  0
 11 12  1  0  0  0  0
 11 13  1  0  0  0  0
 11 14  1  0  0  0  0
 14 15  1  0  0  0  0
 14 16  1  0  0  0  0
 14 17  1  0  0  0  0
 17 18  1  0  0  0  0
 17 19  1  0  0  0  0
 17 20  1  0  0  0  0
 20 21  1  0  0  0  0
 20 22  2  0  0  0  0
 22 23  1  0  0  0  0
 22 26  1  0  0  0  0
 23 24  1  0  0  0  0
 23 25  1  0  0  0  0
 26 27  1  0  0  0  0
 26 28  1  0  0  0  0
 29 30  2  0  0  0  0
 29 31  1  0  0  0  0
 31 32  1  0  0  0  0
 31 33  1  0  0  0  0
 33 34  1  0  0  0  0
 33 35  1  0  0  0  0
 33 36  1  0  0  0  0
M  CHG  1  20   1
M  END
$$$$

  -OEChem-04042215563D

 36 35  0     1  0  0  0  0  0999 V2000
   -2.8737   -5.4808    0.9236 H   0  0  0  0  0  0  0  0  0  0  0  0
   -3.0081   -4.4615    0.5496 C   0  0  0  0  0  0  0  0  0  0  0  0
   -3.6934   -3.9322    1.2156 H   0  0  0  0  0  0  0  0  0  0  0  0
   -3.4450   -4.5104   -0.4506 H   0  0  0  0  0  0  0  0  0  0  0  0
   -1.6716   -3.7463    0.4996 C   0  0  0  0  0  0  0  0  0  0  0  0
   -0.6588   -4.3214    0.8526 O   0  0  0  0  0  0  0  0  0  0  0  0
   -1.5973   -2.4434    0.0421 N   0  0  0  0  0  0  0  0  0  0  0  0
   -2.4754   -1.9853   -0.1825 H   0  0  0  0  0  0  0  0  0  0  0  0
   -0.3611   -1.6389    0.0770 C   0  0  1  0  0  0  0  0  0  0  0  0
    0.4144   -2.1902   -0.4674 H   0  0  0  0  0  0  0  0  0  0  0  0
   -0.5912   -0.2874   -0.6223 C   0  0  0  0  0  0  0  0  0  0  0  0
   -1.5082    0.1863   -0.2563 H   0  0  0  0  0  0  0  0  0  0  0  0
    0.2431    0.3723   -0.3551 H   0  0  0  0  0  0  0  0  0  0  0  0
   -0.6332   -0.4342   -2.1533 C   0  0  0  0  0  0  0  0  0  0  0  0
    0.0129   -1.2633   -2.4625 H   0  0  0  0  0  0  0  0  0  0  0  0
   -1.6527   -0.6640   -2.4802 H   0  0  0  0  0  0  0  0  0  0  0  0
   -0.1262    0.8494   -2.8120 C   0  0  0  0  0  0  0  0  0  0  0  0
   -0.8267    1.6645   -2.5979 H   0  0  0  0  0  0  0  0  0  0  0  0
    0.8479    1.1072   -2.3812 H   0  0  0  0  0  0  0  0  0  0  0  0
    0.0098    0.6623   -4.2686 N   0  3  0  0  0  0  0  0  0  0  0  0
   -0.2646   -0.2421   -4.6500 H   0  0  0  0  0  0  0  0  0  0  0  0
    0.5111    1.5636   -5.0641 C   0  0  0  0  0  0  0  0  0  0  0  0
    0.9373    2.7867   -4.5979 N   0  0  0  0  0  0  0  0  0  0  0  0
    1.0100    2.9131   -3.5903 H   0  0  0  0  0  0  0  0  0  0  0  0
    1.5329    3.3567   -5.1954 H   0  0  0  0  0  0  0  0  0  0  0  0
    0.6269    1.2964   -6.4075 N   0  0  0  0  0  0  0  0  0  0  0  0
    0.1721    0.4691   -6.7886 H   0  0  0  0  0  0  0  0  0  0  0  0
    0.8370    2.0642   -7.0428 H   0  0  0  0  0  0  0  0  0  0  0  0
    0.2255   -1.4188    1.4891 C   0  0  0  0  0  0  0  0  0  0  0  0
    1.4329   -1.2591    1.6026 O   0  0  0  0  0  0  0  0  0  0  0  0
   -0.5998   -1.0713    2.5438 N   0  0  0  0  0  0  0  0  0  0  0  0
   -1.5863   -1.2824    2.4375 H   0  0  0  0  0  0  0  0  0  0  0  0
   -0.0895   -0.7911    3.8819 C   0  0  0  0  0  0  0  0  0  0  0  0
    0.6024    0.0575    3.8600 H   0  0  0  0  0  0  0  0  0  0  0  0
   -0.9130   -0.5446    4.5591 H   0  0  0  0  0  0  0  0  0  0  0  0
    0.4387   -1.6637    4.2810 H   0  0  0  0  0  0  0  0  0  0  0  0
  1  2  1  0  0  0  0
  2  3  1  0  0  0  0
  2  4  1  0  0  0  0
  2  5  1  0  0  0  0
  5  6  2  0  0  0  0
  5  7  1  0  0  0  0
  7  8  1  0  0  0  0
  7  9  1  0  0  0  0
  9 10  1  0  0  0  0
  9 11  1  0  0  0  0
  9 29  1  0  0  0  0
 11 12  1  0  0  0  0
 11 13  1  0  0  0  0
 11 14  1  0  0  0  0
 14 15  1  0  0  0  0
 14 16  1  0  0  0  0
 14 17  1  0  0  0  0
 17 18  1  0  0  0  0
 17 19  1  0  0  0  0
 17 20  1  0  0  0  0
 20 21  1  0  0  0  0
 20 22  2  0  0  0  0
 22 23  1  0  0  0  0
 22 26  1  0  0  0  0
 23 24  1  0  0  0  0
 23 25  1  0  0  0  0
 26 27  1  0  0  0  0
 26 28  1  0  0  0  0
 29 30  2  0  0  0  0
 29 31  1  0  0  0  0
 31 32  1  0  0  0  0
 31 33  1  0  0  0  0
 33 34  1  0  0  0  0
 33 35  1  0  0  0  0
 33 36  1  0  0  0  0
M  CHG  1  20   1
M  END
$$$$

  -OEChem-04042215563D

 36 35  0     1  0  0  0  0  0999 V2000
   -2.2693   -5.5633    0.5325 H   0  0  0  0  0  0  0  0  0  0  0  0
   -2.6321   -4.5404    0.3950 C   0  0  0  0  0  0  0  0  0  0  0  0
   -3.0966   -4.2061    1.3257 H   0  0  0  0  0  0  0  0  0  0  0  0
   -3.3809   -4.5387   -0.4006 H   0  0  0  0  0  0  0  0  0  0  0  0
   -1.4796   -3.6254    0.0274 C   0  0  0  0  0  0  0  0  0  0  0  0
   -0.3470   -4.0660   -0.0596 O   0  0  0  0  0  0  0  0  0  0  0  0
   -1.7012   -2.2829   -0.2184 N   0  0  0  0  0  0  0  0  0  0  0  0
   -2.6513   -1.9397   -0.1025 H   0  0  0  0  0  0  0  0  0  0  0  0
   -0.6194   -1.3263   -0.5075 C   0  0  1  0  0  0  0  0  0  0  0  0
   -0.0643   -1.7465   -1.3542 H   0  0  0  0  0  0  0  0  0  0  0  0
   -1.1565    0.0454   -0.9425 C   0  0  0  0  0  0  0  0  0  0  0  0
   -1.9655    0.3463   -0.2679 H   0  0  0  0  0  0  0  0  0  0  0  0
   -0.3806    0.8043   -0.8296 H   0  0  0  0  0  0  0  0  0  0  0  0
   -1.6845    0.0126   -2.3868 C   0  0  0  0  0  0  0  0  0  0  0  0
   -1.4022   -0.9093   -2.9071 H   0  0  0  0  0  0  0  0  0  0  0  0
   -2.7794    0.0347   -2.3586 H   0  0  0  0  0  0  0  0  0  0  0  0
   -1.1788    1.2388   -3.1603 C   0  0  0  0  0  0  0  0  0  0  0  0
   -2.0007    1.6354   -3.7670 H   0  0  0  0  0  0  0  0  0  0  0  0
   -0.8736    2.0355   -2.4728 H   0  0  0  0  0  0  0  0  0  0  0  0
   -0.0641    0.8580   -4.0600 N   0  3  0  0  0  0  0  0  0  0  0  0
   -0.3195    0.6738   -5.0294 H   0  0  0  0  0  0  0  0  0  0  0  0
    1.1891    0.7058   -3.7211 C   0  0  0  0  0  0  0  0  0  0  0  0
    1.6675    0.9013   -2.4470 N   0  0  0  0  0  0  0  0  0  0  0  0
    0.9878    0.9996   -1.6990 H   0  0  0  0  0  0  0  0  0  0  0  0
    2.5455    0.4510   -2.1909 H   0  0  0  0  0  0  0  0  0  0  0  0
    2.0938    0.3164   -4.6792 N   0  0  0  0  0  0  0  0  0  0  0  0
    1.8199    0.3448   -5.6589 H   0  0  0  0  0  0  0  0  0  0  0  0
    3.0863    0.3761   -4.4572 H   0  0  0  0  0  0  0  0  0  0  0  0
    0.4639   -1.1421    0.5737 C   0  0  0  0  0  0  0  0  0  0  0  0
    1.5581   -0.7341    0.1924 O   0  0  0  0  0  0  0  0  0  0  0  0
    0.1176   -1.0077    1.9048 N   0  0  0  0  0  0  0  0  0  0  0  0
   -0.7817   -1.3914    2.1807 H   0  0  0  0  0  0  0  0  0  0  0  0
    1.0943   -0.7170    2.9494 C   0  0  0  0  0  0  0  0  0  0  0  0
    1.5825    0.2453    2.7638 H   0  0  0  0  0  0  0  0  0  0  0  0
    0.6023   -0.6683    3.9259 H   0  0  0  0  0  0  0  0  0  0  0  0
    1.8607   -1.4987    2.9871 H   0  0  0  0  0  0  0  0  0  0  0  0
  1  2  1  0  0  0  0
  2  3  1  0  0  0  0
  2  4  1  0  0  0  0
  2  5  1  0  0  0  0
  5  6  2  0  0  0  0
  5  7  1  0  0  0  0
  7  8  1  0  0  0  0
  7  9  1  0  0  0  0
  9 10  1  0  0  0  0
  9 11  1  0  0  0  0
  9 29  1  0  0  0  0
 11 12  1  0  0  0  0
 11 13  1  0  0  0  0
 11 14  1  0  0  0  0
 14 15  1  0  0  0  0
 14 16  1  0  0  0  0
 14 17  1  0  0  0  0
 17 18  1  0  0  0  0
 17 19  1  0  0  0  0
 17 20  1  0  0  0  0
 20 21  1  0  0  0  0
 20 22  2  0  0  0  0
 22 23  1  0  0  0  0
 22 26  1  0  0  0  0
 23 24  1  0  0  0  0
 23 25  1  0  0  0  0
 26 27  1  0  0  0  0
 26 28  1  0  0  0  0
 29 30  2  0  0  0  0
 29 31  1  0  0  0  0
 31 32  1  0  0  0  0
 31 33  1  0  0  0  0
 33 34  1  0  0  0  0
 33 35  1  0  0  0  0
 33 36  1  0  0  0  0
M  CHG  1  20   1
M  END
$$$$

  -OEChem-04042215563D

 36 35  0     1  0  0  0  0  0999 V2000
   -2.4489   -5.5100    0.1897 H   0  0  0  0  0  0  0  0  0  0  0  0
   -2.7487   -4.4594    0.1329 C   0  0  0  0  0  0  0  0  0  0  0  0
   -3.1418   -4.1549    1.1058 H   0  0  0  0  0  0  0  0  0  0  0  0
   -3.5355   -4.3597   -0.6186 H   0  0  0  0  0  0  0  0  0  0  0  0
   -1.5577   -3.5984   -0.2417 C   0  0  0  0  0  0  0  0  0  0  0  0
   -0.4658   -4.1048   -0.4325 O   0  0  0  0  0  0  0  0  0  0  0  0
   -1.6966   -2.2295   -0.3770 N   0  0  0  0  0  0  0  0  0  0  0  0
   -2.6130   -1.8335   -0.1829 H   0  0  0  0  0  0  0  0  0  0  0  0
   -0.5622   -1.3295   -0.6464 C   0  0  1  0  0  0  0  0  0  0  0  0
   -0.0759   -1.7188   -1.5481 H   0  0  0  0  0  0  0  0  0  0  0  0
   -1.0195    0.1035   -0.9598 C   0  0  0  0  0  0  0  0  0  0  0  0
   -1.7887    0.3889   -0.2339 H   0  0  0  0  0  0  0  0  0  0  0  0
   -0.2033    0.8131   -0.8170 H   0  0  0  0  0  0  0  0  0  0  0  0
   -1.6058    0.2088   -2.3796 C   0  0  0  0  0  0  0  0  0  0  0  0
   -1.6670   -0.7662   -2.8765 H   0  0  0  0  0  0  0  0  0  0  0  0
   -2.6307    0.5878   -2.3003 H   0  0  0  0  0  0  0  0  0  0  0  0
   -0.7912    1.2045   -3.2211 C   0  0  0  0  0  0  0  0  0  0  0  0
   -1.4333    1.6186   -4.0068 H   0  0  0  0  0  0  0  0  0  0  0  0
   -0.4463    2.0432   -2.6074 H   0  0  0  0  0  0  0  0  0  0  0  0
    0.3428    0.4899   -3.8543 N   0  3  0  0  0  0  0  0  0  0  0  0
    0.1277   -0.0161   -4.7126 H   0  0  0  0  0  0  0  0  0  0  0  0
    1.5258    0.3168   -3.3289 C   0  0  0  0  0  0  0  0  0  0  0  0
    1.9305    0.9241   -2.1669 N   0  0  0  0  0  0  0  0  0  0  0  0
    1.2566    1.5444   -1.7290 H   0  0  0  0  0  0  0  0  0  0  0  0
    2.4628    0.3325   -1.5210 H   0  0  0  0  0  0  0  0  0  0  0  0
    2.4119   -0.5438   -3.9278 N   0  0  0  0  0  0  0  0  0  0  0  0
    2.2391   -0.8585   -4.8798 H   0  0  0  0  0  0  0  0  0  0  0  0
    3.3673   -0.5714   -3.5743 H   0  0  0  0  0  0  0  0  0  0  0  0
    0.5741   -1.3074    0.3974 C   0  0  0  0  0  0  0  0  0  0  0  0
    1.6942   -0.9871    0.0038 O   0  0  0  0  0  0  0  0  0  0  0  0
    0.2894   -1.2536    1.7484 N   0  0  0  0  0  0  0  0  0  0  0  0
   -0.6364   -1.5627    2.0312 H   0  0  0  0  0  0  0  0  0  0  0  0
    1.3223   -1.1360    2.7725 C   0  0  0  0  0  0  0  0  0  0  0  0
    1.8765   -0.1988    2.6554 H   0  0  0  0  0  0  0  0  0  0  0  0
    0.8704   -1.1445    3.7694 H   0  0  0  0  0  0  0  0  0  0  0  0
    2.0265   -1.9723    2.7056 H   0  0  0  0  0  0  0  0  0  0  0  0
  1  2  1  0  0  0  0
  2  3  1  0  0  0  0
  2  4  1  0  0  0  0
  2  5  1  0  0  0  0
  5  6  2  0  0  0  0
  5  7  1  0  0  0  0
  7  8  1  0  0  0  0
  7  9  1  0  0  0  0
  9 10  1  0  0  0  0
  9 11  1  0  0  0  0
  9 29  1  0  0  0  0
 11 12  1  0  0  0  0
 11 13  1  0  0  0  0
 11 14  1  0  0  0  0
 14 15  1  0  0  0  0
 14 16  1  0  0  0  0
 14 17  1  0  0  0  0
 17 18  1  0  0  0  0
 17 19  1  0  0  0  0
 17 20  1  0  0  0  0
 20 21  1  0  0  0  0
 20 22  2  0  0  0  0
 22 23  1  0  0  0  0
 22 26  1  0  0  0  0
 23 24  1  0  0  0  0
 23 25  1  0  0  0  0
 26 27  1  0  0  0  0
 26 28  1  0  0  0  0
 29 30  2  0  0  0  0
 29 31  1  0  0  0  0
 31 32  1  0  0  0  0
 31 33  1  0  0  0  0
 33 34  1  0  0  0  0
 33 35  1  0  0  0  0
 33 36  1  0  0  0  0
M  CHG  1  20   1
M  END
$$$$

  -OEChem-04042215563D

 36 35  0     1  0  0  0  0  0999 V2000
   -2.6151   -5.4590   -0.1658 H   0  0  0  0  0  0  0  0  0  0  0  0
   -2.8522   -4.3917   -0.1250 C   0  0  0  0  0  0  0  0  0  0  0  0
   -3.1829   -4.1452    0.8868 H   0  0  0  0  0  0  0  0  0  0  0  0
   -3.6637   -4.1863   -0.8271 H   0  0  0  0  0  0  0  0  0  0  0  0
   -1.6284   -3.5731   -0.4887 C   0  0  0  0  0  0  0  0  0  0  0  0
   -0.5792   -4.1230   -0.7785 O   0  0  0  0  0  0  0  0  0  0  0  0
   -1.6900   -2.1921   -0.5224 N   0  0  0  0  0  0  0  0  0  0  0  0
   -2.5646   -1.7597   -0.2342 H   0  0  0  0  0  0  0  0  0  0  0  0
   -0.5015   -1.3472   -0.7266 C   0  0  1  0  0  0  0  0  0  0  0  0
   -0.0412   -1.7086   -1.6510 H   0  0  0  0  0  0  0  0  0  0  0  0
   -0.8747    0.1277   -0.9521 C   0  0  0  0  0  0  0  0  0  0  0  0
   -1.6349    0.4060   -0.2143 H   0  0  0  0  0  0  0  0  0  0  0  0
   -0.0193    0.7832   -0.7698 H   0  0  0  0  0  0  0  0  0  0  0  0
   -1.4405    0.3541   -2.3676 C   0  0  0  0  0  0  0  0  0  0  0  0
   -1.7956   -0.5789   -2.8197 H   0  0  0  0  0  0  0  0  0  0  0  0
   -2.3066    1.0206   -2.2897 H   0  0  0  0  0  0  0  0  0  0  0  0
   -0.3981    1.0413   -3.2665 C   0  0  0  0  0  0  0  0  0  0  0  0
   -0.8969    1.4305   -4.1615 H   0  0  0  0  0  0  0  0  0  0  0  0
    0.0503    1.8945   -2.7471 H   0  0  0  0  0  0  0  0  0  0  0  0
    0.6316    0.0580   -3.6739 N   0  3  0  0  0  0  0  0  0  0  0  0
    0.3660   -0.6011   -4.4049 H   0  0  0  0  0  0  0  0  0  0  0  0
    1.7791   -0.1151   -3.0775 C   0  0  0  0  0  0  0  0  0  0  0  0
    2.2437    0.7296   -2.0993 N   0  0  0  0  0  0  0  0  0  0  0  0
    1.6367    1.5006   -1.8389 H   0  0  0  0  0  0  0  0  0  0  0  0
    2.7503    0.2768   -1.3345 H   0  0  0  0  0  0  0  0  0  0  0  0
    2.5420   -1.2158   -3.3814 N   0  0  0  0  0  0  0  0  0  0  0  0
    2.1163   -1.9745   -3.9088 H   0  0  0  0  0  0  0  0  0  0  0  0
    3.2924   -1.4566   -2.7347 H   0  0  0  0  0  0  0  0  0  0  0  0
    0.6264   -1.4763    0.3197 C   0  0  0  0  0  0  0  0  0  0  0  0
    1.7787   -1.2624   -0.0526 O   0  0  0  0  0  0  0  0  0  0  0  0
    0.3401   -1.5043    1.6710 N   0  0  0  0  0  0  0  0  0  0  0  0
   -0.6180   -1.7166    1.9346 H   0  0  0  0  0  0  0  0  0  0  0  0
    1.3708   -1.5530    2.7032 C   0  0  0  0  0  0  0  0  0  0  0  0
    1.9936   -0.6528    2.6698 H   0  0  0  0  0  0  0  0  0  0  0  0
    0.9116   -1.6153    3.6950 H   0  0  0  0  0  0  0  0  0  0  0  0
    2.0121   -2.4302    2.5648 H   0  0  0  0  0  0  0  0  0  0  0  0
  1  2  1  0  0  0  0
  2  3  1  0  0  0  0
  2  4  1  0  0  0  0
  2  5  1  0  0  0  0
  5  6  2  0  0  0  0
  5  7  1  0  0  0  0
  7  8  1  0  0  0  0
  7  9  1  0  0  0  0
  9 10  1  0  0  0  0
  9 11  1  0  0  0  0
  9 29  1  0  0  0  0
 11 12  1  0  0  0  0
 11 13  1  0  0  0  0
 11 14  1  0  0  0  0
 14 15  1  0  0  0  0
 14 16  1  0  0  0  0
 14 17  1  0  0  0  0
 17 18  1  0  0  0  0
 17 19  1  0  0  0  0
 17 20  1  0  0  0  0
 20 21  1  0  0  0  0
 20 22  2  0  0  0  0
 22 23  1  0  0  0  0
 22 26  1  0  0  0  0
 23 24  1  0  0  0  0
 23 25  1  0  0  0  0
 26 27  1  0  0  0  0
 26 28  1  0  0  0  0
 29 30  2  0  0  0  0
 29 31  1  0  0  0  0
 31 32  1  0  0  0  0
 31 33  1  0  0  0  0
 33 34  1  0  0  0  0
 33 35  1  0  0  0  0
 33 36  1  0  0  0  0
M  CHG  1  20   1
M  END
$$$$

  -OEChem-04042215563D

 36 35  0     1  0  0  0  0  0999 V2000
   -2.8774   -5.3405   -0.2978 H   0  0  0  0  0  0  0  0  0  0  0  0
   -3.0367   -4.2594   -0.2434 C   0  0  0  0  0  0  0  0  0  0  0  0
   -3.3645   -4.0045    0.7671 H   0  0  0  0  0  0  0  0  0  0  0  0
   -3.8200   -3.9847   -0.9539 H   0  0  0  0  0  0  0  0  0  0  0  0
   -1.7514   -3.5265   -0.5757 C   0  0  0  0  0  0  0  0  0  0  0  0
   -0.7456   -4.1459   -0.8816 O   0  0  0  0  0  0  0  0  0  0  0  0
   -1.7087   -2.1442   -0.5751 N   0  0  0  0  0  0  0  0  0  0  0  0
   -2.5490   -1.6561   -0.2734 H   0  0  0  0  0  0  0  0  0  0  0  0
   -0.4501   -1.3918   -0.7082 C   0  0  1  0  0  0  0  0  0  0  0  0
    0.0084   -1.7859   -1.6140 H   0  0  0  0  0  0  0  0  0  0  0  0
   -0.7093    0.1126   -0.9202 C   0  0  0  0  0  0  0  0  0  0  0  0
   -1.4687    0.4368   -0.2003 H   0  0  0  0  0  0  0  0  0  0  0  0
    0.1945    0.6909   -0.7028 H   0  0  0  0  0  0  0  0  0  0  0  0
   -1.1948    0.4397   -2.3477 C   0  0  0  0  0  0  0  0  0  0  0  0
   -1.8183   -0.3713   -2.7398 H   0  0  0  0  0  0  0  0  0  0  0  0
   -1.8249    1.3349   -2.2993 H   0  0  0  0  0  0  0  0  0  0  0  0
   -0.0313    0.7393   -3.3171 C   0  0  0  0  0  0  0  0  0  0  0  0
   -0.4521    1.1000   -4.2625 H   0  0  0  0  0  0  0  0  0  0  0  0
    0.5823    1.5501   -2.9114 H   0  0  0  0  0  0  0  0  0  0  0  0
    0.8022   -0.4501   -3.5962 N   0  3  0  0  0  0  0  0  0  0  0  0
    0.4127   -1.1462   -4.2314 H   0  0  0  0  0  0  0  0  0  0  0  0
    1.9403   -0.7087   -3.0121 C   0  0  0  0  0  0  0  0  0  0  0  0
    2.5447    0.1733   -2.1494 N   0  0  0  0  0  0  0  0  0  0  0  0
    2.0454    1.0362   -1.9582 H   0  0  0  0  0  0  0  0  0  0  0  0
    3.0272   -0.2532   -1.3554 H   0  0  0  0  0  0  0  0  0  0  0  0
    2.5286   -1.9372   -3.1874 N   0  0  0  0  0  0  0  0  0  0  0  0
    1.9688   -2.6875   -3.5864 H   0  0  0  0  0  0  0  0  0  0  0  0
    3.2523   -2.2026   -2.5204 H   0  0  0  0  0  0  0  0  0  0  0  0
    0.6166   -1.6346    0.3807 C   0  0  0  0  0  0  0  0  0  0  0  0
    1.7991   -1.5583    0.0546 O   0  0  0  0  0  0  0  0  0  0  0  0
    0.2735   -1.6707    1.7183 N   0  0  0  0  0  0  0  0  0  0  0  0
   -0.7131   -1.7639    1.9425 H   0  0  0  0  0  0  0  0  0  0  0  0
    1.2500   -1.8542    2.7871 C   0  0  0  0  0  0  0  0  0  0  0  0
    2.0062   -1.0624    2.7602 H   0  0  0  0  0  0  0  0  0  0  0  0
    0.7545   -1.8211    3.7624 H   0  0  0  0  0  0  0  0  0  0  0  0
    1.7509   -2.8231    2.6863 H   0  0  0  0  0  0  0  0  0  0  0  0
  1  2  1  0  0  0  0
  2  3  1  0  0  0  0
  2  4  1  0  0  0  0
  2  5  1  0  0  0  0
  5  6  2  0  0  0  0
  5  7  1  0  0  0  0
  7  8  1  0  0  0  0
  7  9  1  0  0  0  0
  9 10  1  0  0  0  0
  9 11  1  0  0  0  0
  9 29  1  0  0  0  0
 11 12  1  0  0  0  0
 11 13  1  0  0  0  0
 11 14  1  0  0  0  0
 14 15  1  0  0  0  0
 14 16  1  0  0  0  0
 14 17  1  0  0  0  0
 17 18  1  0  0  0  0
 17 19  1  0  0  0  0
 17 20  1  0  0  0  0
 20 21  1  0  0  0  0
 20 22  2  0  0  0  0
 22 23  1  0  0  0  0
 22 26  1  0  0  0  0
 23 24  1  0  0  0  0
 23 25  1  0  0  0  0
 26 27  1  0  0  0  0
 26 28  1  0  0  0  0
 29 30  2  0  0  0  0
 29 31  1  0  0  0  0
 31 32  1  0  0  0  0
 31 33  1  0  0  0  0
 33 34  1  0  0  0  0
 33 35  1  0  0  0  0
 33 36  1  0  0  0  0
M  CHG  1  20   1
M  END
$$$$

  -OEChem-04042215563D

 36 35  0     1  0  0  0  0  0999 V2000
   -1.7074   -5.6129   -0.0271 H   0  0  0  0  0  0  0  0  0  0  0  0
   -2.1193   -4.5999   -0.0582 C   0  0  0  0  0  0  0  0  0  0  0  0
   -2.6047   -4.3920    0.8986 H   0  0  0  0  0  0  0  0  0  0  0  0
   -2.8639   -4.5481   -0.8563 H   0  0  0  0  0  0  0  0  0  0  0  0
   -1.0115   -3.5952   -0.3094 C   0  0  0  0  0  0  0  0  0  0  0  0
    0.1321   -3.9675   -0.5245 O   0  0  0  0  0  0  0  0  0  0  0  0
   -1.2920   -2.2503   -0.4592 N   0  0  0  0  0  0  0  0  0  0  0  0
   -2.2588   -1.9893   -0.2793 H   0  0  0  0  0  0  0  0  0  0  0  0
   -0.2602   -1.2317   -0.1927 C   0  0  1  0  0  0  0  0  0  0  0  0
    0.6159   -1.5166   -0.7735 H   0  0  0  0  0  0  0  0  0  0  0  0
   -0.6993    0.1479   -0.7044 C   0  0  0  0  0  0  0  0  0  0  0  0
   -1.7316    0.3466   -0.3978 H   0  0  0  0  0  0  0  0  0  0  0  0
   -0.0704    0.9333   -0.2690 H   0  0  0  0  0  0  0  0  0  0  0  0
   -0.5804    0.1859   -2.2388 C   0  0  0  0  0  0  0  0  0  0  0  0
   -1.0401   -0.7121   -2.6662 H   0  0  0  0  0  0  0  0  0  0  0  0
   -1.1295    1.0500   -2.6288 H   0  0  0  0  0  0  0  0  0  0  0  0
    0.8924    0.3018   -2.6605 C   0  0  0  0  0  0  0  0  0  0  0  0
    1.1665    1.3612   -2.7211 H   0  0  0  0  0  0  0  0  0  0  0  0
    1.5410   -0.1493   -1.9023 H   0  0  0  0  0  0  0  0  0  0  0  0
    1.1207   -0.3572   -3.9615 N   0  3  0  0  0  0  0  0  0  0  0  0
    0.9872    0.2160   -4.7937 H   0  0  0  0  0  0  0  0  0  0  0  0
    1.5337   -1.5879   -4.1025 C   0  0  0  0  0  0  0  0  0  0  0  0
    1.7345   -2.4446   -3.0419 N   0  0  0  0  0  0  0  0  0  0  0  0
    1.3867   -2.1785   -2.1234 H   0  0  0  0  0  0  0  0  0  0  0  0
    1.8398   -3.4406   -3.2243 H   0  0  0  0  0  0  0  0  0  0  0  0
    1.7821   -2.0674   -5.3661 N   0  0  0  0  0  0  0  0  0  0  0  0
    1.8446   -1.4024   -6.1343 H   0  0  0  0  0  0  0  0  0  0  0  0
    2.3019   -2.9392   -5.4511 H   0  0  0  0  0  0  0  0  0  0  0  0
    0.3010   -1.2117    1.2438 C   0  0  0  0  0  0  0  0  0  0  0  0
    1.4928   -0.9890    1.3959 O   0  0  0  0  0  0  0  0  0  0  0  0
   -0.5329   -1.2957    2.3440 N   0  0  0  0  0  0  0  0  0  0  0  0
   -1.5283   -1.4071    2.1827 H   0  0  0  0  0  0  0  0  0  0  0  0
   -0.0499   -1.1890    3.7172 C   0  0  0  0  0  0  0  0  0  0  0  0
    0.4016   -0.2063    3.8904 H   0  0  0  0  0  0  0  0  0  0  0  0
   -0.8767   -1.3179    4.4225 H   0  0  0  0  0  0  0  0  0  0  0  0
    0.7001   -1.9608    3.9218 H   0  0  0  0  0  0  0  0  0  0  0  0
  1  2  1  0  0  0  0
  2  3  1  0  0  0  0
  2  4  1  0  0  0  0
  2  5  1  0  0  0  0
  5  6  2  0  0  0  0
  5  7  1  0  0  0  0
  7  8  1  0  0  0  0
  7  9  1  0  0  0  0
  9 10  1  0  0  0  0
  9 11  1  0  0  0  0
  9 29  1  0  0  0  0
 11 12  1  0  0  0  0
 11 13  1  0  0  0  0
 11 14  1  0  0  0  0
 14 15  1  0  0  0  0
 14 16  1  0  0  0  0
 14 17  1  0  0  0  0
 17 18  1  0  0  0  0
 17 19  1  0  0  0  0
 17 20  1  0  0  0  0
 20 21  1  0  0  0  0
 20 22  2  0  0  0  0
 22 23  1  0  0  0  0
 22 26  1  0  0  0  0
 23 24  1  0  0  0  0
 23 25  1  0  0  0  0
 26 27  1  0  0  0  0
 26 28  1  0  0  0  0
 29 30  2  0  0  0  0
 29 31  1  0  0  0  0
 31 32  1  0  0  0  0
 31 33  1  0  0  0  0
 33 34  1  0  0  0  0
 33 35  1  0  0  0  0
 33 36  1  0  0  0  0
M  CHG  1  20   1
M  END
$$$$

  -OEChem-04042215563D

 36 35  0     1  0  0  0  0  0999 V2000
   -2.9739   -5.4284    1.0334 H   0  0  0  0  0  0  0  0  0  0  0  0
   -3.0833   -4.4057    0.6605 C   0  0  0  0  0  0  0  0  0  0  0  0
   -3.6917   -3.8386    1.3692 H   0  0  0  0  0  0  0  0  0  0  0  0
   -3.5932   -4.4374   -0.3052 H   0  0  0  0  0  0  0  0  0  0  0  0
   -1.7197   -3.7593    0.5083 C   0  0  0  0  0  0  0  0  0  0  0  0
   -0.7111   -4.3853    0.7803 O   0  0  0  0  0  0  0  0  0  0  0  0
   -1.6095   -2.4692    0.0231 N   0  0  0  0  0  0  0  0  0  0  0  0
   -2.4799   -1.9636   -0.1175 H   0  0  0  0  0  0  0  0  0  0  0  0
   -0.3510   -1.7025    0.0739 C   0  0  1  0  0  0  0  0  0  0  0  0
    0.4151   -2.3098   -0.4153 H   0  0  0  0  0  0  0  0  0  0  0  0
   -0.5119   -0.3737   -0.6914 C   0  0  0  0  0  0  0  0  0  0  0  0
   -1.4409    0.1165   -0.3816 H   0  0  0  0  0  0  0  0  0  0  0  0
    0.3120    0.2963   -0.4188 H   0  0  0  0  0  0  0  0  0  0  0  0
   -0.5027   -0.5466   -2.2210 C   0  0  0  0  0  0  0  0  0  0  0  0
   -1.3422   -1.1791   -2.5283 H   0  0  0  0  0  0  0  0  0  0  0  0
   -0.6335    0.4367   -2.6855 H   0  0  0  0  0  0  0  0  0  0  0  0
    0.8167   -1.1689   -2.6914 C   0  0  0  0  0  0  0  0  0  0  0  0
    1.6475   -0.5873   -2.2753 H   0  0  0  0  0  0  0  0  0  0  0  0
    0.8876   -2.1931   -2.3112 H   0  0  0  0  0  0  0  0  0  0  0  0
    0.9098   -1.1875   -4.1620 N   0  3  0  0  0  0  0  0  0  0  0  0
    0.1144   -0.8293   -4.6887 H   0  0  0  0  0  0  0  0  0  0  0  0
    1.9468   -1.6536   -4.7982 C   0  0  0  0  0  0  0  0  0  0  0  0
    3.0345   -2.1695   -4.1292 N   0  0  0  0  0  0  0  0  0  0  0  0
    2.9528   -2.3200   -3.1247 H   0  0  0  0  0  0  0  0  0  0  0  0
    3.7091   -2.7313   -4.6443 H   0  0  0  0  0  0  0  0  0  0  0  0
    1.9676   -1.6389   -6.1725 N   0  0  0  0  0  0  0  0  0  0  0  0
    1.2629   -1.0963   -6.6677 H   0  0  0  0  0  0  0  0  0  0  0  0
    2.8527   -1.8150   -6.6447 H   0  0  0  0  0  0  0  0  0  0  0  0
    0.2192   -1.4621    1.4878 C   0  0  0  0  0  0  0  0  0  0  0  0
    1.4339   -1.3963    1.6184 O   0  0  0  0  0  0  0  0  0  0  0  0
   -0.6003   -1.0611    2.5276 N   0  0  0  0  0  0  0  0  0  0  0  0
   -1.6017   -1.1567    2.3955 H   0  0  0  0  0  0  0  0  0  0  0  0
   -0.0943   -0.7663    3.8643 C   0  0  0  0  0  0  0  0  0  0  0  0
    0.6292    0.0553    3.8292 H   0  0  0  0  0  0  0  0  0  0  0  0
   -0.9152   -0.4728    4.5257 H   0  0  0  0  0  0  0  0  0  0  0  0
    0.3963   -1.6477    4.2914 H   0  0  0  0  0  0  0  0  0  0  0  0
  1  2  1  0  0  0  0
  2  3  1  0  0  0  0
  2  4  1  0  0  0  0
  2  5  1  0  0  0  0
  5  6  2  0  0  0  0
  5  7  1  0  0  0  0
  7  8  1  0  0  0  0
  7  9  1  0  0  0  0
  9 10  1  0  0  0  0
  9 11  1  0  0  0  0
  9 29  1  0  0  0  0
 11 12  1  0  0  0  0
 11 13  1  0  0  0  0
 11 14  1  0  0  0  0
 14 15  1  0  0  0  0
 14 16  1  0  0  0  0
 14 17  1  0  0  0  0
 17 18  1  0  0  0  0
 17 19  1  0  0  0  0
 17 20  1  0  0  0  0
 20 21  1  0  0  0  0
 20 22  2  0  0  0  0
 22 23  1  0  0  0  0
 22 26  1  0  0  0  0
 23 24  1  0  0  0  0
 23 25  1  0  0  0  0
 26 27  1  0  0  0  0
 26 28  1  0  0  0  0
 29 30  2  0  0  0  0
 29 31  1  0  0  0  0
 31 32  1  0  0  0  0
 31 33  1  0  0  0  0
 33 34  1  0  0  0  0
 33 35  1  0  0  0  0
 33 36  1  0  0  0  0
M  CHG  1  20   1
M  END
$$$$

  -OEChem-04042215563D

 36 35  0     1  0  0  0  0  0999 V2000
   -3.0076   -5.3985    1.1393 H   0  0  0  0  0  0  0  0  0  0  0  0
   -3.1030   -4.3864    0.7350 C   0  0  0  0  0  0  0  0  0  0  0  0
   -3.6948   -3.7869    1.4308 H   0  0  0  0  0  0  0  0  0  0  0  0
   -3.6224   -4.4398   -0.2245 H   0  0  0  0  0  0  0  0  0  0  0  0
   -1.7302   -3.7689    0.5512 C   0  0  0  0  0  0  0  0  0  0  0  0
   -0.7288   -4.4141    0.8054 O   0  0  0  0  0  0  0  0  0  0  0  0
   -1.6018   -2.4888    0.0447 N   0  0  0  0  0  0  0  0  0  0  0  0
   -2.4656   -1.9692   -0.0857 H   0  0  0  0  0  0  0  0  0  0  0  0
   -0.3352   -1.7361    0.1049 C   0  0  1  0  0  0  0  0  0  0  0  0
    0.4406   -2.3546   -0.3528 H   0  0  0  0  0  0  0  0  0  0  0  0
   -0.4825   -0.4142   -0.6779 C   0  0  0  0  0  0  0  0  0  0  0  0
   -1.3981    0.1013   -0.3695 H   0  0  0  0  0  0  0  0  0  0  0  0
    0.3578    0.2358   -0.4064 H   0  0  0  0  0  0  0  0  0  0  0  0
   -0.4651   -0.5737   -2.2128 C   0  0  0  0  0  0  0  0  0  0  0  0
   -1.4300   -0.9738   -2.5418 H   0  0  0  0  0  0  0  0  0  0  0  0
   -0.3405    0.4160   -2.6655 H   0  0  0  0  0  0  0  0  0  0  0  0
    0.6488   -1.5105   -2.6917 C   0  0  0  0  0  0  0  0  0  0  0  0
    1.5985   -1.1780   -2.2564 H   0  0  0  0  0  0  0  0  0  0  0  0
    0.4401   -2.5252   -2.3349 H   0  0  0  0  0  0  0  0  0  0  0  0
    0.7520   -1.5191   -4.1614 N   0  3  0  0  0  0  0  0  0  0  0  0
    0.0877   -0.9497   -4.6834 H   0  0  0  0  0  0  0  0  0  0  0  0
    1.6463   -2.2156   -4.8030 C   0  0  0  0  0  0  0  0  0  0  0  0
    2.5550   -3.0115   -4.1416 N   0  0  0  0  0  0  0  0  0  0  0  0
    2.4212   -3.1660   -3.1434 H   0  0  0  0  0  0  0  0  0  0  0  0
    3.0762   -3.7087   -4.6692 H   0  0  0  0  0  0  0  0  0  0  0  0
    1.6938   -2.1633   -6.1757 N   0  0  0  0  0  0  0  0  0  0  0  0
    1.1539   -1.4469   -6.6567 H   0  0  0  0  0  0  0  0  0  0  0  0
    2.5186   -2.5331   -6.6449 H   0  0  0  0  0  0  0  0  0  0  0  0
    0.2044   -1.4826    1.5292 C   0  0  0  0  0  0  0  0  0  0  0  0
    1.4154   -1.4498    1.6960 O   0  0  0  0  0  0  0  0  0  0  0  0
   -0.6347   -1.0569    2.5433 N   0  0  0  0  0  0  0  0  0  0  0  0
   -1.6340   -1.1174    2.3805 H   0  0  0  0  0  0  0  0  0  0  0  0
   -0.1597   -0.7557    3.8900 C   0  0  0  0  0  0  0  0  0  0  0  0
    0.5801    0.0516    3.8656 H   0  0  0  0  0  0  0  0  0  0  0  0
   -0.9923   -0.4391    4.5255 H   0  0  0  0  0  0  0  0  0  0  0  0
    0.3020   -1.6411    4.3403 H   0  0  0  0  0  0  0  0  0  0  0  0
  1  2  1  0  0  0  0
  2  3  1  0  0  0  0
  2  4  1  0  0  0  0
  2  5  1  0  0  0  0
  5  6  2  0  0  0  0
  5  7  1  0  0  0  0
  7  8  1  0  0  0  0
  7  9  1  0  0  0  0
  9 10  1  0  0  0  0
  9 11  1  0  0  0  0
  9 29  1  0  0  0  0
 11 12  1  0  0  0  0
 11 13  1  0  0  0  0
 11 14  1  0  0  0  0
 14 15  1  0  0  0  0
 14 16  1  0  0  0  0
 14 17  1  0  0  0  0
 17 18  1  0  0  0  0
 17 19  1  0  0  0  0
 17 20  1  0  0  0  0
 20 21  1  0  0  0  0
 20 22  2  0  0  0  0
 22 23  1  0  0  0  0
 22 26  1  0  0  0  0
 23 24  1  0  0  0  0
 23 25  1  0  0  0  0
 26 27  1  0  0  0  0
 26 28  1  0  0  0  0
 29 30  2  0  0  0  0
 29 31  1  0  0  0  0
 31 32  1  0  0  0  0
 31 33  1  0  0  0  0
 33 34  1  0  0  0  0
 33 35  1  0  0  0  0
 33 36  1  0  0  0  0
M  CHG  1  20   1
M  END
$$$$

  -OEChem-04042215563D

 36 35  0     1  0  0  0  0  0999 V2000
   -3.0032   -5.3871    1.1871 H   0  0  0  0  0  0  0  0  0  0  0  0
   -3.0934   -4.3797    0.7703 C   0  0  0  0  0  0  0  0  0  0  0  0
   -3.6689   -3.7646    1.4662 H   0  0  0  0  0  0  0  0  0  0  0  0
   -3.6267   -4.4400   -0.1812 H   0  0  0  0  0  0  0  0  0  0  0  0
   -1.7168   -3.7795    0.5590 C   0  0  0  0  0  0  0  0  0  0  0  0
   -0.7182   -4.4401    0.7827 O   0  0  0  0  0  0  0  0  0  0  0  0
   -1.5821   -2.5018    0.0484 N   0  0  0  0  0  0  0  0  0  0  0  0
   -2.4442   -1.9747   -0.0606 H   0  0  0  0  0  0  0  0  0  0  0  0
   -0.3167   -1.7491    0.1340 C   0  0  1  0  0  0  0  0  0  0  0  0
    0.4765   -2.3639   -0.2999 H   0  0  0  0  0  0  0  0  0  0  0  0
   -0.4547   -0.4288   -0.6547 C   0  0  0  0  0  0  0  0  0  0  0  0
   -1.3689    0.0947   -0.3554 H   0  0  0  0  0  0  0  0  0  0  0  0
    0.3871    0.2126   -0.3678 H   0  0  0  0  0  0  0  0  0  0  0  0
   -0.4121   -0.5682   -2.1944 C   0  0  0  0  0  0  0  0  0  0  0  0
   -1.4342   -0.7142   -2.5592 H   0  0  0  0  0  0  0  0  0  0  0  0
   -0.0380    0.3691   -2.6204 H   0  0  0  0  0  0  0  0  0  0  0  0
    0.4417   -1.7438   -2.6798 C   0  0  0  0  0  0  0  0  0  0  0  0
    1.4364   -1.6652   -2.2262 H   0  0  0  0  0  0  0  0  0  0  0  0
   -0.0189   -2.6798   -2.3428 H   0  0  0  0  0  0  0  0  0  0  0  0
    0.5703   -1.7501   -4.1473 N   0  3  0  0  0  0  0  0  0  0  0  0
    0.2173   -0.9393   -4.6537 H   0  0  0  0  0  0  0  0  0  0  0  0
    1.1788   -2.7004   -4.7978 C   0  0  0  0  0  0  0  0  0  0  0  0
    1.7174   -3.7909   -4.1516 N   0  0  0  0  0  0  0  0  0  0  0  0
    1.7628   -3.7711   -3.1337 H   0  0  0  0  0  0  0  0  0  0  0  0
    2.3860   -4.3760   -4.6486 H   0  0  0  0  0  0  0  0  0  0  0  0
    1.2969   -2.6224   -6.1649 N   0  0  0  0  0  0  0  0  0  0  0  0
    0.7536   -1.9229   -6.6667 H   0  0  0  0  0  0  0  0  0  0  0  0
    1.5958   -3.4521   -6.6744 H   0  0  0  0  0  0  0  0  0  0  0  0
    0.1835   -1.4936    1.5729 C   0  0  0  0  0  0  0  0  0  0  0  0
    1.3885   -1.4747    1.7783 O   0  0  0  0  0  0  0  0  0  0  0  0
   -0.6823   -1.0656    2.5638 N   0  0  0  0  0  0  0  0  0  0  0  0
   -1.6767   -1.0970    2.3671 H   0  0  0  0  0  0  0  0  0  0  0  0
   -0.2432   -0.7560    3.9207 C   0  0  0  0  0  0  0  0  0  0  0  0
    0.4946    0.0535    3.9104 H   0  0  0  0  0  0  0  0  0  0  0  0
   -1.0930   -0.4390    4.5329 H   0  0  0  0  0  0  0  0  0  0  0  0
    0.2095   -1.6376    4.3875 H   0  0  0  0  0  0  0  0  0  0  0  0
  1  2  1  0  0  0  0
  2  3  1  0  0  0  0
  2  4  1  0  0  0  0
  2  5  1  0  0  0  0
  5  6  2  0  0  0  0
  5  7  1  0  0  0  0
  7  8  1  0  0  0  0
  7  9  1  0  0  0  0
  9 10  1  0  0  0  0
  9 11  1  0  0  0  0
  9 29  1  0  0  0  0
 11 12  1  0  0  0  0
 11 13  1  0  0  0  0
 11 14  1  0  0  0  0
 14 15  1  0  0  0  0
 14 16  1  0  0  0  0
 14 17  1  0  0  0  0
 17 18  1  0  0  0  0
 17 19  1  0  0  0  0
 17 20  1  0  0  0  0
 20 21  1  0  0  0  0
 20 22  2  0  0  0  0
 22 23  1  0  0  0  0
 22 26  1  0  0  0  0
 23 24  1  0  0  0  0
 23 25  1  0  0  0  0
 26 27  1  0  0  0  0
 26 28  1  0  0  0  0
 29 30  2  0  0  0  0
 29 31  1  0  0  0  0
 31 32  1  0  0  0  0
 31 33  1  0  0  0  0
 33 34  1  0  0  0  0
 33 35  1  0  0  0  0
 33 36  1  0  0  0  0
M  CHG  1  20   1
M  END
$$$$

  -OEChem-04042215563D

 36 35  0     1  0  0  0  0  0999 V2000
   -3.0058   -5.3592    1.2331 H   0  0  0  0  0  0  0  0  0  0  0  0
   -3.0941   -4.3580    0.8007 C   0  0  0  0  0  0  0  0  0  0  0  0
   -3.6510   -3.7257    1.4965 H   0  0  0  0  0  0  0  0  0  0  0  0
   -3.6453   -4.4286   -0.1400 H   0  0  0  0  0  0  0  0  0  0  0  0
   -1.7160   -3.7750    0.5550 C   0  0  0  0  0  0  0  0  0  0  0  0
   -0.7211   -4.4581    0.7197 O   0  0  0  0  0  0  0  0  0  0  0  0
   -1.5774   -2.4960    0.0497 N   0  0  0  0  0  0  0  0  0  0  0  0
   -2.4371   -1.9585   -0.0225 H   0  0  0  0  0  0  0  0  0  0  0  0
   -0.3098   -1.7476    0.1546 C   0  0  1  0  0  0  0  0  0  0  0  0
    0.4920   -2.3588   -0.2692 H   0  0  0  0  0  0  0  0  0  0  0  0
   -0.4325   -0.4301   -0.6406 C   0  0  0  0  0  0  0  0  0  0  0  0
   -1.3517    0.0927   -0.3555 H   0  0  0  0  0  0  0  0  0  0  0  0
    0.4025    0.2134   -0.3389 H   0  0  0  0  0  0  0  0  0  0  0  0
   -0.3666   -0.5683   -2.1835 C   0  0  0  0  0  0  0  0  0  0  0  0
   -1.3774   -0.4348   -2.5834 H   0  0  0  0  0  0  0  0  0  0  0  0
    0.2550    0.2412   -2.5822 H   0  0  0  0  0  0  0  0  0  0  0  0
    0.1690   -1.9191   -2.6722 C   0  0  0  0  0  0  0  0  0  0  0  0
    1.1702   -2.0704   -2.2527 H   0  0  0  0  0  0  0  0  0  0  0  0
   -0.4856   -2.7152   -2.2995 H   0  0  0  0  0  0  0  0  0  0  0  0
    0.2399   -1.9826   -4.1421 N   0  3  0  0  0  0  0  0  0  0  0  0
    0.0454   -1.1275   -4.6611 H   0  0  0  0  0  0  0  0  0  0  0  0
    0.5966   -3.0598   -4.7819 C   0  0  0  0  0  0  0  0  0  0  0  0
    0.9095   -4.2255   -4.1177 N   0  0  0  0  0  0  0  0  0  0  0  0
    1.0079   -4.1871   -3.1038 H   0  0  0  0  0  0  0  0  0  0  0  0
    1.4086   -4.9579   -4.6185 H   0  0  0  0  0  0  0  0  0  0  0  0
    0.6679   -3.0453   -6.1545 N   0  0  0  0  0  0  0  0  0  0  0  0
    0.2773   -2.2525   -6.6599 H   0  0  0  0  0  0  0  0  0  0  0  0
    0.7525   -3.9329   -6.6468 H   0  0  0  0  0  0  0  0  0  0  0  0
    0.1693   -1.5012    1.6025 C   0  0  0  0  0  0  0  0  0  0  0  0
    1.3694   -1.5036    1.8330 O   0  0  0  0  0  0  0  0  0  0  0  0
   -0.7098   -1.0750    2.5827 N   0  0  0  0  0  0  0  0  0  0  0  0
   -1.6996   -1.0687    2.3621 H   0  0  0  0  0  0  0  0  0  0  0  0
   -0.2897   -0.7648    3.9457 C   0  0  0  0  0  0  0  0  0  0  0  0
    0.4411    0.0510    3.9462 H   0  0  0  0  0  0  0  0  0  0  0  0
   -1.1496   -0.4567    4.5486 H   0  0  0  0  0  0  0  0  0  0  0  0
    0.1654   -1.6434    4.4161 H   0  0  0  0  0  0  0  0  0  0  0  0
  1  2  1  0  0  0  0
  2  3  1  0  0  0  0
  2  4  1  0  0  0  0
  2  5  1  0  0  0  0
  5  6  2  0  0  0  0
  5  7  1  0  0  0  0
  7  8  1  0  0  0  0
  7  9  1  0  0  0  0
  9 10  1  0  0  0  0
  9 11  1  0  0  0  0
  9 29  1  0  0  0  0
 11 12  1  0  0  0  0
 11 13  1  0  0  0  0
 11 14  1  0  0  0  0
 14 15  1  0  0  0  0
 14 16  1  0  0  0  0
 14 17  1  0  0  0  0
 17 18  1  0  0  0  0
 17 19  1  0  0  0  0
 17 20  1  0  0  0  0
 20 21  1  0  0  0  0
 20 22  2  0  0  0  0
 22 23  1  0  0  0  0
 22 26  1  0  0  0  0
 23 24  1  0  0  0  0
 23 25  1  0  0  0  0
 26 27  1  0  0  0  0
 26 28  1  0  0  0  0
 29 30  2  0  0  0  0
 29 31  1  0  0  0  0
 31 32  1  0  0  0  0
 31 33  1  0  0  0  0
 33 34  1  0  0  0  0
 33 35  1  0  0  0  0
 33 36  1  0  0  0  0
M  CHG  1  20   1
M  END
$$$$

  -OEChem-04042215563D

 36 35  0     1  0  0  0  0  0999 V2000
   -3.1188   -5.3321    1.2934 H   0  0  0  0  0  0  0  0  0  0  0  0
   -3.1880   -4.2836    0.9887 C   0  0  0  0  0  0  0  0  0  0  0  0
   -3.5866   -3.7036    1.8247 H   0  0  0  0  0  0  0  0  0  0  0  0
   -3.8732   -4.2086    0.1412 H   0  0  0  0  0  0  0  0  0  0  0  0
   -1.8165   -3.7643    0.6025 C   0  0  0  0  0  0  0  0  0  0  0  0
   -0.8441   -4.4961    0.6549 O   0  0  0  0  0  0  0  0  0  0  0  0
   -1.6663   -2.4902    0.0880 N   0  0  0  0  0  0  0  0  0  0  0  0
   -2.5081   -1.9204    0.0989 H   0  0  0  0  0  0  0  0  0  0  0  0
   -0.3721   -1.7810    0.1513 C   0  0  1  0  0  0  0  0  0  0  0  0
    0.3974   -2.4164   -0.2972 H   0  0  0  0  0  0  0  0  0  0  0  0
   -0.4603   -0.4667   -0.6517 C   0  0  0  0  0  0  0  0  0  0  0  0
   -1.3638    0.0767   -0.3553 H   0  0  0  0  0  0  0  0  0  0  0  0
    0.3921    0.1619   -0.3678 H   0  0  0  0  0  0  0  0  0  0  0  0
   -0.4325   -0.6186   -2.1957 C   0  0  0  0  0  0  0  0  0  0  0  0
   -1.3439   -0.1710   -2.6061 H   0  0  0  0  0  0  0  0  0  0  0  0
    0.4173   -0.0439   -2.5807 H   0  0  0  0  0  0  0  0  0  0  0  0
   -0.3198   -2.0642   -2.6972 C   0  0  0  0  0  0  0  0  0  0  0  0
    0.5711   -2.5216   -2.2545 H   0  0  0  0  0  0  0  0  0  0  0  0
   -1.1987   -2.6286   -2.3670 H   0  0  0  0  0  0  0  0  0  0  0  0
   -0.2085   -2.1230   -4.1645 N   0  3  0  0  0  0  0  0  0  0  0  0
   -0.2973   -1.2484   -4.6799 H   0  0  0  0  0  0  0  0  0  0  0  0
    0.0533   -3.2265   -4.8049 C   0  0  0  0  0  0  0  0  0  0  0  0
    0.2139   -4.4253   -4.1451 N   0  0  0  0  0  0  0  0  0  0  0  0
    0.2734   -4.4078   -3.1275 H   0  0  0  0  0  0  0  0  0  0  0  0
    0.6571   -5.1997   -4.6351 H   0  0  0  0  0  0  0  0  0  0  0  0
    0.1778   -3.2066   -6.1737 N   0  0  0  0  0  0  0  0  0  0  0  0
   -0.1022   -2.3704   -6.6827 H   0  0  0  0  0  0  0  0  0  0  0  0
    0.1867   -4.0930   -6.6752 H   0  0  0  0  0  0  0  0  0  0  0  0
    0.1577   -1.5503    1.5838 C   0  0  0  0  0  0  0  0  0  0  0  0
    1.3620   -1.5997    1.7839 O   0  0  0  0  0  0  0  0  0  0  0  0
   -0.6797   -1.0967    2.5880 N   0  0  0  0  0  0  0  0  0  0  0  0
   -1.6701   -1.0199    2.3845 H   0  0  0  0  0  0  0  0  0  0  0  0
   -0.2078   -0.7694    3.9298 C   0  0  0  0  0  0  0  0  0  0  0  0
    0.5205    0.0478    3.8919 H   0  0  0  0  0  0  0  0  0  0  0  0
   -1.0445   -0.4565    4.5619 H   0  0  0  0  0  0  0  0  0  0  0  0
    0.2670   -1.6412    4.3928 H   0  0  0  0  0  0  0  0  0  0  0  0
  1  2  1  0  0  0  0
  2  3  1  0  0  0  0
  2  4  1  0  0  0  0
  2  5  1  0  0  0  0
  5  6  2  0  0  0  0
  5  7  1  0  0  0  0
  7  8  1  0  0  0  0
  7  9  1  0  0  0  0
  9 10  1  0  0  0  0
  9 11  1  0  0  0  0
  9 29  1  0  0  0  0
 11 12  1  0  0  0  0
 11 13  1  0  0  0  0
 11 14  1  0  0  0  0
 14 15  1  0  0  0  0
 14 16  1  0  0  0  0
 14 17  1  0  0  0  0
 17 18  1  0  0  0  0
 17 19  1  0  0  0  0
 17 20  1  0  0  0  0
 20 21  1  0  0  0  0
 20 22  2  0  0  0  0
 22 23  1  0  0  0  0
 22 26  1  0  0  0  0
 23 24  1  0  0  0  0
 23 25  1  0  0  0  0
 26 27  1  0  0  0  0
 26 28  1  0  0  0  0
 29 30  2  0  0  0  0
 29 31  1  0  0  0  0
 31 32  1  0  0  0  0
 31 33  1  0  0  0  0
 33 34  1  0  0  0  0
 33 35  1  0  0  0  0
 33 36  1  0  0  0  0
M  CHG  1  20   1
M  END
$$$$

  -OEChem-04042215563D

 36 35  0     1  0  0  0  0  0999 V2000
   -3.3612   -5.2134    1.3688 H   0  0  0  0  0  0  0  0  0  0  0  0
   -3.3863   -4.1454    1.1330 C   0  0  0  0  0  0  0  0  0  0  0  0
   -3.6409   -3.5938    2.0412 H   0  0  0  0  0  0  0  0  0  0  0  0
   -4.1572   -3.9709    0.3788 H   0  0  0  0  0  0  0  0  0  0  0  0
   -2.0344   -3.6960    0.6141 C   0  0  0  0  0  0  0  0  0  0  0  0
   -1.1178   -4.4922    0.5098 O   0  0  0  0  0  0  0  0  0  0  0  0
   -1.8561   -2.4139    0.1302 N   0  0  0  0  0  0  0  0  0  0  0  0
   -2.6492   -1.7920    0.2638 H   0  0  0  0  0  0  0  0  0  0  0  0
   -0.5168   -1.7915    0.0838 C   0  0  1  0  0  0  0  0  0  0  0  0
    0.1592   -2.4622   -0.4563 H   0  0  0  0  0  0  0  0  0  0  0  0
   -0.5668   -0.4594   -0.6900 C   0  0  0  0  0  0  0  0  0  0  0  0
   -1.4141    0.1277   -0.3200 H   0  0  0  0  0  0  0  0  0  0  0  0
    0.3392    0.1154   -0.4650 H   0  0  0  0  0  0  0  0  0  0  0  0
   -0.6773   -0.5950   -2.2320 C   0  0  0  0  0  0  0  0  0  0  0  0
   -1.3789    0.1550   -2.6125 H   0  0  0  0  0  0  0  0  0  0  0  0
    0.3088   -0.3591   -2.6484 H   0  0  0  0  0  0  0  0  0  0  0  0
   -1.0830   -1.9875   -2.7403 C   0  0  0  0  0  0  0  0  0  0  0  0
   -0.5159   -2.7493   -2.2007 H   0  0  0  0  0  0  0  0  0  0  0  0
   -2.1460   -2.1503   -2.5309 H   0  0  0  0  0  0  0  0  0  0  0  0
   -0.8214   -2.1279   -4.1837 N   0  3  0  0  0  0  0  0  0  0  0  0
   -0.9837   -1.3110   -4.7707 H   0  0  0  0  0  0  0  0  0  0  0  0
   -0.3957   -3.2345   -4.7257 C   0  0  0  0  0  0  0  0  0  0  0  0
   -0.1556   -4.3707   -3.9833 N   0  0  0  0  0  0  0  0  0  0  0  0
   -0.1753   -4.2988   -2.9665 H   0  0  0  0  0  0  0  0  0  0  0  0
    0.3921   -5.1223   -4.3972 H   0  0  0  0  0  0  0  0  0  0  0  0
   -0.1745   -3.2825   -6.0814 N   0  0  0  0  0  0  0  0  0  0  0  0
   -0.5049   -2.5148   -6.6626 H   0  0  0  0  0  0  0  0  0  0  0  0
   -0.0355   -4.1911   -6.5204 H   0  0  0  0  0  0  0  0  0  0  0  0
    0.1713   -1.6519    1.4594 C   0  0  0  0  0  0  0  0  0  0  0  0
    1.3818   -1.8007    1.5322 O   0  0  0  0  0  0  0  0  0  0  0  0
   -0.5244   -1.1863    2.5614 N   0  0  0  0  0  0  0  0  0  0  0  0
   -1.5200   -1.0209    2.4628 H   0  0  0  0  0  0  0  0  0  0  0  0
    0.1048   -0.9511    3.8573 C   0  0  0  0  0  0  0  0  0  0  0  0
    0.8811   -0.1830    3.7734 H   0  0  0  0  0  0  0  0  0  0  0  0
   -0.6383   -0.6123    4.5857 H   0  0  0  0  0  0  0  0  0  0  0  0
    0.5626   -1.8718    4.2349 H   0  0  0  0  0  0  0  0  0  0  0  0
  1  2  1  0  0  0  0
  2  3  1  0  0  0  0
  2  4  1  0  0  0  0
  2  5  1  0  0  0  0
  5  6  2  0  0  0  0
  5  7  1  0  0  0  0
  7  8  1  0  0  0  0
  7  9  1  0  0  0  0
  9 10  1  0  0  0  0
  9 11  1  0  0  0  0
  9 29  1  0  0  0  0
 11 12  1  0  0  0  0
 11 13  1  0  0  0  0
 11 14  1  0  0  0  0
 14 15  1  0  0  0  0
 14 16  1  0  0  0  0
 14 17  1  0  0  0  0
 17 18  1  0  0  0  0
 17 19  1  0  0  0  0
 17 20  1  0  0  0  0
 20 21  1  0  0  0  0
 20 22  2  0  0  0  0
 22 23  1  0  0  0  0
 22 26  1  0  0  0  0
 23 24  1  0  0  0  0
 23 25  1  0  0  0  0
 26 27  1  0  0  0  0
 26 28  1  0  0  0  0
 29 30  2  0  0  0  0
 29 31  1  0  0  0  0
 31 32  1  0  0  0  0
 31 33  1  0  0  0  0
 33 34  1  0  0  0  0
 33 35  1  0  0  0  0
 33 36  1  0  0  0  0
M  CHG  1  20   1
M  END
$$$$

  -OEChem-04042215563D

 36 35  0     1  0  0  0  0  0999 V2000
   -3.3502   -5.2521    1.1337 H   0  0  0  0  0  0  0  0  0  0  0  0
   -3.3872   -4.1623    1.0449 C   0  0  0  0  0  0  0  0  0  0  0  0
   -3.4005   -3.7324    2.0494 H   0  0  0  0  0  0  0  0  0  0  0  0
   -4.3060   -3.8832    0.5236 H   0  0  0  0  0  0  0  0  0  0  0  0
   -2.1768   -3.6610    0.2818 C   0  0  0  0  0  0  0  0  0  0  0  0
   -1.3692   -4.4405   -0.1946 O   0  0  0  0  0  0  0  0  0  0  0  0
   -2.0370   -2.3243   -0.0351 N   0  0  0  0  0  0  0  0  0  0  0  0
   -2.7516   -1.7213    0.3673 H   0  0  0  0  0  0  0  0  0  0  0  0
   -0.7020   -1.7184   -0.2279 C   0  0  1  0  0  0  0  0  0  0  0  0
   -0.1710   -2.3016   -0.9869 H   0  0  0  0  0  0  0  0  0  0  0  0
   -0.8205   -0.2930   -0.7949 C   0  0  0  0  0  0  0  0  0  0  0  0
   -1.5778    0.2440   -0.2139 H   0  0  0  0  0  0  0  0  0  0  0  0
    0.1289    0.2327   -0.6400 H   0  0  0  0  0  0  0  0  0  0  0  0
   -1.1796   -0.1879   -2.2987 C   0  0  0  0  0  0  0  0  0  0  0  0
   -1.6867    0.7690   -2.4638 H   0  0  0  0  0  0  0  0  0  0  0  0
   -0.2314   -0.1329   -2.8455 H   0  0  0  0  0  0  0  0  0  0  0  0
   -2.0401   -1.3058   -2.9205 C   0  0  0  0  0  0  0  0  0  0  0  0
   -2.3032   -2.0678   -2.1889 H   0  0  0  0  0  0  0  0  0  0  0  0
   -2.9799   -0.8695   -3.2769 H   0  0  0  0  0  0  0  0  0  0  0  0
   -1.3241   -1.9241   -4.0561 N   0  3  0  0  0  0  0  0  0  0  0  0
   -1.1823   -1.3369   -4.8768 H   0  0  0  0  0  0  0  0  0  0  0  0
   -0.8464   -3.1382   -4.0696 C   0  0  0  0  0  0  0  0  0  0  0  0
   -0.9680   -4.0151   -3.0165 N   0  0  0  0  0  0  0  0  0  0  0  0
   -1.2695   -3.6623   -2.1061 H   0  0  0  0  0  0  0  0  0  0  0  0
   -0.3865   -4.8502   -3.0052 H   0  0  0  0  0  0  0  0  0  0  0  0
   -0.1863   -3.5803   -5.1912 N   0  0  0  0  0  0  0  0  0  0  0  0
   -0.2362   -3.0296   -6.0456 H   0  0  0  0  0  0  0  0  0  0  0  0
    0.0259   -4.5733   -5.2699 H   0  0  0  0  0  0  0  0  0  0  0  0
    0.2222   -1.7936    1.0062 C   0  0  0  0  0  0  0  0  0  0  0  0
    1.4039   -2.0526    0.8388 O   0  0  0  0  0  0  0  0  0  0  0  0
   -0.2423   -1.4899    2.2737 N   0  0  0  0  0  0  0  0  0  0  0  0
   -1.2090   -1.1992    2.3742 H   0  0  0  0  0  0  0  0  0  0  0  0
    0.6178   -1.4913    3.4533 C   0  0  0  0  0  0  0  0  0  0  0  0
    1.4368   -0.7741    3.3329 H   0  0  0  0  0  0  0  0  0  0  0  0
    0.0452   -1.2136    4.3436 H   0  0  0  0  0  0  0  0  0  0  0  0
    1.0448   -2.4871    3.6146 H   0  0  0  0  0  0  0  0  0  0  0  0
  1  2  1  0  0  0  0
  2  3  1  0  0  0  0
  2  4  1  0  0  0  0
  2  5  1  0  0  0  0
  5  6  2  0  0  0  0
  5  7  1  0  0  0  0
  7  8  1  0  0  0  0
  7  9  1  0  0  0  0
  9 10  1  0  0  0  0
  9 11  1  0  0  0  0
  9 29  1  0  0  0  0
 11 12  1  0  0  0  0
 11 13  1  0  0  0  0
 11 14  1  0  0  0  0
 14 15  1  0  0  0  0
 14 16  1  0  0  0  0
 14 17  1  0  0  0  0
 17 18  1  0  0  0  0
 17 19  1  0  0  0  0
 17 20  1  0  0  0  0
 20 21  1  0  0  0  0
 20 22  2  0  0  0  0
 22 23  1  0  0  0  0
 22 26  1  0  0  0  0
 23 24  1  0  0  0  0
 23 25  1  0  0  0  0
 26 27  1  0  0  0  0
 26 28  1  0  0  0  0
 29 30  2  0  0  0  0
 29 31  1  0  0  0  0
 31 32  1  0  0  0  0
 31 33  1  0  0  0  0
 33 34  1  0  0  0  0
 33 35  1  0  0  0  0
 33 36  1  0  0  0  0
M  CHG  1  20   1
M  END
$$$$

  -OEChem-04042215563D

 36 35  0     1  0  0  0  0  0999 V2000
   -3.4572   -5.1581    1.1089 H   0  0  0  0  0  0  0  0  0  0  0  0
   -3.4701   -4.0660    1.0471 C   0  0  0  0  0  0  0  0  0  0  0  0
   -3.4547   -3.6604    2.0618 H   0  0  0  0  0  0  0  0  0  0  0  0
   -4.3917   -3.7530    0.5506 H   0  0  0  0  0  0  0  0  0  0  0  0
   -2.2634   -3.5744    0.2722 C   0  0  0  0  0  0  0  0  0  0  0  0
   -1.5080   -4.3587   -0.2775 O   0  0  0  0  0  0  0  0  0  0  0  0
   -2.0939   -2.2334   -0.0087 N   0  0  0  0  0  0  0  0  0  0  0  0
   -2.7844   -1.6288    0.4313 H   0  0  0  0  0  0  0  0  0  0  0  0
   -0.7407   -1.6601   -0.1645 C   0  0  1  0  0  0  0  0  0  0  0  0
   -0.2164   -2.2636   -0.9136 H   0  0  0  0  0  0  0  0  0  0  0  0
   -0.7791   -0.2371   -0.7510 C   0  0  0  0  0  0  0  0  0  0  0  0
   -1.5332    0.3460   -0.2123 H   0  0  0  0  0  0  0  0  0  0  0  0
    0.1883    0.2481   -0.5763 H   0  0  0  0  0  0  0  0  0  0  0  0
   -1.0762   -0.1774   -2.2687 C   0  0  0  0  0  0  0  0  0  0  0  0
   -1.2776    0.8619   -2.5491 H   0  0  0  0  0  0  0  0  0  0  0  0
   -0.1475   -0.4661   -2.7741 H   0  0  0  0  0  0  0  0  0  0  0  0
   -2.2171   -1.0622   -2.8015 C   0  0  0  0  0  0  0  0  0  0  0  0
   -2.4662   -1.8597   -2.1052 H   0  0  0  0  0  0  0  0  0  0  0  0
   -3.1187   -0.4516   -2.9235 H   0  0  0  0  0  0  0  0  0  0  0  0
   -1.8307   -1.6668   -4.0907 N   0  3  0  0  0  0  0  0  0  0  0  0
   -1.8754   -1.0671   -4.9135 H   0  0  0  0  0  0  0  0  0  0  0  0
   -1.4004   -2.8922   -4.2210 C   0  0  0  0  0  0  0  0  0  0  0  0
   -1.2875   -3.7696   -3.1641 N   0  0  0  0  0  0  0  0  0  0  0  0
   -1.4249   -3.4382   -2.2070 H   0  0  0  0  0  0  0  0  0  0  0  0
   -0.7683   -4.6365   -3.2853 H   0  0  0  0  0  0  0  0  0  0  0  0
   -1.0374   -3.3423   -5.4676 N   0  0  0  0  0  0  0  0  0  0  0  0
   -1.2763   -2.7843   -6.2844 H   0  0  0  0  0  0  0  0  0  0  0  0
   -0.8771   -4.3397   -5.5960 H   0  0  0  0  0  0  0  0  0  0  0  0
    0.1608   -1.7882    1.0823 C   0  0  0  0  0  0  0  0  0  0  0  0
    1.3393   -2.0697    0.9316 O   0  0  0  0  0  0  0  0  0  0  0  0
   -0.3202   -1.5002    2.3473 N   0  0  0  0  0  0  0  0  0  0  0  0
   -1.2783   -1.1789    2.4345 H   0  0  0  0  0  0  0  0  0  0  0  0
    0.5180   -1.5407    3.5418 C   0  0  0  0  0  0  0  0  0  0  0  0
    1.3332   -0.8134    3.4638 H   0  0  0  0  0  0  0  0  0  0  0  0
   -0.0737   -1.3025    4.4311 H   0  0  0  0  0  0  0  0  0  0  0  0
    0.9503   -2.5384    3.6734 H   0  0  0  0  0  0  0  0  0  0  0  0
  1  2  1  0  0  0  0
  2  3  1  0  0  0  0
  2  4  1  0  0  0  0
  2  5  1  0  0  0  0
  5  6  2  0  0  0  0
  5  7  1  0  0  0  0
  7  8  1  0  0  0  0
  7  9  1  0  0  0  0
  9 10  1  0  0  0  0
  9 11  1  0  0  0  0
  9 29  1  0  0  0  0
 11 12  1  0  0  0  0
 11 13  1  0  0  0  0
 11 14  1  0  0  0  0
 14 15  1  0  0  0  0
 14 16  1  0  0  0  0
 14 17  1  0  0  0  0
 17 18  1  0  0  0  0
 17 19  1  0  0  0  0
 17 20  1  0  0  0  0
 20 21  1  0  0  0  0
 20 22  2  0  0  0  0
 22 23  1  0  0  0  0
 22 26  1  0  0  0  0
 23 24  1  0  0  0  0
 23 25  1  0  0  0  0
 26 27  1  0  0  0  0
 26 28  1  0  0  0  0
 29 30  2  0  0  0  0
 29 31  1  0  0  0  0
 31 32  1  0  0  0  0
 31 33  1  0  0  0  0
 33 34  1  0  0  0  0
 33 35  1  0  0  0  0
 33 36  1  0  0  0  0
M  CHG  1  20   1
M  END
$$$$

  -OEChem-04042215563D

 36 35  0     1  0  0  0  0  0999 V2000
   -3.5173   -5.0774    1.0704 H   0  0  0  0  0  0  0  0  0  0  0  0
   -3.5225   -3.9857    0.9957 C   0  0  0  0  0  0  0  0  0  0  0  0
   -3.4911   -3.5693    2.0057 H   0  0  0  0  0  0  0  0  0  0  0  0
   -4.4474   -3.6704    0.5066 H   0  0  0  0  0  0  0  0  0  0  0  0
   -2.3210   -3.5138    0.2003 C   0  0  0  0  0  0  0  0  0  0  0  0
   -1.6179   -4.3078   -0.4006 O   0  0  0  0  0  0  0  0  0  0  0  0
   -2.1145   -2.1726   -0.0556 N   0  0  0  0  0  0  0  0  0  0  0  0
   -2.7795   -1.5633    0.4160 H   0  0  0  0  0  0  0  0  0  0  0  0
   -0.7438   -1.6353   -0.1854 C   0  0  1  0  0  0  0  0  0  0  0  0
   -0.2252   -2.2363   -0.9409 H   0  0  0  0  0  0  0  0  0  0  0  0
   -0.7417   -0.1930   -0.7288 C   0  0  0  0  0  0  0  0  0  0  0  0
   -1.4711    0.4088   -0.1768 H   0  0  0  0  0  0  0  0  0  0  0  0
    0.2451    0.2497   -0.5505 H   0  0  0  0  0  0  0  0  0  0  0  0
   -1.0323   -0.1095   -2.2436 C   0  0  0  0  0  0  0  0  0  0  0  0
   -0.9709    0.9380   -2.5582 H   0  0  0  0  0  0  0  0  0  0  0  0
   -0.2243   -0.6415   -2.7583 H   0  0  0  0  0  0  0  0  0  0  0  0
   -2.3876   -0.6740   -2.6966 C   0  0  0  0  0  0  0  0  0  0  0  0
   -2.7590   -1.4250   -2.0012 H   0  0  0  0  0  0  0  0  0  0  0  0
   -3.1243    0.1369   -2.7126 H   0  0  0  0  0  0  0  0  0  0  0  0
   -2.2760   -1.2863   -4.0349 N   0  3  0  0  0  0  0  0  0  0  0  0
   -2.5494   -0.7108   -4.8307 H   0  0  0  0  0  0  0  0  0  0  0  0
   -1.8934   -2.5173   -4.2416 C   0  0  0  0  0  0  0  0  0  0  0  0
   -1.5182   -3.3637   -3.2214 N   0  0  0  0  0  0  0  0  0  0  0  0
   -1.6465   -3.0799   -2.2483 H   0  0  0  0  0  0  0  0  0  0  0  0
   -1.3816   -4.3552   -3.4071 H   0  0  0  0  0  0  0  0  0  0  0  0
   -1.8453   -2.9998   -5.5277 N   0  0  0  0  0  0  0  0  0  0  0  0
   -1.9282   -2.3450   -6.3026 H   0  0  0  0  0  0  0  0  0  0  0  0
   -1.3625   -3.8810   -5.6954 H   0  0  0  0  0  0  0  0  0  0  0  0
    0.1338   -1.8127    1.0727 C   0  0  0  0  0  0  0  0  0  0  0  0
    1.3070   -2.1210    0.9369 O   0  0  0  0  0  0  0  0  0  0  0  0
   -0.3597   -1.5330    2.3350 N   0  0  0  0  0  0  0  0  0  0  0  0
   -1.3018   -1.1652    2.4105 H   0  0  0  0  0  0  0  0  0  0  0  0
    0.4645   -1.5992    3.5384 C   0  0  0  0  0  0  0  0  0  0  0  0
    1.2782   -0.8678    3.4872 H   0  0  0  0  0  0  0  0  0  0  0  0
   -0.1389   -1.3841    4.4258 H   0  0  0  0  0  0  0  0  0  0  0  0
    0.8986   -2.5985    3.6525 H   0  0  0  0  0  0  0  0  0  0  0  0
  1  2  1  0  0  0  0
  2  3  1  0  0  0  0
  2  4  1  0  0  0  0
  2  5  1  0  0  0  0
  5  6  2  0  0  0  0
  5  7  1  0  0  0  0
  7  8  1  0  0  0  0
  7  9  1  0  0  0  0
  9 10  1  0  0  0  0
  9 11  1  0  0  0  0
  9 29  1  0  0  0  0
 11 12  1  0  0  0  0
 11 13  1  0  0  0  0
 11 14  1  0  0  0  0
 14 15  1  0  0  0  0
 14 16  1  0  0  0  0
 14 17  1  0  0  0  0
 17 18  1  0  0  0  0
 17 19  1  0  0  0  0
 17 20  1  0  0  0  0
 20 21  1  0  0  0  0
 20 22  2  0  0  0  0
 22 23  1  0  0  0  0
 22 26  1  0  0  0  0
 23 24  1  0  0  0  0
 23 25  1  0  0  0  0
 26 27  1  0  0  0  0
 26 28  1  0  0  0  0
 29 30  2  0  0  0  0
 29 31  1  0  0  0  0
 31 32  1  0  0  0  0
 31 33  1  0  0  0  0
 33 34  1  0  0  0  0
 33 35  1  0  0  0  0
 33 36  1  0  0  0  0
M  CHG  1  20   1
M  END
$$$$

  -OEChem-04042215563D

 36 35  0     1  0  0  0  0  0999 V2000
   -2.9088   -5.3956    1.3994 H   0  0  0  0  0  0  0  0  0  0  0  0
   -3.0670   -4.4049    0.9626 C   0  0  0  0  0  0  0  0  0  0  0  0
   -3.5884   -3.7821    1.6932 H   0  0  0  0  0  0  0  0  0  0  0  0
   -3.6871   -4.5101    0.0699 H   0  0  0  0  0  0  0  0  0  0  0  0
   -1.7331   -3.7804    0.6004 C   0  0  0  0  0  0  0  0  0  0  0  0
   -0.7122   -4.4347    0.6925 O   0  0  0  0  0  0  0  0  0  0  0  0
   -1.6776   -2.4789    0.1332 N   0  0  0  0  0  0  0  0  0  0  0  0
   -2.5437   -1.9560    0.2133 H   0  0  0  0  0  0  0  0  0  0  0  0
   -0.4179   -1.7069    0.1405 C   0  0  1  0  0  0  0  0  0  0  0  0
    0.3290   -2.2909   -0.4111 H   0  0  0  0  0  0  0  0  0  0  0  0
   -0.5835   -0.3623   -0.5942 C   0  0  0  0  0  0  0  0  0  0  0  0
   -1.4792    0.1566   -0.2377 H   0  0  0  0  0  0  0  0  0  0  0  0
    0.2760    0.2717   -0.3467 H   0  0  0  0  0  0  0  0  0  0  0  0
   -0.6227   -0.5117   -2.1255 C   0  0  0  0  0  0  0  0  0  0  0  0
   -0.4599    0.4786   -2.5648 H   0  0  0  0  0  0  0  0  0  0  0  0
    0.2080   -1.1521   -2.4436 H   0  0  0  0  0  0  0  0  0  0  0  0
   -1.9409   -1.0707   -2.6606 C   0  0  0  0  0  0  0  0  0  0  0  0
   -2.1183   -2.0606   -2.2268 H   0  0  0  0  0  0  0  0  0  0  0  0
   -2.7626   -0.4059   -2.3732 H   0  0  0  0  0  0  0  0  0  0  0  0
   -1.8483   -1.1722   -4.1300 N   0  3  0  0  0  0  0  0  0  0  0  0
   -1.0090   -0.7899   -4.5650 H   0  0  0  0  0  0  0  0  0  0  0  0
   -2.7430   -1.7436   -4.8832 C   0  0  0  0  0  0  0  0  0  0  0  0
   -3.9010   -2.2747   -4.3637 N   0  0  0  0  0  0  0  0  0  0  0  0
   -4.1334   -2.0521   -3.3990 H   0  0  0  0  0  0  0  0  0  0  0  0
   -4.6636   -2.4931   -5.0021 H   0  0  0  0  0  0  0  0  0  0  0  0
   -2.5360   -1.8197   -6.2401 N   0  0  0  0  0  0  0  0  0  0  0  0
   -1.6151   -1.5890   -6.6092 H   0  0  0  0  0  0  0  0  0  0  0  0
   -3.1227   -2.4484   -6.7858 H   0  0  0  0  0  0  0  0  0  0  0  0
    0.2056   -1.5050    1.5402 C   0  0  0  0  0  0  0  0  0  0  0  0
    1.4217   -1.4534    1.6440 O   0  0  0  0  0  0  0  0  0  0  0  0
   -0.5776   -1.1357    2.6203 N   0  0  0  0  0  0  0  0  0  0  0  0
   -1.5839   -1.1914    2.5153 H   0  0  0  0  0  0  0  0  0  0  0  0
   -0.0227   -0.8599    3.9420 C   0  0  0  0  0  0  0  0  0  0  0  0
    0.6841   -0.0244    3.8949 H   0  0  0  0  0  0  0  0  0  0  0  0
   -0.8205   -0.5963    4.6430 H   0  0  0  0  0  0  0  0  0  0  0  0
    0.5008   -1.7408    4.3292 H   0  0  0  0  0  0  0  0  0  0  0  0
  1  2  1  0  0  0  0
  2  3  1  0  0  0  0
  2  4  1  0  0  0  0
  2  5  1  0  0  0  0
  5  6  2  0  0  0  0
  5  7  1  0  0  0  0
  7  8  1  0  0  0  0
  7  9  1  0  0  0  0
  9 10  1  0  0  0  0
  9 11  1  0  0  0  0
  9 29  1  0  0  0  0
 11 12  1  0  0  0  0
 11 13  1  0  0  0  0
 11 14  1  0  0  0  0
 14 15  1  0  0  0  0
 14 16  1  0  0  0  0
 14 17  1  0  0  0  0
 17 18  1  0  0  0  0
 17 19  1  0  0  0  0
 17 20  1  0  0  0  0
 20 21  1  0  0  0  0
 20 22  2  0  0  0  0
 22 23  1  0  0  0  0
 22 26  1  0  0  0  0
 23 24  1  0  0  0  0
 23 25  1  0  0  0  0
 26 27  1  0  0  0  0
 26 28  1  0  0  0  0
 29 30  2  0  0  0  0
 29 31  1  0  0  0  0
 31 32  1  0  0  0  0
 31 33  1  0  0  0  0
 33 34  1  0  0  0  0
 33 35  1  0  0  0  0
 33 36  1  0  0  0  0
M  CHG  1  20   1
M  END
$$$$

  -OEChem-04042215563D

 36 35  0     1  0  0  0  0  0999 V2000
   -2.8344   -5.4811    1.1640 H   0  0  0  0  0  0  0  0  0  0  0  0
   -2.9962   -4.4408    0.8658 C   0  0  0  0  0  0  0  0  0  0  0  0
   -3.4916   -3.9163    1.6863 H   0  0  0  0  0  0  0  0  0  0  0  0
   -3.6424   -4.4258   -0.0144 H   0  0  0  0  0  0  0  0  0  0  0  0
   -1.6676   -3.7796    0.5518 C   0  0  0  0  0  0  0  0  0  0  0  0
   -0.6319   -4.4023    0.6891 O   0  0  0  0  0  0  0  0  0  0  0  0
   -1.6316   -2.4715    0.1024 N   0  0  0  0  0  0  0  0  0  0  0  0
   -2.5148   -1.9741    0.1453 H   0  0  0  0  0  0  0  0  0  0  0  0
   -0.3924   -1.6689    0.1360 C   0  0  1  0  0  0  0  0  0  0  0  0
    0.3783   -2.2258   -0.4103 H   0  0  0  0  0  0  0  0  0  0  0  0
   -0.6001   -0.3226   -0.5832 C   0  0  0  0  0  0  0  0  0  0  0  0
   -1.5082    0.1728   -0.2246 H   0  0  0  0  0  0  0  0  0  0  0  0
    0.2441    0.3293   -0.3288 H   0  0  0  0  0  0  0  0  0  0  0  0
   -0.6232   -0.4766   -2.1148 C   0  0  0  0  0  0  0  0  0  0  0  0
   -0.2462    0.4536   -2.5547 H   0  0  0  0  0  0  0  0  0  0  0  0
    0.0572   -1.2798   -2.4193 H   0  0  0  0  0  0  0  0  0  0  0  0
   -2.0260   -0.7325   -2.6626 C   0  0  0  0  0  0  0  0  0  0  0  0
   -2.4363   -1.6368   -2.2006 H   0  0  0  0  0  0  0  0  0  0  0  0
   -2.6727    0.1158   -2.4137 H   0  0  0  0  0  0  0  0  0  0  0  0
   -1.9383   -0.9078   -4.1249 N   0  3  0  0  0  0  0  0  0  0  0  0
   -1.0039   -0.8968   -4.5329 H   0  0  0  0  0  0  0  0  0  0  0  0
   -2.9623   -1.1103   -4.9026 C   0  0  0  0  0  0  0  0  0  0  0  0
   -4.2510   -1.1289   -4.4201 N   0  0  0  0  0  0  0  0  0  0  0  0
   -4.4071   -0.7886   -3.4743 H   0  0  0  0  0  0  0  0  0  0  0  0
   -5.0187   -1.0603   -5.0855 H   0  0  0  0  0  0  0  0  0  0  0  0
   -2.7593   -1.3102   -6.2476 N   0  0  0  0  0  0  0  0  0  0  0  0
   -1.8112   -1.4759   -6.5815 H   0  0  0  0  0  0  0  0  0  0  0  0
   -3.5315   -1.6632   -6.8106 H   0  0  0  0  0  0  0  0  0  0  0  0
    0.2071   -1.4686    1.5464 C   0  0  0  0  0  0  0  0  0  0  0  0
    1.4197   -1.3784    1.6659 O   0  0  0  0  0  0  0  0  0  0  0  0
   -0.6005   -1.1327    2.6195 N   0  0  0  0  0  0  0  0  0  0  0  0
   -1.6003   -1.2553    2.5085 H   0  0  0  0  0  0  0  0  0  0  0  0
   -0.0698   -0.8948    3.9586 C   0  0  0  0  0  0  0  0  0  0  0  0
    0.6158   -0.0406    3.9549 H   0  0  0  0  0  0  0  0  0  0  0  0
   -0.8831   -0.6796    4.6584 H   0  0  0  0  0  0  0  0  0  0  0  0
    0.4718   -1.7766    4.3183 H   0  0  0  0  0  0  0  0  0  0  0  0
  1  2  1  0  0  0  0
  2  3  1  0  0  0  0
  2  4  1  0  0  0  0
  2  5  1  0  0  0  0
  5  6  2  0  0  0  0
  5  7  1  0  0  0  0
  7  8  1  0  0  0  0
  7  9  1  0  0  0  0
  9 10  1  0  0  0  0
  9 11  1  0  0  0  0
  9 29  1  0  0  0  0
 11 12  1  0  0  0  0
 11 13  1  0  0  0  0
 11 14  1  0  0  0  0
 14 15  1  0  0  0  0
 14 16  1  0  0  0  0
 14 17  1  0  0  0  0
 17 18  1  0  0  0  0
 17 19  1  0  0  0  0
 17 20  1  0  0  0  0
 20 21  1  0  0  0  0
 20 22  2  0  0  0  0
 22 23  1  0  0  0  0
 22 26  1  0  0  0  0
 23 24  1  0  0  0  0
 23 25  1  0  0  0  0
 26 27  1  0  0  0  0
 26 28  1  0  0  0  0
 29 30  2  0  0  0  0
 29 31  1  0  0  0  0
 31 32  1  0  0  0  0
 31 33  1  0  0  0  0
 33 34  1  0  0  0  0
 33 35  1  0  0  0  0
 33 36  1  0  0  0  0
M  CHG  1  20   1
M  END
$$$$

  -OEChem-04042215563D

 36 35  0     1  0  0  0  0  0999 V2000
   -2.0979   -5.8080    1.5054 H   0  0  0  0  0  0  0  0  0  0  0  0
   -2.4604   -4.9094    0.9968 C   0  0  0  0  0  0  0  0  0  0  0  0
   -3.1936   -4.4176    1.6402 H   0  0  0  0  0  0  0  0  0  0  0  0
   -2.9423   -5.2059    0.0622 H   0  0  0  0  0  0  0  0  0  0  0  0
   -1.3020   -3.9729    0.7103 C   0  0  0  0  0  0  0  0  0  0  0  0
   -0.1607   -4.3364    0.9221 O   0  0  0  0  0  0  0  0  0  0  0  0
   -1.5378   -2.7130    0.1894 N   0  0  0  0  0  0  0  0  0  0  0  0
   -2.5091   -2.4219    0.1499 H   0  0  0  0  0  0  0  0  0  0  0  0
   -0.4896   -1.6762    0.1069 C   0  0  1  0  0  0  0  0  0  0  0  0
    0.3526   -2.0926   -0.4589 H   0  0  0  0  0  0  0  0  0  0  0  0
   -1.0172   -0.4418   -0.6470 C   0  0  0  0  0  0  0  0  0  0  0  0
   -1.9827   -0.1267   -0.2370 H   0  0  0  0  0  0  0  0  0  0  0  0
   -0.3144    0.3830   -0.4799 H   0  0  0  0  0  0  0  0  0  0  0  0
   -1.1037   -0.6804   -2.1662 C   0  0  0  0  0  0  0  0  0  0  0  0
   -0.6901    0.1943   -2.6794 H   0  0  0  0  0  0  0  0  0  0  0  0
   -0.4919   -1.5421   -2.4564 H   0  0  0  0  0  0  0  0  0  0  0  0
   -2.5473   -0.8876   -2.6216 C   0  0  0  0  0  0  0  0  0  0  0  0
   -2.9631   -1.7638   -2.1125 H   0  0  0  0  0  0  0  0  0  0  0  0
   -3.1584   -0.0235   -2.3404 H   0  0  0  0  0  0  0  0  0  0  0  0
   -2.5842   -1.1036   -4.0813 N   0  3  0  0  0  0  0  0  0  0  0  0
   -2.3896   -2.0493   -4.4098 H   0  0  0  0  0  0  0  0  0  0  0  0
   -2.8269   -0.1707   -4.9578 C   0  0  0  0  0  0  0  0  0  0  0  0
   -3.0583    1.1355   -4.5894 N   0  0  0  0  0  0  0  0  0  0  0  0
   -2.8567    1.4014   -3.6280 H   0  0  0  0  0  0  0  0  0  0  0  0
   -3.0087    1.8587   -5.3044 H   0  0  0  0  0  0  0  0  0  0  0  0
   -2.8455   -0.4889   -6.2952 N   0  0  0  0  0  0  0  0  0  0  0  0
   -2.8391   -1.4696   -6.5695 H   0  0  0  0  0  0  0  0  0  0  0  0
   -3.2242    0.1891   -6.9542 H   0  0  0  0  0  0  0  0  0  0  0  0
    0.1169   -1.2665    1.4682 C   0  0  0  0  0  0  0  0  0  0  0  0
    1.2762   -0.8808    1.5042 O   0  0  0  0  0  0  0  0  0  0  0  0
   -0.7019   -1.0329    2.5597 N   0  0  0  0  0  0  0  0  0  0  0  0
   -1.6366   -1.4238    2.5250 H   0  0  0  0  0  0  0  0  0  0  0  0
   -0.1865   -0.5758    3.8469 C   0  0  0  0  0  0  0  0  0  0  0  0
    0.3328    0.3823    3.7357 H   0  0  0  0  0  0  0  0  0  0  0  0
   -1.0065   -0.4399    4.5589 H   0  0  0  0  0  0  0  0  0  0  0  0
    0.5149   -1.3083    4.2608 H   0  0  0  0  0  0  0  0  0  0  0  0
  1  2  1  0  0  0  0
  2  3  1  0  0  0  0
  2  4  1  0  0  0  0
  2  5  1  0  0  0  0
  5  6  2  0  0  0  0
  5  7  1  0  0  0  0
  7  8  1  0  0  0  0
  7  9  1  0  0  0  0
  9 10  1  0  0  0  0
  9 11  1  0  0  0  0
  9 29  1  0  0  0  0
 11 12  1  0  0  0  0
 11 13  1  0  0  0  0
 11 14  1  0  0  0  0
 14 15  1  0  0  0  0
 14 16  1  0  0  0  0
 14 17  1  0  0  0  0
 17 18  1  0  0  0  0
 17 19  1  0  0  0  0
 17 20  1  0  0  0  0
 20 21  1  0  0  0  0
 20 22  2  0  0  0  0
 22 23  1  0  0  0  0
 22 26  1  0  0  0  0
 23 24  1  0  0  0  0
 23 25  1  0  0  0  0
 26 27  1  0  0  0  0
 26 28  1  0  0  0  0
 29 30  2  0  0  0  0
 29 31  1  0  0  0  0
 31 32  1  0  0  0  0
 31 33  1  0  0  0  0
 33 34  1  0  0  0  0
 33 35  1  0  0  0  0
 33 36  1  0  0  0  0
M  CHG  1  20   1
M  END
$$$$

  -OEChem-04042215563D

 36 35  0     1  0  0  0  0  0999 V2000
   -2.6213   -5.6671    1.0959 H   0  0  0  0  0  0  0  0  0  0  0  0
   -2.8410   -4.6388    0.7935 C   0  0  0  0  0  0  0  0  0  0  0  0
   -3.4635   -4.1742    1.5616 H   0  0  0  0  0  0  0  0  0  0  0  0
   -3.3910   -4.6624   -0.1499 H   0  0  0  0  0  0  0  0  0  0  0  0
   -1.5489   -3.8618    0.6267 C   0  0  0  0  0  0  0  0  0  0  0  0
   -0.4865   -4.3829    0.9087 O   0  0  0  0  0  0  0  0  0  0  0  0
   -1.5725   -2.5679    0.1377 N   0  0  0  0  0  0  0  0  0  0  0  0
   -2.4885   -2.1468    0.0240 H   0  0  0  0  0  0  0  0  0  0  0  0
   -0.3866   -1.6886    0.1450 C   0  0  1  0  0  0  0  0  0  0  0  0
    0.4196   -2.2040   -0.3909 H   0  0  0  0  0  0  0  0  0  0  0  0
   -0.6944   -0.3739   -0.5948 C   0  0  0  0  0  0  0  0  0  0  0  0
   -1.6361    0.0466   -0.2267 H   0  0  0  0  0  0  0  0  0  0  0  0
    0.0920    0.3537   -0.3609 H   0  0  0  0  0  0  0  0  0  0  0  0
   -0.7270   -0.5660   -2.1241 C   0  0  0  0  0  0  0  0  0  0  0  0
    0.0480    0.0658   -2.5729 H   0  0  0  0  0  0  0  0  0  0  0  0
   -0.4911   -1.6043   -2.3833 H   0  0  0  0  0  0  0  0  0  0  0  0
   -2.0885   -0.1954   -2.7091 C   0  0  0  0  0  0  0  0  0  0  0  0
   -2.8574   -0.8517   -2.2868 H   0  0  0  0  0  0  0  0  0  0  0  0
   -2.3251    0.8379   -2.4343 H   0  0  0  0  0  0  0  0  0  0  0  0
   -2.0439   -0.3456   -4.1763 N   0  3  0  0  0  0  0  0  0  0  0  0
   -1.3753   -1.0190   -4.5494 H   0  0  0  0  0  0  0  0  0  0  0  0
   -2.7948    0.3227   -5.0044 C   0  0  0  0  0  0  0  0  0  0  0  0
   -3.7093    1.2562   -4.5722 N   0  0  0  0  0  0  0  0  0  0  0  0
   -3.6711    1.5454   -3.5974 H   0  0  0  0  0  0  0  0  0  0  0  0
   -4.0918    1.9124   -5.2503 H   0  0  0  0  0  0  0  0  0  0  0  0
   -2.6771    0.0981   -6.3554 N   0  0  0  0  0  0  0  0  0  0  0  0
   -2.1284   -0.6969   -6.6781 H   0  0  0  0  0  0  0  0  0  0  0  0
   -3.3926    0.4703   -6.9775 H   0  0  0  0  0  0  0  0  0  0  0  0
    0.1945   -1.4038    1.5486 C   0  0  0  0  0  0  0  0  0  0  0  0
    1.3935   -1.1941    1.6587 O   0  0  0  0  0  0  0  0  0  0  0  0
   -0.6413   -1.0842    2.6048 N   0  0  0  0  0  0  0  0  0  0  0  0
   -1.6199   -1.3302    2.5075 H   0  0  0  0  0  0  0  0  0  0  0  0
   -0.1361   -0.7435    3.9313 C   0  0  0  0  0  0  0  0  0  0  0  0
    0.5122    0.1379    3.8810 H   0  0  0  0  0  0  0  0  0  0  0  0
   -0.9655   -0.5206    4.6096 H   0  0  0  0  0  0  0  0  0  0  0  0
    0.4385   -1.5778    4.3482 H   0  0  0  0  0  0  0  0  0  0  0  0
  1  2  1  0  0  0  0
  2  3  1  0  0  0  0
  2  4  1  0  0  0  0
  2  5  1  0  0  0  0
  5  6  2  0  0  0  0
  5  7  1  0  0  0  0
  7  8  1  0  0  0  0
  7  9  1  0  0  0  0
  9 10  1  0  0  0  0
  9 11  1  0  0  0  0
  9 29  1  0  0  0  0
 11 12  1  0  0  0  0
 11 13  1  0  0  0  0
 11 14  1  0  0  0  0
 14 15  1  0  0  0  0
 14 16  1  0  0  0  0
 14 17  1  0  0  0  0
 17 18  1  0  0  0  0
 17 19  1  0  0  0  0
 17 20  1  0  0  0  0
 20 21  1  0  0  0  0
 20 22  2  0  0  0  0
 22 23  1  0  0  0  0
 22 26  1  0  0  0  0
 23 24  1  0  0  0  0
 23 25  1  0  0  0  0
 26 27  1  0  0  0  0
 26 28  1  0  0  0  0
 29 30  2  0  0  0  0
 29 31  1  0  0  0  0
 31 32  1  0  0  0  0
 31 33  1  0  0  0  0
 33 34  1  0  0  0  0
 33 35  1  0  0  0  0
 33 36  1  0  0  0  0
M  CHG  1  20   1
M  END
$$$$

  -OEChem-04042215563D

 36 35  0     1  0  0  0  0  0999 V2000
   -2.5720   -5.6861    1.1434 H   0  0  0  0  0  0  0  0  0  0  0  0
   -2.8065   -4.6849    0.7697 C   0  0  0  0  0  0  0  0  0  0  0  0
   -3.4864   -4.1992    1.4734 H   0  0  0  0  0  0  0  0  0  0  0  0
   -3.2996   -4.7803   -0.2004 H   0  0  0  0  0  0  0  0  0  0  0  0
   -1.5328   -3.8733    0.6300 C   0  0  0  0  0  0  0  0  0  0  0  0
   -0.4634   -4.3614    0.9427 O   0  0  0  0  0  0  0  0  0  0  0  0
   -1.5817   -2.5808    0.1397 N   0  0  0  0  0  0  0  0  0  0  0  0
   -2.5037   -2.1927   -0.0307 H   0  0  0  0  0  0  0  0  0  0  0  0
   -0.4142   -1.6768    0.1272 C   0  0  1  0  0  0  0  0  0  0  0  0
    0.3922   -2.1757   -0.4245 H   0  0  0  0  0  0  0  0  0  0  0  0
   -0.7551   -0.3666   -0.6045 C   0  0  0  0  0  0  0  0  0  0  0  0
   -1.7100    0.0132   -0.2257 H   0  0  0  0  0  0  0  0  0  0  0  0
    0.0057    0.3896   -0.3776 H   0  0  0  0  0  0  0  0  0  0  0  0
   -0.8061   -0.5610   -2.1310 C   0  0  0  0  0  0  0  0  0  0  0  0
    0.1134   -0.1575   -2.5701 H   0  0  0  0  0  0  0  0  0  0  0  0
   -0.8446   -1.6287   -2.3748 H   0  0  0  0  0  0  0  0  0  0  0  0
   -2.0289    0.1248   -2.7381 C   0  0  0  0  0  0  0  0  0  0  0  0
   -2.9416   -0.3462   -2.3568 H   0  0  0  0  0  0  0  0  0  0  0  0
   -2.0325    1.1764   -2.4334 H   0  0  0  0  0  0  0  0  0  0  0  0
   -1.9735    0.0087   -4.2084 N   0  3  0  0  0  0  0  0  0  0  0  0
   -1.5511   -0.8384   -4.5875 H   0  0  0  0  0  0  0  0  0  0  0  0
   -2.4170    0.9145   -5.0330 C   0  0  0  0  0  0  0  0  0  0  0  0
   -2.9866    2.0886   -4.5952 N   0  0  0  0  0  0  0  0  0  0  0  0
   -2.9050    2.3205   -3.6079 H   0  0  0  0  0  0  0  0  0  0  0  0
   -3.1012    2.8525   -5.2585 H   0  0  0  0  0  0  0  0  0  0  0  0
   -2.3149    0.7021   -6.3875 N   0  0  0  0  0  0  0  0  0  0  0  0
   -2.0481   -0.2210   -6.7249 H   0  0  0  0  0  0  0  0  0  0  0  0
   -2.8297    1.3133   -7.0192 H   0  0  0  0  0  0  0  0  0  0  0  0
    0.1825   -1.3748    1.5202 C   0  0  0  0  0  0  0  0  0  0  0  0
    1.3770   -1.1293    1.6064 O   0  0  0  0  0  0  0  0  0  0  0  0
   -0.6437   -1.0693    2.5878 N   0  0  0  0  0  0  0  0  0  0  0  0
   -1.6129   -1.3580    2.5125 H   0  0  0  0  0  0  0  0  0  0  0  0
   -0.1238   -0.7141    3.9048 C   0  0  0  0  0  0  0  0  0  0  0  0
    0.5059    0.1799    3.8408 H   0  0  0  0  0  0  0  0  0  0  0  0
   -0.9465   -0.5054    4.5955 H   0  0  0  0  0  0  0  0  0  0  0  0
    0.4739   -1.5350    4.3157 H   0  0  0  0  0  0  0  0  0  0  0  0
  1  2  1  0  0  0  0
  2  3  1  0  0  0  0
  2  4  1  0  0  0  0
  2  5  1  0  0  0  0
  5  6  2  0  0  0  0
  5  7  1  0  0  0  0
  7  8  1  0  0  0  0
  7  9  1  0  0  0  0
  9 10  1  0  0  0  0
  9 11  1  0  0  0  0
  9 29  1  0  0  0  0
 11 12  1  0  0  0  0
 11 13  1  0  0  0  0
 11 14  1  0  0  0  0
 14 15  1  0  0  0  0
 14 16  1  0  0  0  0
 14 17  1  0  0  0  0
 17 18  1  0  0  0  0
 17 19  1  0  0  0  0
 17 20  1  0  0  0  0
 20 21  1  0  0  0  0
 20 22  2  0  0  0  0
 22 23  1  0  0  0  0
 22 26  1  0  0  0  0
 23 24  1  0  0  0  0
 23 25  1  0  0  0  0
 26 27  1  0  0  0  0
 26 28  1  0  0  0  0
 29 30  2  0  0  0  0
 29 31  1  0  0  0  0
 31 32  1  0  0  0  0
 31 33  1  0  0  0  0
 33 34  1  0  0  0  0
 33 35  1  0  0  0  0
 33 36  1  0  0  0  0
M  CHG  1  20   1
M  END
$$$$

  -OEChem-04042215563D

 36 35  0     1  0  0  0  0  0999 V2000
   -2.6134   -5.6583    1.0871 H   0  0  0  0  0  0  0  0  0  0  0  0
   -2.8395   -4.6538    0.7173 C   0  0  0  0  0  0  0  0  0  0  0  0
   -3.5263   -4.1707    1.4160 H   0  0  0  0  0  0  0  0  0  0  0  0
   -3.3215   -4.7411   -0.2592 H   0  0  0  0  0  0  0  0  0  0  0  0
   -1.5616   -3.8455    0.5981 C   0  0  0  0  0  0  0  0  0  0  0  0
   -0.4962   -4.3420    0.9116 O   0  0  0  0  0  0  0  0  0  0  0  0
   -1.6011   -2.5473    0.1227 N   0  0  0  0  0  0  0  0  0  0  0  0
   -2.5201   -2.1521   -0.0494 H   0  0  0  0  0  0  0  0  0  0  0  0
   -0.4261   -1.6531    0.1126 C   0  0  1  0  0  0  0  0  0  0  0  0
    0.3711   -2.1552   -0.4493 H   0  0  0  0  0  0  0  0  0  0  0  0
   -0.7539   -0.3338   -0.6077 C   0  0  0  0  0  0  0  0  0  0  0  0
   -1.7105    0.0435   -0.2307 H   0  0  0  0  0  0  0  0  0  0  0  0
    0.0082    0.4192   -0.3758 H   0  0  0  0  0  0  0  0  0  0  0  0
   -0.8080   -0.5237   -2.1323 C   0  0  0  0  0  0  0  0  0  0  0  0
    0.1990   -0.3906   -2.5443 H   0  0  0  0  0  0  0  0  0  0  0  0
   -1.1328   -1.5422   -2.3722 H   0  0  0  0  0  0  0  0  0  0  0  0
   -1.7860    0.4623   -2.7682 C   0  0  0  0  0  0  0  0  0  0  0  0
   -2.8038    0.2386   -2.4298 H   0  0  0  0  0  0  0  0  0  0  0  0
   -1.5287    1.4751   -2.4411 H   0  0  0  0  0  0  0  0  0  0  0  0
   -1.7013    0.3579   -4.2376 N   0  3  0  0  0  0  0  0  0  0  0  0
   -1.4285   -0.5470   -4.6200 H   0  0  0  0  0  0  0  0  0  0  0  0
   -1.9319    1.3453   -5.0554 C   0  0  0  0  0  0  0  0  0  0  0  0
   -2.2882    2.5984   -4.6102 N   0  0  0  0  0  0  0  0  0  0  0  0
   -2.2065    2.7949   -3.6150 H   0  0  0  0  0  0  0  0  0  0  0  0
   -2.2352    3.3813   -5.2591 H   0  0  0  0  0  0  0  0  0  0  0  0
   -1.8163    1.1403   -6.4098 N   0  0  0  0  0  0  0  0  0  0  0  0
   -1.7131    0.1897   -6.7596 H   0  0  0  0  0  0  0  0  0  0  0  0
   -2.1783    1.8488   -7.0456 H   0  0  0  0  0  0  0  0  0  0  0  0
    0.1830   -1.3704    1.5042 C   0  0  0  0  0  0  0  0  0  0  0  0
    1.3796   -1.1322    1.5838 O   0  0  0  0  0  0  0  0  0  0  0  0
   -0.6335   -1.0691    2.5803 N   0  0  0  0  0  0  0  0  0  0  0  0
   -1.6054   -1.3500    2.5081 H   0  0  0  0  0  0  0  0  0  0  0  0
   -0.1021   -0.7361    3.8985 C   0  0  0  0  0  0  0  0  0  0  0  0
    0.5313    0.1559    3.8442 H   0  0  0  0  0  0  0  0  0  0  0  0
   -0.9187   -0.5342    4.5985 H   0  0  0  0  0  0  0  0  0  0  0  0
    0.4951   -1.5662    4.2915 H   0  0  0  0  0  0  0  0  0  0  0  0
  1  2  1  0  0  0  0
  2  3  1  0  0  0  0
  2  4  1  0  0  0  0
  2  5  1  0  0  0  0
  5  6  2  0  0  0  0
  5  7  1  0  0  0  0
  7  8  1  0  0  0  0
  7  9  1  0  0  0  0
  9 10  1  0  0  0  0
  9 11  1  0  0  0  0
  9 29  1  0  0  0  0
 11 12  1  0  0  0  0
 11 13  1  0  0  0  0
 11 14  1  0  0  0  0
 14 15  1  0  0  0  0
 14 16  1  0  0  0  0
 14 17  1  0  0  0  0
 17 18  1  0  0  0  0
 17 19  1  0  0  0  0
 17 20  1  0  0  0  0
 20 21  1  0  0  0  0
 20 22  2  0  0  0  0
 22 23  1  0  0  0  0
 22 26  1  0  0  0  0
 23 24  1  0  0  0  0
 23 25  1  0  0  0  0
 26 27  1  0  0  0  0
 26 28  1  0  0  0  0
 29 30  2  0  0  0  0
 29 31  1  0  0  0  0
 31 32  1  0  0  0  0
 31 33  1  0  0  0  0
 33 34  1  0  0  0  0
 33 35  1  0  0  0  0
 33 36  1  0  0  0  0
M  CHG  1  20   1
M  END
$$$$

  -OEChem-04042215563D

 36 35  0     1  0  0  0  0  0999 V2000
   -2.8646   -5.4993    0.9708 H   0  0  0  0  0  0  0  0  0  0  0  0
   -3.0102   -4.4771    0.6088 C   0  0  0  0  0  0  0  0  0  0  0  0
   -3.6776   -3.9538    1.2974 H   0  0  0  0  0  0  0  0  0  0  0  0
   -3.4729   -4.5188   -0.3799 H   0  0  0  0  0  0  0  0  0  0  0  0
   -1.6758   -3.7610    0.5294 C   0  0  0  0  0  0  0  0  0  0  0  0
   -0.6555   -4.3378    0.8554 O   0  0  0  0  0  0  0  0  0  0  0  0
   -1.6135   -2.4542    0.0813 N   0  0  0  0  0  0  0  0  0  0  0  0
   -2.4981   -1.9928   -0.1059 H   0  0  0  0  0  0  0  0  0  0  0  0
   -0.3799   -1.6443    0.1153 C   0  0  1  0  0  0  0  0  0  0  0  0
    0.3926   -2.1907   -0.4390 H   0  0  0  0  0  0  0  0  0  0  0  0
   -0.6011   -0.2928   -0.5859 C   0  0  0  0  0  0  0  0  0  0  0  0
   -1.5380    0.1478   -0.2288 H   0  0  0  0  0  0  0  0  0  0  0  0
    0.2086    0.3981   -0.3239 H   0  0  0  0  0  0  0  0  0  0  0  0
   -0.6317   -0.4608   -2.1116 C   0  0  0  0  0  0  0  0  0  0  0  0
    0.3879   -0.6494   -2.4678 H   0  0  0  0  0  0  0  0  0  0  0  0
   -1.2478   -1.3255   -2.3821 H   0  0  0  0  0  0  0  0  0  0  0  0
   -1.2074    0.7877   -2.7774 C   0  0  0  0  0  0  0  0  0  0  0  0
   -2.2591    0.9008   -2.4911 H   0  0  0  0  0  0  0  0  0  0  0  0
   -0.6539    1.6662   -2.4270 H   0  0  0  0  0  0  0  0  0  0  0  0
   -1.0822    0.6622   -4.2417 N   0  3  0  0  0  0  0  0  0  0  0  0
   -0.6535   -0.1916   -4.5973 H   0  0  0  0  0  0  0  0  0  0  0  0
   -1.4389    1.5888   -5.0837 C   0  0  0  0  0  0  0  0  0  0  0  0
   -1.9842    2.7809   -4.6642 N   0  0  0  0  0  0  0  0  0  0  0  0
   -1.9395    3.0005   -3.6713 H   0  0  0  0  0  0  0  0  0  0  0  0
   -2.0263    3.5557   -5.3236 H   0  0  0  0  0  0  0  0  0  0  0  0
   -1.2658    1.3811   -6.4318 N   0  0  0  0  0  0  0  0  0  0  0  0
   -1.0154    0.4506   -6.7611 H   0  0  0  0  0  0  0  0  0  0  0  0
   -1.7159    2.0169   -7.0880 H   0  0  0  0  0  0  0  0  0  0  0  0
    0.2136   -1.4343    1.5258 C   0  0  0  0  0  0  0  0  0  0  0  0
    1.4218   -1.2844    1.6388 O   0  0  0  0  0  0  0  0  0  0  0  0
   -0.6074   -1.0995    2.5884 N   0  0  0  0  0  0  0  0  0  0  0  0
   -1.5935   -1.3135    2.4857 H   0  0  0  0  0  0  0  0  0  0  0  0
   -0.0885   -0.8432    3.9282 C   0  0  0  0  0  0  0  0  0  0  0  0
    0.6075    0.0024    3.9158 H   0  0  0  0  0  0  0  0  0  0  0  0
   -0.9069   -0.6037    4.6139 H   0  0  0  0  0  0  0  0  0  0  0  0
    0.4377   -1.7246    4.3106 H   0  0  0  0  0  0  0  0  0  0  0  0
  1  2  1  0  0  0  0
  2  3  1  0  0  0  0
  2  4  1  0  0  0  0
  2  5  1  0  0  0  0
  5  6  2  0  0  0  0
  5  7  1  0  0  0  0
  7  8  1  0  0  0  0
  7  9  1  0  0  0  0
  9 10  1  0  0  0  0
  9 11  1  0  0  0  0
  9 29  1  0  0  0  0
 11 12  1  0  0  0  0
 11 13  1  0  0  0  0
 11 14  1  0  0  0  0
 14 15  1  0  0  0  0
 14 16  1  0  0  0  0
 14 17  1  0  0  0  0
 17 18  1  0  0  0  0
 17 19  1  0  0  0  0
 17 20  1  0  0  0  0
 20 21  1  0  0  0  0
 20 22  2  0  0  0  0
 22 23  1  0  0  0  0
 22 26  1  0  0  0  0
 23 24  1  0  0  0  0
 23 25  1  0  0  0  0
 26 27  1  0  0  0  0
 26 28  1  0  0  0  0
 29 30  2  0  0  0  0
 29 31  1  0  0  0  0
 31 32  1  0  0  0  0
 31 33  1  0  0  0  0
 33 34  1  0  0  0  0
 33 35  1  0  0  0  0
 33 36  1  0  0  0  0
M  CHG  1  20   1
M  END
$$$$

  -OEChem-04042215563D

 36 35  0     1  0  0  0  0  0999 V2000
   -2.8914   -5.4995    1.0071 H   0  0  0  0  0  0  0  0  0  0  0  0
   -3.0322   -4.4847    0.6229 C   0  0  0  0  0  0  0  0  0  0  0  0
   -3.7045   -3.9469    1.2954 H   0  0  0  0  0  0  0  0  0  0  0  0
   -3.4885   -4.5462   -0.3677 H   0  0  0  0  0  0  0  0  0  0  0  0
   -1.6955   -3.7719    0.5380 C   0  0  0  0  0  0  0  0  0  0  0  0
   -0.6763   -4.3490    0.8671 O   0  0  0  0  0  0  0  0  0  0  0  0
   -1.6300   -2.4672    0.0828 N   0  0  0  0  0  0  0  0  0  0  0  0
   -2.5148   -2.0013   -0.0918 H   0  0  0  0  0  0  0  0  0  0  0  0
   -0.3941   -1.6593    0.1176 C   0  0  1  0  0  0  0  0  0  0  0  0
    0.3716   -2.2195   -0.4323 H   0  0  0  0  0  0  0  0  0  0  0  0
   -0.5804   -0.3121   -0.6015 C   0  0  0  0  0  0  0  0  0  0  0  0
   -1.3564    0.2653   -0.0874 H   0  0  0  0  0  0  0  0  0  0  0  0
    0.3540    0.2570   -0.5342 H   0  0  0  0  0  0  0  0  0  0  0  0
   -0.9554   -0.4850   -2.0800 C   0  0  0  0  0  0  0  0  0  0  0  0
   -0.1605   -1.0450   -2.5859 H   0  0  0  0  0  0  0  0  0  0  0  0
   -1.8857   -1.0540   -2.1761 H   0  0  0  0  0  0  0  0  0  0  0  0
   -1.1223    0.8883   -2.7289 C   0  0  0  0  0  0  0  0  0  0  0  0
   -1.9746    1.4019   -2.2705 H   0  0  0  0  0  0  0  0  0  0  0  0
   -0.2192    1.4808   -2.5427 H   0  0  0  0  0  0  0  0  0  0  0  0
   -1.3326    0.7405   -4.1812 N   0  3  0  0  0  0  0  0  0  0  0  0
   -1.2588   -0.1995   -4.5685 H   0  0  0  0  0  0  0  0  0  0  0  0
   -1.5439    1.7434   -4.9846 C   0  0  0  0  0  0  0  0  0  0  0  0
   -1.6056    3.0400   -4.5264 N   0  0  0  0  0  0  0  0  0  0  0  0
   -1.3060    3.2206   -3.5704 H   0  0  0  0  0  0  0  0  0  0  0  0
   -1.5311    3.7990   -5.2009 H   0  0  0  0  0  0  0  0  0  0  0  0
   -1.7088    1.5130   -6.3298 N   0  0  0  0  0  0  0  0  0  0  0  0
   -1.8204    0.5554   -6.6576 H   0  0  0  0  0  0  0  0  0  0  0  0
   -2.0688    2.2652   -6.9146 H   0  0  0  0  0  0  0  0  0  0  0  0
    0.2023   -1.4371    1.5253 C   0  0  0  0  0  0  0  0  0  0  0  0
    1.4096   -1.2749    1.6322 O   0  0  0  0  0  0  0  0  0  0  0  0
   -0.6162   -1.0916    2.5865 N   0  0  0  0  0  0  0  0  0  0  0  0
   -1.6005   -1.3173    2.4923 H   0  0  0  0  0  0  0  0  0  0  0  0
   -0.0922   -0.8182    3.9213 C   0  0  0  0  0  0  0  0  0  0  0  0
    0.6038    0.0273    3.8967 H   0  0  0  0  0  0  0  0  0  0  0  0
   -0.9081   -0.5703    4.6070 H   0  0  0  0  0  0  0  0  0  0  0  0
    0.4353   -1.6950    4.3126 H   0  0  0  0  0  0  0  0  0  0  0  0
  1  2  1  0  0  0  0
  2  3  1  0  0  0  0
  2  4  1  0  0  0  0
  2  5  1  0  0  0  0
  5  6  2  0  0  0  0
  5  7  1  0  0  0  0
  7  8  1  0  0  0  0
  7  9  1  0  0  0  0
  9 10  1  0  0  0  0
  9 11  1  0  0  0  0
  9 29  1  0  0  0  0
 11 12  1  0  0  0  0
 11 13  1  0  0  0  0
 11 14  1  0  0  0  0
 14 15  1  0  0  0  0
 14 16  1  0  0  0  0
 14 17  1  0  0  0  0
 17 18  1  0  0  0  0
 17 19  1  0  0  0  0
 17 20  1  0  0  0  0
 20 21  1  0  0  0  0
 20 22  2  0  0  0  0
 22 23  1  0  0  0  0
 22 26  1  0  0  0  0
 23 24  1  0  0  0  0
 23 25  1  0  0  0  0
 26 27  1  0  0  0  0
 26 28  1  0  0  0  0
 29 30  2  0  0  0  0
 29 31  1  0  0  0  0
 31 32  1  0  0  0  0
 31 33  1  0  0  0  0
 33 34  1  0  0  0  0
 33 35  1  0  0  0  0
 33 36  1  0  0  0  0
M  CHG  1  20   1
M  END
$$$$

  -OEChem-04042215563D

 36 35  0     1  0  0  0  0  0999 V2000
   -2.9140   -5.4752    0.9862 H   0  0  0  0  0  0  0  0  0  0  0  0
   -3.0442   -4.4615    0.5956 C   0  0  0  0  0  0  0  0  0  0  0  0
   -3.7159   -3.9145    1.2610 H   0  0  0  0  0  0  0  0  0  0  0  0
   -3.4938   -4.5239   -0.3980 H   0  0  0  0  0  0  0  0  0  0  0  0
   -1.7013   -3.7607    0.5168 C   0  0  0  0  0  0  0  0  0  0  0  0
   -0.6888   -4.3470    0.8508 O   0  0  0  0  0  0  0  0  0  0  0  0
   -1.6217   -2.4571    0.0611 N   0  0  0  0  0  0  0  0  0  0  0  0
   -2.5007   -1.9841   -0.1242 H   0  0  0  0  0  0  0  0  0  0  0  0
   -0.3801   -1.6598    0.1056 C   0  0  1  0  0  0  0  0  0  0  0  0
    0.3864   -2.2235   -0.4396 H   0  0  0  0  0  0  0  0  0  0  0  0
   -0.5641   -0.3112   -0.6095 C   0  0  0  0  0  0  0  0  0  0  0  0
   -1.3304    0.2811   -0.0982 H   0  0  0  0  0  0  0  0  0  0  0  0
    0.3801    0.2414   -0.5406 H   0  0  0  0  0  0  0  0  0  0  0  0
   -0.9381   -0.4840   -2.0885 C   0  0  0  0  0  0  0  0  0  0  0  0
   -0.2886   -1.2443   -2.5371 H   0  0  0  0  0  0  0  0  0  0  0  0
   -1.9750   -0.8231   -2.1815 H   0  0  0  0  0  0  0  0  0  0  0  0
   -0.7425    0.8435   -2.8204 C   0  0  0  0  0  0  0  0  0  0  0  0
   -1.4409    1.5837   -2.4143 H   0  0  0  0  0  0  0  0  0  0  0  0
    0.2795    1.1982   -2.6446 H   0  0  0  0  0  0  0  0  0  0  0  0
   -0.9667    0.6696   -4.2673 N   0  3  0  0  0  0  0  0  0  0  0  0
   -1.1226   -0.2800   -4.6034 H   0  0  0  0  0  0  0  0  0  0  0  0
   -0.9128    1.6480   -5.1251 C   0  0  0  0  0  0  0  0  0  0  0  0
   -0.6568    2.9425   -4.7330 N   0  0  0  0  0  0  0  0  0  0  0  0
   -0.3364    3.0950   -3.7788 H   0  0  0  0  0  0  0  0  0  0  0  0
   -0.3898    3.6237   -5.4410 H   0  0  0  0  0  0  0  0  0  0  0  0
   -1.1120    1.3917   -6.4608 N   0  0  0  0  0  0  0  0  0  0  0  0
   -1.4590    0.4765   -6.7418 H   0  0  0  0  0  0  0  0  0  0  0  0
   -1.2626    2.1766   -7.0923 H   0  0  0  0  0  0  0  0  0  0  0  0
    0.2073   -1.4406    1.5171 C   0  0  0  0  0  0  0  0  0  0  0  0
    1.4151   -1.2894    1.6329 O   0  0  0  0  0  0  0  0  0  0  0  0
   -0.6169   -1.0867    2.5709 N   0  0  0  0  0  0  0  0  0  0  0  0
   -1.6042   -1.2940    2.4667 H   0  0  0  0  0  0  0  0  0  0  0  0
   -0.1034   -0.8004    3.9068 C   0  0  0  0  0  0  0  0  0  0  0  0
    0.5963    0.0417    3.8780 H   0  0  0  0  0  0  0  0  0  0  0  0
   -0.9242   -0.5408    4.5825 H   0  0  0  0  0  0  0  0  0  0  0  0
    0.4176   -1.6747    4.3121 H   0  0  0  0  0  0  0  0  0  0  0  0
  1  2  1  0  0  0  0
  2  3  1  0  0  0  0
  2  4  1  0  0  0  0
  2  5  1  0  0  0  0
  5  6  2  0  0  0  0
  5  7  1  0  0  0  0
  7  8  1  0  0  0  0
  7  9  1  0  0  0  0
  9 10  1  0  0  0  0
  9 11  1  0  0  0  0
  9 29  1  0  0  0  0
 11 12  1  0  0  0  0
 11 13  1  0  0  0  0
 11 14  1  0  0  0  0
 14 15  1  0  0  0  0
 14 16  1  0  0  0  0
 14 17  1  0  0  0  0
 17 18  1  0  0  0  0
 17 19  1  0  0  0  0
 17 20  1  0  0  0  0
 20 21  1  0  0  0  0
 20 22  2  0  0  0  0
 22 23  1  0  0  0  0
 22 26  1  0  0  0  0
 23 24  1  0  0  0  0
 23 25  1  0  0  0  0
 26 27  1  0  0  0  0
 26 28  1  0  0  0  0
 29 30  2  0  0  0  0
 29 31  1  0  0  0  0
 31 32  1  0  0  0  0
 31 33  1  0  0  0  0
 33 34  1  0  0  0  0
 33 35  1  0  0  0  0
 33 36  1  0  0  0  0
M  CHG  1  20   1
M  END
$$$$

  -OEChem-04042215563D

 36 35  0     1  0  0  0  0  0999 V2000
   -2.9215   -5.4676    0.9821 H   0  0  0  0  0  0  0  0  0  0  0  0
   -3.0497   -4.4551    0.5880 C   0  0  0  0  0  0  0  0  0  0  0  0
   -3.7169   -3.9031    1.2539 H   0  0  0  0  0  0  0  0  0  0  0  0
   -3.5038   -4.5206   -0.4033 H   0  0  0  0  0  0  0  0  0  0  0  0
   -1.7050   -3.7582    0.5011 C   0  0  0  0  0  0  0  0  0  0  0  0
   -0.6916   -4.3478    0.8272 O   0  0  0  0  0  0  0  0  0  0  0  0
   -1.6230   -2.4546    0.0459 N   0  0  0  0  0  0  0  0  0  0  0  0
   -2.5016   -1.9779   -0.1323 H   0  0  0  0  0  0  0  0  0  0  0  0
   -0.3792   -1.6606    0.0948 C   0  0  1  0  0  0  0  0  0  0  0  0
    0.3879   -2.2253   -0.4487 H   0  0  0  0  0  0  0  0  0  0  0  0
   -0.5599   -0.3121   -0.6201 C   0  0  0  0  0  0  0  0  0  0  0  0
   -1.3227    0.2868   -0.1112 H   0  0  0  0  0  0  0  0  0  0  0  0
    0.3882    0.2330   -0.5435 H   0  0  0  0  0  0  0  0  0  0  0  0
   -0.9314   -0.4825   -2.1022 C   0  0  0  0  0  0  0  0  0  0  0  0
   -0.4805   -1.4032   -2.4894 H   0  0  0  0  0  0  0  0  0  0  0  0
   -2.0178   -0.5657   -2.2118 H   0  0  0  0  0  0  0  0  0  0  0  0
   -0.3921    0.7042   -2.9013 C   0  0  0  0  0  0  0  0  0  0  0  0
   -0.8819    1.6213   -2.5555 H   0  0  0  0  0  0  0  0  0  0  0  0
    0.6841    0.7949   -2.7143 H   0  0  0  0  0  0  0  0  0  0  0  0
   -0.6300    0.5117   -4.3437 N   0  3  0  0  0  0  0  0  0  0  0  0
   -1.0165   -0.3841   -4.6381 H   0  0  0  0  0  0  0  0  0  0  0  0
   -0.3107    1.3950   -5.2457 C   0  0  0  0  0  0  0  0  0  0  0  0
    0.2655    2.5990   -4.9085 N   0  0  0  0  0  0  0  0  0  0  0  0
    0.5934    2.7177   -3.9518 H   0  0  0  0  0  0  0  0  0  0  0  0
    0.7167    3.1459   -5.6393 H   0  0  0  0  0  0  0  0  0  0  0  0
   -0.5468    1.1274   -6.5731 N   0  0  0  0  0  0  0  0  0  0  0  0
   -1.1246    0.3259   -6.8187 H   0  0  0  0  0  0  0  0  0  0  0  0
   -0.4782    1.8910   -7.2436 H   0  0  0  0  0  0  0  0  0  0  0  0
    0.2075   -1.4418    1.5068 C   0  0  0  0  0  0  0  0  0  0  0  0
    1.4159   -1.2935    1.6217 O   0  0  0  0  0  0  0  0  0  0  0  0
   -0.6147   -1.0849    2.5611 N   0  0  0  0  0  0  0  0  0  0  0  0
   -1.6044   -1.2810    2.4567 H   0  0  0  0  0  0  0  0  0  0  0  0
   -0.0997   -0.7845    3.8932 C   0  0  0  0  0  0  0  0  0  0  0  0
    0.6025    0.0552    3.8538 H   0  0  0  0  0  0  0  0  0  0  0  0
   -0.9190   -0.5143    4.5663 H   0  0  0  0  0  0  0  0  0  0  0  0
    0.4185   -1.6554    4.3085 H   0  0  0  0  0  0  0  0  0  0  0  0
  1  2  1  0  0  0  0
  2  3  1  0  0  0  0
  2  4  1  0  0  0  0
  2  5  1  0  0  0  0
  5  6  2  0  0  0  0
  5  7  1  0  0  0  0
  7  8  1  0  0  0  0
  7  9  1  0  0  0  0
  9 10  1  0  0  0  0
  9 11  1  0  0  0  0
  9 29  1  0  0  0  0
 11 12  1  0  0  0  0
 11 13  1  0  0  0  0
 11 14  1  0  0  0  0
 14 15  1  0  0  0  0
 14 16  1  0  0  0  0
 14 17  1  0  0  0  0
 17 18  1  0  0  0  0
 17 19  1  0  0  0  0
 17 20  1  0  0  0  0
 20 21  1  0  0  0  0
 20 22  2  0  0  0  0
 22 23  1  0  0  0  0
 22 26  1  0  0  0  0
 23 24  1  0  0  0  0
 23 25  1  0  0  0  0
 26 27  1  0  0  0  0
 26 28  1  0  0  0  0
 29 30  2  0  0  0  0
 29 31  1  0  0  0  0
 31 32  1  0  0  0  0
 31 33  1  0  0  0  0
 33 34  1  0  0  0  0
 33 35  1  0  0  0  0
 33 36  1  0  0  0  0
M  CHG  1  20   1
M  END
$$$$

  -OEChem-04042215563D

 36 35  0     1  0  0  0  0  0999 V2000
   -2.1034   -5.6015    0.3844 H   0  0  0  0  0  0  0  0  0  0  0  0
   -2.4594   -4.5832    0.2017 C   0  0  0  0  0  0  0  0  0  0  0  0
   -3.0964   -4.2814    1.0364 H   0  0  0  0  0  0  0  0  0  0  0  0
   -3.0474   -4.5774   -0.7191 H   0  0  0  0  0  0  0  0  0  0  0  0
   -1.2815   -3.6365    0.0749 C   0  0  0  0  0  0  0  0  0  0  0  0
   -0.1440   -4.0599    0.1678 O   0  0  0  0  0  0  0  0  0  0  0  0
   -1.4891   -2.2927   -0.1770 N   0  0  0  0  0  0  0  0  0  0  0  0
   -2.4542   -1.9753   -0.1582 H   0  0  0  0  0  0  0  0  0  0  0  0
   -0.4150   -1.2866   -0.0657 C   0  0  1  0  0  0  0  0  0  0  0  0
    0.4009   -1.6187   -0.7179 H   0  0  0  0  0  0  0  0  0  0  0  0
   -0.8868    0.0802   -0.5866 C   0  0  0  0  0  0  0  0  0  0  0  0
   -1.7230    0.4447    0.0197 H   0  0  0  0  0  0  0  0  0  0  0  0
   -0.0635    0.7930   -0.4607 H   0  0  0  0  0  0  0  0  0  0  0  0
   -1.3054    0.0157   -2.0677 C   0  0  0  0  0  0  0  0  0  0  0  0
   -0.9314   -0.9100   -2.5187 H   0  0  0  0  0  0  0  0  0  0  0  0
   -2.3970    0.0052   -2.1529 H   0  0  0  0  0  0  0  0  0  0  0  0
   -0.7211    1.2099   -2.8271 C   0  0  0  0  0  0  0  0  0  0  0  0
   -1.2714    2.1170   -2.5523 H   0  0  0  0  0  0  0  0  0  0  0  0
    0.3222    1.3634   -2.5312 H   0  0  0  0  0  0  0  0  0  0  0  0
   -0.8019    0.9921   -4.2843 N   0  3  0  0  0  0  0  0  0  0  0  0
   -1.6630    1.2797   -4.7482 H   0  0  0  0  0  0  0  0  0  0  0  0
    0.1735    0.5029   -4.9975 C   0  0  0  0  0  0  0  0  0  0  0  0
    1.3562    0.0857   -4.4280 N   0  0  0  0  0  0  0  0  0  0  0  0
    1.4039    0.0199   -3.4128 H   0  0  0  0  0  0  0  0  0  0  0  0
    1.9890   -0.4952   -4.9748 H   0  0  0  0  0  0  0  0  0  0  0  0
    0.0259    0.3877   -6.3591 N   0  0  0  0  0  0  0  0  0  0  0  0
   -0.7524    0.8666   -6.8080 H   0  0  0  0  0  0  0  0  0  0  0  0
    0.8554    0.2005   -6.9201 H   0  0  0  0  0  0  0  0  0  0  0  0
    0.2334   -1.1553    1.3291 C   0  0  0  0  0  0  0  0  0  0  0  0
    1.4072   -0.8176    1.3940 O   0  0  0  0  0  0  0  0  0  0  0  0
   -0.5472   -1.1164    2.4708 N   0  0  0  0  0  0  0  0  0  0  0  0
   -1.5056   -1.4389    2.3897 H   0  0  0  0  0  0  0  0  0  0  0  0
    0.0114   -0.9117    3.8036 C   0  0  0  0  0  0  0  0  0  0  0  0
    0.5324    0.0501    3.8584 H   0  0  0  0  0  0  0  0  0  0  0  0
   -0.7850   -0.9132    4.5542 H   0  0  0  0  0  0  0  0  0  0  0  0
    0.7208   -1.7095    4.0490 H   0  0  0  0  0  0  0  0  0  0  0  0
  1  2  1  0  0  0  0
  2  3  1  0  0  0  0
  2  4  1  0  0  0  0
  2  5  1  0  0  0  0
  5  6  2  0  0  0  0
  5  7  1  0  0  0  0
  7  8  1  0  0  0  0
  7  9  1  0  0  0  0
  9 10  1  0  0  0  0
  9 11  1  0  0  0  0
  9 29  1  0  0  0  0
 11 12  1  0  0  0  0
 11 13  1  0  0  0  0
 11 14  1  0  0  0  0
 14 15  1  0  0  0  0
 14 16  1  0  0  0  0
 14 17  1  0  0  0  0
 17 18  1  0  0  0  0
 17 19  1  0  0  0  0
 17 20  1  0  0  0  0
 20 21  1  0  0  0  0
 20 22  2  0  0  0  0
 22 23  1  0  0  0  0
 22 26  1  0  0  0  0
 23 24  1  0  0  0  0
 23 25  1  0  0  0  0
 26 27  1  0  0  0  0
 26 28  1  0  0  0  0
 29 30  2  0  0  0  0
 29 31  1  0  0  0  0
 31 32  1  0  0  0  0
 31 33  1  0  0  0  0
 33 34  1  0  0  0  0
 33 35  1  0  0  0  0
 33 36  1  0  0  0  0
M  CHG  1  20   1
M  END
$$$$

  -OEChem-04042215563D

 36 35  0     1  0  0  0  0  0999 V2000
   -2.0665   -5.5858    0.3339 H   0  0  0  0  0  0  0  0  0  0  0  0
   -2.4217   -4.5687    0.1428 C   0  0  0  0  0  0  0  0  0  0  0  0
   -3.0539   -4.2575    0.9778 H   0  0  0  0  0  0  0  0  0  0  0  0
   -3.0138   -4.5707   -0.7753 H   0  0  0  0  0  0  0  0  0  0  0  0
   -1.2420   -3.6264    0.0011 C   0  0  0  0  0  0  0  0  0  0  0  0
   -0.1046   -4.0570    0.0610 O   0  0  0  0  0  0  0  0  0  0  0  0
   -1.4453   -2.2792   -0.2362 N   0  0  0  0  0  0  0  0  0  0  0  0
   -2.4089   -1.9581   -0.1975 H   0  0  0  0  0  0  0  0  0  0  0  0
   -0.3684   -1.2802   -0.0894 C   0  0  1  0  0  0  0  0  0  0  0  0
    0.4589   -1.6103   -0.7281 H   0  0  0  0  0  0  0  0  0  0  0  0
   -0.8093    0.0982   -0.6072 C   0  0  0  0  0  0  0  0  0  0  0  0
   -1.6680    0.4457   -0.0226 H   0  0  0  0  0  0  0  0  0  0  0  0
    0.0023    0.8161   -0.4388 H   0  0  0  0  0  0  0  0  0  0  0  0
   -1.1892    0.0573   -2.1007 C   0  0  0  0  0  0  0  0  0  0  0  0
   -1.0834   -0.9591   -2.4951 H   0  0  0  0  0  0  0  0  0  0  0  0
   -2.2366    0.3517   -2.2275 H   0  0  0  0  0  0  0  0  0  0  0  0
   -0.2857    1.0096   -2.8889 C   0  0  0  0  0  0  0  0  0  0  0  0
   -0.5847    2.0441   -2.6851 H   0  0  0  0  0  0  0  0  0  0  0  0
    0.7502    0.9016   -2.5500 H   0  0  0  0  0  0  0  0  0  0  0  0
   -0.3707    0.7338   -4.3355 N   0  3  0  0  0  0  0  0  0  0  0  0
   -1.1124    1.2041   -4.8534 H   0  0  0  0  0  0  0  0  0  0  0  0
    0.4677   -0.0325   -4.9755 C   0  0  0  0  0  0  0  0  0  0  0  0
    1.4837   -0.7029   -4.3302 N   0  0  0  0  0  0  0  0  0  0  0  0
    1.4868   -0.7108   -3.3116 H   0  0  0  0  0  0  0  0  0  0  0  0
    1.9662   -1.4561   -4.8166 H   0  0  0  0  0  0  0  0  0  0  0  0
    0.3377   -0.1908   -6.3348 N   0  0  0  0  0  0  0  0  0  0  0  0
   -0.2738    0.4446   -6.8437 H   0  0  0  0  0  0  0  0  0  0  0  0
    1.1071   -0.6200   -6.8460 H   0  0  0  0  0  0  0  0  0  0  0  0
    0.2506   -1.1759    1.3204 C   0  0  0  0  0  0  0  0  0  0  0  0
    1.4308   -0.8707    1.4157 O   0  0  0  0  0  0  0  0  0  0  0  0
   -0.5525   -1.1510    2.4466 N   0  0  0  0  0  0  0  0  0  0  0  0
   -1.5208   -1.4328    2.3372 H   0  0  0  0  0  0  0  0  0  0  0  0
   -0.0206   -0.9792    3.7946 C   0  0  0  0  0  0  0  0  0  0  0  0
    0.4937   -0.0165    3.8852 H   0  0  0  0  0  0  0  0  0  0  0  0
   -0.8308   -1.0062    4.5297 H   0  0  0  0  0  0  0  0  0  0  0  0
    0.6886   -1.7796    4.0319 H   0  0  0  0  0  0  0  0  0  0  0  0
  1  2  1  0  0  0  0
  2  3  1  0  0  0  0
  2  4  1  0  0  0  0
  2  5  1  0  0  0  0
  5  6  2  0  0  0  0
  5  7  1  0  0  0  0
  7  8  1  0  0  0  0
  7  9  1  0  0  0  0
  9 10  1  0  0  0  0
  9 11  1  0  0  0  0
  9 29  1  0  0  0  0
 11 12  1  0  0  0  0
 11 13  1  0  0  0  0
 11 14  1  0  0  0  0
 14 15  1  0  0  0  0
 14 16  1  0  0  0  0
 14 17  1  0  0  0  0
 17 18  1  0  0  0  0
 17 19  1  0  0  0  0
 17 20  1  0  0  0  0
 20 21  1  0  0  0  0
 20 22  2  0  0  0  0
 22 23  1  0  0  0  0
 22 26  1  0  0  0  0
 23 24  1  0  0  0  0
 23 25  1  0  0  0  0
 26 27  1  0  0  0  0
 26 28  1  0  0  0  0
 29 30  2  0  0  0  0
 29 31  1  0  0  0  0
 31 32  1  0  0  0  0
 31 33  1  0  0  0  0
 33 34  1  0  0  0  0
 33 35  1  0  0  0  0
 33 36  1  0  0  0  0
M  CHG  1  20   1
M  END
$$$$

  -OEChem-04042215563D

 36 35  0     1  0  0  0  0  0999 V2000
   -3.0473   -5.3505   -0.3890 H   0  0  0  0  0  0  0  0  0  0  0  0
   -3.2110   -4.2806   -0.2290 C   0  0  0  0  0  0  0  0  0  0  0  0
   -3.4377   -4.1158    0.8271 H   0  0  0  0  0  0  0  0  0  0  0  0
   -4.0646   -3.9627   -0.8327 H   0  0  0  0  0  0  0  0  0  0  0  0
   -1.9720   -3.5002   -0.6245 C   0  0  0  0  0  0  0  0  0  0  0  0
   -0.9808   -4.0806   -1.0356 O   0  0  0  0  0  0  0  0  0  0  0  0
   -1.9590   -2.1186   -0.5605 N   0  0  0  0  0  0  0  0  0  0  0  0
   -2.7760   -1.6731   -0.1491 H   0  0  0  0  0  0  0  0  0  0  0  0
   -0.7194   -1.3352   -0.7030 C   0  0  1  0  0  0  0  0  0  0  0  0
   -0.2870   -1.7102   -1.6332 H   0  0  0  0  0  0  0  0  0  0  0  0
   -0.9593    0.1632   -0.9455 C   0  0  0  0  0  0  0  0  0  0  0  0
   -1.5384    0.5448   -0.0975 H   0  0  0  0  0  0  0  0  0  0  0  0
   -0.0201    0.7212   -0.9435 H   0  0  0  0  0  0  0  0  0  0  0  0
   -1.7595    0.4233   -2.2353 C   0  0  0  0  0  0  0  0  0  0  0  0
   -2.3002   -0.4660   -2.5766 H   0  0  0  0  0  0  0  0  0  0  0  0
   -2.5075    1.1979   -2.0326 H   0  0  0  0  0  0  0  0  0  0  0  0
   -0.8146    0.9462   -3.3335 C   0  0  0  0  0  0  0  0  0  0  0  0
   -1.4138    1.3712   -4.1468 H   0  0  0  0  0  0  0  0  0  0  0  0
   -0.1828    1.7502   -2.9420 H   0  0  0  0  0  0  0  0  0  0  0  0
    0.0064   -0.1667   -3.8679 N   0  3  0  0  0  0  0  0  0  0  0  0
   -0.4487   -0.7800   -4.5433 H   0  0  0  0  0  0  0  0  0  0  0  0
    1.2069   -0.4859   -3.4632 C   0  0  0  0  0  0  0  0  0  0  0  0
    1.9241    0.2767   -2.5729 N   0  0  0  0  0  0  0  0  0  0  0  0
    1.4642    1.1065   -2.2105 H   0  0  0  0  0  0  0  0  0  0  0  0
    2.5148   -0.2346   -1.9130 H   0  0  0  0  0  0  0  0  0  0  0  0
    1.7707   -1.6636   -3.8899 N   0  0  0  0  0  0  0  0  0  0  0  0
    1.1745   -2.3644   -4.3249 H   0  0  0  0  0  0  0  0  0  0  0  0
    2.6123   -1.9871   -3.4146 H   0  0  0  0  0  0  0  0  0  0  0  0
    0.4180   -1.5693    0.3091 C   0  0  0  0  0  0  0  0  0  0  0  0
    1.5669   -1.4097   -0.0981 O   0  0  0  0  0  0  0  0  0  0  0  0
    0.1682   -1.6629    1.6645 N   0  0  0  0  0  0  0  0  0  0  0  0
   -0.7947   -1.8084    1.9536 H   0  0  0  0  0  0  0  0  0  0  0  0
    1.2249   -1.8100    2.6603 C   0  0  0  0  0  0  0  0  0  0  0  0
    1.9031   -0.9504    2.6329 H   0  0  0  0  0  0  0  0  0  0  0  0
    0.7939   -1.8743    3.6644 H   0  0  0  0  0  0  0  0  0  0  0  0
    1.8037   -2.7213    2.4744 H   0  0  0  0  0  0  0  0  0  0  0  0
  1  2  1  0  0  0  0
  2  3  1  0  0  0  0
  2  4  1  0  0  0  0
  2  5  1  0  0  0  0
  5  6  2  0  0  0  0
  5  7  1  0  0  0  0
  7  8  1  0  0  0  0
  7  9  1  0  0  0  0
  9 10  1  0  0  0  0
  9 11  1  0  0  0  0
  9 29  1  0  0  0  0
 11 12  1  0  0  0  0
 11 13  1  0  0  0  0
 11 14  1  0  0  0  0
 14 15  1  0  0  0  0
 14 16  1  0  0  0  0
 14 17  1  0  0  0  0
 17 18  1  0  0  0  0
 17 19  1  0  0  0  0
 17 20  1  0  0  0  0
 20 21  1  0  0  0  0
 20 22  2  0  0  0  0
 22 23  1  0  0  0  0
 22 26  1  0  0  0  0
 23 24  1  0  0  0  0
 23 25  1  0  0  0  0
 26 27  1  0  0  0  0
 26 28  1  0  0  0  0
 29 30  2  0  0  0  0
 29 31  1  0  0  0  0
 31 32  1  0  0  0  0
 31 33  1  0  0  0  0
 33 34  1  0  0  0  0
 33 35  1  0  0  0  0
 33 36  1  0  0  0  0
M  CHG  1  20   1
M  END
$$$$

  -OEChem-04042215563D

 36 35  0     1  0  0  0  0  0999 V2000
   -1.8895   -5.5525   -0.1661 H   0  0  0  0  0  0  0  0  0  0  0  0
   -2.2764   -4.5314   -0.1013 C   0  0  0  0  0  0  0  0  0  0  0  0
   -2.6562   -4.3666    0.9102 H   0  0  0  0  0  0  0  0  0  0  0  0
   -3.0966   -4.4212   -0.8147 H   0  0  0  0  0  0  0  0  0  0  0  0
   -1.1746   -3.5368   -0.4121 C   0  0  0  0  0  0  0  0  0  0  0  0
   -0.0650   -3.9191   -0.7484 O   0  0  0  0  0  0  0  0  0  0  0  0
   -1.4403   -2.1829   -0.4878 N   0  0  0  0  0  0  0  0  0  0  0  0
   -2.3852   -1.9201   -0.2163 H   0  0  0  0  0  0  0  0  0  0  0  0
   -0.3772   -1.1900   -0.2359 C   0  0  1  0  0  0  0  0  0  0  0  0
    0.4594   -1.4642   -0.8819 H   0  0  0  0  0  0  0  0  0  0  0  0
   -0.7767    0.2213   -0.6881 C   0  0  0  0  0  0  0  0  0  0  0  0
   -1.6734    0.5271   -0.1389 H   0  0  0  0  0  0  0  0  0  0  0  0
    0.0144    0.9408   -0.4458 H   0  0  0  0  0  0  0  0  0  0  0  0
   -1.0725    0.2310   -2.2007 C   0  0  0  0  0  0  0  0  0  0  0  0
   -1.5170   -0.7134   -2.5296 H   0  0  0  0  0  0  0  0  0  0  0  0
   -1.7988    1.0201   -2.4244 H   0  0  0  0  0  0  0  0  0  0  0  0
    0.2233    0.5328   -2.9614 C   0  0  0  0  0  0  0  0  0  0  0  0
    0.3303    1.6169   -3.0815 H   0  0  0  0  0  0  0  0  0  0  0  0
    1.0841    0.1876   -2.3775 H   0  0  0  0  0  0  0  0  0  0  0  0
    0.2293   -0.1333   -4.2792 N   0  3  0  0  0  0  0  0  0  0  0  0
   -0.0702    0.4251   -5.0776 H   0  0  0  0  0  0  0  0  0  0  0  0
    0.6512   -1.3526   -4.4806 C   0  0  0  0  0  0  0  0  0  0  0  0
    1.0646   -2.1772   -3.4572 N   0  0  0  0  0  0  0  0  0  0  0  0
    0.8627   -1.8983   -2.4999 H   0  0  0  0  0  0  0  0  0  0  0  0
    1.1685   -3.1743   -3.6358 H   0  0  0  0  0  0  0  0  0  0  0  0
    0.6837   -1.8493   -5.7616 N   0  0  0  0  0  0  0  0  0  0  0  0
    0.5847   -1.1986   -6.5381 H   0  0  0  0  0  0  0  0  0  0  0  0
    1.2028   -2.7098   -5.9275 H   0  0  0  0  0  0  0  0  0  0  0  0
    0.2656   -1.2378    1.1651 C   0  0  0  0  0  0  0  0  0  0  0  0
    1.4664   -1.0353    1.2616 O   0  0  0  0  0  0  0  0  0  0  0  0
   -0.5065   -1.3571    2.3063 N   0  0  0  0  0  0  0  0  0  0  0  0
   -1.5106   -1.4517    2.1981 H   0  0  0  0  0  0  0  0  0  0  0  0
    0.0568   -1.3219    3.6526 C   0  0  0  0  0  0  0  0  0  0  0  0
    0.5352   -0.3552    3.8441 H   0  0  0  0  0  0  0  0  0  0  0  0
   -0.7295   -1.4717    4.3990 H   0  0  0  0  0  0  0  0  0  0  0  0
    0.8041   -2.1132    3.7768 H   0  0  0  0  0  0  0  0  0  0  0  0
  1  2  1  0  0  0  0
  2  3  1  0  0  0  0
  2  4  1  0  0  0  0
  2  5  1  0  0  0  0
  5  6  2  0  0  0  0
  5  7  1  0  0  0  0
  7  8  1  0  0  0  0
  7  9  1  0  0  0  0
  9 10  1  0  0  0  0
  9 11  1  0  0  0  0
  9 29  1  0  0  0  0
 11 12  1  0  0  0  0
 11 13  1  0  0  0  0
 11 14  1  0  0  0  0
 14 15  1  0  0  0  0
 14 16  1  0  0  0  0
 14 17  1  0  0  0  0
 17 18  1  0  0  0  0
 17 19  1  0  0  0  0
 17 20  1  0  0  0  0
 20 21  1  0  0  0  0
 20 22  2  0  0  0  0
 22 23  1  0  0  0  0
 22 26  1  0  0  0  0
 23 24  1  0  0  0  0
 23 25  1  0  0  0  0
 26 27  1  0  0  0  0
 26 28  1  0  0  0  0
 29 30  2  0  0  0  0
 29 31  1  0  0  0  0
 31 32  1  0  0  0  0
 31 33  1  0  0  0  0
 33 34  1  0  0  0  0
 33 35  1  0  0  0  0
 33 36  1  0  0  0  0
M  CHG  1  20   1
M  END
$$$$

  -OEChem-04042215563D

 36 35  0     1  0  0  0  0  0999 V2000
   -1.9918   -5.5383   -0.0799 H   0  0  0  0  0  0  0  0  0  0  0  0
   -2.3428   -4.5021   -0.0867 C   0  0  0  0  0  0  0  0  0  0  0  0
   -2.7430   -4.2640    0.9020 H   0  0  0  0  0  0  0  0  0  0  0  0
   -3.1393   -4.4049   -0.8285 H   0  0  0  0  0  0  0  0  0  0  0  0
   -1.1970   -3.5676   -0.4219 C   0  0  0  0  0  0  0  0  0  0  0  0
   -0.1117   -4.0061   -0.7689 O   0  0  0  0  0  0  0  0  0  0  0  0
   -1.3960   -2.2050   -0.5233 N   0  0  0  0  0  0  0  0  0  0  0  0
   -2.3331   -1.8991   -0.2704 H   0  0  0  0  0  0  0  0  0  0  0  0
   -0.2999   -1.2604   -0.2305 C   0  0  1  0  0  0  0  0  0  0  0  0
    0.5556   -1.5677   -0.8355 H   0  0  0  0  0  0  0  0  0  0  0  0
   -0.6527    0.1624   -0.6909 C   0  0  0  0  0  0  0  0  0  0  0  0
   -1.5486    0.5006   -0.1596 H   0  0  0  0  0  0  0  0  0  0  0  0
    0.1601    0.8523   -0.4352 H   0  0  0  0  0  0  0  0  0  0  0  0
   -0.9111    0.1948   -2.2096 C   0  0  0  0  0  0  0  0  0  0  0  0
   -1.5898   -0.6119   -2.5032 H   0  0  0  0  0  0  0  0  0  0  0  0
   -1.3997    1.1380   -2.4766 H   0  0  0  0  0  0  0  0  0  0  0  0
    0.4208    0.0971   -2.9659 C   0  0  0  0  0  0  0  0  0  0  0  0
    0.7971    1.1078   -3.1604 H   0  0  0  0  0  0  0  0  0  0  0  0
    1.1712   -0.4056   -2.3470 H   0  0  0  0  0  0  0  0  0  0  0  0
    0.2599   -0.6370   -4.2362 N   0  3  0  0  0  0  0  0  0  0  0  0
    0.0045   -0.0858   -5.0545 H   0  0  0  0  0  0  0  0  0  0  0  0
    0.5213   -1.9073   -4.3858 C   0  0  0  0  0  0  0  0  0  0  0  0
    0.8694   -2.7311   -3.3380 N   0  0  0  0  0  0  0  0  0  0  0  0
    0.6714   -2.4197   -2.3880 H   0  0  0  0  0  0  0  0  0  0  0  0
    0.8789   -3.7379   -3.4879 H   0  0  0  0  0  0  0  0  0  0  0  0
    0.4548   -2.4610   -5.6419 N   0  0  0  0  0  0  0  0  0  0  0  0
    0.4086   -1.8376   -6.4452 H   0  0  0  0  0  0  0  0  0  0  0  0
    0.8707   -3.3804   -5.7800 H   0  0  0  0  0  0  0  0  0  0  0  0
    0.2672   -1.3298    1.2028 C   0  0  0  0  0  0  0  0  0  0  0  0
    1.4728   -1.2177    1.3602 O   0  0  0  0  0  0  0  0  0  0  0  0
   -0.5668   -1.4027    2.3042 N   0  0  0  0  0  0  0  0  0  0  0  0
   -1.5691   -1.4091    2.1482 H   0  0  0  0  0  0  0  0  0  0  0  0
   -0.0684   -1.3975    3.6763 C   0  0  0  0  0  0  0  0  0  0  0  0
    0.4416   -0.4534    3.8962 H   0  0  0  0  0  0  0  0  0  0  0  0
   -0.8956   -1.5168    4.3830 H   0  0  0  0  0  0  0  0  0  0  0  0
    0.6373   -2.2209    3.8317 H   0  0  0  0  0  0  0  0  0  0  0  0
  1  2  1  0  0  0  0
  2  3  1  0  0  0  0
  2  4  1  0  0  0  0
  2  5  1  0  0  0  0
  5  6  2  0  0  0  0
  5  7  1  0  0  0  0
  7  8  1  0  0  0  0
  7  9  1  0  0  0  0
  9 10  1  0  0  0  0
  9 11  1  0  0  0  0
  9 29  1  0  0  0  0
 11 12  1  0  0  0  0
 11 13  1  0  0  0  0
 11 14  1  0  0  0  0
 14 15  1  0  0  0  0
 14 16  1  0  0  0  0
 14 17  1  0  0  0  0
 17 18  1  0  0  0  0
 17 19  1  0  0  0  0
 17 20  1  0  0  0  0
 20 21  1  0  0  0  0
 20 22  2  0  0  0  0
 22 23  1  0  0  0  0
 22 26  1  0  0  0  0
 23 24  1  0  0  0  0
 23 25  1  0  0  0  0
 26 27  1  0  0  0  0
 26 28  1  0  0  0  0
 29 30  2  0  0  0  0
 29 31  1  0  0  0  0
 31 32  1  0  0  0  0
 31 33  1  0  0  0  0
 33 34  1  0  0  0  0
 33 35  1  0  0  0  0
 33 36  1  0  0  0  0
M  CHG  1  20   1
M  END
$$$$

  -OEChem-04042215563D

 36 35  0     1  0  0  0  0  0999 V2000
   -2.9175   -5.4504    1.0483 H   0  0  0  0  0  0  0  0  0  0  0  0
   -3.0543   -4.4158    0.7202 C   0  0  0  0  0  0  0  0  0  0  0  0
   -3.5996   -3.8730    1.4959 H   0  0  0  0  0  0  0  0  0  0  0  0
   -3.6428   -4.4145   -0.2001 H   0  0  0  0  0  0  0  0  0  0  0  0
   -1.7056   -3.7650    0.4800 C   0  0  0  0  0  0  0  0  0  0  0  0
   -0.6801   -4.3975    0.6561 O   0  0  0  0  0  0  0  0  0  0  0  0
   -1.6301   -2.4642    0.0171 N   0  0  0  0  0  0  0  0  0  0  0  0
   -2.5104   -1.9590   -0.0324 H   0  0  0  0  0  0  0  0  0  0  0  0
   -0.3818   -1.6791    0.0698 C   0  0  1  0  0  0  0  0  0  0  0  0
    0.3883   -2.2647   -0.4422 H   0  0  0  0  0  0  0  0  0  0  0  0
   -0.5441   -0.3453   -0.6836 C   0  0  0  0  0  0  0  0  0  0  0  0
   -1.3263    0.2490   -0.1995 H   0  0  0  0  0  0  0  0  0  0  0  0
    0.3900    0.2225   -0.6041 H   0  0  0  0  0  0  0  0  0  0  0  0
   -0.8920   -0.5244   -2.1728 C   0  0  0  0  0  0  0  0  0  0  0  0
   -1.8497   -1.0440   -2.2802 H   0  0  0  0  0  0  0  0  0  0  0  0
   -0.9938    0.4655   -2.6307 H   0  0  0  0  0  0  0  0  0  0  0  0
    0.2135   -1.3111   -2.8822 C   0  0  0  0  0  0  0  0  0  0  0  0
    1.1764   -0.8277   -2.6797 H   0  0  0  0  0  0  0  0  0  0  0  0
    0.2439   -2.3266   -2.4723 H   0  0  0  0  0  0  0  0  0  0  0  0
   -0.0161   -1.3736   -4.3365 N   0  3  0  0  0  0  0  0  0  0  0  0
   -0.8267   -0.8799   -4.7070 H   0  0  0  0  0  0  0  0  0  0  0  0
    0.7690   -2.0230   -5.1484 C   0  0  0  0  0  0  0  0  0  0  0  0
    1.8660   -2.7195   -4.6920 N   0  0  0  0  0  0  0  0  0  0  0  0
    1.9707   -2.8438   -3.6862 H   0  0  0  0  0  0  0  0  0  0  0  0
    2.3109   -3.3975   -5.3073 H   0  0  0  0  0  0  0  0  0  0  0  0
    0.5054   -2.0225   -6.4975 N   0  0  0  0  0  0  0  0  0  0  0  0
   -0.1754   -1.3593   -6.8623 H   0  0  0  0  0  0  0  0  0  0  0  0
    1.2290   -2.3583   -7.1307 H   0  0  0  0  0  0  0  0  0  0  0  0
    0.2001   -1.4577    1.4822 C   0  0  0  0  0  0  0  0  0  0  0  0
    1.4142   -1.3937    1.6099 O   0  0  0  0  0  0  0  0  0  0  0  0
   -0.6140   -1.0895    2.5384 N   0  0  0  0  0  0  0  0  0  0  0  0
   -1.6164   -1.1732    2.4094 H   0  0  0  0  0  0  0  0  0  0  0  0
   -0.0989   -0.8140    3.8759 C   0  0  0  0  0  0  0  0  0  0  0  0
    0.6094    0.0210    3.8509 H   0  0  0  0  0  0  0  0  0  0  0  0
   -0.9174   -0.5498    4.5524 H   0  0  0  0  0  0  0  0  0  0  0  0
    0.4120   -1.6953    4.2784 H   0  0  0  0  0  0  0  0  0  0  0  0
  1  2  1  0  0  0  0
  2  3  1  0  0  0  0
  2  4  1  0  0  0  0
  2  5  1  0  0  0  0
  5  6  2  0  0  0  0
  5  7  1  0  0  0  0
  7  8  1  0  0  0  0
  7  9  1  0  0  0  0
  9 10  1  0  0  0  0
  9 11  1  0  0  0  0
  9 29  1  0  0  0  0
 11 12  1  0  0  0  0
 11 13  1  0  0  0  0
 11 14  1  0  0  0  0
 14 15  1  0  0  0  0
 14 16  1  0  0  0  0
 14 17  1  0  0  0  0
 17 18  1  0  0  0  0
 17 19  1  0  0  0  0
 17 20  1  0  0  0  0
 20 21  1  0  0  0  0
 20 22  2  0  0  0  0
 22 23  1  0  0  0  0
 22 26  1  0  0  0  0
 23 24  1  0  0  0  0
 23 25  1  0  0  0  0
 26 27  1  0  0  0  0
 26 28  1  0  0  0  0
 29 30  2  0  0  0  0
 29 31  1  0  0  0  0
 31 32  1  0  0  0  0
 31 33  1  0  0  0  0
 33 34  1  0  0  0  0
 33 35  1  0  0  0  0
 33 36  1  0  0  0  0
M  CHG  1  20   1
M  END
$$$$

  -OEChem-04042215563D

 36 35  0     1  0  0  0  0  0999 V2000
   -2.9205   -5.4272    1.1091 H   0  0  0  0  0  0  0  0  0  0  0  0
   -3.0492   -4.3977    0.7623 C   0  0  0  0  0  0  0  0  0  0  0  0
   -3.5765   -3.8324    1.5344 H   0  0  0  0  0  0  0  0  0  0  0  0
   -3.6502   -4.4072   -0.1499 H   0  0  0  0  0  0  0  0  0  0  0  0
   -1.6966   -3.7691    0.4896 C   0  0  0  0  0  0  0  0  0  0  0  0
   -0.6778   -4.4239    0.6185 O   0  0  0  0  0  0  0  0  0  0  0  0
   -1.6112   -2.4711    0.0218 N   0  0  0  0  0  0  0  0  0  0  0  0
   -2.4865   -1.9551   -0.0013 H   0  0  0  0  0  0  0  0  0  0  0  0
   -0.3590   -1.6937    0.0961 C   0  0  1  0  0  0  0  0  0  0  0  0
    0.4244   -2.2815   -0.3932 H   0  0  0  0  0  0  0  0  0  0  0  0
   -0.5160   -0.3637   -0.6661 C   0  0  0  0  0  0  0  0  0  0  0  0
   -1.2916    0.2456   -0.1899 H   0  0  0  0  0  0  0  0  0  0  0  0
    0.4267    0.1895   -0.5827 H   0  0  0  0  0  0  0  0  0  0  0  0
   -0.8465   -0.5352   -2.1636 C   0  0  0  0  0  0  0  0  0  0  0  0
   -1.8978   -0.8214   -2.2728 H   0  0  0  0  0  0  0  0  0  0  0  0
   -0.7070    0.4270   -2.6680 H   0  0  0  0  0  0  0  0  0  0  0  0
    0.0338   -1.6044   -2.8187 C   0  0  0  0  0  0  0  0  0  0  0  0
    1.0855   -1.3617   -2.6274 H   0  0  0  0  0  0  0  0  0  0  0  0
   -0.1864   -2.5740   -2.3582 H   0  0  0  0  0  0  0  0  0  0  0  0
   -0.1997   -1.6832   -4.2709 N   0  3  0  0  0  0  0  0  0  0  0  0
   -0.8437   -1.0090   -4.6816 H   0  0  0  0  0  0  0  0  0  0  0  0
    0.3955   -2.5549   -5.0342 C   0  0  0  0  0  0  0  0  0  0  0  0
    1.2675   -3.4901   -4.5222 N   0  0  0  0  0  0  0  0  0  0  0  0
    1.3255   -3.5908   -3.5098 H   0  0  0  0  0  0  0  0  0  0  0  0
    1.5347   -4.2850   -5.0993 H   0  0  0  0  0  0  0  0  0  0  0  0
    0.1551   -2.5530   -6.3875 N   0  0  0  0  0  0  0  0  0  0  0  0
   -0.3296   -1.7569   -6.7970 H   0  0  0  0  0  0  0  0  0  0  0  0
    0.7766   -3.0917   -6.9886 H   0  0  0  0  0  0  0  0  0  0  0  0
    0.1920   -1.4734    1.5216 C   0  0  0  0  0  0  0  0  0  0  0  0
    1.4028   -1.4395    1.6841 O   0  0  0  0  0  0  0  0  0  0  0  0
   -0.6435   -1.0970    2.5585 N   0  0  0  0  0  0  0  0  0  0  0  0
   -1.6439   -1.1313    2.3962 H   0  0  0  0  0  0  0  0  0  0  0  0
   -0.1583   -0.8149    3.9059 C   0  0  0  0  0  0  0  0  0  0  0  0
    0.5551    0.0162    3.8913 H   0  0  0  0  0  0  0  0  0  0  0  0
   -0.9909   -0.5416    4.5616 H   0  0  0  0  0  0  0  0  0  0  0  0
    0.3385   -1.6958    4.3267 H   0  0  0  0  0  0  0  0  0  0  0  0
  1  2  1  0  0  0  0
  2  3  1  0  0  0  0
  2  4  1  0  0  0  0
  2  5  1  0  0  0  0
  5  6  2  0  0  0  0
  5  7  1  0  0  0  0
  7  8  1  0  0  0  0
  7  9  1  0  0  0  0
  9 10  1  0  0  0  0
  9 11  1  0  0  0  0
  9 29  1  0  0  0  0
 11 12  1  0  0  0  0
 11 13  1  0  0  0  0
 11 14  1  0  0  0  0
 14 15  1  0  0  0  0
 14 16  1  0  0  0  0
 14 17  1  0  0  0  0
 17 18  1  0  0  0  0
 17 19  1  0  0  0  0
 17 20  1  0  0  0  0
 20 21  1  0  0  0  0
 20 22  2  0  0  0  0
 22 23  1  0  0  0  0
 22 26  1  0  0  0  0
 23 24  1  0  0  0  0
 23 25  1  0  0  0  0
 26 27  1  0  0  0  0
 26 28  1  0  0  0  0
 29 30  2  0  0  0  0
 29 31  1  0  0  0  0
 31 32  1  0  0  0  0
 31 33  1  0  0  0  0
 33 34  1  0  0  0  0
 33 35  1  0  0  0  0
 33 36  1  0  0  0  0
M  CHG  1  20   1
M  END
$$$$

  -OEChem-04042215563D

 36 35  0     1  0  0  0  0  0999 V2000
   -2.9240   -5.4028    1.1826 H   0  0  0  0  0  0  0  0  0  0  0  0
   -3.0493   -4.3849    0.8017 C   0  0  0  0  0  0  0  0  0  0  0  0
   -3.5687   -3.7919    1.5582 H   0  0  0  0  0  0  0  0  0  0  0  0
   -3.6572   -4.4211   -0.1053 H   0  0  0  0  0  0  0  0  0  0  0  0
   -1.6943   -3.7742    0.4992 C   0  0  0  0  0  0  0  0  0  0  0  0
   -0.6834   -4.4472    0.5887 O   0  0  0  0  0  0  0  0  0  0  0  0
   -1.5998   -2.4781    0.0288 N   0  0  0  0  0  0  0  0  0  0  0  0
   -2.4714   -1.9552    0.0226 H   0  0  0  0  0  0  0  0  0  0  0  0
   -0.3463   -1.7031    0.1283 C   0  0  1  0  0  0  0  0  0  0  0  0
    0.4492   -2.2917   -0.3410 H   0  0  0  0  0  0  0  0  0  0  0  0
   -0.4870   -0.3801   -0.6497 C   0  0  0  0  0  0  0  0  0  0  0  0
   -1.2643    0.2400   -0.1908 H   0  0  0  0  0  0  0  0  0  0  0  0
    0.4592    0.1640   -0.5487 H   0  0  0  0  0  0  0  0  0  0  0  0
   -0.7826   -0.5410   -2.1593 C   0  0  0  0  0  0  0  0  0  0  0  0
   -1.8676   -0.5678   -2.3044 H   0  0  0  0  0  0  0  0  0  0  0  0
   -0.3967    0.3358   -2.6908 H   0  0  0  0  0  0  0  0  0  0  0  0
   -0.1836   -1.8234   -2.7496 C   0  0  0  0  0  0  0  0  0  0  0  0
    0.8913   -1.8368   -2.5363 H   0  0  0  0  0  0  0  0  0  0  0  0
   -0.6417   -2.6898   -2.2600 H   0  0  0  0  0  0  0  0  0  0  0  0
   -0.3963   -1.9068   -4.2046 N   0  3  0  0  0  0  0  0  0  0  0  0
   -0.7236   -1.0680   -4.6815 H   0  0  0  0  0  0  0  0  0  0  0  0
   -0.1034   -2.9697   -4.8983 C   0  0  0  0  0  0  0  0  0  0  0  0
    0.3927   -4.1088   -4.3033 N   0  0  0  0  0  0  0  0  0  0  0  0
    0.6689   -4.0572   -3.3234 H   0  0  0  0  0  0  0  0  0  0  0  0
    0.8324   -4.8176   -4.8870 H   0  0  0  0  0  0  0  0  0  0  0  0
   -0.2857   -2.9652   -6.2605 N   0  0  0  0  0  0  0  0  0  0  0  0
   -0.8092   -2.2025   -6.6856 H   0  0  0  0  0  0  0  0  0  0  0  0
   -0.2334   -3.8501   -6.7622 H   0  0  0  0  0  0  0  0  0  0  0  0
    0.1737   -1.4800    1.5648 C   0  0  0  0  0  0  0  0  0  0  0  0
    1.3798   -1.4670    1.7598 O   0  0  0  0  0  0  0  0  0  0  0  0
   -0.6829   -1.0983    2.5822 N   0  0  0  0  0  0  0  0  0  0  0  0
   -1.6786   -1.1027    2.3913 H   0  0  0  0  0  0  0  0  0  0  0  0
   -0.2273   -0.8191    3.9407 C   0  0  0  0  0  0  0  0  0  0  0  0
    0.4839    0.0139    3.9445 H   0  0  0  0  0  0  0  0  0  0  0  0
   -1.0745   -0.5509    4.5795 H   0  0  0  0  0  0  0  0  0  0  0  0
    0.2624   -1.7003    4.3690 H   0  0  0  0  0  0  0  0  0  0  0  0
  1  2  1  0  0  0  0
  2  3  1  0  0  0  0
  2  4  1  0  0  0  0
  2  5  1  0  0  0  0
  5  6  2  0  0  0  0
  5  7  1  0  0  0  0
  7  8  1  0  0  0  0
  7  9  1  0  0  0  0
  9 10  1  0  0  0  0
  9 11  1  0  0  0  0
  9 29  1  0  0  0  0
 11 12  1  0  0  0  0
 11 13  1  0  0  0  0
 11 14  1  0  0  0  0
 14 15  1  0  0  0  0
 14 16  1  0  0  0  0
 14 17  1  0  0  0  0
 17 18  1  0  0  0  0
 17 19  1  0  0  0  0
 17 20  1  0  0  0  0
 20 21  1  0  0  0  0
 20 22  2  0  0  0  0
 22 23  1  0  0  0  0
 22 26  1  0  0  0  0
 23 24  1  0  0  0  0
 23 25  1  0  0  0  0
 26 27  1  0  0  0  0
 26 28  1  0  0  0  0
 29 30  2  0  0  0  0
 29 31  1  0  0  0  0
 31 32  1  0  0  0  0
 31 33  1  0  0  0  0
 33 34  1  0  0  0  0
 33 35  1  0  0  0  0
 33 36  1  0  0  0  0
M  CHG  1  20   1
M  END
$$$$

  -OEChem-04042215563D

 36 35  0     1  0  0  0  0  0999 V2000
   -2.9754   -5.3882    1.3639 H   0  0  0  0  0  0  0  0  0  0  0  0
   -3.0997   -4.3578    1.0170 C   0  0  0  0  0  0  0  0  0  0  0  0
   -3.5220   -3.7650    1.8320 H   0  0  0  0  0  0  0  0  0  0  0  0
   -3.7921   -4.3523    0.1720 H   0  0  0  0  0  0  0  0  0  0  0  0
   -1.7589   -3.7867    0.5985 C   0  0  0  0  0  0  0  0  0  0  0  0
   -0.7658   -4.4916    0.5939 O   0  0  0  0  0  0  0  0  0  0  0  0
   -1.6663   -2.5001    0.1023 N   0  0  0  0  0  0  0  0  0  0  0  0
   -2.5250   -1.9589    0.1582 H   0  0  0  0  0  0  0  0  0  0  0  0
   -0.3967   -1.7452    0.1589 C   0  0  1  0  0  0  0  0  0  0  0  0
    0.3755   -2.3598   -0.3170 H   0  0  0  0  0  0  0  0  0  0  0  0
   -0.5043   -0.4385   -0.6531 C   0  0  0  0  0  0  0  0  0  0  0  0
   -1.2597    0.2110   -0.1984 H   0  0  0  0  0  0  0  0  0  0  0  0
    0.4571    0.0809   -0.5644 H   0  0  0  0  0  0  0  0  0  0  0  0
   -0.8157   -0.6003   -2.1638 C   0  0  0  0  0  0  0  0  0  0  0  0
   -1.8580   -0.3143   -2.3399 H   0  0  0  0  0  0  0  0  0  0  0  0
   -0.1837    0.0981   -2.7234 H   0  0  0  0  0  0  0  0  0  0  0  0
   -0.6080   -2.0247   -2.6948 C   0  0  0  0  0  0  0  0  0  0  0  0
    0.3964   -2.3580   -2.4112 H   0  0  0  0  0  0  0  0  0  0  0  0
   -1.3377   -2.6944   -2.2284 H   0  0  0  0  0  0  0  0  0  0  0  0
   -0.7439   -2.0916   -4.1594 N   0  3  0  0  0  0  0  0  0  0  0  0
   -0.8939   -1.2172   -4.6608 H   0  0  0  0  0  0  0  0  0  0  0  0
   -0.6086   -3.2036   -4.8238 C   0  0  0  0  0  0  0  0  0  0  0  0
   -0.3609   -4.4005   -4.1871 N   0  0  0  0  0  0  0  0  0  0  0  0
   -0.1256   -4.3757   -3.1953 H   0  0  0  0  0  0  0  0  0  0  0  0
   -0.0236   -5.1881   -4.7367 H   0  0  0  0  0  0  0  0  0  0  0  0
   -0.7107   -3.1959   -6.1945 N   0  0  0  0  0  0  0  0  0  0  0  0
   -1.0492   -2.3565   -6.6605 H   0  0  0  0  0  0  0  0  0  0  0  0
   -0.7994   -4.0855   -6.6824 H   0  0  0  0  0  0  0  0  0  0  0  0
    0.1569   -1.5115    1.5813 C   0  0  0  0  0  0  0  0  0  0  0  0
    1.3656   -1.5261    1.7560 O   0  0  0  0  0  0  0  0  0  0  0  0
   -0.6734   -1.1001    2.6092 N   0  0  0  0  0  0  0  0  0  0  0  0
   -1.6693   -1.0495    2.4267 H   0  0  0  0  0  0  0  0  0  0  0  0
   -0.1843   -0.7748    3.9453 C   0  0  0  0  0  0  0  0  0  0  0  0
    0.5203    0.0627    3.9029 H   0  0  0  0  0  0  0  0  0  0  0  0
   -1.0167   -0.4917    4.5970 H   0  0  0  0  0  0  0  0  0  0  0  0
    0.3236   -1.6381    4.3887 H   0  0  0  0  0  0  0  0  0  0  0  0
  1  2  1  0  0  0  0
  2  3  1  0  0  0  0
  2  4  1  0  0  0  0
  2  5  1  0  0  0  0
  5  6  2  0  0  0  0
  5  7  1  0  0  0  0
  7  8  1  0  0  0  0
  7  9  1  0  0  0  0
  9 10  1  0  0  0  0
  9 11  1  0  0  0  0
  9 29  1  0  0  0  0
 11 12  1  0  0  0  0
 11 13  1  0  0  0  0
 11 14  1  0  0  0  0
 14 15  1  0  0  0  0
 14 16  1  0  0  0  0
 14 17  1  0  0  0  0
 17 18  1  0  0  0  0
 17 19  1  0  0  0  0
 17 20  1  0  0  0  0
 20 21  1  0  0  0  0
 20 22  2  0  0  0  0
 22 23  1  0  0  0  0
 22 26  1  0  0  0  0
 23 24  1  0  0  0  0
 23 25  1  0  0  0  0
 26 27  1  0  0  0  0
 26 28  1  0  0  0  0
 29 30  2  0  0  0  0
 29 31  1  0  0  0  0
 31 32  1  0  0  0  0
 31 33  1  0  0  0  0
 33 34  1  0  0  0  0
 33 35  1  0  0  0  0
 33 36  1  0  0  0  0
M  CHG  1  20   1
M  END
$$$$

  -OEChem-04042215563D

 36 35  0     1  0  0  0  0  0999 V2000
   -3.2014   -5.3051    1.5091 H   0  0  0  0  0  0  0  0  0  0  0  0
   -3.2730   -4.2444    1.2510 C   0  0  0  0  0  0  0  0  0  0  0  0
   -3.5380   -3.6841    2.1509 H   0  0  0  0  0  0  0  0  0  0  0  0
   -4.0602   -4.1173    0.5043 H   0  0  0  0  0  0  0  0  0  0  0  0
   -1.9466   -3.7524    0.7051 C   0  0  0  0  0  0  0  0  0  0  0  0
   -1.0046   -4.5168    0.5946 O   0  0  0  0  0  0  0  0  0  0  0  0
   -1.8254   -2.4712    0.2012 N   0  0  0  0  0  0  0  0  0  0  0  0
   -2.6419   -1.8819    0.3417 H   0  0  0  0  0  0  0  0  0  0  0  0
   -0.5155   -1.7869    0.1492 C   0  0  1  0  0  0  0  0  0  0  0  0
    0.1775   -2.4488   -0.3824 H   0  0  0  0  0  0  0  0  0  0  0  0
   -0.5867   -0.4838   -0.6738 C   0  0  0  0  0  0  0  0  0  0  0  0
   -1.2804    0.2034   -0.1776 H   0  0  0  0  0  0  0  0  0  0  0  0
    0.4019   -0.0111   -0.6432 H   0  0  0  0  0  0  0  0  0  0  0  0
   -1.0057   -0.6240   -2.1633 C   0  0  0  0  0  0  0  0  0  0  0  0
   -1.8911   -0.0056   -2.3462 H   0  0  0  0  0  0  0  0  0  0  0  0
   -0.1920   -0.2170   -2.7738 H   0  0  0  0  0  0  0  0  0  0  0  0
   -1.2946   -2.0592   -2.6248 C   0  0  0  0  0  0  0  0  0  0  0  0
   -0.5178   -2.7169   -2.2232 H   0  0  0  0  0  0  0  0  0  0  0  0
   -2.2588   -2.3824   -2.2183 H   0  0  0  0  0  0  0  0  0  0  0  0
   -1.3040   -2.1729   -4.0934 N   0  3  0  0  0  0  0  0  0  0  0  0
   -1.4988   -1.3290   -4.6304 H   0  0  0  0  0  0  0  0  0  0  0  0
   -1.0525   -3.2905   -4.7147 C   0  0  0  0  0  0  0  0  0  0  0  0
   -0.7705   -4.4550   -4.0336 N   0  0  0  0  0  0  0  0  0  0  0  0
   -0.6184   -4.4003   -3.0268 H   0  0  0  0  0  0  0  0  0  0  0  0
   -0.3400   -5.2270   -4.5385 H   0  0  0  0  0  0  0  0  0  0  0  0
   -1.0641   -3.3221   -6.0888 N   0  0  0  0  0  0  0  0  0  0  0  0
   -1.4387   -2.5236   -6.5971 H   0  0  0  0  0  0  0  0  0  0  0  0
   -1.0602   -4.2279   -6.5546 H   0  0  0  0  0  0  0  0  0  0  0  0
    0.1668   -1.5891    1.5199 C   0  0  0  0  0  0  0  0  0  0  0  0
    1.3824   -1.6805    1.5957 O   0  0  0  0  0  0  0  0  0  0  0  0
   -0.5507   -1.1364    2.6132 N   0  0  0  0  0  0  0  0  0  0  0  0
   -1.5515   -1.0123    2.5094 H   0  0  0  0  0  0  0  0  0  0  0  0
    0.0664   -0.8434    3.9030 C   0  0  0  0  0  0  0  0  0  0  0  0
    0.7840   -0.0214    3.8072 H   0  0  0  0  0  0  0  0  0  0  0  0
   -0.6957   -0.5535    4.6331 H   0  0  0  0  0  0  0  0  0  0  0  0
    0.5923   -1.7248    4.2859 H   0  0  0  0  0  0  0  0  0  0  0  0
  1  2  1  0  0  0  0
  2  3  1  0  0  0  0
  2  4  1  0  0  0  0
  2  5  1  0  0  0  0
  5  6  2  0  0  0  0
  5  7  1  0  0  0  0
  7  8  1  0  0  0  0
  7  9  1  0  0  0  0
  9 10  1  0  0  0  0
  9 11  1  0  0  0  0
  9 29  1  0  0  0  0
 11 12  1  0  0  0  0
 11 13  1  0  0  0  0
 11 14  1  0  0  0  0
 14 15  1  0  0  0  0
 14 16  1  0  0  0  0
 14 17  1  0  0  0  0
 17 18  1  0  0  0  0
 17 19  1  0  0  0  0
 17 20  1  0  0  0  0
 20 21  1  0  0  0  0
 20 22  2  0  0  0  0
 22 23  1  0  0  0  0
 22 26  1  0  0  0  0
 23 24  1  0  0  0  0
 23 25  1  0  0  0  0
 26 27  1  0  0  0  0
 26 28  1  0  0  0  0
 29 30  2  0  0  0  0
 29 31  1  0  0  0  0
 31 32  1  0  0  0  0
 31 33  1  0  0  0  0
 33 34  1  0  0  0  0
 33 35  1  0  0  0  0
 33 36  1  0  0  0  0
M  CHG  1  20   1
M  END
$$$$

  -OEChem-04042215563D

 36 35  0     1  0  0  0  0  0999 V2000
   -3.2970   -5.3471    1.3650 H   0  0  0  0  0  0  0  0  0  0  0  0
   -3.3464   -4.2604    1.2491 C   0  0  0  0  0  0  0  0  0  0  0  0
   -3.3445   -3.8048    2.2425 H   0  0  0  0  0  0  0  0  0  0  0  0
   -4.2785   -4.0040    0.7398 H   0  0  0  0  0  0  0  0  0  0  0  0
   -2.1563   -3.7671    0.4491 C   0  0  0  0  0  0  0  0  0  0  0  0
   -1.3329   -4.5496    0.0092 O   0  0  0  0  0  0  0  0  0  0  0  0
   -2.0576   -2.4441    0.0625 N   0  0  0  0  0  0  0  0  0  0  0  0
   -2.7758   -1.8392    0.4560 H   0  0  0  0  0  0  0  0  0  0  0  0
   -0.7483   -1.8108   -0.2075 C   0  0  1  0  0  0  0  0  0  0  0  0
   -0.2365   -2.4076   -0.9695 H   0  0  0  0  0  0  0  0  0  0  0  0
   -0.9090   -0.3997   -0.8062 C   0  0  0  0  0  0  0  0  0  0  0  0
   -1.4307    0.2105   -0.0611 H   0  0  0  0  0  0  0  0  0  0  0  0
    0.0910    0.0353   -0.9194 H   0  0  0  0  0  0  0  0  0  0  0  0
   -1.6507   -0.2243   -2.1599 C   0  0  0  0  0  0  0  0  0  0  0  0
   -2.3131    0.6416   -2.0498 H   0  0  0  0  0  0  0  0  0  0  0  0
   -0.9060    0.0608   -2.9116 H   0  0  0  0  0  0  0  0  0  0  0  0
   -2.5048   -1.3769   -2.7227 C   0  0  0  0  0  0  0  0  0  0  0  0
   -2.7695   -2.1094   -1.9624 H   0  0  0  0  0  0  0  0  0  0  0  0
   -3.4459   -0.9575   -3.0956 H   0  0  0  0  0  0  0  0  0  0  0  0
   -1.7942   -2.0132   -3.8536 N   0  3  0  0  0  0  0  0  0  0  0  0
   -1.6719   -1.4391   -4.6867 H   0  0  0  0  0  0  0  0  0  0  0  0
   -1.3414   -3.2354   -3.8794 C   0  0  0  0  0  0  0  0  0  0  0  0
   -1.4396   -4.0973   -2.8157 N   0  0  0  0  0  0  0  0  0  0  0  0
   -1.6178   -3.6999   -1.8922 H   0  0  0  0  0  0  0  0  0  0  0  0
   -0.8757   -4.9447   -2.8298 H   0  0  0  0  0  0  0  0  0  0  0  0
   -0.7387   -3.6998   -5.0240 N   0  0  0  0  0  0  0  0  0  0  0  0
   -0.8124   -3.1541   -5.8799 H   0  0  0  0  0  0  0  0  0  0  0  0
   -0.5548   -4.6983   -5.1052 H   0  0  0  0  0  0  0  0  0  0  0  0
    0.2191   -1.8024    0.9964 C   0  0  0  0  0  0  0  0  0  0  0  0
    1.4045   -2.0162    0.7973 O   0  0  0  0  0  0  0  0  0  0  0  0
   -0.2117   -1.4522    2.2641 N   0  0  0  0  0  0  0  0  0  0  0  0
   -1.1882   -1.2090    2.3900 H   0  0  0  0  0  0  0  0  0  0  0  0
    0.6878   -1.3635    3.4108 C   0  0  0  0  0  0  0  0  0  0  0  0
    1.4682   -0.6162    3.2310 H   0  0  0  0  0  0  0  0  0  0  0  0
    0.1331   -1.0734    4.3085 H   0  0  0  0  0  0  0  0  0  0  0  0
    1.1659   -2.3309    3.5986 H   0  0  0  0  0  0  0  0  0  0  0  0
  1  2  1  0  0  0  0
  2  3  1  0  0  0  0
  2  4  1  0  0  0  0
  2  5  1  0  0  0  0
  5  6  2  0  0  0  0
  5  7  1  0  0  0  0
  7  8  1  0  0  0  0
  7  9  1  0  0  0  0
  9 10  1  0  0  0  0
  9 11  1  0  0  0  0
  9 29  1  0  0  0  0
 11 12  1  0  0  0  0
 11 13  1  0  0  0  0
 11 14  1  0  0  0  0
 14 15  1  0  0  0  0
 14 16  1  0  0  0  0
 14 17  1  0  0  0  0
 17 18  1  0  0  0  0
 17 19  1  0  0  0  0
 17 20  1  0  0  0  0
 20 21  1  0  0  0  0
 20 22  2  0  0  0  0
 22 23  1  0  0  0  0
 22 26  1  0  0  0  0
 23 24  1  0  0  0  0
 23 25  1  0  0  0  0
 26 27  1  0  0  0  0
 26 28  1  0  0  0  0
 29 30  2  0  0  0  0
 29 31  1  0  0  0  0
 31 32  1  0  0  0  0
 31 33  1  0  0  0  0
 33 34  1  0  0  0  0
 33 35  1  0  0  0  0
 33 36  1  0  0  0  0
M  CHG  1  20   1
M  END
$$$$

  -OEChem-04042215563D

 36 35  0     1  0  0  0  0  0999 V2000
   -3.2979   -5.2843    1.5106 H   0  0  0  0  0  0  0  0  0  0  0  0
   -3.3984   -4.2121    1.3174 C   0  0  0  0  0  0  0  0  0  0  0  0
   -3.4272   -3.6885    2.2761 H   0  0  0  0  0  0  0  0  0  0  0  0
   -4.3361   -4.0366    0.7849 H   0  0  0  0  0  0  0  0  0  0  0  0
   -2.2263   -3.7222    0.4904 C   0  0  0  0  0  0  0  0  0  0  0  0
   -1.4429   -4.5095   -0.0105 O   0  0  0  0  0  0  0  0  0  0  0  0
   -2.1172   -2.3933    0.1271 N   0  0  0  0  0  0  0  0  0  0  0  0
   -2.8129   -1.7890    0.5600 H   0  0  0  0  0  0  0  0  0  0  0  0
   -0.7974   -1.7791   -0.1270 C   0  0  1  0  0  0  0  0  0  0  0  0
   -0.2934   -2.3949   -0.8800 H   0  0  0  0  0  0  0  0  0  0  0  0
   -0.8865   -0.3719   -0.7529 C   0  0  0  0  0  0  0  0  0  0  0  0
   -1.4171    0.2639   -0.0361 H   0  0  0  0  0  0  0  0  0  0  0  0
    0.1287    0.0330   -0.8400 H   0  0  0  0  0  0  0  0  0  0  0  0
   -1.5810   -0.2017   -2.1306 C   0  0  0  0  0  0  0  0  0  0  0  0
   -1.9615    0.8241   -2.1886 H   0  0  0  0  0  0  0  0  0  0  0  0
   -0.7876   -0.2745   -2.8828 H   0  0  0  0  0  0  0  0  0  0  0  0
   -2.7206   -1.1520   -2.5446 C   0  0  0  0  0  0  0  0  0  0  0  0
   -2.9363   -1.8991   -1.7859 H   0  0  0  0  0  0  0  0  0  0  0  0
   -3.6353   -0.5621   -2.6705 H   0  0  0  0  0  0  0  0  0  0  0  0
   -2.3933   -1.8198   -3.8219 N   0  3  0  0  0  0  0  0  0  0  0  0
   -2.5212   -1.2696   -4.6704 H   0  0  0  0  0  0  0  0  0  0  0  0
   -1.9334   -3.0357   -3.9291 C   0  0  0  0  0  0  0  0  0  0  0  0
   -1.7083   -3.8493   -2.8439 N   0  0  0  0  0  0  0  0  0  0  0  0
   -1.7364   -3.4467   -1.9058 H   0  0  0  0  0  0  0  0  0  0  0  0
   -1.1582   -4.6978   -2.9630 H   0  0  0  0  0  0  0  0  0  0  0  0
   -1.6582   -3.5408   -5.1773 N   0  0  0  0  0  0  0  0  0  0  0  0
   -1.9852   -3.0364   -5.9986 H   0  0  0  0  0  0  0  0  0  0  0  0
   -1.4773   -4.5392   -5.2670 H   0  0  0  0  0  0  0  0  0  0  0  0
    0.1613   -1.8084    1.0834 C   0  0  0  0  0  0  0  0  0  0  0  0
    1.3435   -2.0448    0.8923 O   0  0  0  0  0  0  0  0  0  0  0  0
   -0.2745   -1.4712    2.3528 N   0  0  0  0  0  0  0  0  0  0  0  0
   -1.2415   -1.1891    2.4690 H   0  0  0  0  0  0  0  0  0  0  0  0
    0.6175   -1.4115    3.5069 C   0  0  0  0  0  0  0  0  0  0  0  0
    1.3910   -0.6507    3.3562 H   0  0  0  0  0  0  0  0  0  0  0  0
    0.0542   -1.1578    4.4103 H   0  0  0  0  0  0  0  0  0  0  0  0
    1.1047   -2.3796    3.6664 H   0  0  0  0  0  0  0  0  0  0  0  0
  1  2  1  0  0  0  0
  2  3  1  0  0  0  0
  2  4  1  0  0  0  0
  2  5  1  0  0  0  0
  5  6  2  0  0  0  0
  5  7  1  0  0  0  0
  7  8  1  0  0  0  0
  7  9  1  0  0  0  0
  9 10  1  0  0  0  0
  9 11  1  0  0  0  0
  9 29  1  0  0  0  0
 11 12  1  0  0  0  0
 11 13  1  0  0  0  0
 11 14  1  0  0  0  0
 14 15  1  0  0  0  0
 14 16  1  0  0  0  0
 14 17  1  0  0  0  0
 17 18  1  0  0  0  0
 17 19  1  0  0  0  0
 17 20  1  0  0  0  0
 20 21  1  0  0  0  0
 20 22  2  0  0  0  0
 22 23  1  0  0  0  0
 22 26  1  0  0  0  0
 23 24  1  0  0  0  0
 23 25  1  0  0  0  0
 26 27  1  0  0  0  0
 26 28  1  0  0  0  0
 29 30  2  0  0  0  0
 29 31  1  0  0  0  0
 31 32  1  0  0  0  0
 31 33  1  0  0  0  0
 33 34  1  0  0  0  0
 33 35  1  0  0  0  0
 33 36  1  0  0  0  0
M  CHG  1  20   1
M  END
$$$$

  -OEChem-04042215563D

 36 35  0     1  0  0  0  0  0999 V2000
   -3.3833   -5.2286    1.4360 H   0  0  0  0  0  0  0  0  0  0  0  0
   -3.4386   -4.1428    1.3148 C   0  0  0  0  0  0  0  0  0  0  0  0
   -3.3998   -3.6809    2.3046 H   0  0  0  0  0  0  0  0  0  0  0  0
   -4.3888   -3.8908    0.8380 H   0  0  0  0  0  0  0  0  0  0  0  0
   -2.2808   -3.6548    0.4665 C   0  0  0  0  0  0  0  0  0  0  0  0
   -1.5468   -4.4441   -0.1014 O   0  0  0  0  0  0  0  0  0  0  0  0
   -2.1512   -2.3182    0.1401 N   0  0  0  0  0  0  0  0  0  0  0  0
   -2.8223   -1.7183    0.6155 H   0  0  0  0  0  0  0  0  0  0  0  0
   -0.8176   -1.7238   -0.0861 C   0  0  1  0  0  0  0  0  0  0  0  0
   -0.3217   -2.3455   -0.8404 H   0  0  0  0  0  0  0  0  0  0  0  0
   -0.8519   -0.3120   -0.7102 C   0  0  0  0  0  0  0  0  0  0  0  0
   -1.3769    0.3471   -0.0107 H   0  0  0  0  0  0  0  0  0  0  0  0
    0.1774    0.0581   -0.7850 H   0  0  0  0  0  0  0  0  0  0  0  0
   -1.5136   -0.1558   -2.1027 C   0  0  0  0  0  0  0  0  0  0  0  0
   -1.6296    0.9139   -2.3098 H   0  0  0  0  0  0  0  0  0  0  0  0
   -0.7810   -0.5336   -2.8249 H   0  0  0  0  0  0  0  0  0  0  0  0
   -2.8618   -0.8444   -2.3780 C   0  0  0  0  0  0  0  0  0  0  0  0
   -3.1022   -1.5957   -1.6310 H   0  0  0  0  0  0  0  0  0  0  0  0
   -3.6582   -0.0931   -2.3339 H   0  0  0  0  0  0  0  0  0  0  0  0
   -2.8455   -1.4837   -3.7089 N   0  3  0  0  0  0  0  0  0  0  0  0
   -3.0962   -0.8992   -4.5055 H   0  0  0  0  0  0  0  0  0  0  0  0
   -2.4986   -2.7246   -3.9159 C   0  0  0  0  0  0  0  0  0  0  0  0
   -2.1167   -3.5686   -2.8976 N   0  0  0  0  0  0  0  0  0  0  0  0
   -1.9533   -3.1845   -1.9655 H   0  0  0  0  0  0  0  0  0  0  0  0
   -1.6634   -4.4524   -3.1214 H   0  0  0  0  0  0  0  0  0  0  0  0
   -2.5066   -3.2220   -5.1970 N   0  0  0  0  0  0  0  0  0  0  0  0
   -2.9554   -2.6824   -5.9340 H   0  0  0  0  0  0  0  0  0  0  0  0
   -2.4103   -4.2274   -5.3281 H   0  0  0  0  0  0  0  0  0  0  0  0
    0.1319   -1.8010    1.1296 C   0  0  0  0  0  0  0  0  0  0  0  0
    1.3124   -2.0476    0.9421 O   0  0  0  0  0  0  0  0  0  0  0  0
   -0.3073   -1.4869    2.4039 N   0  0  0  0  0  0  0  0  0  0  0  0
   -1.2658   -1.1766    2.5184 H   0  0  0  0  0  0  0  0  0  0  0  0
    0.5834   -1.4507    3.5604 C   0  0  0  0  0  0  0  0  0  0  0  0
    1.3485   -0.6774    3.4318 H   0  0  0  0  0  0  0  0  0  0  0  0
    0.0175   -1.2298    4.4708 H   0  0  0  0  0  0  0  0  0  0  0  0
    1.0816   -2.4176    3.6920 H   0  0  0  0  0  0  0  0  0  0  0  0
  1  2  1  0  0  0  0
  2  3  1  0  0  0  0
  2  4  1  0  0  0  0
  2  5  1  0  0  0  0
  5  6  2  0  0  0  0
  5  7  1  0  0  0  0
  7  8  1  0  0  0  0
  7  9  1  0  0  0  0
  9 10  1  0  0  0  0
  9 11  1  0  0  0  0
  9 29  1  0  0  0  0
 11 12  1  0  0  0  0
 11 13  1  0  0  0  0
 11 14  1  0  0  0  0
 14 15  1  0  0  0  0
 14 16  1  0  0  0  0
 14 17  1  0  0  0  0
 17 18  1  0  0  0  0
 17 19  1  0  0  0  0
 17 20  1  0  0  0  0
 20 21  1  0  0  0  0
 20 22  2  0  0  0  0
 22 23  1  0  0  0  0
 22 26  1  0  0  0  0
 23 24  1  0  0  0  0
 23 25  1  0  0  0  0
 26 27  1  0  0  0  0
 26 28  1  0  0  0  0
 29 30  2  0  0  0  0
 29 31  1  0  0  0  0
 31 32  1  0  0  0  0
 31 33  1  0  0  0  0
 33 34  1  0  0  0  0
 33 35  1  0  0  0  0
 33 36  1  0  0  0  0
M  CHG  1  20   1
M  END
$$$$

  -OEChem-04042215563D

 36 35  0     1  0  0  0  0  0999 V2000
   -3.5018   -5.1044    1.3538 H   0  0  0  0  0  0  0  0  0  0  0  0
   -3.4886   -4.0118    1.2961 C   0  0  0  0  0  0  0  0  0  0  0  0
   -3.3354   -3.6136    2.3023 H   0  0  0  0  0  0  0  0  0  0  0  0
   -4.4539   -3.6676    0.9173 H   0  0  0  0  0  0  0  0  0  0  0  0
   -2.3700   -3.5540    0.3813 C   0  0  0  0  0  0  0  0  0  0  0  0
   -1.7322   -4.3559   -0.2769 O   0  0  0  0  0  0  0  0  0  0  0  0
   -2.1898   -2.2163    0.0869 N   0  0  0  0  0  0  0  0  0  0  0  0
   -2.8218   -1.6103    0.6057 H   0  0  0  0  0  0  0  0  0  0  0  0
   -0.8267   -1.6759   -0.0945 C   0  0  1  0  0  0  0  0  0  0  0  0
   -0.3380   -2.3042   -0.8489 H   0  0  0  0  0  0  0  0  0  0  0  0
   -0.7985   -0.2519   -0.6916 C   0  0  0  0  0  0  0  0  0  0  0  0
   -1.3024    0.4298    0.0014 H   0  0  0  0  0  0  0  0  0  0  0  0
    0.2468    0.0713   -0.7588 H   0  0  0  0  0  0  0  0  0  0  0  0
   -1.4354   -0.0980   -2.0924 C   0  0  0  0  0  0  0  0  0  0  0  0
   -1.3092    0.9404   -2.4177 H   0  0  0  0  0  0  0  0  0  0  0  0
   -0.8410   -0.7131   -2.7765 H   0  0  0  0  0  0  0  0  0  0  0  0
   -2.9218   -0.4615   -2.2395 C   0  0  0  0  0  0  0  0  0  0  0  0
   -3.2496   -1.1568   -1.4696 H   0  0  0  0  0  0  0  0  0  0  0  0
   -3.5198    0.4483   -2.1161 H   0  0  0  0  0  0  0  0  0  0  0  0
   -3.1848   -1.0629   -3.5626 N   0  3  0  0  0  0  0  0  0  0  0  0
   -3.6453   -0.4718   -4.2539 H   0  0  0  0  0  0  0  0  0  0  0  0
   -2.9146   -2.3034   -3.8680 C   0  0  0  0  0  0  0  0  0  0  0  0
   -2.2999   -3.1673   -2.9885 N   0  0  0  0  0  0  0  0  0  0  0  0
   -2.1312   -2.8746   -2.0242 H   0  0  0  0  0  0  0  0  0  0  0  0
   -2.2511   -4.1629   -3.1966 H   0  0  0  0  0  0  0  0  0  0  0  0
   -3.2384   -2.7755   -5.1173 N   0  0  0  0  0  0  0  0  0  0  0  0
   -3.5180   -2.1134   -5.8380 H   0  0  0  0  0  0  0  0  0  0  0  0
   -2.8512   -3.6704   -5.4122 H   0  0  0  0  0  0  0  0  0  0  0  0
    0.0863   -1.8188    1.1435 C   0  0  0  0  0  0  0  0  0  0  0  0
    1.2544   -2.1345    0.9867 O   0  0  0  0  0  0  0  0  0  0  0  0
   -0.3747   -1.5103    2.4120 N   0  0  0  0  0  0  0  0  0  0  0  0
   -1.3111   -1.1321    2.5027 H   0  0  0  0  0  0  0  0  0  0  0  0
    0.4830   -1.5409    3.5936 C   0  0  0  0  0  0  0  0  0  0  0  0
    1.3007   -0.8189    3.4940 H   0  0  0  0  0  0  0  0  0  0  0  0
   -0.0931   -1.2890    4.4895 H   0  0  0  0  0  0  0  0  0  0  0  0
    0.9124   -2.5393    3.7313 H   0  0  0  0  0  0  0  0  0  0  0  0
  1  2  1  0  0  0  0
  2  3  1  0  0  0  0
  2  4  1  0  0  0  0
  2  5  1  0  0  0  0
  5  6  2  0  0  0  0
  5  7  1  0  0  0  0
  7  8  1  0  0  0  0
  7  9  1  0  0  0  0
  9 10  1  0  0  0  0
  9 11  1  0  0  0  0
  9 29  1  0  0  0  0
 11 12  1  0  0  0  0
 11 13  1  0  0  0  0
 11 14  1  0  0  0  0
 14 15  1  0  0  0  0
 14 16  1  0  0  0  0
 14 17  1  0  0  0  0
 17 18  1  0  0  0  0
 17 19  1  0  0  0  0
 17 20  1  0  0  0  0
 20 21  1  0  0  0  0
 20 22  2  0  0  0  0
 22 23  1  0  0  0  0
 22 26  1  0  0  0  0
 23 24  1  0  0  0  0
 23 25  1  0  0  0  0
 26 27  1  0  0  0  0
 26 28  1  0  0  0  0
 29 30  2  0  0  0  0
 29 31  1  0  0  0  0
 31 32  1  0  0  0  0
 31 33  1  0  0  0  0
 33 34  1  0  0  0  0
 33 35  1  0  0  0  0
 33 36  1  0  0  0  0
M  CHG  1  20   1
M  END
$$$$

  -OEChem-04042215563D

 36 35  0     1  0  0  0  0  0999 V2000
   -1.8015   -5.9010    1.7293 H   0  0  0  0  0  0  0  0  0  0  0  0
   -2.2493   -5.0233    1.2535 C   0  0  0  0  0  0  0  0  0  0  0  0
   -2.9380   -4.5567    1.9615 H   0  0  0  0  0  0  0  0  0  0  0  0
   -2.8049   -5.3484    0.3709 H   0  0  0  0  0  0  0  0  0  0  0  0
   -1.1633   -4.0428    0.8541 C   0  0  0  0  0  0  0  0  0  0  0  0
    0.0066   -4.3493    0.9829 O   0  0  0  0  0  0  0  0  0  0  0  0
   -1.4996   -2.8081    0.3262 N   0  0  0  0  0  0  0  0  0  0  0  0
   -2.4809   -2.5587    0.3919 H   0  0  0  0  0  0  0  0  0  0  0  0
   -0.5157   -1.7133    0.2044 C   0  0  1  0  0  0  0  0  0  0  0  0
    0.3296   -2.1149   -0.3678 H   0  0  0  0  0  0  0  0  0  0  0  0
   -1.0448   -0.5058   -0.5972 C   0  0  0  0  0  0  0  0  0  0  0  0
   -1.8944   -0.0603   -0.0694 H   0  0  0  0  0  0  0  0  0  0  0  0
   -0.2507    0.2493   -0.6275 H   0  0  0  0  0  0  0  0  0  0  0  0
   -1.4479   -0.8247   -2.0494 C   0  0  0  0  0  0  0  0  0  0  0  0
   -1.5190    0.1212   -2.5963 H   0  0  0  0  0  0  0  0  0  0  0  0
   -0.6467   -1.4096   -2.5153 H   0  0  0  0  0  0  0  0  0  0  0  0
   -2.7735   -1.5770   -2.1869 C   0  0  0  0  0  0  0  0  0  0  0  0
   -2.7077   -2.5327   -1.6585 H   0  0  0  0  0  0  0  0  0  0  0  0
   -3.5845   -1.0005   -1.7295 H   0  0  0  0  0  0  0  0  0  0  0  0
   -3.0546   -1.8393   -3.6124 N   0  3  0  0  0  0  0  0  0  0  0  0
   -2.6416   -2.6827   -4.0111 H   0  0  0  0  0  0  0  0  0  0  0  0
   -3.7746   -1.0687   -4.3778 C   0  0  0  0  0  0  0  0  0  0  0  0
   -4.3286    0.1045   -3.9178 N   0  0  0  0  0  0  0  0  0  0  0  0
   -4.0114    0.4584   -3.0180 H   0  0  0  0  0  0  0  0  0  0  0  0
   -4.6775    0.7770   -4.5983 H   0  0  0  0  0  0  0  0  0  0  0  0
   -3.9872   -1.4244   -5.6887 N   0  0  0  0  0  0  0  0  0  0  0  0
   -3.7309   -2.3620   -5.9930 H   0  0  0  0  0  0  0  0  0  0  0  0
   -4.6999   -0.9279   -6.2209 H   0  0  0  0  0  0  0  0  0  0  0  0
    0.1040   -1.2535    1.5436 C   0  0  0  0  0  0  0  0  0  0  0  0
    1.2470   -0.8216    1.5491 O   0  0  0  0  0  0  0  0  0  0  0  0
   -0.6934   -1.0541    2.6577 N   0  0  0  0  0  0  0  0  0  0  0  0
   -1.6157   -1.4737    2.6475 H   0  0  0  0  0  0  0  0  0  0  0  0
   -0.1577   -0.5821    3.9311 C   0  0  0  0  0  0  0  0  0  0  0  0
    0.3049    0.4036    3.8122 H   0  0  0  0  0  0  0  0  0  0  0  0
   -0.9574   -0.4989    4.6735 H   0  0  0  0  0  0  0  0  0  0  0  0
    0.5969   -1.2796    4.3108 H   0  0  0  0  0  0  0  0  0  0  0  0
  1  2  1  0  0  0  0
  2  3  1  0  0  0  0
  2  4  1  0  0  0  0
  2  5  1  0  0  0  0
  5  6  2  0  0  0  0
  5  7  1  0  0  0  0
  7  8  1  0  0  0  0
  7  9  1  0  0  0  0
  9 10  1  0  0  0  0
  9 11  1  0  0  0  0
  9 29  1  0  0  0  0
 11 12  1  0  0  0  0
 11 13  1  0  0  0  0
 11 14  1  0  0  0  0
 14 15  1  0  0  0  0
 14 16  1  0  0  0  0
 14 17  1  0  0  0  0
 17 18  1  0  0  0  0
 17 19  1  0  0  0  0
 17 20  1  0  0  0  0
 20 21  1  0  0  0  0
 20 22  2  0  0  0  0
 22 23  1  0  0  0  0
 22 26  1  0  0  0  0
 23 24  1  0  0  0  0
 23 25  1  0  0  0  0
 26 27  1  0  0  0  0
 26 28  1  0  0  0  0
 29 30  2  0  0  0  0
 29 31  1  0  0  0  0
 31 32  1  0  0  0  0
 31 33  1  0  0  0  0
 33 34  1  0  0  0  0
 33 35  1  0  0  0  0
 33 36  1  0  0  0  0
M  CHG  1  20   1
M  END
$$$$

  -OEChem-04042215563D

 36 35  0     1  0  0  0  0  0999 V2000
   -1.9028   -5.9252    1.4107 H   0  0  0  0  0  0  0  0  0  0  0  0
   -2.3306   -4.9813    1.0592 C   0  0  0  0  0  0  0  0  0  0  0  0
   -2.9688   -4.5732    1.8464 H   0  0  0  0  0  0  0  0  0  0  0  0
   -2.9354   -5.1808    0.1717 H   0  0  0  0  0  0  0  0  0  0  0  0
   -1.2201   -4.0033    0.7252 C   0  0  0  0  0  0  0  0  0  0  0  0
   -0.0583   -4.3368    0.8587 O   0  0  0  0  0  0  0  0  0  0  0  0
   -1.5251   -2.7391    0.2519 N   0  0  0  0  0  0  0  0  0  0  0  0
   -2.5024   -2.4742    0.3072 H   0  0  0  0  0  0  0  0  0  0  0  0
   -0.5164   -1.6627    0.1737 C   0  0  1  0  0  0  0  0  0  0  0  0
    0.3171   -2.0498   -0.4254 H   0  0  0  0  0  0  0  0  0  0  0  0
   -1.0557   -0.4203   -0.5602 C   0  0  0  0  0  0  0  0  0  0  0  0
   -1.8866    0.0191    0.0021 H   0  0  0  0  0  0  0  0  0  0  0  0
   -0.2531    0.3259   -0.5851 H   0  0  0  0  0  0  0  0  0  0  0  0
   -1.4827   -0.7100   -2.0103 C   0  0  0  0  0  0  0  0  0  0  0  0
   -1.3287    0.2009   -2.5985 H   0  0  0  0  0  0  0  0  0  0  0  0
   -0.8359   -1.4848   -2.4381 H   0  0  0  0  0  0  0  0  0  0  0  0
   -2.9499   -1.1258   -2.1234 C   0  0  0  0  0  0  0  0  0  0  0  0
   -3.1114   -2.0441   -1.5501 H   0  0  0  0  0  0  0  0  0  0  0  0
   -3.5955   -0.3521   -1.6946 H   0  0  0  0  0  0  0  0  0  0  0  0
   -3.2920   -1.3697   -3.5388 N   0  3  0  0  0  0  0  0  0  0  0  0
   -3.0685   -2.2922   -3.9122 H   0  0  0  0  0  0  0  0  0  0  0  0
   -3.8368   -0.4871   -4.3277 C   0  0  0  0  0  0  0  0  0  0  0  0
   -4.1270    0.7904   -3.9047 N   0  0  0  0  0  0  0  0  0  0  0  0
   -3.7343    1.0977   -3.0175 H   0  0  0  0  0  0  0  0  0  0  0  0
   -4.3325    1.5000   -4.6057 H   0  0  0  0  0  0  0  0  0  0  0  0
   -4.1271   -0.8299   -5.6271 N   0  0  0  0  0  0  0  0  0  0  0  0
   -4.0754   -1.8094   -5.9017 H   0  0  0  0  0  0  0  0  0  0  0  0
   -4.7238   -0.2112   -6.1739 H   0  0  0  0  0  0  0  0  0  0  0  0
    0.1214   -1.2686    1.5251 C   0  0  0  0  0  0  0  0  0  0  0  0
    1.2706   -0.8532    1.5374 O   0  0  0  0  0  0  0  0  0  0  0  0
   -0.6655   -1.0947    2.6509 N   0  0  0  0  0  0  0  0  0  0  0  0
   -1.5928   -1.5034    2.6353 H   0  0  0  0  0  0  0  0  0  0  0  0
   -0.1188   -0.6568    3.9319 C   0  0  0  0  0  0  0  0  0  0  0  0
    0.3559    0.3255    3.8326 H   0  0  0  0  0  0  0  0  0  0  0  0
   -0.9148   -0.5783    4.6790 H   0  0  0  0  0  0  0  0  0  0  0  0
    0.6281   -1.3715    4.2945 H   0  0  0  0  0  0  0  0  0  0  0  0
  1  2  1  0  0  0  0
  2  3  1  0  0  0  0
  2  4  1  0  0  0  0
  2  5  1  0  0  0  0
  5  6  2  0  0  0  0
  5  7  1  0  0  0  0
  7  8  1  0  0  0  0
  7  9  1  0  0  0  0
  9 10  1  0  0  0  0
  9 11  1  0  0  0  0
  9 29  1  0  0  0  0
 11 12  1  0  0  0  0
 11 13  1  0  0  0  0
 11 14  1  0  0  0  0
 14 15  1  0  0  0  0
 14 16  1  0  0  0  0
 14 17  1  0  0  0  0
 17 18  1  0  0  0  0
 17 19  1  0  0  0  0
 17 20  1  0  0  0  0
 20 21  1  0  0  0  0
 20 22  2  0  0  0  0
 22 23  1  0  0  0  0
 22 26  1  0  0  0  0
 23 24  1  0  0  0  0
 23 25  1  0  0  0  0
 26 27  1  0  0  0  0
 26 28  1  0  0  0  0
 29 30  2  0  0  0  0
 29 31  1  0  0  0  0
 31 32  1  0  0  0  0
 31 33  1  0  0  0  0
 33 34  1  0  0  0  0
 33 35  1  0  0  0  0
 33 36  1  0  0  0  0
M  CHG  1  20   1
M  END
$$$$

  -OEChem-04042215563D

 36 35  0     1  0  0  0  0  0999 V2000
   -2.4376   -5.7523    1.1732 H   0  0  0  0  0  0  0  0  0  0  0  0
   -2.7094   -4.7375    0.8668 C   0  0  0  0  0  0  0  0  0  0  0  0
   -3.3225   -4.2882    1.6516 H   0  0  0  0  0  0  0  0  0  0  0  0
   -3.2902   -4.7950   -0.0565 H   0  0  0  0  0  0  0  0  0  0  0  0
   -1.4568   -3.9115    0.6455 C   0  0  0  0  0  0  0  0  0  0  0  0
   -0.3641   -4.3942    0.8732 O   0  0  0  0  0  0  0  0  0  0  0  0
   -1.5545   -2.6119    0.1811 N   0  0  0  0  0  0  0  0  0  0  0  0
   -2.4904   -2.2246    0.1385 H   0  0  0  0  0  0  0  0  0  0  0  0
   -0.4086   -1.6796    0.1791 C   0  0  1  0  0  0  0  0  0  0  0  0
    0.3993   -2.1610   -0.3862 H   0  0  0  0  0  0  0  0  0  0  0  0
   -0.7569   -0.3688   -0.5489 C   0  0  0  0  0  0  0  0  0  0  0  0
   -1.5521    0.1586   -0.0118 H   0  0  0  0  0  0  0  0  0  0  0  0
    0.1292    0.2764   -0.5232 H   0  0  0  0  0  0  0  0  0  0  0  0
   -1.1496   -0.5914   -2.0214 C   0  0  0  0  0  0  0  0  0  0  0  0
   -0.6393    0.1637   -2.6302 H   0  0  0  0  0  0  0  0  0  0  0  0
   -0.8006   -1.5728   -2.3619 H   0  0  0  0  0  0  0  0  0  0  0  0
   -2.6560   -0.4566   -2.2387 C   0  0  0  0  0  0  0  0  0  0  0  0
   -3.1800   -1.2126   -1.6441 H   0  0  0  0  0  0  0  0  0  0  0  0
   -2.9795    0.5321   -1.8983 H   0  0  0  0  0  0  0  0  0  0  0  0
   -2.9580   -0.6443   -3.6711 N   0  3  0  0  0  0  0  0  0  0  0  0
   -2.4092   -1.3466   -4.1665 H   0  0  0  0  0  0  0  0  0  0  0  0
   -3.8676    0.0194   -4.3262 C   0  0  0  0  0  0  0  0  0  0  0  0
   -4.6391    0.9913   -3.7299 N   0  0  0  0  0  0  0  0  0  0  0  0
   -4.3630    1.3213   -2.8080 H   0  0  0  0  0  0  0  0  0  0  0  0
   -5.1670    1.6269   -4.3252 H   0  0  0  0  0  0  0  0  0  0  0  0
   -4.0711   -0.2516   -5.6585 N   0  0  0  0  0  0  0  0  0  0  0  0
   -3.6230   -1.0671   -6.0726 H   0  0  0  0  0  0  0  0  0  0  0  0
   -4.9032    0.1206   -6.1130 H   0  0  0  0  0  0  0  0  0  0  0  0
    0.1983   -1.3879    1.5699 C   0  0  0  0  0  0  0  0  0  0  0  0
    1.3891   -1.1261    1.6511 O   0  0  0  0  0  0  0  0  0  0  0  0
   -0.6218   -1.1219    2.6531 N   0  0  0  0  0  0  0  0  0  0  0  0
   -1.5887   -1.4172    2.5818 H   0  0  0  0  0  0  0  0  0  0  0  0
   -0.0947   -0.7754    3.9697 C   0  0  0  0  0  0  0  0  0  0  0  0
    0.5080    0.1376    3.9151 H   0  0  0  0  0  0  0  0  0  0  0  0
   -0.9137   -0.6034    4.6746 H   0  0  0  0  0  0  0  0  0  0  0  0
    0.5320   -1.5860    4.3573 H   0  0  0  0  0  0  0  0  0  0  0  0
  1  2  1  0  0  0  0
  2  3  1  0  0  0  0
  2  4  1  0  0  0  0
  2  5  1  0  0  0  0
  5  6  2  0  0  0  0
  5  7  1  0  0  0  0
  7  8  1  0  0  0  0
  7  9  1  0  0  0  0
  9 10  1  0  0  0  0
  9 11  1  0  0  0  0
  9 29  1  0  0  0  0
 11 12  1  0  0  0  0
 11 13  1  0  0  0  0
 11 14  1  0  0  0  0
 14 15  1  0  0  0  0
 14 16  1  0  0  0  0
 14 17  1  0  0  0  0
 17 18  1  0  0  0  0
 17 19  1  0  0  0  0
 17 20  1  0  0  0  0
 20 21  1  0  0  0  0
 20 22  2  0  0  0  0
 22 23  1  0  0  0  0
 22 26  1  0  0  0  0
 23 24  1  0  0  0  0
 23 25  1  0  0  0  0
 26 27  1  0  0  0  0
 26 28  1  0  0  0  0
 29 30  2  0  0  0  0
 29 31  1  0  0  0  0
 31 32  1  0  0  0  0
 31 33  1  0  0  0  0
 33 34  1  0  0  0  0
 33 35  1  0  0  0  0
 33 36  1  0  0  0  0
M  CHG  1  20   1
M  END
$$$$

  -OEChem-04042215563D

 36 35  0     1  0  0  0  0  0999 V2000
   -1.9756   -5.8583    1.2729 H   0  0  0  0  0  0  0  0  0  0  0  0
   -2.3796   -4.9433    0.8295 C   0  0  0  0  0  0  0  0  0  0  0  0
   -3.1273   -4.5279    1.5090 H   0  0  0  0  0  0  0  0  0  0  0  0
   -2.8557   -5.1951   -0.1208 H   0  0  0  0  0  0  0  0  0  0  0  0
   -1.2644   -3.9413    0.6011 C   0  0  0  0  0  0  0  0  0  0  0  0
   -0.1076   -4.2669    0.7886 O   0  0  0  0  0  0  0  0  0  0  0  0
   -1.5582   -2.6577    0.1771 N   0  0  0  0  0  0  0  0  0  0  0  0
   -2.5405   -2.4065    0.1451 H   0  0  0  0  0  0  0  0  0  0  0  0
   -0.5476   -1.5817    0.1257 C   0  0  1  0  0  0  0  0  0  0  0  0
    0.2751   -1.9413   -0.5040 H   0  0  0  0  0  0  0  0  0  0  0  0
   -1.1090   -0.3133   -0.5394 C   0  0  0  0  0  0  0  0  0  0  0  0
   -1.9341    0.0743    0.0680 H   0  0  0  0  0  0  0  0  0  0  0  0
   -0.3258    0.4538   -0.5441 H   0  0  0  0  0  0  0  0  0  0  0  0
   -1.5701   -0.5523   -1.9902 C   0  0  0  0  0  0  0  0  0  0  0  0
   -0.9785    0.0900   -2.6513 H   0  0  0  0  0  0  0  0  0  0  0  0
   -1.3734   -1.5870   -2.2930 H   0  0  0  0  0  0  0  0  0  0  0  0
   -3.0574   -0.2414   -2.1631 C   0  0  0  0  0  0  0  0  0  0  0  0
   -3.6463   -0.9528   -1.5738 H   0  0  0  0  0  0  0  0  0  0  0  0
   -3.2775    0.7603   -1.7785 H   0  0  0  0  0  0  0  0  0  0  0  0
   -3.4334   -0.3401   -3.5873 N   0  3  0  0  0  0  0  0  0  0  0  0
   -3.7039   -1.2615   -3.9305 H   0  0  0  0  0  0  0  0  0  0  0  0
   -3.4339    0.6676   -4.4141 C   0  0  0  0  0  0  0  0  0  0  0  0
   -3.0510    1.9320   -4.0260 N   0  0  0  0  0  0  0  0  0  0  0  0
   -2.5991    2.0372   -3.1199 H   0  0  0  0  0  0  0  0  0  0  0  0
   -2.8457    2.6231   -4.7452 H   0  0  0  0  0  0  0  0  0  0  0  0
   -3.8184    0.4723   -5.7191 N   0  0  0  0  0  0  0  0  0  0  0  0
   -4.2615   -0.4079   -5.9757 H   0  0  0  0  0  0  0  0  0  0  0  0
   -4.0076    1.2887   -6.2982 H   0  0  0  0  0  0  0  0  0  0  0  0
    0.1056   -1.2367    1.4828 C   0  0  0  0  0  0  0  0  0  0  0  0
    1.2474   -0.8004    1.4915 O   0  0  0  0  0  0  0  0  0  0  0  0
   -0.6712   -1.1016    2.6207 N   0  0  0  0  0  0  0  0  0  0  0  0
   -1.5842   -1.5424    2.6054 H   0  0  0  0  0  0  0  0  0  0  0  0
   -0.1095   -0.7140    3.9112 C   0  0  0  0  0  0  0  0  0  0  0  0
    0.3621    0.2724    3.8450 H   0  0  0  0  0  0  0  0  0  0  0  0
   -0.8962   -0.6676    4.6707 H   0  0  0  0  0  0  0  0  0  0  0  0
    0.6432   -1.4410    4.2352 H   0  0  0  0  0  0  0  0  0  0  0  0
  1  2  1  0  0  0  0
  2  3  1  0  0  0  0
  2  4  1  0  0  0  0
  2  5  1  0  0  0  0
  5  6  2  0  0  0  0
  5  7  1  0  0  0  0
  7  8  1  0  0  0  0
  7  9  1  0  0  0  0
  9 10  1  0  0  0  0
  9 11  1  0  0  0  0
  9 29  1  0  0  0  0
 11 12  1  0  0  0  0
 11 13  1  0  0  0  0
 11 14  1  0  0  0  0
 14 15  1  0  0  0  0
 14 16  1  0  0  0  0
 14 17  1  0  0  0  0
 17 18  1  0  0  0  0
 17 19  1  0  0  0  0
 17 20  1  0  0  0  0
 20 21  1  0  0  0  0
 20 22  2  0  0  0  0
 22 23  1  0  0  0  0
 22 26  1  0  0  0  0
 23 24  1  0  0  0  0
 23 25  1  0  0  0  0
 26 27  1  0  0  0  0
 26 28  1  0  0  0  0
 29 30  2  0  0  0  0
 29 31  1  0  0  0  0
 31 32  1  0  0  0  0
 31 33  1  0  0  0  0
 33 34  1  0  0  0  0
 33 35  1  0  0  0  0
 33 36  1  0  0  0  0
M  CHG  1  20   1
M  END
$$$$

  -OEChem-04042215563D

 36 35  0     1  0  0  0  0  0999 V2000
   -2.5578   -5.7206    1.1144 H   0  0  0  0  0  0  0  0  0  0  0  0
   -2.8014   -4.7086    0.7767 C   0  0  0  0  0  0  0  0  0  0  0  0
   -3.4656   -4.2456    1.5100 H   0  0  0  0  0  0  0  0  0  0  0  0
   -3.3167   -4.7756   -0.1841 H   0  0  0  0  0  0  0  0  0  0  0  0
   -1.5319   -3.8913    0.6327 C   0  0  0  0  0  0  0  0  0  0  0  0
   -0.4583   -4.3816    0.9266 O   0  0  0  0  0  0  0  0  0  0  0  0
   -1.5903   -2.5918    0.1617 N   0  0  0  0  0  0  0  0  0  0  0  0
   -2.5161   -2.1987    0.0283 H   0  0  0  0  0  0  0  0  0  0  0  0
   -0.4234   -1.6852    0.1520 C   0  0  1  0  0  0  0  0  0  0  0  0
    0.3703   -2.1861   -0.4155 H   0  0  0  0  0  0  0  0  0  0  0  0
   -0.7345   -0.3630   -0.5720 C   0  0  0  0  0  0  0  0  0  0  0  0
   -1.5353    0.1459   -0.0244 H   0  0  0  0  0  0  0  0  0  0  0  0
    0.1467    0.2880   -0.5314 H   0  0  0  0  0  0  0  0  0  0  0  0
   -1.1397   -0.5587   -2.0459 C   0  0  0  0  0  0  0  0  0  0  0  0
   -0.2899   -0.2862   -2.6818 H   0  0  0  0  0  0  0  0  0  0  0  0
   -1.3709   -1.6101   -2.2474 H   0  0  0  0  0  0  0  0  0  0  0  0
   -2.3565    0.2958   -2.3972 C   0  0  0  0  0  0  0  0  0  0  0  0
   -3.2251   -0.0509   -1.8265 H   0  0  0  0  0  0  0  0  0  0  0  0
   -2.1495    1.3335   -2.1151 H   0  0  0  0  0  0  0  0  0  0  0  0
   -2.6259    0.2021   -3.8447 N   0  3  0  0  0  0  0  0  0  0  0  0
   -2.3100   -0.6428   -4.3201 H   0  0  0  0  0  0  0  0  0  0  0  0
   -3.2160    1.1341   -4.5378 C   0  0  0  0  0  0  0  0  0  0  0  0
   -3.6539    2.3058   -3.9628 N   0  0  0  0  0  0  0  0  0  0  0  0
   -3.3588    2.5110   -3.0107 H   0  0  0  0  0  0  0  0  0  0  0  0
   -3.8912    3.0887   -4.5692 H   0  0  0  0  0  0  0  0  0  0  0  0
   -3.4113    0.9543   -5.8867 N   0  0  0  0  0  0  0  0  0  0  0  0
   -3.2364    0.0380   -6.2954 H   0  0  0  0  0  0  0  0  0  0  0  0
   -4.0375    1.5886   -6.3802 H   0  0  0  0  0  0  0  0  0  0  0  0
    0.1893   -1.4001    1.5412 C   0  0  0  0  0  0  0  0  0  0  0  0
    1.3811   -1.1393    1.6174 O   0  0  0  0  0  0  0  0  0  0  0  0
   -0.6301   -1.1105    2.6187 N   0  0  0  0  0  0  0  0  0  0  0  0
   -1.5929   -1.4221    2.5544 H   0  0  0  0  0  0  0  0  0  0  0  0
   -0.1019   -0.7535    3.9319 C   0  0  0  0  0  0  0  0  0  0  0  0
    0.5189    0.1466    3.8652 H   0  0  0  0  0  0  0  0  0  0  0  0
   -0.9208   -0.5537    4.6297 H   0  0  0  0  0  0  0  0  0  0  0  0
    0.5066   -1.5703    4.3351 H   0  0  0  0  0  0  0  0  0  0  0  0
  1  2  1  0  0  0  0
  2  3  1  0  0  0  0
  2  4  1  0  0  0  0
  2  5  1  0  0  0  0
  5  6  2  0  0  0  0
  5  7  1  0  0  0  0
  7  8  1  0  0  0  0
  7  9  1  0  0  0  0
  9 10  1  0  0  0  0
  9 11  1  0  0  0  0
  9 29  1  0  0  0  0
 11 12  1  0  0  0  0
 11 13  1  0  0  0  0
 11 14  1  0  0  0  0
 14 15  1  0  0  0  0
 14 16  1  0  0  0  0
 14 17  1  0  0  0  0
 17 18  1  0  0  0  0
 17 19  1  0  0  0  0
 17 20  1  0  0  0  0
 20 21  1  0  0  0  0
 20 22  2  0  0  0  0
 22 23  1  0  0  0  0
 22 26  1  0  0  0  0
 23 24  1  0  0  0  0
 23 25  1  0  0  0  0
 26 27  1  0  0  0  0
 26 28  1  0  0  0  0
 29 30  2  0  0  0  0
 29 31  1  0  0  0  0
 31 32  1  0  0  0  0
 31 33  1  0  0  0  0
 33 34  1  0  0  0  0
 33 35  1  0  0  0  0
 33 36  1  0  0  0  0
M  CHG  1  20   1
M  END
$$$$

  -OEChem-04042215563D

 36 35  0     1  0  0  0  0  0999 V2000
   -2.5722   -5.7020    1.0927 H   0  0  0  0  0  0  0  0  0  0  0  0
   -2.8144   -4.6972    0.7338 C   0  0  0  0  0  0  0  0  0  0  0  0
   -3.5043   -4.2301    1.4406 H   0  0  0  0  0  0  0  0  0  0  0  0
   -3.2999   -4.7829   -0.2408 H   0  0  0  0  0  0  0  0  0  0  0  0
   -1.5484   -3.8704    0.6137 C   0  0  0  0  0  0  0  0  0  0  0  0
   -0.4751   -4.3546    0.9194 O   0  0  0  0  0  0  0  0  0  0  0  0
   -1.6093   -2.5682    0.1509 N   0  0  0  0  0  0  0  0  0  0  0  0
   -2.5348   -2.1818   -0.0044 H   0  0  0  0  0  0  0  0  0  0  0  0
   -0.4449   -1.6590    0.1385 C   0  0  1  0  0  0  0  0  0  0  0  0
    0.3456   -2.1580   -0.4349 H   0  0  0  0  0  0  0  0  0  0  0  0
   -0.7576   -0.3347   -0.5814 C   0  0  0  0  0  0  0  0  0  0  0  0
   -1.5656    0.1626   -0.0346 H   0  0  0  0  0  0  0  0  0  0  0  0
    0.1181    0.3237   -0.5380 H   0  0  0  0  0  0  0  0  0  0  0  0
   -1.1653   -0.5275   -2.0532 C   0  0  0  0  0  0  0  0  0  0  0  0
   -0.2616   -0.5252   -2.6731 H   0  0  0  0  0  0  0  0  0  0  0  0
   -1.6588   -1.4936   -2.1962 H   0  0  0  0  0  0  0  0  0  0  0  0
   -2.1221    0.5810   -2.4894 C   0  0  0  0  0  0  0  0  0  0  0  0
   -3.0652    0.4879   -1.9390 H   0  0  0  0  0  0  0  0  0  0  0  0
   -1.6728    1.5484   -2.2412 H   0  0  0  0  0  0  0  0  0  0  0  0
   -2.3673    0.4888   -3.9414 N   0  3  0  0  0  0  0  0  0  0  0  0
   -2.2651   -0.4302   -4.3707 H   0  0  0  0  0  0  0  0  0  0  0  0
   -2.6844    1.5064   -4.6906 C   0  0  0  0  0  0  0  0  0  0  0  0
   -2.8213    2.7767   -4.1775 N   0  0  0  0  0  0  0  0  0  0  0  0
   -2.5109    2.9424   -3.2225 H   0  0  0  0  0  0  0  0  0  0  0  0
   -2.8261    3.5651   -4.8219 H   0  0  0  0  0  0  0  0  0  0  0  0
   -2.8891    1.3208   -6.0373 N   0  0  0  0  0  0  0  0  0  0  0  0
   -2.9509    0.3724   -6.4027 H   0  0  0  0  0  0  0  0  0  0  0  0
   -3.3258    2.0695   -6.5725 H   0  0  0  0  0  0  0  0  0  0  0  0
    0.1769   -1.3794    1.5248 C   0  0  0  0  0  0  0  0  0  0  0  0
    1.3692   -1.1180    1.5924 O   0  0  0  0  0  0  0  0  0  0  0  0
   -0.6326   -1.0972    2.6116 N   0  0  0  0  0  0  0  0  0  0  0  0
   -1.5970   -1.4051    2.5525 H   0  0  0  0  0  0  0  0  0  0  0  0
   -0.0893   -0.7643    3.9249 C   0  0  0  0  0  0  0  0  0  0  0  0
    0.5211    0.1434    3.8696 H   0  0  0  0  0  0  0  0  0  0  0  0
   -0.8991   -0.5898    4.6398 H   0  0  0  0  0  0  0  0  0  0  0  0
    0.5342   -1.5830    4.3002 H   0  0  0  0  0  0  0  0  0  0  0  0
  1  2  1  0  0  0  0
  2  3  1  0  0  0  0
  2  4  1  0  0  0  0
  2  5  1  0  0  0  0
  5  6  2  0  0  0  0
  5  7  1  0  0  0  0
  7  8  1  0  0  0  0
  7  9  1  0  0  0  0
  9 10  1  0  0  0  0
  9 11  1  0  0  0  0
  9 29  1  0  0  0  0
 11 12  1  0  0  0  0
 11 13  1  0  0  0  0
 11 14  1  0  0  0  0
 14 15  1  0  0  0  0
 14 16  1  0  0  0  0
 14 17  1  0  0  0  0
 17 18  1  0  0  0  0
 17 19  1  0  0  0  0
 17 20  1  0  0  0  0
 20 21  1  0  0  0  0
 20 22  2  0  0  0  0
 22 23  1  0  0  0  0
 22 26  1  0  0  0  0
 23 24  1  0  0  0  0
 23 25  1  0  0  0  0
 26 27  1  0  0  0  0
 26 28  1  0  0  0  0
 29 30  2  0  0  0  0
 29 31  1  0  0  0  0
 31 32  1  0  0  0  0
 31 33  1  0  0  0  0
 33 34  1  0  0  0  0
 33 35  1  0  0  0  0
 33 36  1  0  0  0  0
M  CHG  1  20   1
M  END
$$$$

  -OEChem-04042215563D

 36 35  0     1  0  0  0  0  0999 V2000
   -2.8456   -5.5336    1.0401 H   0  0  0  0  0  0  0  0  0  0  0  0
   -3.0038   -4.5170    0.6680 C   0  0  0  0  0  0  0  0  0  0  0  0
   -3.6652   -3.9909    1.3602 H   0  0  0  0  0  0  0  0  0  0  0  0
   -3.4806   -4.5740   -0.3132 H   0  0  0  0  0  0  0  0  0  0  0  0
   -1.6758   -3.7920    0.5606 C   0  0  0  0  0  0  0  0  0  0  0  0
   -0.6461   -4.3599    0.8720 O   0  0  0  0  0  0  0  0  0  0  0  0
   -1.6306   -2.4865    0.1055 N   0  0  0  0  0  0  0  0  0  0  0  0
   -2.5230   -2.0284   -0.0500 H   0  0  0  0  0  0  0  0  0  0  0  0
   -0.4033   -1.6645    0.1282 C   0  0  1  0  0  0  0  0  0  0  0  0
    0.3630   -2.2179   -0.4279 H   0  0  0  0  0  0  0  0  0  0  0  0
   -0.6047   -0.3195   -0.5921 C   0  0  0  0  0  0  0  0  0  0  0  0
   -1.3889    0.2387   -0.0697 H   0  0  0  0  0  0  0  0  0  0  0  0
    0.3173    0.2701   -0.5281 H   0  0  0  0  0  0  0  0  0  0  0  0
   -0.9878   -0.4907   -2.0704 C   0  0  0  0  0  0  0  0  0  0  0  0
   -0.1019   -0.8109   -2.6302 H   0  0  0  0  0  0  0  0  0  0  0  0
   -1.7543   -1.2638   -2.1850 H   0  0  0  0  0  0  0  0  0  0  0  0
   -1.5261    0.8267   -2.6258 C   0  0  0  0  0  0  0  0  0  0  0  0
   -2.4697    1.0728   -2.1261 H   0  0  0  0  0  0  0  0  0  0  0  0
   -0.8025    1.6222   -2.4144 H   0  0  0  0  0  0  0  0  0  0  0  0
   -1.7303    0.7074   -4.0815 N   0  3  0  0  0  0  0  0  0  0  0  0
   -1.4666   -0.1765   -4.5158 H   0  0  0  0  0  0  0  0  0  0  0  0
   -2.1668    1.6777   -4.8323 C   0  0  0  0  0  0  0  0  0  0  0  0
   -2.4998    2.9074   -4.3106 N   0  0  0  0  0  0  0  0  0  0  0  0
   -2.2320    3.1055   -3.3487 H   0  0  0  0  0  0  0  0  0  0  0  0
   -2.6129    3.6939   -4.9474 H   0  0  0  0  0  0  0  0  0  0  0  0
   -2.3002    1.4787   -6.1860 N   0  0  0  0  0  0  0  0  0  0  0  0
   -2.2144    0.5344   -6.5576 H   0  0  0  0  0  0  0  0  0  0  0  0
   -2.8159    2.1651   -6.7341 H   0  0  0  0  0  0  0  0  0  0  0  0
    0.2027   -1.4379    1.5311 C   0  0  0  0  0  0  0  0  0  0  0  0
    1.4096   -1.2704    1.6311 O   0  0  0  0  0  0  0  0  0  0  0  0
   -0.6110   -1.1029    2.5994 N   0  0  0  0  0  0  0  0  0  0  0  0
   -1.5964   -1.3242    2.5081 H   0  0  0  0  0  0  0  0  0  0  0  0
   -0.0805   -0.8318    3.9316 C   0  0  0  0  0  0  0  0  0  0  0  0
    0.6063    0.0210    3.9060 H   0  0  0  0  0  0  0  0  0  0  0  0
   -0.8938   -0.5965    4.6246 H   0  0  0  0  0  0  0  0  0  0  0  0
    0.4592   -1.7050    4.3139 H   0  0  0  0  0  0  0  0  0  0  0  0
  1  2  1  0  0  0  0
  2  3  1  0  0  0  0
  2  4  1  0  0  0  0
  2  5  1  0  0  0  0
  5  6  2  0  0  0  0
  5  7  1  0  0  0  0
  7  8  1  0  0  0  0
  7  9  1  0  0  0  0
  9 10  1  0  0  0  0
  9 11  1  0  0  0  0
  9 29  1  0  0  0  0
 11 12  1  0  0  0  0
 11 13  1  0  0  0  0
 11 14  1  0  0  0  0
 14 15  1  0  0  0  0
 14 16  1  0  0  0  0
 14 17  1  0  0  0  0
 17 18  1  0  0  0  0
 17 19  1  0  0  0  0
 17 20  1  0  0  0  0
 20 21  1  0  0  0  0
 20 22  2  0  0  0  0
 22 23  1  0  0  0  0
 22 26  1  0  0  0  0
 23 24  1  0  0  0  0
 23 25  1  0  0  0  0
 26 27  1  0  0  0  0
 26 28  1  0  0  0  0
 29 30  2  0  0  0  0
 29 31  1  0  0  0  0
 31 32  1  0  0  0  0
 31 33  1  0  0  0  0
 33 34  1  0  0  0  0
 33 35  1  0  0  0  0
 33 36  1  0  0  0  0
M  CHG  1  20   1
M  END
$$$$

  -OEChem-04042215563D

 36 35  0     1  0  0  0  0  0999 V2000
   -2.8419   -5.5579    1.0923 H   0  0  0  0  0  0  0  0  0  0  0  0
   -3.0084   -4.5486    0.7039 C   0  0  0  0  0  0  0  0  0  0  0  0
   -3.6680   -4.0139    1.3912 H   0  0  0  0  0  0  0  0  0  0  0  0
   -3.4913   -4.6254   -0.2728 H   0  0  0  0  0  0  0  0  0  0  0  0
   -1.6854   -3.8178    0.5753 C   0  0  0  0  0  0  0  0  0  0  0  0
   -0.6496   -4.3777    0.8814 O   0  0  0  0  0  0  0  0  0  0  0  0
   -1.6530   -2.5142    0.1135 N   0  0  0  0  0  0  0  0  0  0  0  0
   -2.5500   -2.0612   -0.0270 H   0  0  0  0  0  0  0  0  0  0  0  0
   -0.4301   -1.6851    0.1261 C   0  0  1  0  0  0  0  0  0  0  0  0
    0.3281   -2.2497   -0.4301 H   0  0  0  0  0  0  0  0  0  0  0  0
   -0.6083   -0.3448   -0.6127 C   0  0  0  0  0  0  0  0  0  0  0  0
   -1.1854    0.3326    0.0261 H   0  0  0  0  0  0  0  0  0  0  0  0
    0.3804    0.1054   -0.7587 H   0  0  0  0  0  0  0  0  0  0  0  0
   -1.3175   -0.4692   -1.9688 C   0  0  0  0  0  0  0  0  0  0  0  0
   -0.7348   -1.1346   -2.6155 H   0  0  0  0  0  0  0  0  0  0  0  0
   -2.3167   -0.8984   -1.8485 H   0  0  0  0  0  0  0  0  0  0  0  0
   -1.4314    0.9185   -2.5993 C   0  0  0  0  0  0  0  0  0  0  0  0
   -2.0935    1.5388   -1.9849 H   0  0  0  0  0  0  0  0  0  0  0  0
   -0.4383    1.3822   -2.6141 H   0  0  0  0  0  0  0  0  0  0  0  0
   -1.9534    0.8196   -3.9750 N   0  3  0  0  0  0  0  0  0  0  0  0
   -2.0436   -0.1143   -4.3734 H   0  0  0  0  0  0  0  0  0  0  0  0
   -2.2218    1.8562   -4.7164 C   0  0  0  0  0  0  0  0  0  0  0  0
   -2.0645    3.1417   -4.2492 N   0  0  0  0  0  0  0  0  0  0  0  0
   -1.5692    3.2707   -3.3691 H   0  0  0  0  0  0  0  0  0  0  0  0
   -2.0508    3.9067   -4.9208 H   0  0  0  0  0  0  0  0  0  0  0  0
   -2.6705    1.6742   -6.0030 N   0  0  0  0  0  0  0  0  0  0  0  0
   -2.9503    0.7418   -6.3017 H   0  0  0  0  0  0  0  0  0  0  0  0
   -3.0545    2.4733   -6.5044 H   0  0  0  0  0  0  0  0  0  0  0  0
    0.1883   -1.4442    1.5206 C   0  0  0  0  0  0  0  0  0  0  0  0
    1.3929   -1.2544    1.6052 O   0  0  0  0  0  0  0  0  0  0  0  0
   -0.6186   -1.1063    2.5930 N   0  0  0  0  0  0  0  0  0  0  0  0
   -1.6006   -1.3484    2.5182 H   0  0  0  0  0  0  0  0  0  0  0  0
   -0.0795   -0.7844    3.9107 C   0  0  0  0  0  0  0  0  0  0  0  0
    0.5851    0.0844    3.8525 H   0  0  0  0  0  0  0  0  0  0  0  0
   -0.8905   -0.5497    4.6069 H   0  0  0  0  0  0  0  0  0  0  0  0
    0.4869   -1.6326    4.3106 H   0  0  0  0  0  0  0  0  0  0  0  0
  1  2  1  0  0  0  0
  2  3  1  0  0  0  0
  2  4  1  0  0  0  0
  2  5  1  0  0  0  0
  5  6  2  0  0  0  0
  5  7  1  0  0  0  0
  7  8  1  0  0  0  0
  7  9  1  0  0  0  0
  9 10  1  0  0  0  0
  9 11  1  0  0  0  0
  9 29  1  0  0  0  0
 11 12  1  0  0  0  0
 11 13  1  0  0  0  0
 11 14  1  0  0  0  0
 14 15  1  0  0  0  0
 14 16  1  0  0  0  0
 14 17  1  0  0  0  0
 17 18  1  0  0  0  0
 17 19  1  0  0  0  0
 17 20  1  0  0  0  0
 20 21  1  0  0  0  0
 20 22  2  0  0  0  0
 22 23  1  0  0  0  0
 22 26  1  0  0  0  0
 23 24  1  0  0  0  0
 23 25  1  0  0  0  0
 26 27  1  0  0  0  0
 26 28  1  0  0  0  0
 29 30  2  0  0  0  0
 29 31  1  0  0  0  0
 31 32  1  0  0  0  0
 31 33  1  0  0  0  0
 33 34  1  0  0  0  0
 33 35  1  0  0  0  0
 33 36  1  0  0  0  0
M  CHG  1  20   1
M  END
$$$$

  -OEChem-04042215563D

 36 35  0     1  0  0  0  0  0999 V2000
   -2.8849   -5.5121    1.0716 H   0  0  0  0  0  0  0  0  0  0  0  0
   -3.0324   -4.5073    0.6644 C   0  0  0  0  0  0  0  0  0  0  0  0
   -3.6996   -3.9555    1.3305 H   0  0  0  0  0  0  0  0  0  0  0  0
   -3.4969   -4.5938   -0.3204 H   0  0  0  0  0  0  0  0  0  0  0  0
   -1.6995   -3.7926    0.5508 C   0  0  0  0  0  0  0  0  0  0  0  0
   -0.6743   -4.3651    0.8690 O   0  0  0  0  0  0  0  0  0  0  0  0
   -1.6455   -2.4900    0.0883 N   0  0  0  0  0  0  0  0  0  0  0  0
   -2.5344   -2.0247   -0.0635 H   0  0  0  0  0  0  0  0  0  0  0  0
   -0.4128   -1.6770    0.1179 C   0  0  1  0  0  0  0  0  0  0  0  0
    0.3463   -2.2483   -0.4300 H   0  0  0  0  0  0  0  0  0  0  0  0
   -0.5775   -0.3370   -0.6210 C   0  0  0  0  0  0  0  0  0  0  0  0
   -1.1471    0.3578    0.0057 H   0  0  0  0  0  0  0  0  0  0  0  0
    0.4211    0.0922   -0.7639 H   0  0  0  0  0  0  0  0  0  0  0  0
   -1.2773   -0.4703   -1.9804 C   0  0  0  0  0  0  0  0  0  0  0  0
   -0.8473   -1.3180   -2.5261 H   0  0  0  0  0  0  0  0  0  0  0  0
   -2.3473   -0.6560   -1.8439 H   0  0  0  0  0  0  0  0  0  0  0  0
   -1.0594    0.8140   -2.7786 C   0  0  0  0  0  0  0  0  0  0  0  0
   -1.5336    1.6478   -2.2490 H   0  0  0  0  0  0  0  0  0  0  0  0
    0.0164    1.0124   -2.8429 H   0  0  0  0  0  0  0  0  0  0  0  0
   -1.6231    0.6845   -4.1347 N   0  3  0  0  0  0  0  0  0  0  0  0
   -1.9392   -0.2407   -4.4227 H   0  0  0  0  0  0  0  0  0  0  0  0
   -1.6671    1.6677   -4.9876 C   0  0  0  0  0  0  0  0  0  0  0  0
   -1.2001    2.9234   -4.6715 N   0  0  0  0  0  0  0  0  0  0  0  0
   -0.6586    3.0277   -3.8157 H   0  0  0  0  0  0  0  0  0  0  0  0
   -1.0312    3.5851   -5.4265 H   0  0  0  0  0  0  0  0  0  0  0  0
   -2.1876    1.4574   -6.2421 N   0  0  0  0  0  0  0  0  0  0  0  0
   -2.6886    0.5911   -6.4295 H   0  0  0  0  0  0  0  0  0  0  0  0
   -2.3944    2.2660   -6.8259 H   0  0  0  0  0  0  0  0  0  0  0  0
    0.1904   -1.4418    1.5201 C   0  0  0  0  0  0  0  0  0  0  0  0
    1.3971   -1.2719    1.6204 O   0  0  0  0  0  0  0  0  0  0  0  0
   -0.6257   -1.0919    2.5817 N   0  0  0  0  0  0  0  0  0  0  0  0
   -1.6125   -1.3076    2.4904 H   0  0  0  0  0  0  0  0  0  0  0  0
   -0.1008   -0.7808    3.9074 C   0  0  0  0  0  0  0  0  0  0  0  0
    0.5846    0.0720    3.8588 H   0  0  0  0  0  0  0  0  0  0  0  0
   -0.9174   -0.5260    4.5896 H   0  0  0  0  0  0  0  0  0  0  0  0
    0.4389   -1.6410    4.3179 H   0  0  0  0  0  0  0  0  0  0  0  0
  1  2  1  0  0  0  0
  2  3  1  0  0  0  0
  2  4  1  0  0  0  0
  2  5  1  0  0  0  0
  5  6  2  0  0  0  0
  5  7  1  0  0  0  0
  7  8  1  0  0  0  0
  7  9  1  0  0  0  0
  9 10  1  0  0  0  0
  9 11  1  0  0  0  0
  9 29  1  0  0  0  0
 11 12  1  0  0  0  0
 11 13  1  0  0  0  0
 11 14  1  0  0  0  0
 14 15  1  0  0  0  0
 14 16  1  0  0  0  0
 14 17  1  0  0  0  0
 17 18  1  0  0  0  0
 17 19  1  0  0  0  0
 17 20  1  0  0  0  0
 20 21  1  0  0  0  0
 20 22  2  0  0  0  0
 22 23  1  0  0  0  0
 22 26  1  0  0  0  0
 23 24  1  0  0  0  0
 23 25  1  0  0  0  0
 26 27  1  0  0  0  0
 26 28  1  0  0  0  0
 29 30  2  0  0  0  0
 29 31  1  0  0  0  0
 31 32  1  0  0  0  0
 31 33  1  0  0  0  0
 33 34  1  0  0  0  0
 33 35  1  0  0  0  0
 33 36  1  0  0  0  0
M  CHG  1  20   1
M  END
$$$$

  -OEChem-04042215563D

 36 35  0     1  0  0  0  0  0999 V2000
   -2.9077   -5.4859    1.0697 H   0  0  0  0  0  0  0  0  0  0  0  0
   -3.0461   -4.4862    0.6473 C   0  0  0  0  0  0  0  0  0  0  0  0
   -3.7190   -3.9225    1.2973 H   0  0  0  0  0  0  0  0  0  0  0  0
   -3.4992   -4.5837   -0.3419 H   0  0  0  0  0  0  0  0  0  0  0  0
   -1.7081   -3.7799    0.5401 C   0  0  0  0  0  0  0  0  0  0  0  0
   -0.6870   -4.3615    0.8551 O   0  0  0  0  0  0  0  0  0  0  0  0
   -1.6424   -2.4777    0.0778 N   0  0  0  0  0  0  0  0  0  0  0  0
   -2.5274   -2.0047   -0.0748 H   0  0  0  0  0  0  0  0  0  0  0  0
   -0.4043   -1.6727    0.1155 C   0  0  1  0  0  0  0  0  0  0  0  0
    0.3552   -2.2490   -0.4269 H   0  0  0  0  0  0  0  0  0  0  0  0
   -0.5609   -0.3340   -0.6274 C   0  0  0  0  0  0  0  0  0  0  0  0
   -1.1270    0.3700   -0.0080 H   0  0  0  0  0  0  0  0  0  0  0  0
    0.4431    0.0854   -0.7612 H   0  0  0  0  0  0  0  0  0  0  0  0
   -1.2552   -0.4707   -1.9927 C   0  0  0  0  0  0  0  0  0  0  0  0
   -1.0197   -1.4494   -2.4264 H   0  0  0  0  0  0  0  0  0  0  0  0
   -2.3414   -0.4008   -1.8731 H   0  0  0  0  0  0  0  0  0  0  0  0
   -0.7394    0.6184   -2.9336 C   0  0  0  0  0  0  0  0  0  0  0  0
   -0.9880    1.5993   -2.5132 H   0  0  0  0  0  0  0  0  0  0  0  0
    0.3516    0.5387   -3.0032 H   0  0  0  0  0  0  0  0  0  0  0  0
   -1.3362    0.4751   -4.2743 N   0  3  0  0  0  0  0  0  0  0  0  0
   -1.8756   -0.3698   -4.4574 H   0  0  0  0  0  0  0  0  0  0  0  0
   -1.1541    1.3364   -5.2340 C   0  0  0  0  0  0  0  0  0  0  0  0
   -0.3881    2.4666   -5.0580 N   0  0  0  0  0  0  0  0  0  0  0  0
    0.1786    2.5305   -4.2144 H   0  0  0  0  0  0  0  0  0  0  0  0
   -0.0763    2.9776   -5.8814 H   0  0  0  0  0  0  0  0  0  0  0  0
   -1.7327    1.1206   -6.4620 N   0  0  0  0  0  0  0  0  0  0  0  0
   -2.4356    0.3898   -6.5543 H   0  0  0  0  0  0  0  0  0  0  0  0
   -1.7459    1.8852   -7.1348 H   0  0  0  0  0  0  0  0  0  0  0  0
    0.1922   -1.4404    1.5207 C   0  0  0  0  0  0  0  0  0  0  0  0
    1.4000   -1.2833    1.6274 O   0  0  0  0  0  0  0  0  0  0  0  0
   -0.6269   -1.0842    2.5779 N   0  0  0  0  0  0  0  0  0  0  0  0
   -1.6161   -1.2852    2.4787 H   0  0  0  0  0  0  0  0  0  0  0  0
   -0.1069   -0.7802    3.9075 C   0  0  0  0  0  0  0  0  0  0  0  0
    0.5934    0.0610    3.8640 H   0  0  0  0  0  0  0  0  0  0  0  0
   -0.9244   -0.5107    4.5833 H   0  0  0  0  0  0  0  0  0  0  0  0
    0.4152   -1.6493    4.3223 H   0  0  0  0  0  0  0  0  0  0  0  0
  1  2  1  0  0  0  0
  2  3  1  0  0  0  0
  2  4  1  0  0  0  0
  2  5  1  0  0  0  0
  5  6  2  0  0  0  0
  5  7  1  0  0  0  0
  7  8  1  0  0  0  0
  7  9  1  0  0  0  0
  9 10  1  0  0  0  0
  9 11  1  0  0  0  0
  9 29  1  0  0  0  0
 11 12  1  0  0  0  0
 11 13  1  0  0  0  0
 11 14  1  0  0  0  0
 14 15  1  0  0  0  0
 14 16  1  0  0  0  0
 14 17  1  0  0  0  0
 17 18  1  0  0  0  0
 17 19  1  0  0  0  0
 17 20  1  0  0  0  0
 20 21  1  0  0  0  0
 20 22  2  0  0  0  0
 22 23  1  0  0  0  0
 22 26  1  0  0  0  0
 23 24  1  0  0  0  0
 23 25  1  0  0  0  0
 26 27  1  0  0  0  0
 26 28  1  0  0  0  0
 29 30  2  0  0  0  0
 29 31  1  0  0  0  0
 31 32  1  0  0  0  0
 31 33  1  0  0  0  0
 33 34  1  0  0  0  0
 33 35  1  0  0  0  0
 33 36  1  0  0  0  0
M  CHG  1  20   1
M  END
$$$$

  -OEChem-04042215563D

 36 35  0     1  0  0  0  0  0999 V2000
   -2.9087   -5.4860    1.1034 H   0  0  0  0  0  0  0  0  0  0  0  0
   -3.0528   -4.4889    0.6769 C   0  0  0  0  0  0  0  0  0  0  0  0
   -3.7134   -3.9197    1.3349 H   0  0  0  0  0  0  0  0  0  0  0  0
   -3.5227   -4.5925   -0.3037 H   0  0  0  0  0  0  0  0  0  0  0  0
   -1.7160   -3.7849    0.5424 C   0  0  0  0  0  0  0  0  0  0  0  0
   -0.6895   -4.3676    0.8380 O   0  0  0  0  0  0  0  0  0  0  0  0
   -1.6568   -2.4833    0.0776 N   0  0  0  0  0  0  0  0  0  0  0  0
   -2.5446   -2.0091   -0.0556 H   0  0  0  0  0  0  0  0  0  0  0  0
   -0.4191   -1.6767    0.1054 C   0  0  1  0  0  0  0  0  0  0  0  0
    0.3362   -2.2562   -0.4394 H   0  0  0  0  0  0  0  0  0  0  0  0
   -0.5751   -0.3417   -0.6456 C   0  0  0  0  0  0  0  0  0  0  0  0
   -1.1448    0.3603   -0.0272 H   0  0  0  0  0  0  0  0  0  0  0  0
    0.4275    0.0840   -0.7699 H   0  0  0  0  0  0  0  0  0  0  0  0
   -1.2716   -0.4715   -2.0143 C   0  0  0  0  0  0  0  0  0  0  0  0
   -1.2759   -1.5184   -2.3377 H   0  0  0  0  0  0  0  0  0  0  0  0
   -2.3103   -0.1321   -1.9410 H   0  0  0  0  0  0  0  0  0  0  0  0
   -0.5028    0.3499   -3.0505 C   0  0  0  0  0  0  0  0  0  0  0  0
   -0.5097    1.4022   -2.7448 H   0  0  0  0  0  0  0  0  0  0  0  0
    0.5368    0.0037   -3.0740 H   0  0  0  0  0  0  0  0  0  0  0  0
   -1.1049    0.2084   -4.3889 N   0  3  0  0  0  0  0  0  0  0  0  0
   -1.8439   -0.4845   -4.4986 H   0  0  0  0  0  0  0  0  0  0  0  0
   -0.6997    0.8809   -5.4283 C   0  0  0  0  0  0  0  0  0  0  0  0
    0.3280    1.7932   -5.3455 N   0  0  0  0  0  0  0  0  0  0  0  0
    0.8813    1.8104   -4.4909 H   0  0  0  0  0  0  0  0  0  0  0  0
    0.7688    2.1121   -6.2060 H   0  0  0  0  0  0  0  0  0  0  0  0
   -1.3034    0.6812   -6.6469 N   0  0  0  0  0  0  0  0  0  0  0  0
   -2.1704    0.1491   -6.6857 H   0  0  0  0  0  0  0  0  0  0  0  0
   -1.1149    1.3434   -7.3976 H   0  0  0  0  0  0  0  0  0  0  0  0
    0.1899   -1.4397    1.5045 C   0  0  0  0  0  0  0  0  0  0  0  0
    1.3994   -1.2869    1.5991 O   0  0  0  0  0  0  0  0  0  0  0  0
   -0.6177   -1.0818    2.5697 N   0  0  0  0  0  0  0  0  0  0  0  0
   -1.6092   -1.2758    2.4794 H   0  0  0  0  0  0  0  0  0  0  0  0
   -0.0843   -0.7749    3.8932 C   0  0  0  0  0  0  0  0  0  0  0  0
    0.6183    0.0636    3.8401 H   0  0  0  0  0  0  0  0  0  0  0  0
   -0.8942   -0.5002    4.5756 H   0  0  0  0  0  0  0  0  0  0  0  0
    0.4383   -1.6442    4.3063 H   0  0  0  0  0  0  0  0  0  0  0  0
  1  2  1  0  0  0  0
  2  3  1  0  0  0  0
  2  4  1  0  0  0  0
  2  5  1  0  0  0  0
  5  6  2  0  0  0  0
  5  7  1  0  0  0  0
  7  8  1  0  0  0  0
  7  9  1  0  0  0  0
  9 10  1  0  0  0  0
  9 11  1  0  0  0  0
  9 29  1  0  0  0  0
 11 12  1  0  0  0  0
 11 13  1  0  0  0  0
 11 14  1  0  0  0  0
 14 15  1  0  0  0  0
 14 16  1  0  0  0  0
 14 17  1  0  0  0  0
 17 18  1  0  0  0  0
 17 19  1  0  0  0  0
 17 20  1  0  0  0  0
 20 21  1  0  0  0  0
 20 22  2  0  0  0  0
 22 23  1  0  0  0  0
 22 26  1  0  0  0  0
 23 24  1  0  0  0  0
 23 25  1  0  0  0  0
 26 27  1  0  0  0  0
 26 28  1  0  0  0  0
 29 30  2  0  0  0  0
 29 31  1  0  0  0  0
 31 32  1  0  0  0  0
 31 33  1  0  0  0  0
 33 34  1  0  0  0  0
 33 35  1  0  0  0  0
 33 36  1  0  0  0  0
M  CHG  1  20   1
M  END
$$$$

  -OEChem-04042215563D

 36 35  0     1  0  0  0  0  0999 V2000
   -2.9211   -5.4743    1.1465 H   0  0  0  0  0  0  0  0  0  0  0  0
   -3.0632   -4.4851    0.7011 C   0  0  0  0  0  0  0  0  0  0  0  0
   -3.7238   -3.9028    1.3478 H   0  0  0  0  0  0  0  0  0  0  0  0
   -3.5328   -4.6065   -0.2778 H   0  0  0  0  0  0  0  0  0  0  0  0
   -1.7254   -3.7856    0.5537 C   0  0  0  0  0  0  0  0  0  0  0  0
   -0.6977   -4.3711    0.8393 O   0  0  0  0  0  0  0  0  0  0  0  0
   -1.6683   -2.4852    0.0860 N   0  0  0  0  0  0  0  0  0  0  0  0
   -2.5570   -2.0083   -0.0320 H   0  0  0  0  0  0  0  0  0  0  0  0
   -0.4301   -1.6792    0.1000 C   0  0  1  0  0  0  0  0  0  0  0  0
    0.3191   -2.2651   -0.4456 H   0  0  0  0  0  0  0  0  0  0  0  0
   -0.5779   -0.3475   -0.6619 C   0  0  0  0  0  0  0  0  0  0  0  0
   -1.1606    0.3420   -0.0412 H   0  0  0  0  0  0  0  0  0  0  0  0
    0.4181    0.0964   -0.7746 H   0  0  0  0  0  0  0  0  0  0  0  0
   -1.2754   -0.4638   -2.0344 C   0  0  0  0  0  0  0  0  0  0  0  0
   -1.5600   -1.4993   -2.2469 H   0  0  0  0  0  0  0  0  0  0  0  0
   -2.1856    0.1455   -2.0357 H   0  0  0  0  0  0  0  0  0  0  0  0
   -0.3197    0.0207   -3.1267 C   0  0  0  0  0  0  0  0  0  0  0  0
   -0.0620    1.0678   -2.9326 H   0  0  0  0  0  0  0  0  0  0  0  0
    0.5989   -0.5752   -3.0807 H   0  0  0  0  0  0  0  0  0  0  0  0
   -0.9320   -0.1096   -4.4619 N   0  3  0  0  0  0  0  0  0  0  0  0
   -1.8278   -0.5915   -4.5206 H   0  0  0  0  0  0  0  0  0  0  0  0
   -0.3631    0.3161   -5.5539 C   0  0  0  0  0  0  0  0  0  0  0  0
    0.8642    0.9401   -5.5369 N   0  0  0  0  0  0  0  0  0  0  0  0
    1.3998    0.9164   -4.6711 H   0  0  0  0  0  0  0  0  0  0  0  0
    1.3741    1.0432   -6.4121 H   0  0  0  0  0  0  0  0  0  0  0  0
   -0.9938    0.1416   -6.7628 N   0  0  0  0  0  0  0  0  0  0  0  0
   -1.9673   -0.1558   -6.7724 H   0  0  0  0  0  0  0  0  0  0  0  0
   -0.6400    0.6462   -7.5738 H   0  0  0  0  0  0  0  0  0  0  0  0
    0.1899   -1.4414    1.4940 C   0  0  0  0  0  0  0  0  0  0  0  0
    1.4012   -1.2972    1.5798 O   0  0  0  0  0  0  0  0  0  0  0  0
   -0.6085   -1.0819    2.5654 N   0  0  0  0  0  0  0  0  0  0  0  0
   -1.6013   -1.2712    2.4813 H   0  0  0  0  0  0  0  0  0  0  0  0
   -0.0649   -0.7879    3.8877 C   0  0  0  0  0  0  0  0  0  0  0  0
    0.6495    0.0409    3.8352 H   0  0  0  0  0  0  0  0  0  0  0  0
   -0.8682   -0.5048    4.5749 H   0  0  0  0  0  0  0  0  0  0  0  0
    0.4468   -1.6663    4.2954 H   0  0  0  0  0  0  0  0  0  0  0  0
  1  2  1  0  0  0  0
  2  3  1  0  0  0  0
  2  4  1  0  0  0  0
  2  5  1  0  0  0  0
  5  6  2  0  0  0  0
  5  7  1  0  0  0  0
  7  8  1  0  0  0  0
  7  9  1  0  0  0  0
  9 10  1  0  0  0  0
  9 11  1  0  0  0  0
  9 29  1  0  0  0  0
 11 12  1  0  0  0  0
 11 13  1  0  0  0  0
 11 14  1  0  0  0  0
 14 15  1  0  0  0  0
 14 16  1  0  0  0  0
 14 17  1  0  0  0  0
 17 18  1  0  0  0  0
 17 19  1  0  0  0  0
 17 20  1  0  0  0  0
 20 21  1  0  0  0  0
 20 22  2  0  0  0  0
 22 23  1  0  0  0  0
 22 26  1  0  0  0  0
 23 24  1  0  0  0  0
 23 25  1  0  0  0  0
 26 27  1  0  0  0  0
 26 28  1  0  0  0  0
 29 30  2  0  0  0  0
 29 31  1  0  0  0  0
 31 32  1  0  0  0  0
 31 33  1  0  0  0  0
 33 34  1  0  0  0  0
 33 35  1  0  0  0  0
 33 36  1  0  0  0  0
M  CHG  1  20   1
M  END
$$$$

  -OEChem-04042215563D

 36 35  0     1  0  0  0  0  0999 V2000
   -2.8984   -5.4932    1.1421 H   0  0  0  0  0  0  0  0  0  0  0  0
   -3.0610   -4.4855    0.7482 C   0  0  0  0  0  0  0  0  0  0  0  0
   -3.6641   -3.9238    1.4653 H   0  0  0  0  0  0  0  0  0  0  0  0
   -3.6042   -4.5623   -0.1964 H   0  0  0  0  0  0  0  0  0  0  0  0
   -1.7295   -3.7923    0.5299 C   0  0  0  0  0  0  0  0  0  0  0  0
   -0.6899   -4.3871    0.7459 O   0  0  0  0  0  0  0  0  0  0  0  0
   -1.6919   -2.4869    0.0743 N   0  0  0  0  0  0  0  0  0  0  0  0
   -2.5852   -2.0064    0.0215 H   0  0  0  0  0  0  0  0  0  0  0  0
   -0.4587   -1.6735    0.0806 C   0  0  1  0  0  0  0  0  0  0  0  0
    0.2856   -2.2552   -0.4762 H   0  0  0  0  0  0  0  0  0  0  0  0
   -0.6069   -0.3398   -0.6789 C   0  0  0  0  0  0  0  0  0  0  0  0
   -1.2044    0.3311   -0.0520 H   0  0  0  0  0  0  0  0  0  0  0  0
    0.3798    0.1266   -0.7830 H   0  0  0  0  0  0  0  0  0  0  0  0
   -1.3057   -0.4454   -2.0512 C   0  0  0  0  0  0  0  0  0  0  0  0
   -1.8528   -1.3859   -2.1634 H   0  0  0  0  0  0  0  0  0  0  0  0
   -2.0252    0.3744   -2.1526 H   0  0  0  0  0  0  0  0  0  0  0  0
   -0.2444   -0.3236   -3.1460 C   0  0  0  0  0  0  0  0  0  0  0  0
    0.2588    0.6446   -3.0446 H   0  0  0  0  0  0  0  0  0  0  0  0
    0.4995   -1.1155   -3.0028 H   0  0  0  0  0  0  0  0  0  0  0  0
   -0.8420   -0.4385   -4.4886 N   0  3  0  0  0  0  0  0  0  0  0  0
   -1.8404   -0.6351   -4.5431 H   0  0  0  0  0  0  0  0  0  0  0  0
   -0.1484   -0.3296   -5.5861 C   0  0  0  0  0  0  0  0  0  0  0  0
    1.2090   -0.0997   -5.5658 N   0  0  0  0  0  0  0  0  0  0  0  0
    1.6942   -0.1845   -4.6745 H   0  0  0  0  0  0  0  0  0  0  0  0
    1.7448   -0.2505   -6.4181 H   0  0  0  0  0  0  0  0  0  0  0  0
   -0.7746   -0.4473   -6.8041 N   0  0  0  0  0  0  0  0  0  0  0  0
   -1.7921   -0.4363   -6.8369 H   0  0  0  0  0  0  0  0  0  0  0  0
   -0.2669   -0.1625   -7.6401 H   0  0  0  0  0  0  0  0  0  0  0  0
    0.1812   -1.4443    1.4669 C   0  0  0  0  0  0  0  0  0  0  0  0
    1.3943   -1.3061    1.5349 O   0  0  0  0  0  0  0  0  0  0  0  0
   -0.5982   -1.0990    2.5571 N   0  0  0  0  0  0  0  0  0  0  0  0
   -1.5956   -1.2690    2.4862 H   0  0  0  0  0  0  0  0  0  0  0  0
   -0.0308   -0.8054    3.8696 C   0  0  0  0  0  0  0  0  0  0  0  0
    0.6572    0.0448    3.8097 H   0  0  0  0  0  0  0  0  0  0  0  0
   -0.8242   -0.5551    4.5804 H   0  0  0  0  0  0  0  0  0  0  0  0
    0.5169   -1.6732    4.2527 H   0  0  0  0  0  0  0  0  0  0  0  0
  1  2  1  0  0  0  0
  2  3  1  0  0  0  0
  2  4  1  0  0  0  0
  2  5  1  0  0  0  0
  5  6  2  0  0  0  0
  5  7  1  0  0  0  0
  7  8  1  0  0  0  0
  7  9  1  0  0  0  0
  9 10  1  0  0  0  0
  9 11  1  0  0  0  0
  9 29  1  0  0  0  0
 11 12  1  0  0  0  0
 11 13  1  0  0  0  0
 11 14  1  0  0  0  0
 14 15  1  0  0  0  0
 14 16  1  0  0  0  0
 14 17  1  0  0  0  0
 17 18  1  0  0  0  0
 17 19  1  0  0  0  0
 17 20  1  0  0  0  0
 20 21  1  0  0  0  0
 20 22  2  0  0  0  0
 22 23  1  0  0  0  0
 22 26  1  0  0  0  0
 23 24  1  0  0  0  0
 23 25  1  0  0  0  0
 26 27  1  0  0  0  0
 26 28  1  0  0  0  0
 29 30  2  0  0  0  0
 29 31  1  0  0  0  0
 31 32  1  0  0  0  0
 31 33  1  0  0  0  0
 33 34  1  0  0  0  0
 33 35  1  0  0  0  0
 33 36  1  0  0  0  0
M  CHG  1  20   1
M  END
$$$$

  -OEChem-04042215563D

 36 35  0     1  0  0  0  0  0999 V2000
   -2.8361   -5.5474    0.9883 H   0  0  0  0  0  0  0  0  0  0  0  0
   -3.0148   -4.4977    0.7368 C   0  0  0  0  0  0  0  0  0  0  0  0
   -3.5353   -4.0219    1.5712 H   0  0  0  0  0  0  0  0  0  0  0  0
   -3.6467   -4.4542   -0.1531 H   0  0  0  0  0  0  0  0  0  0  0  0
   -1.6960   -3.7946    0.4778 C   0  0  0  0  0  0  0  0  0  0  0  0
   -0.6463   -4.3902    0.6362 O   0  0  0  0  0  0  0  0  0  0  0  0
   -1.6796   -2.4815    0.0427 N   0  0  0  0  0  0  0  0  0  0  0  0
   -2.5773   -2.0060    0.0385 H   0  0  0  0  0  0  0  0  0  0  0  0
   -0.4558   -1.6545    0.0677 C   0  0  1  0  0  0  0  0  0  0  0  0
    0.2974   -2.2205   -0.4927 H   0  0  0  0  0  0  0  0  0  0  0  0
   -0.6108   -0.3116   -0.6735 C   0  0  0  0  0  0  0  0  0  0  0  0
   -1.2214    0.3438   -0.0428 H   0  0  0  0  0  0  0  0  0  0  0  0
    0.3698    0.1689   -0.7709 H   0  0  0  0  0  0  0  0  0  0  0  0
   -1.2984   -0.4118   -2.0484 C   0  0  0  0  0  0  0  0  0  0  0  0
   -2.0534   -1.2023   -2.0792 H   0  0  0  0  0  0  0  0  0  0  0  0
   -1.8038    0.5370   -2.2588 H   0  0  0  0  0  0  0  0  0  0  0  0
   -0.2213   -0.6471   -3.1083 C   0  0  0  0  0  0  0  0  0  0  0  0
    0.5077    0.1700   -3.0632 H   0  0  0  0  0  0  0  0  0  0  0  0
    0.2973   -1.5842   -2.8771 H   0  0  0  0  0  0  0  0  0  0  0  0
   -0.8087   -0.7177   -4.4584 N   0  3  0  0  0  0  0  0  0  0  0  0
   -1.7995   -0.4992   -4.5505 H   0  0  0  0  0  0  0  0  0  0  0  0
   -0.1182   -1.0226   -5.5202 C   0  0  0  0  0  0  0  0  0  0  0  0
    1.2215   -1.3333   -5.4509 N   0  0  0  0  0  0  0  0  0  0  0  0
    1.6325   -1.4794   -4.5306 H   0  0  0  0  0  0  0  0  0  0  0  0
    1.6630   -1.7847   -6.2496 H   0  0  0  0  0  0  0  0  0  0  0  0
   -0.7312   -1.0382   -6.7503 N   0  0  0  0  0  0  0  0  0  0  0  0
   -1.6606   -0.6326   -6.8400 H   0  0  0  0  0  0  0  0  0  0  0  0
   -0.1444   -1.0730   -7.5822 H   0  0  0  0  0  0  0  0  0  0  0  0
    0.1753   -1.4414    1.4601 C   0  0  0  0  0  0  0  0  0  0  0  0
    1.3876   -1.3039    1.5379 O   0  0  0  0  0  0  0  0  0  0  0  0
   -0.6124   -1.1230    2.5524 N   0  0  0  0  0  0  0  0  0  0  0  0
   -1.6124   -1.2684    2.4676 H   0  0  0  0  0  0  0  0  0  0  0  0
   -0.0562   -0.8151    3.8659 C   0  0  0  0  0  0  0  0  0  0  0  0
    0.5977    0.0619    3.8096 H   0  0  0  0  0  0  0  0  0  0  0  0
   -0.8584   -0.6002    4.5787 H   0  0  0  0  0  0  0  0  0  0  0  0
    0.5257   -1.6628    4.2437 H   0  0  0  0  0  0  0  0  0  0  0  0
  1  2  1  0  0  0  0
  2  3  1  0  0  0  0
  2  4  1  0  0  0  0
  2  5  1  0  0  0  0
  5  6  2  0  0  0  0
  5  7  1  0  0  0  0
  7  8  1  0  0  0  0
  7  9  1  0  0  0  0
  9 10  1  0  0  0  0
  9 11  1  0  0  0  0
  9 29  1  0  0  0  0
 11 12  1  0  0  0  0
 11 13  1  0  0  0  0
 11 14  1  0  0  0  0
 14 15  1  0  0  0  0
 14 16  1  0  0  0  0
 14 17  1  0  0  0  0
 17 18  1  0  0  0  0
 17 19  1  0  0  0  0
 17 20  1  0  0  0  0
 20 21  1  0  0  0  0
 20 22  2  0  0  0  0
 22 23  1  0  0  0  0
 22 26  1  0  0  0  0
 23 24  1  0  0  0  0
 23 25  1  0  0  0  0
 26 27  1  0  0  0  0
 26 28  1  0  0  0  0
 29 30  2  0  0  0  0
 29 31  1  0  0  0  0
 31 32  1  0  0  0  0
 31 33  1  0  0  0  0
 33 34  1  0  0  0  0
 33 35  1  0  0  0  0
 33 36  1  0  0  0  0
M  CHG  1  20   1
M  END
$$$$

  -OEChem-04042215563D

 36 35  0     1  0  0  0  0  0999 V2000
   -2.8555   -5.5172    1.0116 H   0  0  0  0  0  0  0  0  0  0  0  0
   -3.0270   -4.4686    0.7510 C   0  0  0  0  0  0  0  0  0  0  0  0
   -3.5230   -3.9769    1.5913 H   0  0  0  0  0  0  0  0  0  0  0  0
   -3.6786   -4.4276   -0.1248 H   0  0  0  0  0  0  0  0  0  0  0  0
   -1.7063   -3.7848    0.4539 C   0  0  0  0  0  0  0  0  0  0  0  0
   -0.6619   -4.4006    0.5625 O   0  0  0  0  0  0  0  0  0  0  0  0
   -1.6818   -2.4692    0.0280 N   0  0  0  0  0  0  0  0  0  0  0  0
   -2.5734   -1.9827    0.0551 H   0  0  0  0  0  0  0  0  0  0  0  0
   -0.4510   -1.6535    0.0661 C   0  0  1  0  0  0  0  0  0  0  0  0
    0.3029   -2.2229   -0.4892 H   0  0  0  0  0  0  0  0  0  0  0  0
   -0.5993   -0.3095   -0.6748 C   0  0  0  0  0  0  0  0  0  0  0  0
   -1.2034    0.3573   -0.0499 H   0  0  0  0  0  0  0  0  0  0  0  0
    0.3862    0.1582   -0.7831 H   0  0  0  0  0  0  0  0  0  0  0  0
   -1.2813   -0.4207   -2.0495 C   0  0  0  0  0  0  0  0  0  0  0  0
   -2.1971   -1.0174   -2.0032 H   0  0  0  0  0  0  0  0  0  0  0  0
   -1.5580    0.5842   -2.3861 H   0  0  0  0  0  0  0  0  0  0  0  0
   -0.2813   -1.0254   -3.0364 C   0  0  0  0  0  0  0  0  0  0  0  0
    0.6277   -0.4130   -3.0406 H   0  0  0  0  0  0  0  0  0  0  0  0
   -0.0166   -2.0321   -2.6938 H   0  0  0  0  0  0  0  0  0  0  0  0
   -0.8432   -1.0907   -4.3973 N   0  3  0  0  0  0  0  0  0  0  0  0
   -1.7458   -0.6450   -4.5545 H   0  0  0  0  0  0  0  0  0  0  0  0
   -0.2286   -1.6642   -5.3925 C   0  0  0  0  0  0  0  0  0  0  0  0
    0.9896   -2.2861   -5.2316 N   0  0  0  0  0  0  0  0  0  0  0  0
    1.3331   -2.4283   -4.2832 H   0  0  0  0  0  0  0  0  0  0  0  0
    1.3204   -2.9159   -5.9599 H   0  0  0  0  0  0  0  0  0  0  0  0
   -0.8020   -1.6556   -6.6419 N   0  0  0  0  0  0  0  0  0  0  0  0
   -1.5948   -1.0400   -6.8118 H   0  0  0  0  0  0  0  0  0  0  0  0
   -0.2270   -1.9214   -7.4396 H   0  0  0  0  0  0  0  0  0  0  0  0
    0.1760   -1.4552    1.4629 C   0  0  0  0  0  0  0  0  0  0  0  0
    1.3906   -1.3484    1.5490 O   0  0  0  0  0  0  0  0  0  0  0  0
   -0.6107   -1.1369    2.5560 N   0  0  0  0  0  0  0  0  0  0  0  0
   -1.6148   -1.2422    2.4611 H   0  0  0  0  0  0  0  0  0  0  0  0
   -0.0558   -0.8403    3.8732 C   0  0  0  0  0  0  0  0  0  0  0  0
    0.6140    0.0250    3.8220 H   0  0  0  0  0  0  0  0  0  0  0  0
   -0.8580   -0.6120    4.5818 H   0  0  0  0  0  0  0  0  0  0  0  0
    0.5087   -1.6984    4.2540 H   0  0  0  0  0  0  0  0  0  0  0  0
  1  2  1  0  0  0  0
  2  3  1  0  0  0  0
  2  4  1  0  0  0  0
  2  5  1  0  0  0  0
  5  6  2  0  0  0  0
  5  7  1  0  0  0  0
  7  8  1  0  0  0  0
  7  9  1  0  0  0  0
  9 10  1  0  0  0  0
  9 11  1  0  0  0  0
  9 29  1  0  0  0  0
 11 12  1  0  0  0  0
 11 13  1  0  0  0  0
 11 14  1  0  0  0  0
 14 15  1  0  0  0  0
 14 16  1  0  0  0  0
 14 17  1  0  0  0  0
 17 18  1  0  0  0  0
 17 19  1  0  0  0  0
 17 20  1  0  0  0  0
 20 21  1  0  0  0  0
 20 22  2  0  0  0  0
 22 23  1  0  0  0  0
 22 26  1  0  0  0  0
 23 24  1  0  0  0  0
 23 25  1  0  0  0  0
 26 27  1  0  0  0  0
 26 28  1  0  0  0  0
 29 30  2  0  0  0  0
 29 31  1  0  0  0  0
 31 32  1  0  0  0  0
 31 33  1  0  0  0  0
 33 34  1  0  0  0  0
 33 35  1  0  0  0  0
 33 36  1  0  0  0  0
M  CHG  1  20   1
M  END
$$$$

  -OEChem-04042215563D

 36 35  0     1  0  0  0  0  0999 V2000
   -2.5549   -5.4537   -0.0531 H   0  0  0  0  0  0  0  0  0  0  0  0
   -2.7529   -4.3779   -0.0374 C   0  0  0  0  0  0  0  0  0  0  0  0
   -3.1001   -4.1040    0.9620 H   0  0  0  0  0  0  0  0  0  0  0  0
   -3.5379   -4.1534   -0.7633 H   0  0  0  0  0  0  0  0  0  0  0  0
   -1.4895   -3.6107   -0.3752 C   0  0  0  0  0  0  0  0  0  0  0  0
   -0.4716   -4.1981   -0.7008 O   0  0  0  0  0  0  0  0  0  0  0  0
   -1.5104   -2.2380   -0.5187 N   0  0  0  0  0  0  0  0  0  0  0  0
   -2.4069   -1.8162   -0.2885 H   0  0  0  0  0  0  0  0  0  0  0  0
   -0.3204   -1.4263   -0.1860 C   0  0  1  0  0  0  0  0  0  0  0  0
    0.5201   -1.8408   -0.7513 H   0  0  0  0  0  0  0  0  0  0  0  0
   -0.4917    0.0302   -0.6627 C   0  0  0  0  0  0  0  0  0  0  0  0
   -1.1726    0.5511    0.0188 H   0  0  0  0  0  0  0  0  0  0  0  0
    0.4772    0.5396   -0.6054 H   0  0  0  0  0  0  0  0  0  0  0  0
   -1.0490    0.1463   -2.0960 C   0  0  0  0  0  0  0  0  0  0  0  0
   -2.0490   -0.2963   -2.1431 H   0  0  0  0  0  0  0  0  0  0  0  0
   -1.1526    1.2035   -2.3642 H   0  0  0  0  0  0  0  0  0  0  0  0
   -0.1056   -0.5404   -3.0968 C   0  0  0  0  0  0  0  0  0  0  0  0
    0.5229    0.2243   -3.5672 H   0  0  0  0  0  0  0  0  0  0  0  0
    0.5698   -1.2193   -2.5712 H   0  0  0  0  0  0  0  0  0  0  0  0
   -0.8453   -1.2826   -4.1354 N   0  3  0  0  0  0  0  0  0  0  0  0
   -1.3689   -0.7282   -4.8113 H   0  0  0  0  0  0  0  0  0  0  0  0
   -0.7301   -2.5687   -4.3228 C   0  0  0  0  0  0  0  0  0  0  0  0
   -0.0243   -3.3877   -3.4701 N   0  0  0  0  0  0  0  0  0  0  0  0
    0.1248   -3.0621   -2.5130 H   0  0  0  0  0  0  0  0  0  0  0  0
   -0.1164   -4.3946   -3.5829 H   0  0  0  0  0  0  0  0  0  0  0  0
   -1.3241   -3.1423   -5.4217 N   0  0  0  0  0  0  0  0  0  0  0  0
   -1.6606   -2.5329   -6.1644 H   0  0  0  0  0  0  0  0  0  0  0  0
   -1.0424   -4.0872   -5.6771 H   0  0  0  0  0  0  0  0  0  0  0  0
    0.1532   -1.5277    1.2793 C   0  0  0  0  0  0  0  0  0  0  0  0
    1.3505   -1.5723    1.5116 O   0  0  0  0  0  0  0  0  0  0  0  0
   -0.7476   -1.4665    2.3283 N   0  0  0  0  0  0  0  0  0  0  0  0
   -1.7280   -1.3258    2.1107 H   0  0  0  0  0  0  0  0  0  0  0  0
   -0.3327   -1.4639    3.7281 C   0  0  0  0  0  0  0  0  0  0  0  0
    0.2802   -0.5825    3.9454 H   0  0  0  0  0  0  0  0  0  0  0  0
   -1.2079   -1.4470    4.3849 H   0  0  0  0  0  0  0  0  0  0  0  0
    0.2517   -2.3616    3.9573 H   0  0  0  0  0  0  0  0  0  0  0  0
  1  2  1  0  0  0  0
  2  3  1  0  0  0  0
  2  4  1  0  0  0  0
  2  5  1  0  0  0  0
  5  6  2  0  0  0  0
  5  7  1  0  0  0  0
  7  8  1  0  0  0  0
  7  9  1  0  0  0  0
  9 10  1  0  0  0  0
  9 11  1  0  0  0  0
  9 29  1  0  0  0  0
 11 12  1  0  0  0  0
 11 13  1  0  0  0  0
 11 14  1  0  0  0  0
 14 15  1  0  0  0  0
 14 16  1  0  0  0  0
 14 17  1  0  0  0  0
 17 18  1  0  0  0  0
 17 19  1  0  0  0  0
 17 20  1  0  0  0  0
 20 21  1  0  0  0  0
 20 22  2  0  0  0  0
 22 23  1  0  0  0  0
 22 26  1  0  0  0  0
 23 24  1  0  0  0  0
 23 25  1  0  0  0  0
 26 27  1  0  0  0  0
 26 28  1  0  0  0  0
 29 30  2  0  0  0  0
 29 31  1  0  0  0  0
 31 32  1  0  0  0  0
 31 33  1  0  0  0  0
 33 34  1  0  0  0  0
 33 35  1  0  0  0  0
 33 36  1  0  0  0  0
M  CHG  1  20   1
M  END
$$$$

  -OEChem-04042215563D

 36 35  0     1  0  0  0  0  0999 V2000
   -2.3936   -5.5023    0.5160 H   0  0  0  0  0  0  0  0  0  0  0  0
   -2.6364   -4.4444    0.3801 C   0  0  0  0  0  0  0  0  0  0  0  0
   -2.9471   -4.0341    1.3441 H   0  0  0  0  0  0  0  0  0  0  0  0
   -3.4632   -4.3597   -0.3288 H   0  0  0  0  0  0  0  0  0  0  0  0
   -1.4234   -3.6959   -0.1361 C   0  0  0  0  0  0  0  0  0  0  0  0
   -0.4646   -4.2962   -0.5936 O   0  0  0  0  0  0  0  0  0  0  0  0
   -1.4696   -2.3402   -0.3807 N   0  0  0  0  0  0  0  0  0  0  0  0
   -2.3694   -1.9265   -0.1504 H   0  0  0  0  0  0  0  0  0  0  0  0
   -0.3032   -1.4949   -0.0429 C   0  0  1  0  0  0  0  0  0  0  0  0
    0.5739   -1.9477   -0.5186 H   0  0  0  0  0  0  0  0  0  0  0  0
   -0.4571   -0.0975   -0.6753 C   0  0  0  0  0  0  0  0  0  0  0  0
   -1.1744    0.4911   -0.0937 H   0  0  0  0  0  0  0  0  0  0  0  0
    0.5096    0.4155   -0.6162 H   0  0  0  0  0  0  0  0  0  0  0  0
   -0.9195   -0.1371   -2.1516 C   0  0  0  0  0  0  0  0  0  0  0  0
   -1.9867   -0.3803   -2.1776 H   0  0  0  0  0  0  0  0  0  0  0  0
   -0.7968    0.8517   -2.6065 H   0  0  0  0  0  0  0  0  0  0  0  0
   -0.1398   -1.1890   -2.9607 C   0  0  0  0  0  0  0  0  0  0  0  0
    0.8389   -0.7756   -3.2295 H   0  0  0  0  0  0  0  0  0  0  0  0
    0.0429   -2.0702   -2.3437 H   0  0  0  0  0  0  0  0  0  0  0  0
   -0.8601   -1.6061   -4.1757 N   0  3  0  0  0  0  0  0  0  0  0  0
   -0.9981   -0.9004   -4.8979 H   0  0  0  0  0  0  0  0  0  0  0  0
   -1.1602   -2.8498   -4.4309 C   0  0  0  0  0  0  0  0  0  0  0  0
   -0.9512   -3.8728   -3.5292 N   0  0  0  0  0  0  0  0  0  0  0  0
   -0.4878   -3.6742   -2.6374 H   0  0  0  0  0  0  0  0  0  0  0  0
   -0.9410   -4.8343   -3.8610 H   0  0  0  0  0  0  0  0  0  0  0  0
   -1.7075   -3.1692   -5.6506 N   0  0  0  0  0  0  0  0  0  0  0  0
   -2.0172   -2.4212   -6.2677 H   0  0  0  0  0  0  0  0  0  0  0  0
   -2.0992   -4.0997   -5.7831 H   0  0  0  0  0  0  0  0  0  0  0  0
    0.0985   -1.4867    1.4476 C   0  0  0  0  0  0  0  0  0  0  0  0
    1.2801   -1.5323    1.7486 O   0  0  0  0  0  0  0  0  0  0  0  0
   -0.8562   -1.3603    2.4420 N   0  0  0  0  0  0  0  0  0  0  0  0
   -1.8157   -1.1878    2.1628 H   0  0  0  0  0  0  0  0  0  0  0  0
   -0.5126   -1.2619    3.8579 C   0  0  0  0  0  0  0  0  0  0  0  0
    0.0693   -0.3540    4.0502 H   0  0  0  0  0  0  0  0  0  0  0  0
   -1.4202   -1.2273    4.4683 H   0  0  0  0  0  0  0  0  0  0  0  0
    0.0786   -2.1294    4.1715 H   0  0  0  0  0  0  0  0  0  0  0  0
  1  2  1  0  0  0  0
  2  3  1  0  0  0  0
  2  4  1  0  0  0  0
  2  5  1  0  0  0  0
  5  6  2  0  0  0  0
  5  7  1  0  0  0  0
  7  8  1  0  0  0  0
  7  9  1  0  0  0  0
  9 10  1  0  0  0  0
  9 11  1  0  0  0  0
  9 29  1  0  0  0  0
 11 12  1  0  0  0  0
 11 13  1  0  0  0  0
 11 14  1  0  0  0  0
 14 15  1  0  0  0  0
 14 16  1  0  0  0  0
 14 17  1  0  0  0  0
 17 18  1  0  0  0  0
 17 19  1  0  0  0  0
 17 20  1  0  0  0  0
 20 21  1  0  0  0  0
 20 22  2  0  0  0  0
 22 23  1  0  0  0  0
 22 26  1  0  0  0  0
 23 24  1  0  0  0  0
 23 25  1  0  0  0  0
 26 27  1  0  0  0  0
 26 28  1  0  0  0  0
 29 30  2  0  0  0  0
 29 31  1  0  0  0  0
 31 32  1  0  0  0  0
 31 33  1  0  0  0  0
 33 34  1  0  0  0  0
 33 35  1  0  0  0  0
 33 36  1  0  0  0  0
M  CHG  1  20   1
M  END
$$$$

  -OEChem-04042215563D

 36 35  0     1  0  0  0  0  0999 V2000
   -2.8901   -5.4607    1.3513 H   0  0  0  0  0  0  0  0  0  0  0  0
   -3.0439   -4.4254    1.0324 C   0  0  0  0  0  0  0  0  0  0  0  0
   -3.4659   -3.8633    1.8690 H   0  0  0  0  0  0  0  0  0  0  0  0
   -3.7508   -4.4152    0.1996 H   0  0  0  0  0  0  0  0  0  0  0  0
   -1.7238   -3.8124    0.6059 C   0  0  0  0  0  0  0  0  0  0  0  0
   -0.7114   -4.4882    0.5882 O   0  0  0  0  0  0  0  0  0  0  0  0
   -1.6759   -2.5166    0.1268 N   0  0  0  0  0  0  0  0  0  0  0  0
   -2.5479   -2.0010    0.2092 H   0  0  0  0  0  0  0  0  0  0  0  0
   -0.4282   -1.7235    0.1659 C   0  0  1  0  0  0  0  0  0  0  0  0
    0.3370   -2.3245   -0.3396 H   0  0  0  0  0  0  0  0  0  0  0  0
   -0.5484   -0.4178   -0.6489 C   0  0  0  0  0  0  0  0  0  0  0  0
   -1.1169    0.3165   -0.0681 H   0  0  0  0  0  0  0  0  0  0  0  0
    0.4637   -0.0144   -0.7697 H   0  0  0  0  0  0  0  0  0  0  0  0
   -1.1919   -0.5385   -2.0508 C   0  0  0  0  0  0  0  0  0  0  0  0
   -2.2727   -0.3882   -1.9616 H   0  0  0  0  0  0  0  0  0  0  0  0
   -0.7964    0.2623   -2.6849 H   0  0  0  0  0  0  0  0  0  0  0  0
   -0.9407   -1.9046   -2.7043 C   0  0  0  0  0  0  0  0  0  0  0  0
    0.1302   -2.1278   -2.6385 H   0  0  0  0  0  0  0  0  0  0  0  0
   -1.4856   -2.6789   -2.1561 H   0  0  0  0  0  0  0  0  0  0  0  0
   -1.3571   -1.9221   -4.1171 N   0  3  0  0  0  0  0  0  0  0  0  0
   -1.6189   -1.0345   -4.5437 H   0  0  0  0  0  0  0  0  0  0  0  0
   -1.3215   -3.0021   -4.8444 C   0  0  0  0  0  0  0  0  0  0  0  0
   -0.9208   -4.2125   -4.3221 N   0  0  0  0  0  0  0  0  0  0  0  0
   -0.4970   -4.2152   -3.3949 H   0  0  0  0  0  0  0  0  0  0  0  0
   -0.6675   -4.9620   -4.9627 H   0  0  0  0  0  0  0  0  0  0  0  0
   -1.6870   -2.9453   -6.1682 N   0  0  0  0  0  0  0  0  0  0  0  0
   -2.1464   -2.1067   -6.5176 H   0  0  0  0  0  0  0  0  0  0  0  0
   -1.8365   -3.8187   -6.6706 H   0  0  0  0  0  0  0  0  0  0  0  0
    0.1590   -1.4860    1.5738 C   0  0  0  0  0  0  0  0  0  0  0  0
    1.3719   -1.4574    1.7139 O   0  0  0  0  0  0  0  0  0  0  0  0
   -0.6550   -1.1105    2.6284 N   0  0  0  0  0  0  0  0  0  0  0  0
   -1.6574   -1.1010    2.4775 H   0  0  0  0  0  0  0  0  0  0  0  0
   -0.1389   -0.7837    3.9540 C   0  0  0  0  0  0  0  0  0  0  0  0
    0.5408    0.0735    3.9005 H   0  0  0  0  0  0  0  0  0  0  0  0
   -0.9605   -0.5296    4.6310 H   0  0  0  0  0  0  0  0  0  0  0  0
    0.4047   -1.6365    4.3752 H   0  0  0  0  0  0  0  0  0  0  0  0
  1  2  1  0  0  0  0
  2  3  1  0  0  0  0
  2  4  1  0  0  0  0
  2  5  1  0  0  0  0
  5  6  2  0  0  0  0
  5  7  1  0  0  0  0
  7  8  1  0  0  0  0
  7  9  1  0  0  0  0
  9 10  1  0  0  0  0
  9 11  1  0  0  0  0
  9 29  1  0  0  0  0
 11 12  1  0  0  0  0
 11 13  1  0  0  0  0
 11 14  1  0  0  0  0
 14 15  1  0  0  0  0
 14 16  1  0  0  0  0
 14 17  1  0  0  0  0
 17 18  1  0  0  0  0
 17 19  1  0  0  0  0
 17 20  1  0  0  0  0
 20 21  1  0  0  0  0
 20 22  2  0  0  0  0
 22 23  1  0  0  0  0
 22 26  1  0  0  0  0
 23 24  1  0  0  0  0
 23 25  1  0  0  0  0
 26 27  1  0  0  0  0
 26 28  1  0  0  0  0
 29 30  2  0  0  0  0
 29 31  1  0  0  0  0
 31 32  1  0  0  0  0
 31 33  1  0  0  0  0
 33 34  1  0  0  0  0
 33 35  1  0  0  0  0
 33 36  1  0  0  0  0
M  CHG  1  20   1
M  END
$$$$

  -OEChem-04042215563D

 36 35  0     1  0  0  0  0  0999 V2000
   -3.0670   -5.4108    1.6463 H   0  0  0  0  0  0  0  0  0  0  0  0
   -3.1892   -4.3553    1.3853 C   0  0  0  0  0  0  0  0  0  0  0  0
   -3.4557   -3.8013    2.2887 H   0  0  0  0  0  0  0  0  0  0  0  0
   -3.9985   -4.2658    0.6570 H   0  0  0  0  0  0  0  0  0  0  0  0
   -1.8973   -3.8124    0.8053 C   0  0  0  0  0  0  0  0  0  0  0  0
   -0.9249   -4.5360    0.6905 O   0  0  0  0  0  0  0  0  0  0  0  0
   -1.8421   -2.5298    0.2921 N   0  0  0  0  0  0  0  0  0  0  0  0
   -2.6759   -1.9722    0.4568 H   0  0  0  0  0  0  0  0  0  0  0  0
   -0.5639   -1.7929    0.1865 C   0  0  1  0  0  0  0  0  0  0  0  0
    0.1176   -2.4498   -0.3670 H   0  0  0  0  0  0  0  0  0  0  0  0
   -0.6697   -0.5097   -0.6686 C   0  0  0  0  0  0  0  0  0  0  0  0
   -1.1463    0.2714   -0.0664 H   0  0  0  0  0  0  0  0  0  0  0  0
    0.3532   -0.1712   -0.8707 H   0  0  0  0  0  0  0  0  0  0  0  0
   -1.4209   -0.5990   -2.0232 C   0  0  0  0  0  0  0  0  0  0  0  0
   -2.3927   -0.1029   -1.9283 H   0  0  0  0  0  0  0  0  0  0  0  0
   -0.8391   -0.0390   -2.7637 H   0  0  0  0  0  0  0  0  0  0  0  0
   -1.6545   -2.0292   -2.5269 C   0  0  0  0  0  0  0  0  0  0  0  0
   -0.7724   -2.6287   -2.2795 H   0  0  0  0  0  0  0  0  0  0  0  0
   -2.5175   -2.4609   -2.0093 H   0  0  0  0  0  0  0  0  0  0  0  0
   -1.8728   -2.0695   -3.9835 N   0  3  0  0  0  0  0  0  0  0  0  0
   -2.1757   -1.2097   -4.4389 H   0  0  0  0  0  0  0  0  0  0  0  0
   -1.6688   -3.1409   -4.6967 C   0  0  0  0  0  0  0  0  0  0  0  0
   -1.2464   -4.3226   -4.1272 N   0  0  0  0  0  0  0  0  0  0  0  0
   -0.9441   -4.3054   -3.1538 H   0  0  0  0  0  0  0  0  0  0  0  0
   -0.8680   -5.0503   -4.7302 H   0  0  0  0  0  0  0  0  0  0  0  0
   -1.8765   -3.1050   -6.0552 N   0  0  0  0  0  0  0  0  0  0  0  0
   -2.3412   -2.2963   -6.4632 H   0  0  0  0  0  0  0  0  0  0  0  0
   -1.9075   -3.9851   -6.5671 H   0  0  0  0  0  0  0  0  0  0  0  0
    0.1730   -1.5529    1.5220 C   0  0  0  0  0  0  0  0  0  0  0  0
    1.3940   -1.5746    1.5362 O   0  0  0  0  0  0  0  0  0  0  0  0
   -0.5104   -1.1195    2.6447 N   0  0  0  0  0  0  0  0  0  0  0  0
   -1.5212   -1.0620    2.5953 H   0  0  0  0  0  0  0  0  0  0  0  0
    0.1551   -0.7844    3.9002 C   0  0  0  0  0  0  0  0  0  0  0  0
    0.8186    0.0765    3.7648 H   0  0  0  0  0  0  0  0  0  0  0  0
   -0.5835   -0.5344    4.6681 H   0  0  0  0  0  0  0  0  0  0  0  0
    0.7497   -1.6324    4.2575 H   0  0  0  0  0  0  0  0  0  0  0  0
  1  2  1  0  0  0  0
  2  3  1  0  0  0  0
  2  4  1  0  0  0  0
  2  5  1  0  0  0  0
  5  6  2  0  0  0  0
  5  7  1  0  0  0  0
  7  8  1  0  0  0  0
  7  9  1  0  0  0  0
  9 10  1  0  0  0  0
  9 11  1  0  0  0  0
  9 29  1  0  0  0  0
 11 12  1  0  0  0  0
 11 13  1  0  0  0  0
 11 14  1  0  0  0  0
 14 15  1  0  0  0  0
 14 16  1  0  0  0  0
 14 17  1  0  0  0  0
 17 18  1  0  0  0  0
 17 19  1  0  0  0  0
 17 20  1  0  0  0  0
 20 21  1  0  0  0  0
 20 22  2  0  0  0  0
 22 23  1  0  0  0  0
 22 26  1  0  0  0  0
 23 24  1  0  0  0  0
 23 25  1  0  0  0  0
 26 27  1  0  0  0  0
 26 28  1  0  0  0  0
 29 30  2  0  0  0  0
 29 31  1  0  0  0  0
 31 32  1  0  0  0  0
 31 33  1  0  0  0  0
 33 34  1  0  0  0  0
 33 35  1  0  0  0  0
 33 36  1  0  0  0  0
M  CHG  1  20   1
M  END
$$$$

  -OEChem-04042215563D

 36 35  0     1  0  0  0  0  0999 V2000
   -3.2231   -5.3018    1.9412 H   0  0  0  0  0  0  0  0  0  0  0  0
   -3.3258   -4.2550    1.6401 C   0  0  0  0  0  0  0  0  0  0  0  0
   -3.5038   -3.6525    2.5342 H   0  0  0  0  0  0  0  0  0  0  0  0
   -4.1833   -4.1658    0.9689 H   0  0  0  0  0  0  0  0  0  0  0  0
   -2.0620   -3.7900    0.9421 C   0  0  0  0  0  0  0  0  0  0  0  0
   -1.1478   -4.5694    0.7436 O   0  0  0  0  0  0  0  0  0  0  0  0
   -1.9812   -2.5164    0.4097 N   0  0  0  0  0  0  0  0  0  0  0  0
   -2.7633   -1.9110    0.6447 H   0  0  0  0  0  0  0  0  0  0  0  0
   -0.6774   -1.8536    0.1871 C   0  0  1  0  0  0  0  0  0  0  0  0
   -0.0873   -2.5616   -0.4066 H   0  0  0  0  0  0  0  0  0  0  0  0
   -0.7455   -0.5815   -0.6910 C   0  0  0  0  0  0  0  0  0  0  0  0
   -1.1428    0.2267   -0.0675 H   0  0  0  0  0  0  0  0  0  0  0  0
    0.2822   -0.2993   -0.9477 H   0  0  0  0  0  0  0  0  0  0  0  0
   -1.5790   -0.6100   -2.0019 C   0  0  0  0  0  0  0  0  0  0  0  0
   -2.3274    0.1892   -1.9693 H   0  0  0  0  0  0  0  0  0  0  0  0
   -0.8916   -0.3700   -2.8207 H   0  0  0  0  0  0  0  0  0  0  0  0
   -2.2822   -1.9320   -2.3306 C   0  0  0  0  0  0  0  0  0  0  0  0
   -1.6663   -2.7569   -1.9617 H   0  0  0  0  0  0  0  0  0  0  0  0
   -3.2430   -1.9752   -1.8068 H   0  0  0  0  0  0  0  0  0  0  0  0
   -2.4850   -2.0825   -3.7832 N   0  3  0  0  0  0  0  0  0  0  0  0
   -2.9385   -1.3120   -4.2726 H   0  0  0  0  0  0  0  0  0  0  0  0
   -2.1073   -3.1340   -4.4553 C   0  0  0  0  0  0  0  0  0  0  0  0
   -1.4811   -4.2055   -3.8558 N   0  0  0  0  0  0  0  0  0  0  0  0
   -1.1783   -4.1111   -2.8871 H   0  0  0  0  0  0  0  0  0  0  0  0
   -1.0021   -4.8871   -4.4407 H   0  0  0  0  0  0  0  0  0  0  0  0
   -2.3335   -3.1864   -5.8101 N   0  0  0  0  0  0  0  0  0  0  0  0
   -2.9445   -2.4921   -6.2357 H   0  0  0  0  0  0  0  0  0  0  0  0
   -2.2112   -4.0762   -6.2905 H   0  0  0  0  0  0  0  0  0  0  0  0
    0.1787   -1.6468    1.4551 C   0  0  0  0  0  0  0  0  0  0  0  0
    1.3934   -1.7445    1.3727 O   0  0  0  0  0  0  0  0  0  0  0  0
   -0.3875   -1.1674    2.6233 N   0  0  0  0  0  0  0  0  0  0  0  0
   -1.3944   -1.0533    2.6540 H   0  0  0  0  0  0  0  0  0  0  0  0
    0.3923   -0.8710    3.8212 C   0  0  0  0  0  0  0  0  0  0  0  0
    1.1414   -0.0997    3.6112 H   0  0  0  0  0  0  0  0  0  0  0  0
   -0.2614   -0.5079    4.6202 H   0  0  0  0  0  0  0  0  0  0  0  0
    0.9053   -1.7710    4.1775 H   0  0  0  0  0  0  0  0  0  0  0  0
  1  2  1  0  0  0  0
  2  3  1  0  0  0  0
  2  4  1  0  0  0  0
  2  5  1  0  0  0  0
  5  6  2  0  0  0  0
  5  7  1  0  0  0  0
  7  8  1  0  0  0  0
  7  9  1  0  0  0  0
  9 10  1  0  0  0  0
  9 11  1  0  0  0  0
  9 29  1  0  0  0  0
 11 12  1  0  0  0  0
 11 13  1  0  0  0  0
 11 14  1  0  0  0  0
 14 15  1  0  0  0  0
 14 16  1  0  0  0  0
 14 17  1  0  0  0  0
 17 18  1  0  0  0  0
 17 19  1  0  0  0  0
 17 20  1  0  0  0  0
 20 21  1  0  0  0  0
 20 22  2  0  0  0  0
 22 23  1  0  0  0  0
 22 26  1  0  0  0  0
 23 24  1  0  0  0  0
 23 25  1  0  0  0  0
 26 27  1  0  0  0  0
 26 28  1  0  0  0  0
 29 30  2  0  0  0  0
 29 31  1  0  0  0  0
 31 32  1  0  0  0  0
 31 33  1  0  0  0  0
 33 34  1  0  0  0  0
 33 35  1  0  0  0  0
 33 36  1  0  0  0  0
M  CHG  1  20   1
M  END
$$$$

  -OEChem-04042215563D

 36 35  0     1  0  0  0  0  0999 V2000
   -3.3582   -5.2443    2.1227 H   0  0  0  0  0  0  0  0  0  0  0  0
   -3.4088   -4.1864    1.8478 C   0  0  0  0  0  0  0  0  0  0  0  0
   -3.5095   -3.5938    2.7604 H   0  0  0  0  0  0  0  0  0  0  0  0
   -4.2882   -4.0299    1.2189 H   0  0  0  0  0  0  0  0  0  0  0  0
   -2.1505   -3.7831    1.1031 C   0  0  0  0  0  0  0  0  0  0  0  0
   -1.2527   -4.5876    0.9362 O   0  0  0  0  0  0  0  0  0  0  0  0
   -2.0485   -2.5307    0.5247 N   0  0  0  0  0  0  0  0  0  0  0  0
   -2.8034   -1.8934    0.7631 H   0  0  0  0  0  0  0  0  0  0  0  0
   -0.7354   -1.9203    0.2262 C   0  0  1  0  0  0  0  0  0  0  0  0
   -0.1978   -2.6702   -0.3658 H   0  0  0  0  0  0  0  0  0  0  0  0
   -0.7754   -0.6740   -0.6920 C   0  0  0  0  0  0  0  0  0  0  0  0
   -1.1361    0.1551   -0.0739 H   0  0  0  0  0  0  0  0  0  0  0  0
    0.2539   -0.4246   -0.9757 H   0  0  0  0  0  0  0  0  0  0  0  0
   -1.6443   -0.6829   -1.9792 C   0  0  0  0  0  0  0  0  0  0  0  0
   -2.1273    0.2941   -2.0889 H   0  0  0  0  0  0  0  0  0  0  0  0
   -0.9457   -0.7853   -2.8171 H   0  0  0  0  0  0  0  0  0  0  0  0
   -2.7014   -1.7818   -2.1249 C   0  0  0  0  0  0  0  0  0  0  0  0
   -2.3072   -2.7266   -1.7407 H   0  0  0  0  0  0  0  0  0  0  0  0
   -3.5827   -1.5239   -1.5279 H   0  0  0  0  0  0  0  0  0  0  0  0
   -3.0743   -1.9561   -3.5414 N   0  3  0  0  0  0  0  0  0  0  0  0
   -3.6913   -1.2556   -3.9514 H   0  0  0  0  0  0  0  0  0  0  0  0
   -2.6458   -2.9425   -4.2788 C   0  0  0  0  0  0  0  0  0  0  0  0
   -1.7869   -3.9029   -3.7897 N   0  0  0  0  0  0  0  0  0  0  0  0
   -1.3669   -3.7575   -2.8727 H   0  0  0  0  0  0  0  0  0  0  0  0
   -1.3072   -4.5182   -4.4436 H   0  0  0  0  0  0  0  0  0  0  0  0
   -3.0516   -3.0341   -5.5887 N   0  0  0  0  0  0  0  0  0  0  0  0
   -3.8238   -2.4510   -5.9055 H   0  0  0  0  0  0  0  0  0  0  0  0
   -2.8701   -3.9003   -6.0930 H   0  0  0  0  0  0  0  0  0  0  0  0
    0.1787   -1.7033    1.4522 C   0  0  0  0  0  0  0  0  0  0  0  0
    1.3859   -1.8337    1.3185 O   0  0  0  0  0  0  0  0  0  0  0  0
   -0.3189   -1.1692    2.6281 N   0  0  0  0  0  0  0  0  0  0  0  0
   -1.3202   -1.0313    2.7046 H   0  0  0  0  0  0  0  0  0  0  0  0
    0.5246   -0.8660    3.7802 C   0  0  0  0  0  0  0  0  0  0  0  0
    1.2616   -0.0973    3.5241 H   0  0  0  0  0  0  0  0  0  0  0  0
   -0.0836   -0.4976    4.6121 H   0  0  0  0  0  0  0  0  0  0  0  0
    1.0563   -1.7642    4.1132 H   0  0  0  0  0  0  0  0  0  0  0  0
  1  2  1  0  0  0  0
  2  3  1  0  0  0  0
  2  4  1  0  0  0  0
  2  5  1  0  0  0  0
  5  6  2  0  0  0  0
  5  7  1  0  0  0  0
  7  8  1  0  0  0  0
  7  9  1  0  0  0  0
  9 10  1  0  0  0  0
  9 11  1  0  0  0  0
  9 29  1  0  0  0  0
 11 12  1  0  0  0  0
 11 13  1  0  0  0  0
 11 14  1  0  0  0  0
 14 15  1  0  0  0  0
 14 16  1  0  0  0  0
 14 17  1  0  0  0  0
 17 18  1  0  0  0  0
 17 19  1  0  0  0  0
 17 20  1  0  0  0  0
 20 21  1  0  0  0  0
 20 22  2  0  0  0  0
 22 23  1  0  0  0  0
 22 26  1  0  0  0  0
 23 24  1  0  0  0  0
 23 25  1  0  0  0  0
 26 27  1  0  0  0  0
 26 28  1  0  0  0  0
 29 30  2  0  0  0  0
 29 31  1  0  0  0  0
 31 32  1  0  0  0  0
 31 33  1  0  0  0  0
 33 34  1  0  0  0  0
 33 35  1  0  0  0  0
 33 36  1  0  0  0  0
M  CHG  1  20   1
M  END
$$$$

  -OEChem-04042215563D

 36 35  0     1  0  0  0  0  0999 V2000
   -3.1242   -5.3190    2.2315 H   0  0  0  0  0  0  0  0  0  0  0  0
   -3.2533   -4.2824    1.9065 C   0  0  0  0  0  0  0  0  0  0  0  0
   -3.3853   -3.6538    2.7905 H   0  0  0  0  0  0  0  0  0  0  0  0
   -4.1484   -4.2202    1.2837 H   0  0  0  0  0  0  0  0  0  0  0  0
   -2.0363   -3.8294    1.1232 C   0  0  0  0  0  0  0  0  0  0  0  0
   -1.1159   -4.5990    0.9219 O   0  0  0  0  0  0  0  0  0  0  0  0
   -1.9984   -2.5660    0.5609 N   0  0  0  0  0  0  0  0  0  0  0  0
   -2.7640   -1.9599    0.8419 H   0  0  0  0  0  0  0  0  0  0  0  0
   -0.7185   -1.9037    0.2337 C   0  0  1  0  0  0  0  0  0  0  0  0
   -0.1728   -2.6226   -0.3893 H   0  0  0  0  0  0  0  0  0  0  0  0
   -0.8258   -0.6375   -0.6519 C   0  0  0  0  0  0  0  0  0  0  0  0
   -1.1945    0.1629   -0.0015 H   0  0  0  0  0  0  0  0  0  0  0  0
    0.1849   -0.3478   -0.9625 H   0  0  0  0  0  0  0  0  0  0  0  0
   -1.7341   -0.6431   -1.9091 C   0  0  0  0  0  0  0  0  0  0  0  0
   -2.0322    0.3888   -2.1242 H   0  0  0  0  0  0  0  0  0  0  0  0
   -1.1013   -0.9712   -2.7409 H   0  0  0  0  0  0  0  0  0  0  0  0
   -2.9812   -1.5310   -1.9072 C   0  0  0  0  0  0  0  0  0  0  0  0
   -2.7248   -2.5364   -1.5638 H   0  0  0  0  0  0  0  0  0  0  0  0
   -3.7241   -1.1203   -1.2151 H   0  0  0  0  0  0  0  0  0  0  0  0
   -3.5430   -1.6199   -3.2683 N   0  3  0  0  0  0  0  0  0  0  0  0
   -4.1424   -0.8549   -3.5769 H   0  0  0  0  0  0  0  0  0  0  0  0
   -3.2962   -2.6085   -4.0823 C   0  0  0  0  0  0  0  0  0  0  0  0
   -2.4658   -3.6515   -3.7329 N   0  0  0  0  0  0  0  0  0  0  0  0
   -1.9206   -3.5693   -2.8757 H   0  0  0  0  0  0  0  0  0  0  0  0
   -2.1192   -4.2720   -4.4620 H   0  0  0  0  0  0  0  0  0  0  0  0
   -3.8684   -2.6178   -5.3321 N   0  0  0  0  0  0  0  0  0  0  0  0
   -4.6216   -1.9628   -5.5332 H   0  0  0  0  0  0  0  0  0  0  0  0
   -3.8216   -3.4744   -5.8812 H   0  0  0  0  0  0  0  0  0  0  0  0
    0.2194   -1.6730    1.4395 C   0  0  0  0  0  0  0  0  0  0  0  0
    1.4270   -1.7488    1.2734 O   0  0  0  0  0  0  0  0  0  0  0  0
   -0.2689   -1.1757    2.6355 N   0  0  0  0  0  0  0  0  0  0  0  0
   -1.2734   -1.0952    2.7443 H   0  0  0  0  0  0  0  0  0  0  0  0
    0.5902   -0.8576    3.7722 C   0  0  0  0  0  0  0  0  0  0  0  0
    1.3311   -0.1001    3.4941 H   0  0  0  0  0  0  0  0  0  0  0  0
   -0.0059   -0.4669    4.6025 H   0  0  0  0  0  0  0  0  0  0  0  0
    1.1180   -1.7534    4.1168 H   0  0  0  0  0  0  0  0  0  0  0  0
  1  2  1  0  0  0  0
  2  3  1  0  0  0  0
  2  4  1  0  0  0  0
  2  5  1  0  0  0  0
  5  6  2  0  0  0  0
  5  7  1  0  0  0  0
  7  8  1  0  0  0  0
  7  9  1  0  0  0  0
  9 10  1  0  0  0  0
  9 11  1  0  0  0  0
  9 29  1  0  0  0  0
 11 12  1  0  0  0  0
 11 13  1  0  0  0  0
 11 14  1  0  0  0  0
 14 15  1  0  0  0  0
 14 16  1  0  0  0  0
 14 17  1  0  0  0  0
 17 18  1  0  0  0  0
 17 19  1  0  0  0  0
 17 20  1  0  0  0  0
 20 21  1  0  0  0  0
 20 22  2  0  0  0  0
 22 23  1  0  0  0  0
 22 26  1  0  0  0  0
 23 24  1  0  0  0  0
 23 25  1  0  0  0  0
 26 27  1  0  0  0  0
 26 28  1  0  0  0  0
 29 30  2  0  0  0  0
 29 31  1  0  0  0  0
 31 32  1  0  0  0  0
 31 33  1  0  0  0  0
 33 34  1  0  0  0  0
 33 35  1  0  0  0  0
 33 36  1  0  0  0  0
M  CHG  1  20   1
M  END
$$$$

  -OEChem-04042215563D

 36 35  0     1  0  0  0  0  0999 V2000
   -3.1269   -5.2806    2.0937 H   0  0  0  0  0  0  0  0  0  0  0  0
   -3.2876   -4.2435    1.7839 C   0  0  0  0  0  0  0  0  0  0  0  0
   -3.3816   -3.6249    2.6797 H   0  0  0  0  0  0  0  0  0  0  0  0
   -4.2155   -4.1883    1.2097 H   0  0  0  0  0  0  0  0  0  0  0  0
   -2.1194   -3.7685    0.9413 C   0  0  0  0  0  0  0  0  0  0  0  0
   -1.2777   -4.5596    0.5597 O   0  0  0  0  0  0  0  0  0  0  0  0
   -2.0662   -2.4626    0.4881 N   0  0  0  0  0  0  0  0  0  0  0  0
   -2.7796   -1.8594    0.8886 H   0  0  0  0  0  0  0  0  0  0  0  0
   -0.7779   -1.8160    0.1670 C   0  0  1  0  0  0  0  0  0  0  0  0
   -0.2800   -2.5023   -0.5284 H   0  0  0  0  0  0  0  0  0  0  0  0
   -0.8632   -0.4889   -0.6257 C   0  0  0  0  0  0  0  0  0  0  0  0
   -1.1781    0.2854    0.0820 H   0  0  0  0  0  0  0  0  0  0  0  0
    0.1479   -0.2226   -0.9552 H   0  0  0  0  0  0  0  0  0  0  0  0
   -1.8085   -0.3959   -1.8496 C   0  0  0  0  0  0  0  0  0  0  0  0
   -1.8718    0.6548   -2.1534 H   0  0  0  0  0  0  0  0  0  0  0  0
   -1.3019   -0.9300   -2.6607 H   0  0  0  0  0  0  0  0  0  0  0  0
   -3.2318   -0.9561   -1.7366 C   0  0  0  0  0  0  0  0  0  0  0  0
   -3.2397   -1.9223   -1.2347 H   0  0  0  0  0  0  0  0  0  0  0  0
   -3.8492   -0.2693   -1.1474 H   0  0  0  0  0  0  0  0  0  0  0  0
   -3.8034   -1.1417   -3.0834 N   0  3  0  0  0  0  0  0  0  0  0  0
   -4.2778   -0.3439   -3.5060 H   0  0  0  0  0  0  0  0  0  0  0  0
   -3.7138   -2.2624   -3.7453 C   0  0  0  0  0  0  0  0  0  0  0  0
   -3.0522   -3.3595   -3.2347 N   0  0  0  0  0  0  0  0  0  0  0  0
   -2.4796   -3.2316   -2.4005 H   0  0  0  0  0  0  0  0  0  0  0  0
   -2.8084   -4.1221   -3.8640 H   0  0  0  0  0  0  0  0  0  0  0  0
   -4.2840   -2.3621   -4.9921 N   0  0  0  0  0  0  0  0  0  0  0  0
   -4.9155   -1.6277   -5.3062 H   0  0  0  0  0  0  0  0  0  0  0  0
   -4.3745   -3.2846   -5.4149 H   0  0  0  0  0  0  0  0  0  0  0  0
    0.2136   -1.7188    1.3481 C   0  0  0  0  0  0  0  0  0  0  0  0
    1.4092   -1.8343    1.1289 O   0  0  0  0  0  0  0  0  0  0  0  0
   -0.2075   -1.3106    2.6022 N   0  0  0  0  0  0  0  0  0  0  0  0
   -1.1980   -1.1518    2.7472 H   0  0  0  0  0  0  0  0  0  0  0  0
    0.7100   -1.1020    3.7189 C   0  0  0  0  0  0  0  0  0  0  0  0
    1.3814   -0.2616    3.5121 H   0  0  0  0  0  0  0  0  0  0  0  0
    0.1522   -0.8824    4.6343 H   0  0  0  0  0  0  0  0  0  0  0  0
    1.3149   -1.9988    3.8928 H   0  0  0  0  0  0  0  0  0  0  0  0
  1  2  1  0  0  0  0
  2  3  1  0  0  0  0
  2  4  1  0  0  0  0
  2  5  1  0  0  0  0
  5  6  2  0  0  0  0
  5  7  1  0  0  0  0
  7  8  1  0  0  0  0
  7  9  1  0  0  0  0
  9 10  1  0  0  0  0
  9 11  1  0  0  0  0
  9 29  1  0  0  0  0
 11 12  1  0  0  0  0
 11 13  1  0  0  0  0
 11 14  1  0  0  0  0
 14 15  1  0  0  0  0
 14 16  1  0  0  0  0
 14 17  1  0  0  0  0
 17 18  1  0  0  0  0
 17 19  1  0  0  0  0
 17 20  1  0  0  0  0
 20 21  1  0  0  0  0
 20 22  2  0  0  0  0
 22 23  1  0  0  0  0
 22 26  1  0  0  0  0
 23 24  1  0  0  0  0
 23 25  1  0  0  0  0
 26 27  1  0  0  0  0
 26 28  1  0  0  0  0
 29 30  2  0  0  0  0
 29 31  1  0  0  0  0
 31 32  1  0  0  0  0
 31 33  1  0  0  0  0
 33 34  1  0  0  0  0
 33 35  1  0  0  0  0
 33 36  1  0  0  0  0
M  CHG  1  20   1
M  END
$$$$

  -OEChem-04042215563D

 36 35  0     1  0  0  0  0  0999 V2000
   -2.4434   -5.6613    1.7683 H   0  0  0  0  0  0  0  0  0  0  0  0
   -2.7316   -4.7096    1.3114 C   0  0  0  0  0  0  0  0  0  0  0  0
   -3.2951   -4.1290    2.0453 H   0  0  0  0  0  0  0  0  0  0  0  0
   -3.3670   -4.9153    0.4473 H   0  0  0  0  0  0  0  0  0  0  0  0
   -1.4927   -3.9486    0.8785 C   0  0  0  0  0  0  0  0  0  0  0  0
   -0.4001   -4.4737    0.9700 O   0  0  0  0  0  0  0  0  0  0  0  0
   -1.6063   -2.6635    0.3752 N   0  0  0  0  0  0  0  0  0  0  0  0
   -2.5152   -2.2330    0.4982 H   0  0  0  0  0  0  0  0  0  0  0  0
   -0.4401   -1.7634    0.2719 C   0  0  1  0  0  0  0  0  0  0  0  0
    0.3100   -2.3242   -0.2996 H   0  0  0  0  0  0  0  0  0  0  0  0
   -0.6732   -0.4691   -0.5419 C   0  0  0  0  0  0  0  0  0  0  0  0
   -1.2415    0.2252    0.0861 H   0  0  0  0  0  0  0  0  0  0  0  0
    0.3043   -0.0073   -0.7233 H   0  0  0  0  0  0  0  0  0  0  0  0
   -1.4050   -0.5817   -1.8964 C   0  0  0  0  0  0  0  0  0  0  0  0
   -1.4345    0.4224   -2.3342 H   0  0  0  0  0  0  0  0  0  0  0  0
   -0.7911   -1.2083   -2.5534 H   0  0  0  0  0  0  0  0  0  0  0  0
   -2.8270   -1.1461   -1.8793 C   0  0  0  0  0  0  0  0  0  0  0  0
   -2.8084   -2.1871   -1.5435 H   0  0  0  0  0  0  0  0  0  0  0  0
   -3.4443   -0.5576   -1.1921 H   0  0  0  0  0  0  0  0  0  0  0  0
   -3.3696   -1.0776   -3.2506 N   0  3  0  0  0  0  0  0  0  0  0  0
   -2.7549   -0.6915   -3.9669 H   0  0  0  0  0  0  0  0  0  0  0  0
   -4.5454   -1.5128   -3.6015 C   0  0  0  0  0  0  0  0  0  0  0  0
   -5.4305   -2.0388   -2.6890 N   0  0  0  0  0  0  0  0  0  0  0  0
   -5.2339   -1.8939   -1.7021 H   0  0  0  0  0  0  0  0  0  0  0  0
   -6.4027   -2.1532   -2.9698 H   0  0  0  0  0  0  0  0  0  0  0  0
   -4.9246   -1.4479   -4.9212 N   0  0  0  0  0  0  0  0  0  0  0  0
   -4.2232   -1.2197   -5.6237 H   0  0  0  0  0  0  0  0  0  0  0  0
   -5.7436   -1.9750   -5.2196 H   0  0  0  0  0  0  0  0  0  0  0  0
    0.2592   -1.4447    1.6128 C   0  0  0  0  0  0  0  0  0  0  0  0
    1.4628   -1.2364    1.6180 O   0  0  0  0  0  0  0  0  0  0  0  0
   -0.4800   -1.1216    2.7380 N   0  0  0  0  0  0  0  0  0  0  0  0
   -1.4680   -1.3439    2.7289 H   0  0  0  0  0  0  0  0  0  0  0  0
    0.1408   -0.7472    4.0054 C   0  0  0  0  0  0  0  0  0  0  0  0
    0.7590    0.1484    3.8806 H   0  0  0  0  0  0  0  0  0  0  0  0
   -0.6250   -0.5334    4.7574 H   0  0  0  0  0  0  0  0  0  0  0  0
    0.7737   -1.5607    4.3766 H   0  0  0  0  0  0  0  0  0  0  0  0
  1  2  1  0  0  0  0
  2  3  1  0  0  0  0
  2  4  1  0  0  0  0
  2  5  1  0  0  0  0
  5  6  2  0  0  0  0
  5  7  1  0  0  0  0
  7  8  1  0  0  0  0
  7  9  1  0  0  0  0
  9 10  1  0  0  0  0
  9 11  1  0  0  0  0
  9 29  1  0  0  0  0
 11 12  1  0  0  0  0
 11 13  1  0  0  0  0
 11 14  1  0  0  0  0
 14 15  1  0  0  0  0
 14 16  1  0  0  0  0
 14 17  1  0  0  0  0
 17 18  1  0  0  0  0
 17 19  1  0  0  0  0
 17 20  1  0  0  0  0
 20 21  1  0  0  0  0
 20 22  2  0  0  0  0
 22 23  1  0  0  0  0
 22 26  1  0  0  0  0
 23 24  1  0  0  0  0
 23 25  1  0  0  0  0
 26 27  1  0  0  0  0
 26 28  1  0  0  0  0
 29 30  2  0  0  0  0
 29 31  1  0  0  0  0
 31 32  1  0  0  0  0
 31 33  1  0  0  0  0
 33 34  1  0  0  0  0
 33 35  1  0  0  0  0
 33 36  1  0  0  0  0
M  CHG  1  20   1
M  END
$$$$

  -OEChem-04042215563D

 36 35  0     1  0  0  0  0  0999 V2000
   -1.6054   -6.0124    1.5640 H   0  0  0  0  0  0  0  0  0  0  0  0
   -2.0964   -5.1214    1.1607 C   0  0  0  0  0  0  0  0  0  0  0  0
   -2.7781   -4.7262    1.9173 H   0  0  0  0  0  0  0  0  0  0  0  0
   -2.6677   -5.4080    0.2751 H   0  0  0  0  0  0  0  0  0  0  0  0
   -1.0571   -4.0787    0.7954 C   0  0  0  0  0  0  0  0  0  0  0  0
    0.1256   -4.3372    0.9088 O   0  0  0  0  0  0  0  0  0  0  0  0
   -1.4535   -2.8341    0.3371 N   0  0  0  0  0  0  0  0  0  0  0  0
   -2.4417   -2.6311    0.4343 H   0  0  0  0  0  0  0  0  0  0  0  0
   -0.5184   -1.6939    0.2486 C   0  0  1  0  0  0  0  0  0  0  0  0
    0.3250   -2.0508   -0.3560 H   0  0  0  0  0  0  0  0  0  0  0  0
   -1.0722   -0.4631   -0.5040 C   0  0  0  0  0  0  0  0  0  0  0  0
   -1.7540    0.0802    0.1586 H   0  0  0  0  0  0  0  0  0  0  0  0
   -0.2280    0.2048   -0.7117 H   0  0  0  0  0  0  0  0  0  0  0  0
   -1.7985   -0.7480   -1.8322 C   0  0  0  0  0  0  0  0  0  0  0  0
   -1.8702    0.1963   -2.3822 H   0  0  0  0  0  0  0  0  0  0  0  0
   -1.1820   -1.4273   -2.4319 H   0  0  0  0  0  0  0  0  0  0  0  0
   -3.2028   -1.3351   -1.6773 C   0  0  0  0  0  0  0  0  0  0  0  0
   -3.1394   -2.3250   -1.2169 H   0  0  0  0  0  0  0  0  0  0  0  0
   -3.8052   -0.7004   -1.0190 H   0  0  0  0  0  0  0  0  0  0  0  0
   -3.8360   -1.4620   -3.0046 N   0  3  0  0  0  0  0  0  0  0  0  0
   -3.5978   -2.2917   -3.5482 H   0  0  0  0  0  0  0  0  0  0  0  0
   -4.6477   -0.5829   -3.5208 C   0  0  0  0  0  0  0  0  0  0  0  0
   -4.9793    0.5810   -2.8644 N   0  0  0  0  0  0  0  0  0  0  0  0
   -4.4305    0.8408   -2.0477 H   0  0  0  0  0  0  0  0  0  0  0  0
   -5.4320    1.3256   -3.3913 H   0  0  0  0  0  0  0  0  0  0  0  0
   -5.1893   -0.8126   -4.7631 N   0  0  0  0  0  0  0  0  0  0  0  0
   -5.0874   -1.7345   -5.1839 H   0  0  0  0  0  0  0  0  0  0  0  0
   -5.9587   -0.2244   -5.0789 H   0  0  0  0  0  0  0  0  0  0  0  0
    0.1179   -1.2678    1.5907 C   0  0  0  0  0  0  0  0  0  0  0  0
    1.2319   -0.7663    1.5837 O   0  0  0  0  0  0  0  0  0  0  0  0
   -0.6589   -1.1535    2.7311 N   0  0  0  0  0  0  0  0  0  0  0  0
   -1.5448   -1.6450    2.7350 H   0  0  0  0  0  0  0  0  0  0  0  0
   -0.1132   -0.6963    4.0056 C   0  0  0  0  0  0  0  0  0  0  0  0
    0.2712    0.3255    3.9151 H   0  0  0  0  0  0  0  0  0  0  0  0
   -0.8893   -0.7043    4.7770 H   0  0  0  0  0  0  0  0  0  0  0  0
    0.7041   -1.3503    4.3287 H   0  0  0  0  0  0  0  0  0  0  0  0
  1  2  1  0  0  0  0
  2  3  1  0  0  0  0
  2  4  1  0  0  0  0
  2  5  1  0  0  0  0
  5  6  2  0  0  0  0
  5  7  1  0  0  0  0
  7  8  1  0  0  0  0
  7  9  1  0  0  0  0
  9 10  1  0  0  0  0
  9 11  1  0  0  0  0
  9 29  1  0  0  0  0
 11 12  1  0  0  0  0
 11 13  1  0  0  0  0
 11 14  1  0  0  0  0
 14 15  1  0  0  0  0
 14 16  1  0  0  0  0
 14 17  1  0  0  0  0
 17 18  1  0  0  0  0
 17 19  1  0  0  0  0
 17 20  1  0  0  0  0
 20 21  1  0  0  0  0
 20 22  2  0  0  0  0
 22 23  1  0  0  0  0
 22 26  1  0  0  0  0
 23 24  1  0  0  0  0
 23 25  1  0  0  0  0
 26 27  1  0  0  0  0
 26 28  1  0  0  0  0
 29 30  2  0  0  0  0
 29 31  1  0  0  0  0
 31 32  1  0  0  0  0
 31 33  1  0  0  0  0
 33 34  1  0  0  0  0
 33 35  1  0  0  0  0
 33 36  1  0  0  0  0
M  CHG  1  20   1
M  END
$$$$

  -OEChem-04042215563D

 36 35  0     1  0  0  0  0  0999 V2000
   -1.7075   -6.0032    1.2232 H   0  0  0  0  0  0  0  0  0  0  0  0
   -2.1848   -5.0537    0.9629 C   0  0  0  0  0  0  0  0  0  0  0  0
   -2.7946   -4.7271    1.8085 H   0  0  0  0  0  0  0  0  0  0  0  0
   -2.8269   -5.2128    0.0938 H   0  0  0  0  0  0  0  0  0  0  0  0
   -1.1268   -4.0136    0.6474 C   0  0  0  0  0  0  0  0  0  0  0  0
    0.0509   -4.3011    0.7427 O   0  0  0  0  0  0  0  0  0  0  0  0
   -1.4977   -2.7384    0.2569 N   0  0  0  0  0  0  0  0  0  0  0  0
   -2.4820   -2.5187    0.3556 H   0  0  0  0  0  0  0  0  0  0  0  0
   -0.5346   -1.6183    0.2121 C   0  0  1  0  0  0  0  0  0  0  0  0
    0.2907   -1.9566   -0.4272 H   0  0  0  0  0  0  0  0  0  0  0  0
   -1.0967   -0.3480   -0.4584 C   0  0  0  0  0  0  0  0  0  0  0  0
   -1.7485    0.1813    0.2447 H   0  0  0  0  0  0  0  0  0  0  0  0
   -0.2502    0.3155   -0.6702 H   0  0  0  0  0  0  0  0  0  0  0  0
   -1.8570   -0.6025   -1.7716 C   0  0  0  0  0  0  0  0  0  0  0  0
   -1.7360    0.2798   -2.4090 H   0  0  0  0  0  0  0  0  0  0  0  0
   -1.4057   -1.4494   -2.3015 H   0  0  0  0  0  0  0  0  0  0  0  0
   -3.3504   -0.8494   -1.5509 C   0  0  0  0  0  0  0  0  0  0  0  0
   -3.4861   -1.7639   -0.9654 H   0  0  0  0  0  0  0  0  0  0  0  0
   -3.7872   -0.0247   -0.9776 H   0  0  0  0  0  0  0  0  0  0  0  0
   -4.0322   -0.9939   -2.8523 N   0  3  0  0  0  0  0  0  0  0  0  0
   -4.0285   -1.9228   -3.2732 H   0  0  0  0  0  0  0  0  0  0  0  0
   -4.6148   -0.0169   -3.4885 C   0  0  0  0  0  0  0  0  0  0  0  0
   -4.6169    1.2717   -3.0045 N   0  0  0  0  0  0  0  0  0  0  0  0
   -3.9940    1.4897   -2.2296 H   0  0  0  0  0  0  0  0  0  0  0  0
   -4.8711    2.0276   -3.6377 H   0  0  0  0  0  0  0  0  0  0  0  0
   -5.2429   -0.2685   -4.6850 N   0  0  0  0  0  0  0  0  0  0  0  0
   -5.3969   -1.2349   -4.9667 H   0  0  0  0  0  0  0  0  0  0  0  0
   -5.8605    0.4444   -5.0696 H   0  0  0  0  0  0  0  0  0  0  0  0
    0.1298   -1.2752    1.5640 C   0  0  0  0  0  0  0  0  0  0  0  0
    1.2544   -0.7979    1.5665 O   0  0  0  0  0  0  0  0  0  0  0  0
   -0.6311   -1.1991    2.7180 N   0  0  0  0  0  0  0  0  0  0  0  0
   -1.5271   -1.6722    2.7072 H   0  0  0  0  0  0  0  0  0  0  0  0
   -0.0584   -0.8297    4.0091 C   0  0  0  0  0  0  0  0  0  0  0  0
    0.3708    0.1774    3.9670 H   0  0  0  0  0  0  0  0  0  0  0  0
   -0.8301   -0.8413    4.7847 H   0  0  0  0  0  0  0  0  0  0  0  0
    0.7298   -1.5352    4.2941 H   0  0  0  0  0  0  0  0  0  0  0  0
  1  2  1  0  0  0  0
  2  3  1  0  0  0  0
  2  4  1  0  0  0  0
  2  5  1  0  0  0  0
  5  6  2  0  0  0  0
  5  7  1  0  0  0  0
  7  8  1  0  0  0  0
  7  9  1  0  0  0  0
  9 10  1  0  0  0  0
  9 11  1  0  0  0  0
  9 29  1  0  0  0  0
 11 12  1  0  0  0  0
 11 13  1  0  0  0  0
 11 14  1  0  0  0  0
 14 15  1  0  0  0  0
 14 16  1  0  0  0  0
 14 17  1  0  0  0  0
 17 18  1  0  0  0  0
 17 19  1  0  0  0  0
 17 20  1  0  0  0  0
 20 21  1  0  0  0  0
 20 22  2  0  0  0  0
 22 23  1  0  0  0  0
 22 26  1  0  0  0  0
 23 24  1  0  0  0  0
 23 25  1  0  0  0  0
 26 27  1  0  0  0  0
 26 28  1  0  0  0  0
 29 30  2  0  0  0  0
 29 31  1  0  0  0  0
 31 32  1  0  0  0  0
 31 33  1  0  0  0  0
 33 34  1  0  0  0  0
 33 35  1  0  0  0  0
 33 36  1  0  0  0  0
M  CHG  1  20   1
M  END
$$$$

  -OEChem-04042215563D

 36 35  0     1  0  0  0  0  0999 V2000
   -1.8627   -5.9508    1.1803 H   0  0  0  0  0  0  0  0  0  0  0  0
   -2.2989   -5.0054    0.8436 C   0  0  0  0  0  0  0  0  0  0  0  0
   -2.9911   -4.6486    1.6096 H   0  0  0  0  0  0  0  0  0  0  0  0
   -2.8473   -5.1848   -0.0838 H   0  0  0  0  0  0  0  0  0  0  0  0
   -1.2036   -3.9822    0.6115 C   0  0  0  0  0  0  0  0  0  0  0  0
   -0.0390   -4.2954    0.7669 O   0  0  0  0  0  0  0  0  0  0  0  0
   -1.5266   -2.6915    0.2315 N   0  0  0  0  0  0  0  0  0  0  0  0
   -2.5112   -2.4523    0.2540 H   0  0  0  0  0  0  0  0  0  0  0  0
   -0.5343   -1.5969    0.1999 C   0  0  1  0  0  0  0  0  0  0  0  0
    0.2822   -1.9451   -0.4446 H   0  0  0  0  0  0  0  0  0  0  0  0
   -1.0808   -0.3127   -0.4535 C   0  0  0  0  0  0  0  0  0  0  0  0
   -1.7185    0.2177    0.2620 H   0  0  0  0  0  0  0  0  0  0  0  0
   -0.2268    0.3416   -0.6637 H   0  0  0  0  0  0  0  0  0  0  0  0
   -1.8521   -0.5531   -1.7650 C   0  0  0  0  0  0  0  0  0  0  0  0
   -1.5205    0.1956   -2.4924 H   0  0  0  0  0  0  0  0  0  0  0  0
   -1.6029   -1.5351   -2.1831 H   0  0  0  0  0  0  0  0  0  0  0  0
   -3.3638   -0.4179   -1.5758 C   0  0  0  0  0  0  0  0  0  0  0  0
   -3.7241   -1.2293   -0.9347 H   0  0  0  0  0  0  0  0  0  0  0  0
   -3.5947    0.5255   -1.0698 H   0  0  0  0  0  0  0  0  0  0  0  0
   -4.0379   -0.4803   -2.8881 N   0  3  0  0  0  0  0  0  0  0  0  0
   -4.1728   -1.4058   -3.2943 H   0  0  0  0  0  0  0  0  0  0  0  0
   -4.4395    0.5650   -3.5554 C   0  0  0  0  0  0  0  0  0  0  0  0
   -4.2541    1.8465   -3.0882 N   0  0  0  0  0  0  0  0  0  0  0  0
   -3.6314    1.9803   -2.2943 H   0  0  0  0  0  0  0  0  0  0  0  0
   -4.3805    2.6248   -3.7325 H   0  0  0  0  0  0  0  0  0  0  0  0
   -5.0607    0.3969   -4.7701 N   0  0  0  0  0  0  0  0  0  0  0  0
   -5.3540   -0.5368   -5.0508 H   0  0  0  0  0  0  0  0  0  0  0  0
   -5.5350    1.1941   -5.1910 H   0  0  0  0  0  0  0  0  0  0  0  0
    0.1365   -1.2773    1.5540 C   0  0  0  0  0  0  0  0  0  0  0  0
    1.2691   -0.8183    1.5576 O   0  0  0  0  0  0  0  0  0  0  0  0
   -0.6247   -1.1880    2.7069 N   0  0  0  0  0  0  0  0  0  0  0  0
   -1.5200   -1.6634    2.6971 H   0  0  0  0  0  0  0  0  0  0  0  0
   -0.0443   -0.8346    3.9990 C   0  0  0  0  0  0  0  0  0  0  0  0
    0.4139    0.1594    3.9564 H   0  0  0  0  0  0  0  0  0  0  0  0
   -0.8177   -0.8227    4.7731 H   0  0  0  0  0  0  0  0  0  0  0  0
    0.7229   -1.5620    4.2859 H   0  0  0  0  0  0  0  0  0  0  0  0
  1  2  1  0  0  0  0
  2  3  1  0  0  0  0
  2  4  1  0  0  0  0
  2  5  1  0  0  0  0
  5  6  2  0  0  0  0
  5  7  1  0  0  0  0
  7  8  1  0  0  0  0
  7  9  1  0  0  0  0
  9 10  1  0  0  0  0
  9 11  1  0  0  0  0
  9 29  1  0  0  0  0
 11 12  1  0  0  0  0
 11 13  1  0  0  0  0
 11 14  1  0  0  0  0
 14 15  1  0  0  0  0
 14 16  1  0  0  0  0
 14 17  1  0  0  0  0
 17 18  1  0  0  0  0
 17 19  1  0  0  0  0
 17 20  1  0  0  0  0
 20 21  1  0  0  0  0
 20 22  2  0  0  0  0
 22 23  1  0  0  0  0
 22 26  1  0  0  0  0
 23 24  1  0  0  0  0
 23 25  1  0  0  0  0
 26 27  1  0  0  0  0
 26 28  1  0  0  0  0
 29 30  2  0  0  0  0
 29 31  1  0  0  0  0
 31 32  1  0  0  0  0
 31 33  1  0  0  0  0
 33 34  1  0  0  0  0
 33 35  1  0  0  0  0
 33 36  1  0  0  0  0
M  CHG  1  20   1
M  END
$$$$

  -OEChem-04042215563D

 36 35  0     1  0  0  0  0  0999 V2000
   -2.5530   -5.7573    1.0705 H   0  0  0  0  0  0  0  0  0  0  0  0
   -2.7973   -4.7379    0.7562 C   0  0  0  0  0  0  0  0  0  0  0  0
   -3.4848   -4.3023    1.4848 H   0  0  0  0  0  0  0  0  0  0  0  0
   -3.2851   -4.7815   -0.2202 H   0  0  0  0  0  0  0  0  0  0  0  0
   -1.5315   -3.9065    0.6706 C   0  0  0  0  0  0  0  0  0  0  0  0
   -0.4667   -4.3893    1.0047 O   0  0  0  0  0  0  0  0  0  0  0  0
   -1.5841   -2.6018    0.2128 N   0  0  0  0  0  0  0  0  0  0  0  0
   -2.5040   -2.2177    0.0291 H   0  0  0  0  0  0  0  0  0  0  0  0
   -0.4143   -1.6982    0.2036 C   0  0  1  0  0  0  0  0  0  0  0  0
    0.3662   -2.2156   -0.3675 H   0  0  0  0  0  0  0  0  0  0  0  0
   -0.6874   -0.3709   -0.5326 C   0  0  0  0  0  0  0  0  0  0  0  0
   -1.2725    0.2775    0.1288 H   0  0  0  0  0  0  0  0  0  0  0  0
    0.2724    0.1318   -0.6992 H   0  0  0  0  0  0  0  0  0  0  0  0
   -1.4136   -0.5175   -1.8861 C   0  0  0  0  0  0  0  0  0  0  0  0
   -0.7672   -0.0975   -2.6655 H   0  0  0  0  0  0  0  0  0  0  0  0
   -1.5708   -1.5715   -2.1382 H   0  0  0  0  0  0  0  0  0  0  0  0
   -2.7467    0.2315   -1.8854 C   0  0  0  0  0  0  0  0  0  0  0  0
   -3.4239   -0.2274   -1.1569 H   0  0  0  0  0  0  0  0  0  0  0  0
   -2.5670    1.2694   -1.5853 H   0  0  0  0  0  0  0  0  0  0  0  0
   -3.3428    0.1896   -3.2344 N   0  3  0  0  0  0  0  0  0  0  0  0
   -2.9694   -0.5012   -3.8850 H   0  0  0  0  0  0  0  0  0  0  0  0
   -4.2868    0.9920   -3.6366 C   0  0  0  0  0  0  0  0  0  0  0  0
   -4.8174    1.9629   -2.8171 N   0  0  0  0  0  0  0  0  0  0  0  0
   -4.3339    2.1694   -1.9456 H   0  0  0  0  0  0  0  0  0  0  0  0
   -5.3813    2.7000   -3.2363 H   0  0  0  0  0  0  0  0  0  0  0  0
   -4.7755    0.8755   -4.9163 N   0  0  0  0  0  0  0  0  0  0  0  0
   -4.5089    0.0697   -5.4795 H   0  0  0  0  0  0  0  0  0  0  0  0
   -5.6297    1.3727   -5.1628 H   0  0  0  0  0  0  0  0  0  0  0  0
    0.2151   -1.4222    1.5879 C   0  0  0  0  0  0  0  0  0  0  0  0
    1.4085   -1.1657    1.6524 O   0  0  0  0  0  0  0  0  0  0  0  0
   -0.5900   -1.1371    2.6775 N   0  0  0  0  0  0  0  0  0  0  0  0
   -1.5510   -1.4558    2.6243 H   0  0  0  0  0  0  0  0  0  0  0  0
   -0.0409   -0.8086    3.9899 C   0  0  0  0  0  0  0  0  0  0  0  0
    0.5885    0.0860    3.9314 H   0  0  0  0  0  0  0  0  0  0  0  0
   -0.8481   -0.6132    4.7022 H   0  0  0  0  0  0  0  0  0  0  0  0
    0.5644   -1.6383    4.3706 H   0  0  0  0  0  0  0  0  0  0  0  0
  1  2  1  0  0  0  0
  2  3  1  0  0  0  0
  2  4  1  0  0  0  0
  2  5  1  0  0  0  0
  5  6  2  0  0  0  0
  5  7  1  0  0  0  0
  7  8  1  0  0  0  0
  7  9  1  0  0  0  0
  9 10  1  0  0  0  0
  9 11  1  0  0  0  0
  9 29  1  0  0  0  0
 11 12  1  0  0  0  0
 11 13  1  0  0  0  0
 11 14  1  0  0  0  0
 14 15  1  0  0  0  0
 14 16  1  0  0  0  0
 14 17  1  0  0  0  0
 17 18  1  0  0  0  0
 17 19  1  0  0  0  0
 17 20  1  0  0  0  0
 20 21  1  0  0  0  0
 20 22  2  0  0  0  0
 22 23  1  0  0  0  0
 22 26  1  0  0  0  0
 23 24  1  0  0  0  0
 23 25  1  0  0  0  0
 26 27  1  0  0  0  0
 26 28  1  0  0  0  0
 29 30  2  0  0  0  0
 29 31  1  0  0  0  0
 31 32  1  0  0  0  0
 31 33  1  0  0  0  0
 33 34  1  0  0  0  0
 33 35  1  0  0  0  0
 33 36  1  0  0  0  0
M  CHG  1  20   1
M  END
$$$$

  -OEChem-04042215563D

 36 35  0     1  0  0  0  0  0999 V2000
   -2.5116   -5.7755    1.1204 H   0  0  0  0  0  0  0  0  0  0  0  0
   -2.7716   -4.7694    0.7771 C   0  0  0  0  0  0  0  0  0  0  0  0
   -3.4596   -4.3208    1.4972 H   0  0  0  0  0  0  0  0  0  0  0  0
   -3.2666   -4.8492   -0.1934 H   0  0  0  0  0  0  0  0  0  0  0  0
   -1.5182   -3.9238    0.6565 C   0  0  0  0  0  0  0  0  0  0  0  0
   -0.4398   -4.3923    0.9671 O   0  0  0  0  0  0  0  0  0  0  0  0
   -1.5975   -2.6203    0.1990 N   0  0  0  0  0  0  0  0  0  0  0  0
   -2.5277   -2.2458    0.0484 H   0  0  0  0  0  0  0  0  0  0  0  0
   -0.4431   -1.6972    0.1823 C   0  0  1  0  0  0  0  0  0  0  0  0
    0.3421   -2.2035   -0.3922 H   0  0  0  0  0  0  0  0  0  0  0  0
   -0.7270   -0.3687   -0.5500 C   0  0  0  0  0  0  0  0  0  0  0  0
   -1.3319    0.2514    0.1205 H   0  0  0  0  0  0  0  0  0  0  0  0
    0.2199    0.1615   -0.7038 H   0  0  0  0  0  0  0  0  0  0  0  0
   -1.4540   -0.5011   -1.9048 C   0  0  0  0  0  0  0  0  0  0  0  0
   -0.7220   -0.3491   -2.7064 H   0  0  0  0  0  0  0  0  0  0  0  0
   -1.8716   -1.5031   -2.0382 H   0  0  0  0  0  0  0  0  0  0  0  0
   -2.5775    0.5300   -2.0175 C   0  0  0  0  0  0  0  0  0  0  0  0
   -3.3504    0.3103   -1.2729 H   0  0  0  0  0  0  0  0  0  0  0  0
   -2.1647    1.5219   -1.8040 H   0  0  0  0  0  0  0  0  0  0  0  0
   -3.1542    0.5023   -3.3753 N   0  3  0  0  0  0  0  0  0  0  0  0
   -2.9771   -0.3291   -3.9384 H   0  0  0  0  0  0  0  0  0  0  0  0
   -3.8470    1.4798   -3.8872 C   0  0  0  0  0  0  0  0  0  0  0  0
   -4.1004    2.6378   -3.1871 N   0  0  0  0  0  0  0  0  0  0  0  0
   -3.5916    2.7923   -2.3192 H   0  0  0  0  0  0  0  0  0  0  0  0
   -4.4326    3.4538   -3.6977 H   0  0  0  0  0  0  0  0  0  0  0  0
   -4.3446    1.3653   -5.1637 N   0  0  0  0  0  0  0  0  0  0  0  0
   -4.3059    0.4618   -5.6319 H   0  0  0  0  0  0  0  0  0  0  0  0
   -5.0390    2.0399   -5.4807 H   0  0  0  0  0  0  0  0  0  0  0  0
    0.1865   -1.4147    1.5646 C   0  0  0  0  0  0  0  0  0  0  0  0
    1.3733   -1.1282    1.6243 O   0  0  0  0  0  0  0  0  0  0  0  0
   -0.6220   -1.1459    2.6558 N   0  0  0  0  0  0  0  0  0  0  0  0
   -1.5768   -1.4837    2.6056 H   0  0  0  0  0  0  0  0  0  0  0  0
   -0.0782   -0.7961    3.9646 C   0  0  0  0  0  0  0  0  0  0  0  0
    0.5292    0.1131    3.8985 H   0  0  0  0  0  0  0  0  0  0  0  0
   -0.8887   -0.6158    4.6773 H   0  0  0  0  0  0  0  0  0  0  0  0
    0.5479   -1.6081    4.3496 H   0  0  0  0  0  0  0  0  0  0  0  0
  1  2  1  0  0  0  0
  2  3  1  0  0  0  0
  2  4  1  0  0  0  0
  2  5  1  0  0  0  0
  5  6  2  0  0  0  0
  5  7  1  0  0  0  0
  7  8  1  0  0  0  0
  7  9  1  0  0  0  0
  9 10  1  0  0  0  0
  9 11  1  0  0  0  0
  9 29  1  0  0  0  0
 11 12  1  0  0  0  0
 11 13  1  0  0  0  0
 11 14  1  0  0  0  0
 14 15  1  0  0  0  0
 14 16  1  0  0  0  0
 14 17  1  0  0  0  0
 17 18  1  0  0  0  0
 17 19  1  0  0  0  0
 17 20  1  0  0  0  0
 20 21  1  0  0  0  0
 20 22  2  0  0  0  0
 22 23  1  0  0  0  0
 22 26  1  0  0  0  0
 23 24  1  0  0  0  0
 23 25  1  0  0  0  0
 26 27  1  0  0  0  0
 26 28  1  0  0  0  0
 29 30  2  0  0  0  0
 29 31  1  0  0  0  0
 31 32  1  0  0  0  0
 31 33  1  0  0  0  0
 33 34  1  0  0  0  0
 33 35  1  0  0  0  0
 33 36  1  0  0  0  0
M  CHG  1  20   1
M  END
$$$$

  -OEChem-04042215563D

 36 35  0     1  0  0  0  0  0999 V2000
   -2.7774   -5.6120    1.1392 H   0  0  0  0  0  0  0  0  0  0  0  0
   -2.9604   -4.6082    0.7441 C   0  0  0  0  0  0  0  0  0  0  0  0
   -3.6437   -4.0869    1.4185 H   0  0  0  0  0  0  0  0  0  0  0  0
   -3.4249   -4.6987   -0.2405 H   0  0  0  0  0  0  0  0  0  0  0  0
   -1.6522   -3.8485    0.6343 C   0  0  0  0  0  0  0  0  0  0  0  0
   -0.6096   -4.3841    0.9591 O   0  0  0  0  0  0  0  0  0  0  0  0
   -1.6430   -2.5449    0.1714 N   0  0  0  0  0  0  0  0  0  0  0  0
   -2.5463   -2.1136    0.0071 H   0  0  0  0  0  0  0  0  0  0  0  0
   -0.4346   -1.6945    0.1656 C   0  0  1  0  0  0  0  0  0  0  0  0
    0.3254   -2.2532   -0.3940 H   0  0  0  0  0  0  0  0  0  0  0  0
   -0.6248   -0.3600   -0.5851 C   0  0  0  0  0  0  0  0  0  0  0  0
   -1.2147    0.2945    0.0656 H   0  0  0  0  0  0  0  0  0  0  0  0
    0.3509    0.1195   -0.7242 H   0  0  0  0  0  0  0  0  0  0  0  0
   -1.3347   -0.4689   -1.9486 C   0  0  0  0  0  0  0  0  0  0  0  0
   -0.5794   -0.6532   -2.7210 H   0  0  0  0  0  0  0  0  0  0  0  0
   -2.0368   -1.3068   -1.9701 H   0  0  0  0  0  0  0  0  0  0  0  0
   -2.1070    0.8172   -2.2434 C   0  0  0  0  0  0  0  0  0  0  0  0
   -2.9268    0.9202   -1.5238 H   0  0  0  0  0  0  0  0  0  0  0  0
   -1.4311    1.6719   -2.1251 H   0  0  0  0  0  0  0  0  0  0  0  0
   -2.6323    0.7833   -3.6208 N   0  3  0  0  0  0  0  0  0  0  0  0
   -2.3382    0.0051   -4.2102 H   0  0  0  0  0  0  0  0  0  0  0  0
   -3.3769    1.7206   -4.1333 C   0  0  0  0  0  0  0  0  0  0  0  0
   -3.7609    2.8238   -3.4053 N   0  0  0  0  0  0  0  0  0  0  0  0
   -3.3032    2.9855   -2.5107 H   0  0  0  0  0  0  0  0  0  0  0  0
   -4.1305    3.6311   -3.9039 H   0  0  0  0  0  0  0  0  0  0  0  0
   -3.7945    1.6156   -5.4385 N   0  0  0  0  0  0  0  0  0  0  0  0
   -3.6550    0.7362   -5.9324 H   0  0  0  0  0  0  0  0  0  0  0  0
   -4.5284    2.2398   -5.7691 H   0  0  0  0  0  0  0  0  0  0  0  0
    0.1954   -1.4434    1.5538 C   0  0  0  0  0  0  0  0  0  0  0  0
    1.3981   -1.2365    1.6253 O   0  0  0  0  0  0  0  0  0  0  0  0
   -0.6033   -1.1200    2.6370 N   0  0  0  0  0  0  0  0  0  0  0  0
   -1.5771   -1.3962    2.5776 H   0  0  0  0  0  0  0  0  0  0  0  0
   -0.0458   -0.8285    3.9546 C   0  0  0  0  0  0  0  0  0  0  0  0
    0.6160    0.0432    3.9086 H   0  0  0  0  0  0  0  0  0  0  0  0
   -0.8468   -0.6132    4.6685 H   0  0  0  0  0  0  0  0  0  0  0  0
    0.5287   -1.6847    4.3247 H   0  0  0  0  0  0  0  0  0  0  0  0
  1  2  1  0  0  0  0
  2  3  1  0  0  0  0
  2  4  1  0  0  0  0
  2  5  1  0  0  0  0
  5  6  2  0  0  0  0
  5  7  1  0  0  0  0
  7  8  1  0  0  0  0
  7  9  1  0  0  0  0
  9 10  1  0  0  0  0
  9 11  1  0  0  0  0
  9 29  1  0  0  0  0
 11 12  1  0  0  0  0
 11 13  1  0  0  0  0
 11 14  1  0  0  0  0
 14 15  1  0  0  0  0
 14 16  1  0  0  0  0
 14 17  1  0  0  0  0
 17 18  1  0  0  0  0
 17 19  1  0  0  0  0
 17 20  1  0  0  0  0
 20 21  1  0  0  0  0
 20 22  2  0  0  0  0
 22 23  1  0  0  0  0
 22 26  1  0  0  0  0
 23 24  1  0  0  0  0
 23 25  1  0  0  0  0
 26 27  1  0  0  0  0
 26 28  1  0  0  0  0
 29 30  2  0  0  0  0
 29 31  1  0  0  0  0
 31 32  1  0  0  0  0
 31 33  1  0  0  0  0
 33 34  1  0  0  0  0
 33 35  1  0  0  0  0
 33 36  1  0  0  0  0
M  CHG  1  20   1
M  END
$$$$

  -OEChem-04042215563D

 36 35  0     1  0  0  0  0  0999 V2000
   -2.8122   -5.5845    1.1187 H   0  0  0  0  0  0  0  0  0  0  0  0
   -2.9853   -4.5796    0.7224 C   0  0  0  0  0  0  0  0  0  0  0  0
   -3.6598   -4.0492    1.3984 H   0  0  0  0  0  0  0  0  0  0  0  0
   -3.4552   -4.6671   -0.2597 H   0  0  0  0  0  0  0  0  0  0  0  0
   -1.6689   -3.8350    0.6059 C   0  0  0  0  0  0  0  0  0  0  0  0
   -0.6308   -4.3812    0.9279 O   0  0  0  0  0  0  0  0  0  0  0  0
   -1.6469   -2.5324    0.1406 N   0  0  0  0  0  0  0  0  0  0  0  0
   -2.5468   -2.0906   -0.0153 H   0  0  0  0  0  0  0  0  0  0  0  0
   -0.4318   -1.6920    0.1444 C   0  0  1  0  0  0  0  0  0  0  0  0
    0.3286   -2.2544   -0.4108 H   0  0  0  0  0  0  0  0  0  0  0  0
   -0.6131   -0.3551   -0.6028 C   0  0  0  0  0  0  0  0  0  0  0  0
   -1.2018    0.3084    0.0402 H   0  0  0  0  0  0  0  0  0  0  0  0
    0.3680    0.1133   -0.7419 H   0  0  0  0  0  0  0  0  0  0  0  0
   -1.3192   -0.4705   -1.9646 C   0  0  0  0  0  0  0  0  0  0  0  0
   -0.6255   -0.9150   -2.6873 H   0  0  0  0  0  0  0  0  0  0  0  0
   -2.1993   -1.1167   -1.9013 H   0  0  0  0  0  0  0  0  0  0  0  0
   -1.7645    0.9174   -2.4243 C   0  0  0  0  0  0  0  0  0  0  0  0
   -2.5338    1.2929   -1.7405 H   0  0  0  0  0  0  0  0  0  0  0  0
   -0.9043    1.5955   -2.3851 H   0  0  0  0  0  0  0  0  0  0  0  0
   -2.2878    0.8553   -3.8018 N   0  3  0  0  0  0  0  0  0  0  0  0
   -2.1732   -0.0249   -4.3032 H   0  0  0  0  0  0  0  0  0  0  0  0
   -2.8122    1.8745   -4.4204 C   0  0  0  0  0  0  0  0  0  0  0  0
   -2.9422    3.1035   -3.8143 N   0  0  0  0  0  0  0  0  0  0  0  0
   -2.4570    3.2512   -2.9316 H   0  0  0  0  0  0  0  0  0  0  0  0
   -3.1269    3.9170   -4.3983 H   0  0  0  0  0  0  0  0  0  0  0  0
   -3.2478    1.7315   -5.7164 N   0  0  0  0  0  0  0  0  0  0  0  0
   -3.3061    0.7975   -6.1179 H   0  0  0  0  0  0  0  0  0  0  0  0
   -3.8287    2.4640   -6.1209 H   0  0  0  0  0  0  0  0  0  0  0  0
    0.1885   -1.4430    1.5373 C   0  0  0  0  0  0  0  0  0  0  0  0
    1.3922   -1.2447    1.6188 O   0  0  0  0  0  0  0  0  0  0  0  0
   -0.6180   -1.1106    2.6122 N   0  0  0  0  0  0  0  0  0  0  0  0
   -1.5954   -1.3727    2.5435 H   0  0  0  0  0  0  0  0  0  0  0  0
   -0.0745   -0.8012    3.9312 C   0  0  0  0  0  0  0  0  0  0  0  0
    0.5884    0.0693    3.8793 H   0  0  0  0  0  0  0  0  0  0  0  0
   -0.8830   -0.5749    4.6330 H   0  0  0  0  0  0  0  0  0  0  0  0
    0.4946   -1.6525    4.3201 H   0  0  0  0  0  0  0  0  0  0  0  0
  1  2  1  0  0  0  0
  2  3  1  0  0  0  0
  2  4  1  0  0  0  0
  2  5  1  0  0  0  0
  5  6  2  0  0  0  0
  5  7  1  0  0  0  0
  7  8  1  0  0  0  0
  7  9  1  0  0  0  0
  9 10  1  0  0  0  0
  9 11  1  0  0  0  0
  9 29  1  0  0  0  0
 11 12  1  0  0  0  0
 11 13  1  0  0  0  0
 11 14  1  0  0  0  0
 14 15  1  0  0  0  0
 14 16  1  0  0  0  0
 14 17  1  0  0  0  0
 17 18  1  0  0  0  0
 17 19  1  0  0  0  0
 17 20  1  0  0  0  0
 20 21  1  0  0  0  0
 20 22  2  0  0  0  0
 22 23  1  0  0  0  0
 22 26  1  0  0  0  0
 23 24  1  0  0  0  0
 23 25  1  0  0  0  0
 26 27  1  0  0  0  0
 26 28  1  0  0  0  0
 29 30  2  0  0  0  0
 29 31  1  0  0  0  0
 31 32  1  0  0  0  0
 31 33  1  0  0  0  0
 33 34  1  0  0  0  0
 33 35  1  0  0  0  0
 33 36  1  0  0  0  0
M  CHG  1  20   1
M  END
$$$$

  -OEChem-04042215563D

 36 35  0     1  0  0  0  0  0999 V2000
   -2.7900   -5.6017    1.1304 H   0  0  0  0  0  0  0  0  0  0  0  0
   -2.9706   -4.6077    0.7099 C   0  0  0  0  0  0  0  0  0  0  0  0
   -3.6703   -4.0757    1.3586 H   0  0  0  0  0  0  0  0  0  0  0  0
   -3.4144   -4.7227   -0.2817 H   0  0  0  0  0  0  0  0  0  0  0  0
   -1.6646   -3.8426    0.6096 C   0  0  0  0  0  0  0  0  0  0  0  0
   -0.6225   -4.3756    0.9407 O   0  0  0  0  0  0  0  0  0  0  0  0
   -1.6547   -2.5393    0.1453 N   0  0  0  0  0  0  0  0  0  0  0  0
   -2.5583   -2.1087   -0.0177 H   0  0  0  0  0  0  0  0  0  0  0  0
   -0.4465   -1.6879    0.1533 C   0  0  1  0  0  0  0  0  0  0  0  0
    0.3150   -2.2565   -0.3945 H   0  0  0  0  0  0  0  0  0  0  0  0
   -0.6121   -0.3573   -0.6128 C   0  0  0  0  0  0  0  0  0  0  0  0
   -0.9682    0.4034    0.0911 H   0  0  0  0  0  0  0  0  0  0  0  0
    0.3758   -0.0367   -0.9634 H   0  0  0  0  0  0  0  0  0  0  0  0
   -1.5908   -0.4003   -1.7957 C   0  0  0  0  0  0  0  0  0  0  0  0
   -1.2504   -1.1487   -2.5198 H   0  0  0  0  0  0  0  0  0  0  0  0
   -2.5940   -0.6772   -1.4580 H   0  0  0  0  0  0  0  0  0  0  0  0
   -1.6380    0.9840   -2.4426 C   0  0  0  0  0  0  0  0  0  0  0  0
   -2.0177    1.7065   -1.7112 H   0  0  0  0  0  0  0  0  0  0  0  0
   -0.6201    1.2789   -2.7229 H   0  0  0  0  0  0  0  0  0  0  0  0
   -2.4987    0.9723   -3.6399 N   0  3  0  0  0  0  0  0  0  0  0  0
   -2.7916    0.0636   -3.9963 H   0  0  0  0  0  0  0  0  0  0  0  0
   -2.8344    2.0499   -4.2901 C   0  0  0  0  0  0  0  0  0  0  0  0
   -2.4142    3.2984   -3.8904 N   0  0  0  0  0  0  0  0  0  0  0  0
   -1.6894    3.3505   -3.1772 H   0  0  0  0  0  0  0  0  0  0  0  0
   -2.4944    4.0730   -4.5464 H   0  0  0  0  0  0  0  0  0  0  0  0
   -3.6268    1.9507   -5.4089 N   0  0  0  0  0  0  0  0  0  0  0  0
   -4.0838    1.0637   -5.6122 H   0  0  0  0  0  0  0  0  0  0  0  0
   -4.0430    2.8001   -5.7870 H   0  0  0  0  0  0  0  0  0  0  0  0
    0.1729   -1.4314    1.5453 C   0  0  0  0  0  0  0  0  0  0  0  0
    1.3724   -1.2085    1.6225 O   0  0  0  0  0  0  0  0  0  0  0  0
   -0.6369   -1.1051    2.6195 N   0  0  0  0  0  0  0  0  0  0  0  0
   -1.6095   -1.3851    2.5545 H   0  0  0  0  0  0  0  0  0  0  0  0
   -0.0967   -0.7753    3.9351 C   0  0  0  0  0  0  0  0  0  0  0  0
    0.5653    0.0951    3.8718 H   0  0  0  0  0  0  0  0  0  0  0  0
   -0.9071   -0.5389    4.6313 H   0  0  0  0  0  0  0  0  0  0  0  0
    0.4726   -1.6196    4.3387 H   0  0  0  0  0  0  0  0  0  0  0  0
  1  2  1  0  0  0  0
  2  3  1  0  0  0  0
  2  4  1  0  0  0  0
  2  5  1  0  0  0  0
  5  6  2  0  0  0  0
  5  7  1  0  0  0  0
  7  8  1  0  0  0  0
  7  9  1  0  0  0  0
  9 10  1  0  0  0  0
  9 11  1  0  0  0  0
  9 29  1  0  0  0  0
 11 12  1  0  0  0  0
 11 13  1  0  0  0  0
 11 14  1  0  0  0  0
 14 15  1  0  0  0  0
 14 16  1  0  0  0  0
 14 17  1  0  0  0  0
 17 18  1  0  0  0  0
 17 19  1  0  0  0  0
 17 20  1  0  0  0  0
 20 21  1  0  0  0  0
 20 22  2  0  0  0  0
 22 23  1  0  0  0  0
 22 26  1  0  0  0  0
 23 24  1  0  0  0  0
 23 25  1  0  0  0  0
 26 27  1  0  0  0  0
 26 28  1  0  0  0  0
 29 30  2  0  0  0  0
 29 31  1  0  0  0  0
 31 32  1  0  0  0  0
 31 33  1  0  0  0  0
 33 34  1  0  0  0  0
 33 35  1  0  0  0  0
 33 36  1  0  0  0  0
M  CHG  1  20   1
M  END
$$$$

  -OEChem-04042215563D

 36 35  0     1  0  0  0  0  0999 V2000
   -2.8226   -5.5672    1.1300 H   0  0  0  0  0  0  0  0  0  0  0  0
   -2.9943   -4.5743    0.7036 C   0  0  0  0  0  0  0  0  0  0  0  0
   -3.6858   -4.0309    1.3514 H   0  0  0  0  0  0  0  0  0  0  0  0
   -3.4437   -4.6915   -0.2851 H   0  0  0  0  0  0  0  0  0  0  0  0
   -1.6804   -3.8242    0.5939 C   0  0  0  0  0  0  0  0  0  0  0  0
   -0.6420   -4.3703    0.9157 O   0  0  0  0  0  0  0  0  0  0  0  0
   -1.6578   -2.5210    0.1295 N   0  0  0  0  0  0  0  0  0  0  0  0
   -2.5570   -2.0780   -0.0256 H   0  0  0  0  0  0  0  0  0  0  0  0
   -0.4409   -1.6821    0.1428 C   0  0  1  0  0  0  0  0  0  0  0  0
    0.3170   -2.2555   -0.4047 H   0  0  0  0  0  0  0  0  0  0  0  0
   -0.6021   -0.3505   -0.6201 C   0  0  0  0  0  0  0  0  0  0  0  0
   -0.9431    0.4241    0.0760 H   0  0  0  0  0  0  0  0  0  0  0  0
    0.3901   -0.0504   -0.9768 H   0  0  0  0  0  0  0  0  0  0  0  0
   -1.5851   -0.4009   -1.7991 C   0  0  0  0  0  0  0  0  0  0  0  0
   -1.3957   -1.3031   -2.3916 H   0  0  0  0  0  0  0  0  0  0  0  0
   -2.6165   -0.4350   -1.4339 H   0  0  0  0  0  0  0  0  0  0  0  0
   -1.3712    0.8347   -2.6731 C   0  0  0  0  0  0  0  0  0  0  0  0
   -1.5791    1.7306   -2.0772 H   0  0  0  0  0  0  0  0  0  0  0  0
   -0.3227    0.8665   -2.9910 H   0  0  0  0  0  0  0  0  0  0  0  0
   -2.2491    0.7973   -3.8571 N   0  3  0  0  0  0  0  0  0  0  0  0
   -2.7392   -0.0754   -4.0486 H   0  0  0  0  0  0  0  0  0  0  0  0
   -2.3694    1.7924   -4.6891 C   0  0  0  0  0  0  0  0  0  0  0  0
   -1.6847    2.9735   -4.5121 N   0  0  0  0  0  0  0  0  0  0  0  0
   -0.9448    2.9945   -3.8130 H   0  0  0  0  0  0  0  0  0  0  0  0
   -1.6211    3.6226   -5.2939 H   0  0  0  0  0  0  0  0  0  0  0  0
   -3.1964    1.6717   -5.7805 N   0  0  0  0  0  0  0  0  0  0  0  0
   -3.8369    0.8817   -5.8294 H   0  0  0  0  0  0  0  0  0  0  0  0
   -3.4322    2.5115   -6.3068 H   0  0  0  0  0  0  0  0  0  0  0  0
    0.1767   -1.4313    1.5360 C   0  0  0  0  0  0  0  0  0  0  0  0
    1.3795   -1.2290    1.6182 O   0  0  0  0  0  0  0  0  0  0  0  0
   -0.6331   -1.0962    2.6073 N   0  0  0  0  0  0  0  0  0  0  0  0
   -1.6131   -1.3463    2.5328 H   0  0  0  0  0  0  0  0  0  0  0  0
   -0.0959   -0.7726    3.9255 C   0  0  0  0  0  0  0  0  0  0  0  0
    0.5786    0.0884    3.8653 H   0  0  0  0  0  0  0  0  0  0  0  0
   -0.9070   -0.5243    4.6170 H   0  0  0  0  0  0  0  0  0  0  0  0
    0.4597   -1.6244    4.3326 H   0  0  0  0  0  0  0  0  0  0  0  0
  1  2  1  0  0  0  0
  2  3  1  0  0  0  0
  2  4  1  0  0  0  0
  2  5  1  0  0  0  0
  5  6  2  0  0  0  0
  5  7  1  0  0  0  0
  7  8  1  0  0  0  0
  7  9  1  0  0  0  0
  9 10  1  0  0  0  0
  9 11  1  0  0  0  0
  9 29  1  0  0  0  0
 11 12  1  0  0  0  0
 11 13  1  0  0  0  0
 11 14  1  0  0  0  0
 14 15  1  0  0  0  0
 14 16  1  0  0  0  0
 14 17  1  0  0  0  0
 17 18  1  0  0  0  0
 17 19  1  0  0  0  0
 17 20  1  0  0  0  0
 20 21  1  0  0  0  0
 20 22  2  0  0  0  0
 22 23  1  0  0  0  0
 22 26  1  0  0  0  0
 23 24  1  0  0  0  0
 23 25  1  0  0  0  0
 26 27  1  0  0  0  0
 26 28  1  0  0  0  0
 29 30  2  0  0  0  0
 29 31  1  0  0  0  0
 31 32  1  0  0  0  0
 31 33  1  0  0  0  0
 33 34  1  0  0  0  0
 33 35  1  0  0  0  0
 33 36  1  0  0  0  0
M  CHG  1  20   1
M  END
$$$$

  -OEChem-04042215563D

 36 35  0     1  0  0  0  0  0999 V2000
   -2.8431   -5.5444    1.1482 H   0  0  0  0  0  0  0  0  0  0  0  0
   -3.0090   -4.5559    0.7093 C   0  0  0  0  0  0  0  0  0  0  0  0
   -3.6991   -4.0013    1.3493 H   0  0  0  0  0  0  0  0  0  0  0  0
   -3.4564   -4.6834   -0.2791 H   0  0  0  0  0  0  0  0  0  0  0  0
   -1.6912   -3.8138    0.5917 C   0  0  0  0  0  0  0  0  0  0  0  0
   -0.6535   -4.3674    0.9027 O   0  0  0  0  0  0  0  0  0  0  0  0
   -1.6644   -2.5109    0.1272 N   0  0  0  0  0  0  0  0  0  0  0  0
   -2.5631   -2.0605   -0.0103 H   0  0  0  0  0  0  0  0  0  0  0  0
   -0.4445   -1.6762    0.1401 C   0  0  1  0  0  0  0  0  0  0  0  0
    0.3108   -2.2545   -0.4058 H   0  0  0  0  0  0  0  0  0  0  0  0
   -0.6007   -0.3475   -0.6297 C   0  0  0  0  0  0  0  0  0  0  0  0
   -0.9365    0.4358    0.0589 H   0  0  0  0  0  0  0  0  0  0  0  0
    0.3963   -0.0583   -0.9817 H   0  0  0  0  0  0  0  0  0  0  0  0
   -1.5815   -0.3980   -1.8138 C   0  0  0  0  0  0  0  0  0  0  0  0
   -1.5721   -1.3997   -2.2577 H   0  0  0  0  0  0  0  0  0  0  0  0
   -2.5982   -0.1793   -1.4715 H   0  0  0  0  0  0  0  0  0  0  0  0
   -1.1341    0.6028   -2.8800 C   0  0  0  0  0  0  0  0  0  0  0  0
   -1.1330    1.6086   -2.4451 H   0  0  0  0  0  0  0  0  0  0  0  0
   -0.1108    0.3593   -3.1878 H   0  0  0  0  0  0  0  0  0  0  0  0
   -2.0321    0.5563   -4.0487 N   0  3  0  0  0  0  0  0  0  0  0  0
   -2.7123   -0.2014   -4.0859 H   0  0  0  0  0  0  0  0  0  0  0  0
   -1.9586    1.3959   -5.0419 C   0  0  0  0  0  0  0  0  0  0  0  0
   -1.0263    2.4083   -5.0706 N   0  0  0  0  0  0  0  0  0  0  0  0
   -0.2767    2.3845   -4.3819 H   0  0  0  0  0  0  0  0  0  0  0  0
   -0.8480    2.8826   -5.9537 H   0  0  0  0  0  0  0  0  0  0  0  0
   -2.8286    1.2757   -6.0989 N   0  0  0  0  0  0  0  0  0  0  0  0
   -3.6285    0.6523   -6.0092 H   0  0  0  0  0  0  0  0  0  0  0  0
   -2.8939    2.0444   -6.7639 H   0  0  0  0  0  0  0  0  0  0  0  0
    0.1758   -1.4260    1.5321 C   0  0  0  0  0  0  0  0  0  0  0  0
    1.3812   -1.2384    1.6130 O   0  0  0  0  0  0  0  0  0  0  0  0
   -0.6292   -1.0870    2.6057 N   0  0  0  0  0  0  0  0  0  0  0  0
   -1.6120   -1.3254    2.5309 H   0  0  0  0  0  0  0  0  0  0  0  0
   -0.0877   -0.7799    3.9261 C   0  0  0  0  0  0  0  0  0  0  0  0
    0.6045    0.0674    3.8720 H   0  0  0  0  0  0  0  0  0  0  0  0
   -0.8953   -0.5187    4.6169 H   0  0  0  0  0  0  0  0  0  0  0  0
    0.4488   -1.6452    4.3302 H   0  0  0  0  0  0  0  0  0  0  0  0
  1  2  1  0  0  0  0
  2  3  1  0  0  0  0
  2  4  1  0  0  0  0
  2  5  1  0  0  0  0
  5  6  2  0  0  0  0
  5  7  1  0  0  0  0
  7  8  1  0  0  0  0
  7  9  1  0  0  0  0
  9 10  1  0  0  0  0
  9 11  1  0  0  0  0
  9 29  1  0  0  0  0
 11 12  1  0  0  0  0
 11 13  1  0  0  0  0
 11 14  1  0  0  0  0
 14 15  1  0  0  0  0
 14 16  1  0  0  0  0
 14 17  1  0  0  0  0
 17 18  1  0  0  0  0
 17 19  1  0  0  0  0
 17 20  1  0  0  0  0
 20 21  1  0  0  0  0
 20 22  2  0  0  0  0
 22 23  1  0  0  0  0
 22 26  1  0  0  0  0
 23 24  1  0  0  0  0
 23 25  1  0  0  0  0
 26 27  1  0  0  0  0
 26 28  1  0  0  0  0
 29 30  2  0  0  0  0
 29 31  1  0  0  0  0
 31 32  1  0  0  0  0
 31 33  1  0  0  0  0
 33 34  1  0  0  0  0
 33 35  1  0  0  0  0
 33 36  1  0  0  0  0
M  CHG  1  20   1
M  END
$$$$

  -OEChem-04042215563D

 36 35  0     1  0  0  0  0  0999 V2000
   -2.8329   -5.5506    1.2092 H   0  0  0  0  0  0  0  0  0  0  0  0
   -3.0124   -4.5664    0.7659 C   0  0  0  0  0  0  0  0  0  0  0  0
   -3.6852   -4.0069    1.4196 H   0  0  0  0  0  0  0  0  0  0  0  0
   -3.4870   -4.7022   -0.2086 H   0  0  0  0  0  0  0  0  0  0  0  0
   -1.6994   -3.8243    0.6062 C   0  0  0  0  0  0  0  0  0  0  0  0
   -0.6518   -4.3786    0.8806 O   0  0  0  0  0  0  0  0  0  0  0  0
   -1.6872   -2.5223    0.1384 N   0  0  0  0  0  0  0  0  0  0  0  0
   -2.5901   -2.0697    0.0386 H   0  0  0  0  0  0  0  0  0  0  0  0
   -0.4705   -1.6833    0.1308 C   0  0  1  0  0  0  0  0  0  0  0  0
    0.2775   -2.2645   -0.4221 H   0  0  0  0  0  0  0  0  0  0  0  0
   -0.6304   -0.3588   -0.6475 C   0  0  0  0  0  0  0  0  0  0  0  0
   -0.9655    0.4215    0.0448 H   0  0  0  0  0  0  0  0  0  0  0  0
    0.3676   -0.0642   -0.9920 H   0  0  0  0  0  0  0  0  0  0  0  0
   -1.6173   -0.3903   -1.8333 C   0  0  0  0  0  0  0  0  0  0  0  0
   -1.8346   -1.4224   -2.1261 H   0  0  0  0  0  0  0  0  0  0  0  0
   -2.5586    0.0935   -1.5515 H   0  0  0  0  0  0  0  0  0  0  0  0
   -0.9790    0.3118   -3.0331 C   0  0  0  0  0  0  0  0  0  0  0  0
   -0.7610    1.3503   -2.7596 H   0  0  0  0  0  0  0  0  0  0  0  0
   -0.0338   -0.1884   -3.2727 H   0  0  0  0  0  0  0  0  0  0  0  0
   -1.8737    0.2763   -4.2045 N   0  3  0  0  0  0  0  0  0  0  0  0
   -2.7173   -0.2902   -4.1319 H   0  0  0  0  0  0  0  0  0  0  0  0
   -1.6110    0.8895   -5.3234 C   0  0  0  0  0  0  0  0  0  0  0  0
   -0.4653    1.6340   -5.4914 N   0  0  0  0  0  0  0  0  0  0  0  0
    0.2580    1.5646   -4.7780 H   0  0  0  0  0  0  0  0  0  0  0  0
   -0.1839    1.8945   -6.4346 H   0  0  0  0  0  0  0  0  0  0  0  0
   -2.4915    0.7955   -6.3749 N   0  0  0  0  0  0  0  0  0  0  0  0
   -3.4146    0.3987   -6.2108 H   0  0  0  0  0  0  0  0  0  0  0  0
   -2.3777    1.4309   -7.1629 H   0  0  0  0  0  0  0  0  0  0  0  0
    0.1713   -1.4276    1.5119 C   0  0  0  0  0  0  0  0  0  0  0  0
    1.3784   -1.2437    1.5734 O   0  0  0  0  0  0  0  0  0  0  0  0
   -0.6158   -1.0889    2.5987 N   0  0  0  0  0  0  0  0  0  0  0  0
   -1.6031   -1.3119    2.5366 H   0  0  0  0  0  0  0  0  0  0  0  0
   -0.0532   -0.7817    3.9098 C   0  0  0  0  0  0  0  0  0  0  0  0
    0.6393    0.0644    3.8434 H   0  0  0  0  0  0  0  0  0  0  0  0
   -0.8489   -0.5183    4.6133 H   0  0  0  0  0  0  0  0  0  0  0  0
    0.4880   -1.6476    4.3062 H   0  0  0  0  0  0  0  0  0  0  0  0
  1  2  1  0  0  0  0
  2  3  1  0  0  0  0
  2  4  1  0  0  0  0
  2  5  1  0  0  0  0
  5  6  2  0  0  0  0
  5  7  1  0  0  0  0
  7  8  1  0  0  0  0
  7  9  1  0  0  0  0
  9 10  1  0  0  0  0
  9 11  1  0  0  0  0
  9 29  1  0  0  0  0
 11 12  1  0  0  0  0
 11 13  1  0  0  0  0
 11 14  1  0  0  0  0
 14 15  1  0  0  0  0
 14 16  1  0  0  0  0
 14 17  1  0  0  0  0
 17 18  1  0  0  0  0
 17 19  1  0  0  0  0
 17 20  1  0  0  0  0
 20 21  1  0  0  0  0
 20 22  2  0  0  0  0
 22 23  1  0  0  0  0
 22 26  1  0  0  0  0
 23 24  1  0  0  0  0
 23 25  1  0  0  0  0
 26 27  1  0  0  0  0
 26 28  1  0  0  0  0
 29 30  2  0  0  0  0
 29 31  1  0  0  0  0
 31 32  1  0  0  0  0
 31 33  1  0  0  0  0
 33 34  1  0  0  0  0
 33 35  1  0  0  0  0
 33 36  1  0  0  0  0
M  CHG  1  20   1
M  END
$$$$

  -OEChem-04042215563D

 36 35  0     1  0  0  0  0  0999 V2000
   -2.8078   -5.5779    1.2144 H   0  0  0  0  0  0  0  0  0  0  0  0
   -3.0060   -4.5701    0.8374 C   0  0  0  0  0  0  0  0  0  0  0  0
   -3.6059   -4.0332    1.5758 H   0  0  0  0  0  0  0  0  0  0  0  0
   -3.5691   -4.6502   -0.0951 H   0  0  0  0  0  0  0  0  0  0  0  0
   -1.6986   -3.8403    0.5960 C   0  0  0  0  0  0  0  0  0  0  0  0
   -0.6408   -4.4042    0.8044 O   0  0  0  0  0  0  0  0  0  0  0  0
   -1.7044   -2.5354    0.1361 N   0  0  0  0  0  0  0  0  0  0  0  0
   -2.6107   -2.0794    0.0991 H   0  0  0  0  0  0  0  0  0  0  0  0
   -0.4939   -1.6879    0.1184 C   0  0  1  0  0  0  0  0  0  0  0  0
    0.2512   -2.2660   -0.4416 H   0  0  0  0  0  0  0  0  0  0  0  0
   -0.6522   -0.3622   -0.6617 C   0  0  0  0  0  0  0  0  0  0  0  0
   -1.0063    0.3999    0.0416 H   0  0  0  0  0  0  0  0  0  0  0  0
    0.3437   -0.0404   -0.9873 H   0  0  0  0  0  0  0  0  0  0  0  0
   -1.6369   -0.3724   -1.8534 C   0  0  0  0  0  0  0  0  0  0  0  0
   -2.1026   -1.3522   -1.9889 H   0  0  0  0  0  0  0  0  0  0  0  0
   -2.4329    0.3591   -1.6770 H   0  0  0  0  0  0  0  0  0  0  0  0
   -0.8717   -0.0178   -3.1301 C   0  0  0  0  0  0  0  0  0  0  0  0
   -0.4192    0.9732   -3.0087 H   0  0  0  0  0  0  0  0  0  0  0  0
   -0.0679   -0.7488   -3.2726 H   0  0  0  0  0  0  0  0  0  0  0  0
   -1.7659   -0.0214   -4.3025 N   0  3  0  0  0  0  0  0  0  0  0  0
   -2.7359   -0.2937   -4.1511 H   0  0  0  0  0  0  0  0  0  0  0  0
   -1.3680    0.2833   -5.5049 C   0  0  0  0  0  0  0  0  0  0  0  0
   -0.0630    0.6317   -5.7718 N   0  0  0  0  0  0  0  0  0  0  0  0
    0.6308    0.4848   -5.0410 H   0  0  0  0  0  0  0  0  0  0  0  0
    0.2547    0.6430   -6.7390 H   0  0  0  0  0  0  0  0  0  0  0  0
   -2.2659    0.2586   -6.5454 N   0  0  0  0  0  0  0  0  0  0  0  0
   -3.2591    0.1812   -6.3359 H   0  0  0  0  0  0  0  0  0  0  0  0
   -1.9971    0.6883   -7.4289 H   0  0  0  0  0  0  0  0  0  0  0  0
    0.1606   -1.4393    1.4950 C   0  0  0  0  0  0  0  0  0  0  0  0
    1.3671   -1.2494    1.5455 O   0  0  0  0  0  0  0  0  0  0  0  0
   -0.6158   -1.1146    2.5938 N   0  0  0  0  0  0  0  0  0  0  0  0
   -1.6050   -1.3308    2.5404 H   0  0  0  0  0  0  0  0  0  0  0  0
   -0.0422   -0.7897    3.8961 C   0  0  0  0  0  0  0  0  0  0  0  0
    0.5959    0.0977    3.8239 H   0  0  0  0  0  0  0  0  0  0  0  0
   -0.8356   -0.5837    4.6213 H   0  0  0  0  0  0  0  0  0  0  0  0
    0.5598   -1.6251    4.2696 H   0  0  0  0  0  0  0  0  0  0  0  0
  1  2  1  0  0  0  0
  2  3  1  0  0  0  0
  2  4  1  0  0  0  0
  2  5  1  0  0  0  0
  5  6  2  0  0  0  0
  5  7  1  0  0  0  0
  7  8  1  0  0  0  0
  7  9  1  0  0  0  0
  9 10  1  0  0  0  0
  9 11  1  0  0  0  0
  9 29  1  0  0  0  0
 11 12  1  0  0  0  0
 11 13  1  0  0  0  0
 11 14  1  0  0  0  0
 14 15  1  0  0  0  0
 14 16  1  0  0  0  0
 14 17  1  0  0  0  0
 17 18  1  0  0  0  0
 17 19  1  0  0  0  0
 17 20  1  0  0  0  0
 20 21  1  0  0  0  0
 20 22  2  0  0  0  0
 22 23  1  0  0  0  0
 22 26  1  0  0  0  0
 23 24  1  0  0  0  0
 23 25  1  0  0  0  0
 26 27  1  0  0  0  0
 26 28  1  0  0  0  0
 29 30  2  0  0  0  0
 29 31  1  0  0  0  0
 31 32  1  0  0  0  0
 31 33  1  0  0  0  0
 33 34  1  0  0  0  0
 33 35  1  0  0  0  0
 33 36  1  0  0  0  0
M  CHG  1  20   1
M  END
$$$$

  -OEChem-04042215563D

 36 35  0     1  0  0  0  0  0999 V2000
   -2.8066   -5.5721    1.2166 H   0  0  0  0  0  0  0  0  0  0  0  0
   -3.0118   -4.5558    0.8674 C   0  0  0  0  0  0  0  0  0  0  0  0
   -3.5812   -4.0301    1.6374 H   0  0  0  0  0  0  0  0  0  0  0  0
   -3.6089   -4.6132   -0.0454 H   0  0  0  0  0  0  0  0  0  0  0  0
   -1.7089   -3.8292    0.5947 C   0  0  0  0  0  0  0  0  0  0  0  0
   -0.6474   -4.3963    0.7742 O   0  0  0  0  0  0  0  0  0  0  0  0
   -1.7230   -2.5230    0.1393 N   0  0  0  0  0  0  0  0  0  0  0  0
   -2.6291   -2.0648    0.1345 H   0  0  0  0  0  0  0  0  0  0  0  0
   -0.5127   -1.6756    0.1143 C   0  0  1  0  0  0  0  0  0  0  0  0
    0.2272   -2.2579   -0.4485 H   0  0  0  0  0  0  0  0  0  0  0  0
   -0.6626   -0.3536   -0.6732 C   0  0  0  0  0  0  0  0  0  0  0  0
   -1.0343    0.3975    0.0328 H   0  0  0  0  0  0  0  0  0  0  0  0
    0.3303   -0.0128   -0.9889 H   0  0  0  0  0  0  0  0  0  0  0  0
   -1.6435   -0.3617   -1.8663 C   0  0  0  0  0  0  0  0  0  0  0  0
   -2.3405   -1.2024   -1.8366 H   0  0  0  0  0  0  0  0  0  0  0  0
   -2.2362    0.5594   -1.8431 H   0  0  0  0  0  0  0  0  0  0  0  0
   -0.8295   -0.3973   -3.1607 C   0  0  0  0  0  0  0  0  0  0  0  0
   -0.1562    0.4672   -3.1810 H   0  0  0  0  0  0  0  0  0  0  0  0
   -0.2211   -1.3088   -3.1666 H   0  0  0  0  0  0  0  0  0  0  0  0
   -1.7087   -0.3741   -4.3438 N   0  3  0  0  0  0  0  0  0  0  0  0
   -2.7139   -0.3483   -4.1806 H   0  0  0  0  0  0  0  0  0  0  0  0
   -1.2585   -0.3855   -5.5661 C   0  0  0  0  0  0  0  0  0  0  0  0
    0.0894   -0.4366   -5.8429 N   0  0  0  0  0  0  0  0  0  0  0  0
    0.7294   -0.6323   -5.0751 H   0  0  0  0  0  0  0  0  0  0  0  0
    0.3891   -0.6692   -6.7877 H   0  0  0  0  0  0  0  0  0  0  0  0
   -2.1434   -0.3462   -6.6173 N   0  0  0  0  0  0  0  0  0  0  0  0
   -3.1186   -0.1216   -6.4300 H   0  0  0  0  0  0  0  0  0  0  0  0
   -1.7803   -0.1534   -7.5493 H   0  0  0  0  0  0  0  0  0  0  0  0
    0.1552   -1.4309    1.4852 C   0  0  0  0  0  0  0  0  0  0  0  0
    1.3654   -1.2631    1.5262 O   0  0  0  0  0  0  0  0  0  0  0  0
   -0.6072   -1.1092    2.5944 N   0  0  0  0  0  0  0  0  0  0  0  0
   -1.6005   -1.3068    2.5459 H   0  0  0  0  0  0  0  0  0  0  0  0
   -0.0160   -0.8201    3.8973 C   0  0  0  0  0  0  0  0  0  0  0  0
    0.6267    0.0649    3.8405 H   0  0  0  0  0  0  0  0  0  0  0  0
   -0.7993   -0.6288    4.6370 H   0  0  0  0  0  0  0  0  0  0  0  0
    0.5852   -1.6686    4.2419 H   0  0  0  0  0  0  0  0  0  0  0  0
  1  2  1  0  0  0  0
  2  3  1  0  0  0  0
  2  4  1  0  0  0  0
  2  5  1  0  0  0  0
  5  6  2  0  0  0  0
  5  7  1  0  0  0  0
  7  8  1  0  0  0  0
  7  9  1  0  0  0  0
  9 10  1  0  0  0  0
  9 11  1  0  0  0  0
  9 29  1  0  0  0  0
 11 12  1  0  0  0  0
 11 13  1  0  0  0  0
 11 14  1  0  0  0  0
 14 15  1  0  0  0  0
 14 16  1  0  0  0  0
 14 17  1  0  0  0  0
 17 18  1  0  0  0  0
 17 19  1  0  0  0  0
 17 20  1  0  0  0  0
 20 21  1  0  0  0  0
 20 22  2  0  0  0  0
 22 23  1  0  0  0  0
 22 26  1  0  0  0  0
 23 24  1  0  0  0  0
 23 25  1  0  0  0  0
 26 27  1  0  0  0  0
 26 28  1  0  0  0  0
 29 30  2  0  0  0  0
 29 31  1  0  0  0  0
 31 32  1  0  0  0  0
 31 33  1  0  0  0  0
 33 34  1  0  0  0  0
 33 35  1  0  0  0  0
 33 36  1  0  0  0  0
M  CHG  1  20   1
M  END
$$$$

  -OEChem-04042215563D

 36 35  0     1  0  0  0  0  0999 V2000
   -2.8239   -5.5636    1.1656 H   0  0  0  0  0  0  0  0  0  0  0  0
   -3.0204   -4.5318    0.8593 C   0  0  0  0  0  0  0  0  0  0  0  0
   -3.5483   -4.0223    1.6688 H   0  0  0  0  0  0  0  0  0  0  0  0
   -3.6537   -4.5460   -0.0305 H   0  0  0  0  0  0  0  0  0  0  0  0
   -1.7141   -3.8212    0.5595 C   0  0  0  0  0  0  0  0  0  0  0  0
   -0.6572   -4.4096    0.6928 O   0  0  0  0  0  0  0  0  0  0  0  0
   -1.7203   -2.5100    0.1172 N   0  0  0  0  0  0  0  0  0  0  0  0
   -2.6200   -2.0405    0.1492 H   0  0  0  0  0  0  0  0  0  0  0  0
   -0.5034   -1.6718    0.1071 C   0  0  1  0  0  0  0  0  0  0  0  0
    0.2362   -2.2514   -0.4580 H   0  0  0  0  0  0  0  0  0  0  0  0
   -0.6460   -0.3412   -0.6671 C   0  0  0  0  0  0  0  0  0  0  0  0
   -1.0180    0.4051    0.0436 H   0  0  0  0  0  0  0  0  0  0  0  0
    0.3454    0.0005   -0.9863 H   0  0  0  0  0  0  0  0  0  0  0  0
   -1.6255   -0.3463   -1.8573 C   0  0  0  0  0  0  0  0  0  0  0  0
   -2.4855   -1.0008   -1.6959 H   0  0  0  0  0  0  0  0  0  0  0  0
   -2.0112    0.6697   -1.9952 H   0  0  0  0  0  0  0  0  0  0  0  0
   -0.8500   -0.7529   -3.1105 C   0  0  0  0  0  0  0  0  0  0  0  0
   -0.0041   -0.0682   -3.2422 H   0  0  0  0  0  0  0  0  0  0  0  0
   -0.4548   -1.7644   -2.9632 H   0  0  0  0  0  0  0  0  0  0  0  0
   -1.7101   -0.7185   -4.3072 N   0  3  0  0  0  0  0  0  0  0  0  0
   -2.6688   -0.3947   -4.1876 H   0  0  0  0  0  0  0  0  0  0  0  0
   -1.2937   -1.0673   -5.4913 C   0  0  0  0  0  0  0  0  0  0  0  0
   -0.0108   -1.5203   -5.7031 N   0  0  0  0  0  0  0  0  0  0  0  0
    0.5656   -1.7254   -4.8890 H   0  0  0  0  0  0  0  0  0  0  0  0
    0.2060   -1.9960   -6.5766 H   0  0  0  0  0  0  0  0  0  0  0  0
   -2.1474   -0.9874   -6.5659 N   0  0  0  0  0  0  0  0  0  0  0  0
   -3.0247   -0.4819   -6.4592 H   0  0  0  0  0  0  0  0  0  0  0  0
   -1.7550   -1.0670   -7.5026 H   0  0  0  0  0  0  0  0  0  0  0  0
    0.1604   -1.4458    1.4826 C   0  0  0  0  0  0  0  0  0  0  0  0
    1.3730   -1.3002    1.5329 O   0  0  0  0  0  0  0  0  0  0  0  0
   -0.6043   -1.1290    2.5915 N   0  0  0  0  0  0  0  0  0  0  0  0
   -1.6037   -1.2893    2.5311 H   0  0  0  0  0  0  0  0  0  0  0  0
   -0.0187   -0.8354    3.8957 C   0  0  0  0  0  0  0  0  0  0  0  0
    0.6356    0.0408    3.8343 H   0  0  0  0  0  0  0  0  0  0  0  0
   -0.8046   -0.6267    4.6279 H   0  0  0  0  0  0  0  0  0  0  0  0
    0.5694   -1.6879    4.2524 H   0  0  0  0  0  0  0  0  0  0  0  0
  1  2  1  0  0  0  0
  2  3  1  0  0  0  0
  2  4  1  0  0  0  0
  2  5  1  0  0  0  0
  5  6  2  0  0  0  0
  5  7  1  0  0  0  0
  7  8  1  0  0  0  0
  7  9  1  0  0  0  0
  9 10  1  0  0  0  0
  9 11  1  0  0  0  0
  9 29  1  0  0  0  0
 11 12  1  0  0  0  0
 11 13  1  0  0  0  0
 11 14  1  0  0  0  0
 14 15  1  0  0  0  0
 14 16  1  0  0  0  0
 14 17  1  0  0  0  0
 17 18  1  0  0  0  0
 17 19  1  0  0  0  0
 17 20  1  0  0  0  0
 20 21  1  0  0  0  0
 20 22  2  0  0  0  0
 22 23  1  0  0  0  0
 22 26  1  0  0  0  0
 23 24  1  0  0  0  0
 23 25  1  0  0  0  0
 26 27  1  0  0  0  0
 26 28  1  0  0  0  0
 29 30  2  0  0  0  0
 29 31  1  0  0  0  0
 31 32  1  0  0  0  0
 31 33  1  0  0  0  0
 33 34  1  0  0  0  0
 33 35  1  0  0  0  0
 33 36  1  0  0  0  0
M  CHG  1  20   1
M  END
$$$$

  -OEChem-04042215563D

 36 35  0     1  0  0  0  0  0999 V2000
   -2.8317   -5.5371    1.1093 H   0  0  0  0  0  0  0  0  0  0  0  0
   -3.0218   -4.4933    0.8420 C   0  0  0  0  0  0  0  0  0  0  0  0
   -3.5049   -3.9994    1.6884 H   0  0  0  0  0  0  0  0  0  0  0  0
   -3.6927   -4.4689   -0.0198 H   0  0  0  0  0  0  0  0  0  0  0  0
   -1.7159   -3.7976    0.5089 C   0  0  0  0  0  0  0  0  0  0  0  0
   -0.6657   -4.4086    0.5763 O   0  0  0  0  0  0  0  0  0  0  0  0
   -1.7158   -2.4799    0.0877 N   0  0  0  0  0  0  0  0  0  0  0  0
   -2.6085   -2.0016    0.1624 H   0  0  0  0  0  0  0  0  0  0  0  0
   -0.4925   -1.6504    0.1036 C   0  0  1  0  0  0  0  0  0  0  0  0
    0.2508   -2.2251   -0.4618 H   0  0  0  0  0  0  0  0  0  0  0  0
   -0.6294   -0.3136   -0.6592 C   0  0  0  0  0  0  0  0  0  0  0  0
   -0.9986    0.4378    0.0475 H   0  0  0  0  0  0  0  0  0  0  0  0
    0.3621    0.0203   -0.9858 H   0  0  0  0  0  0  0  0  0  0  0  0
   -1.6027   -0.3353   -1.8505 C   0  0  0  0  0  0  0  0  0  0  0  0
   -2.5642   -0.7856   -1.5885 H   0  0  0  0  0  0  0  0  0  0  0  0
   -1.7977    0.6971   -2.1607 H   0  0  0  0  0  0  0  0  0  0  0  0
   -0.9306   -1.0863   -3.0008 C   0  0  0  0  0  0  0  0  0  0  0  0
    0.0389   -0.6203   -3.2112 H   0  0  0  0  0  0  0  0  0  0  0  0
   -0.7541   -2.1209   -2.6851 H   0  0  0  0  0  0  0  0  0  0  0  0
   -1.7657   -1.0663   -4.2153 N   0  3  0  0  0  0  0  0  0  0  0  0
   -2.6050   -0.4890   -4.1985 H   0  0  0  0  0  0  0  0  0  0  0  0
   -1.4566   -1.7181   -5.3001 C   0  0  0  0  0  0  0  0  0  0  0  0
   -0.3308   -2.5078   -5.3753 N   0  0  0  0  0  0  0  0  0  0  0  0
    0.1802   -2.6994   -4.5152 H   0  0  0  0  0  0  0  0  0  0  0  0
   -0.2420   -3.1695   -6.1438 H   0  0  0  0  0  0  0  0  0  0  0  0
   -2.2684   -1.6245   -6.4058 N   0  0  0  0  0  0  0  0  0  0  0  0
   -2.9922   -0.9087   -6.4243 H   0  0  0  0  0  0  0  0  0  0  0  0
   -1.9135   -1.9661   -7.2973 H   0  0  0  0  0  0  0  0  0  0  0  0
    0.1617   -1.4503    1.4876 C   0  0  0  0  0  0  0  0  0  0  0  0
    1.3764   -1.3352    1.5536 O   0  0  0  0  0  0  0  0  0  0  0  0
   -0.6068   -1.1450    2.5973 N   0  0  0  0  0  0  0  0  0  0  0  0
   -1.6111   -1.2609    2.5214 H   0  0  0  0  0  0  0  0  0  0  0  0
   -0.0275   -0.8749    3.9097 C   0  0  0  0  0  0  0  0  0  0  0  0
    0.6362   -0.0046    3.8651 H   0  0  0  0  0  0  0  0  0  0  0  0
   -0.8167   -0.6682    4.6391 H   0  0  0  0  0  0  0  0  0  0  0  0
    0.5496   -1.7379    4.2592 H   0  0  0  0  0  0  0  0  0  0  0  0
  1  2  1  0  0  0  0
  2  3  1  0  0  0  0
  2  4  1  0  0  0  0
  2  5  1  0  0  0  0
  5  6  2  0  0  0  0
  5  7  1  0  0  0  0
  7  8  1  0  0  0  0
  7  9  1  0  0  0  0
  9 10  1  0  0  0  0
  9 11  1  0  0  0  0
  9 29  1  0  0  0  0
 11 12  1  0  0  0  0
 11 13  1  0  0  0  0
 11 14  1  0  0  0  0
 14 15  1  0  0  0  0
 14 16  1  0  0  0  0
 14 17  1  0  0  0  0
 17 18  1  0  0  0  0
 17 19  1  0  0  0  0
 17 20  1  0  0  0  0
 20 21  1  0  0  0  0
 20 22  2  0  0  0  0
 22 23  1  0  0  0  0
 22 26  1  0  0  0  0
 23 24  1  0  0  0  0
 23 25  1  0  0  0  0
 26 27  1  0  0  0  0
 26 28  1  0  0  0  0
 29 30  2  0  0  0  0
 29 31  1  0  0  0  0
 31 32  1  0  0  0  0
 31 33  1  0  0  0  0
 33 34  1  0  0  0  0
 33 35  1  0  0  0  0
 33 36  1  0  0  0  0
M  CHG  1  20   1
M  END
$$$$

  -OEChem-04042215563D

 36 35  0     1  0  0  0  0  0999 V2000
   -2.8362   -5.5273    1.0324 H   0  0  0  0  0  0  0  0  0  0  0  0
   -3.0103   -4.4700    0.8109 C   0  0  0  0  0  0  0  0  0  0  0  0
   -3.4435   -3.9960    1.6948 H   0  0  0  0  0  0  0  0  0  0  0  0
   -3.7165   -4.3971   -0.0192 H   0  0  0  0  0  0  0  0  0  0  0  0
   -1.7023   -3.7940    0.4467 C   0  0  0  0  0  0  0  0  0  0  0  0
   -0.6645   -4.4295    0.4497 O   0  0  0  0  0  0  0  0  0  0  0  0
   -1.6889   -2.4711    0.0442 N   0  0  0  0  0  0  0  0  0  0  0  0
   -2.5746   -1.9851    0.1477 H   0  0  0  0  0  0  0  0  0  0  0  0
   -0.4600   -1.6506    0.1095 C   0  0  1  0  0  0  0  0  0  0  0  0
    0.2986   -2.2176   -0.4433 H   0  0  0  0  0  0  0  0  0  0  0  0
   -0.5835   -0.3045   -0.6392 C   0  0  0  0  0  0  0  0  0  0  0  0
   -0.9548    0.4502    0.0626 H   0  0  0  0  0  0  0  0  0  0  0  0
    0.4160    0.0161   -0.9544 H   0  0  0  0  0  0  0  0  0  0  0  0
   -1.5288   -0.3195   -1.8527 C   0  0  0  0  0  0  0  0  0  0  0  0
   -2.5537   -0.5536   -1.5480 H   0  0  0  0  0  0  0  0  0  0  0  0
   -1.5370    0.6773   -2.3068 H   0  0  0  0  0  0  0  0  0  0  0  0
   -1.0179   -1.3490   -2.8647 C   0  0  0  0  0  0  0  0  0  0  0  0
    0.0285   -1.1234   -3.1004 H   0  0  0  0  0  0  0  0  0  0  0  0
   -1.0577   -2.3438   -2.4074 H   0  0  0  0  0  0  0  0  0  0  0  0
   -1.8175   -1.3312   -4.1020 N   0  3  0  0  0  0  0  0  0  0  0  0
   -2.3704   -0.4963   -4.2905 H   0  0  0  0  0  0  0  0  0  0  0  0
   -1.7583   -2.2761   -4.9966 C   0  0  0  0  0  0  0  0  0  0  0  0
   -0.9762   -3.3959   -4.8186 N   0  0  0  0  0  0  0  0  0  0  0  0
   -0.3216   -3.4044   -4.0376 H   0  0  0  0  0  0  0  0  0  0  0  0
   -0.7676   -3.9828   -5.6239 H   0  0  0  0  0  0  0  0  0  0  0  0
   -2.4870   -2.1607   -6.1565 N   0  0  0  0  0  0  0  0  0  0  0  0
   -3.1881   -1.4261   -6.2303 H   0  0  0  0  0  0  0  0  0  0  0  0
   -2.5810   -2.9772   -6.7582 H   0  0  0  0  0  0  0  0  0  0  0  0
    0.1556   -1.4740    1.5142 C   0  0  0  0  0  0  0  0  0  0  0  0
    1.3697   -1.3907    1.6205 O   0  0  0  0  0  0  0  0  0  0  0  0
   -0.6415   -1.1775    2.6061 N   0  0  0  0  0  0  0  0  0  0  0  0
   -1.6471   -1.2335    2.4905 H   0  0  0  0  0  0  0  0  0  0  0  0
   -0.0985   -0.8948    3.9314 C   0  0  0  0  0  0  0  0  0  0  0  0
    0.5621   -0.0215    3.8977 H   0  0  0  0  0  0  0  0  0  0  0  0
   -0.9074   -0.6867    4.6383 H   0  0  0  0  0  0  0  0  0  0  0  0
    0.4727   -1.7526    4.3026 H   0  0  0  0  0  0  0  0  0  0  0  0
  1  2  1  0  0  0  0
  2  3  1  0  0  0  0
  2  4  1  0  0  0  0
  2  5  1  0  0  0  0
  5  6  2  0  0  0  0
  5  7  1  0  0  0  0
  7  8  1  0  0  0  0
  7  9  1  0  0  0  0
  9 10  1  0  0  0  0
  9 11  1  0  0  0  0
  9 29  1  0  0  0  0
 11 12  1  0  0  0  0
 11 13  1  0  0  0  0
 11 14  1  0  0  0  0
 14 15  1  0  0  0  0
 14 16  1  0  0  0  0
 14 17  1  0  0  0  0
 17 18  1  0  0  0  0
 17 19  1  0  0  0  0
 17 20  1  0  0  0  0
 20 21  1  0  0  0  0
 20 22  2  0  0  0  0
 22 23  1  0  0  0  0
 22 26  1  0  0  0  0
 23 24  1  0  0  0  0
 23 25  1  0  0  0  0
 26 27  1  0  0  0  0
 26 28  1  0  0  0  0
 29 30  2  0  0  0  0
 29 31  1  0  0  0  0
 31 32  1  0  0  0  0
 31 33  1  0  0  0  0
 33 34  1  0  0  0  0
 33 35  1  0  0  0  0
 33 36  1  0  0  0  0
M  CHG  1  20   1
M  END
$$$$

  -OEChem-04042215563D

 36 35  0     1  0  0  0  0  0999 V2000
   -2.8067   -5.5259    1.2877 H   0  0  0  0  0  0  0  0  0  0  0  0
   -2.9917   -4.4885    0.9931 C   0  0  0  0  0  0  0  0  0  0  0  0
   -3.4325   -3.9592    1.8414 H   0  0  0  0  0  0  0  0  0  0  0  0
   -3.6968   -4.4809    0.1590 H   0  0  0  0  0  0  0  0  0  0  0  0
   -1.6900   -3.8255    0.5856 C   0  0  0  0  0  0  0  0  0  0  0  0
   -0.6552   -4.4652    0.5811 O   0  0  0  0  0  0  0  0  0  0  0  0
   -1.6823   -2.5186    0.1336 N   0  0  0  0  0  0  0  0  0  0  0  0
   -2.5673   -2.0297    0.2338 H   0  0  0  0  0  0  0  0  0  0  0  0
   -0.4559   -1.6911    0.1700 C   0  0  1  0  0  0  0  0  0  0  0  0
    0.3063   -2.2794   -0.3555 H   0  0  0  0  0  0  0  0  0  0  0  0
   -0.5717   -0.3779   -0.6385 C   0  0  0  0  0  0  0  0  0  0  0  0
   -0.9271    0.4154    0.0282 H   0  0  0  0  0  0  0  0  0  0  0  0
    0.4371   -0.0938   -0.9595 H   0  0  0  0  0  0  0  0  0  0  0  0
   -1.4963   -0.4036   -1.8729 C   0  0  0  0  0  0  0  0  0  0  0  0
   -2.5417   -0.3701   -1.5495 H   0  0  0  0  0  0  0  0  0  0  0  0
   -1.3036    0.4917   -2.4739 H   0  0  0  0  0  0  0  0  0  0  0  0
   -1.2650   -1.6662   -2.7150 C   0  0  0  0  0  0  0  0  0  0  0  0
   -0.1930   -1.7507   -2.9271 H   0  0  0  0  0  0  0  0  0  0  0  0
   -1.5691   -2.5502   -2.1475 H   0  0  0  0  0  0  0  0  0  0  0  0
   -2.0146   -1.6135   -3.9821 N   0  3  0  0  0  0  0  0  0  0  0  0
   -2.3978   -0.7124   -4.2646 H   0  0  0  0  0  0  0  0  0  0  0  0
   -2.1238   -2.6377   -4.7795 C   0  0  0  0  0  0  0  0  0  0  0  0
   -1.5691   -3.8593   -4.4677 N   0  0  0  0  0  0  0  0  0  0  0  0
   -0.9306   -3.9039   -3.6746 H   0  0  0  0  0  0  0  0  0  0  0  0
   -1.4535   -4.5466   -5.2097 H   0  0  0  0  0  0  0  0  0  0  0  0
   -2.8047   -2.5081   -5.9666 N   0  0  0  0  0  0  0  0  0  0  0  0
   -3.3534   -1.6668   -6.1329 H   0  0  0  0  0  0  0  0  0  0  0  0
   -3.0509   -3.3511   -6.4826 H   0  0  0  0  0  0  0  0  0  0  0  0
    0.1521   -1.4632    1.5707 C   0  0  0  0  0  0  0  0  0  0  0  0
    1.3655   -1.3839    1.6844 O   0  0  0  0  0  0  0  0  0  0  0  0
   -0.6519   -1.1311    2.6473 N   0  0  0  0  0  0  0  0  0  0  0  0
   -1.6567   -1.1852    2.5252 H   0  0  0  0  0  0  0  0  0  0  0  0
   -0.1186   -0.8295    3.9722 C   0  0  0  0  0  0  0  0  0  0  0  0
    0.5446    0.0411    3.9305 H   0  0  0  0  0  0  0  0  0  0  0  0
   -0.9325   -0.6092    4.6695 H   0  0  0  0  0  0  0  0  0  0  0  0
    0.4480   -1.6829    4.3605 H   0  0  0  0  0  0  0  0  0  0  0  0
  1  2  1  0  0  0  0
  2  3  1  0  0  0  0
  2  4  1  0  0  0  0
  2  5  1  0  0  0  0
  5  6  2  0  0  0  0
  5  7  1  0  0  0  0
  7  8  1  0  0  0  0
  7  9  1  0  0  0  0
  9 10  1  0  0  0  0
  9 11  1  0  0  0  0
  9 29  1  0  0  0  0
 11 12  1  0  0  0  0
 11 13  1  0  0  0  0
 11 14  1  0  0  0  0
 14 15  1  0  0  0  0
 14 16  1  0  0  0  0
 14 17  1  0  0  0  0
 17 18  1  0  0  0  0
 17 19  1  0  0  0  0
 17 20  1  0  0  0  0
 20 21  1  0  0  0  0
 20 22  2  0  0  0  0
 22 23  1  0  0  0  0
 22 26  1  0  0  0  0
 23 24  1  0  0  0  0
 23 25  1  0  0  0  0
 26 27  1  0  0  0  0
 26 28  1  0  0  0  0
 29 30  2  0  0  0  0
 29 31  1  0  0  0  0
 31 32  1  0  0  0  0
 31 33  1  0  0  0  0
 33 34  1  0  0  0  0
 33 35  1  0  0  0  0
 33 36  1  0  0  0  0
M  CHG  1  20   1
M  END
$$$$

  -OEChem-04042215563D

 36 35  0     1  0  0  0  0  0999 V2000
   -2.9012   -5.5018    1.8119 H   0  0  0  0  0  0  0  0  0  0  0  0
   -3.0815   -4.4697    1.4963 C   0  0  0  0  0  0  0  0  0  0  0  0
   -3.4029   -3.8911    2.3659 H   0  0  0  0  0  0  0  0  0  0  0  0
   -3.8768   -4.4653    0.7475 H   0  0  0  0  0  0  0  0  0  0  0  0
   -1.8130   -3.8750    0.9157 C   0  0  0  0  0  0  0  0  0  0  0  0
   -0.7970   -4.5416    0.8537 O   0  0  0  0  0  0  0  0  0  0  0  0
   -1.8236   -2.5998    0.3809 N   0  0  0  0  0  0  0  0  0  0  0  0
   -2.6814   -2.0790    0.5408 H   0  0  0  0  0  0  0  0  0  0  0  0
   -0.5833   -1.8098    0.2239 C   0  0  1  0  0  0  0  0  0  0  0  0
    0.0978   -2.4586   -0.3399 H   0  0  0  0  0  0  0  0  0  0  0  0
   -0.7367   -0.5454   -0.6569 C   0  0  0  0  0  0  0  0  0  0  0  0
   -0.9791    0.3020   -0.0062 H   0  0  0  0  0  0  0  0  0  0  0  0
    0.2484   -0.3356   -1.0892 H   0  0  0  0  0  0  0  0  0  0  0  0
   -1.7729   -0.5563   -1.8058 C   0  0  0  0  0  0  0  0  0  0  0  0
   -2.7312   -0.1823   -1.4303 H   0  0  0  0  0  0  0  0  0  0  0  0
   -1.4275    0.1413   -2.5768 H   0  0  0  0  0  0  0  0  0  0  0  0
   -1.9985   -1.9463   -2.4147 C   0  0  0  0  0  0  0  0  0  0  0  0
   -1.0395   -2.4757   -2.4214 H   0  0  0  0  0  0  0  0  0  0  0  0
   -2.6988   -2.5140   -1.7938 H   0  0  0  0  0  0  0  0  0  0  0  0
   -2.5177   -1.8481   -3.7906 N   0  3  0  0  0  0  0  0  0  0  0  0
   -2.9936   -0.9858   -4.0518 H   0  0  0  0  0  0  0  0  0  0  0  0
   -2.3671   -2.7904   -4.6776 C   0  0  0  0  0  0  0  0  0  0  0  0
   -1.7176   -3.9693   -4.3846 N   0  0  0  0  0  0  0  0  0  0  0  0
   -1.2231   -4.0371   -3.4962 H   0  0  0  0  0  0  0  0  0  0  0  0
   -1.4026   -4.5594   -5.1522 H   0  0  0  0  0  0  0  0  0  0  0  0
   -2.8643   -2.6137   -5.9468 N   0  0  0  0  0  0  0  0  0  0  0  0
   -3.4860   -1.8283   -6.1288 H   0  0  0  0  0  0  0  0  0  0  0  0
   -2.9168   -3.4205   -6.5662 H   0  0  0  0  0  0  0  0  0  0  0  0
    0.1851   -1.5138    1.5301 C   0  0  0  0  0  0  0  0  0  0  0  0
    1.4050   -1.4622    1.5006 O   0  0  0  0  0  0  0  0  0  0  0  0
   -0.4824   -1.0913    2.6665 N   0  0  0  0  0  0  0  0  0  0  0  0
   -1.4953   -1.1291    2.6646 H   0  0  0  0  0  0  0  0  0  0  0  0
    0.2063   -0.7319    3.9023 C   0  0  0  0  0  0  0  0  0  0  0  0
    0.8866    0.1095    3.7326 H   0  0  0  0  0  0  0  0  0  0  0  0
   -0.5167   -0.4406    4.6703 H   0  0  0  0  0  0  0  0  0  0  0  0
    0.7870   -1.5811    4.2784 H   0  0  0  0  0  0  0  0  0  0  0  0
  1  2  1  0  0  0  0
  2  3  1  0  0  0  0
  2  4  1  0  0  0  0
  2  5  1  0  0  0  0
  5  6  2  0  0  0  0
  5  7  1  0  0  0  0
  7  8  1  0  0  0  0
  7  9  1  0  0  0  0
  9 10  1  0  0  0  0
  9 11  1  0  0  0  0
  9 29  1  0  0  0  0
 11 12  1  0  0  0  0
 11 13  1  0  0  0  0
 11 14  1  0  0  0  0
 14 15  1  0  0  0  0
 14 16  1  0  0  0  0
 14 17  1  0  0  0  0
 17 18  1  0  0  0  0
 17 19  1  0  0  0  0
 17 20  1  0  0  0  0
 20 21  1  0  0  0  0
 20 22  2  0  0  0  0
 22 23  1  0  0  0  0
 22 26  1  0  0  0  0
 23 24  1  0  0  0  0
 23 25  1  0  0  0  0
 26 27  1  0  0  0  0
 26 28  1  0  0  0  0
 29 30  2  0  0  0  0
 29 31  1  0  0  0  0
 31 32  1  0  0  0  0
 31 33  1  0  0  0  0
 33 34  1  0  0  0  0
 33 35  1  0  0  0  0
 33 36  1  0  0  0  0
M  CHG  1  20   1
M  END
$$$$

  -OEChem-04042215563D

 36 35  0     1  0  0  0  0  0999 V2000
   -2.9847   -5.4658    2.1015 H   0  0  0  0  0  0  0  0  0  0  0  0
   -3.1581   -4.4289    1.7990 C   0  0  0  0  0  0  0  0  0  0  0  0
   -3.3662   -3.8357    2.6926 H   0  0  0  0  0  0  0  0  0  0  0  0
   -4.0259   -4.3982    1.1364 H   0  0  0  0  0  0  0  0  0  0  0  0
   -1.9346   -3.8852    1.0869 C   0  0  0  0  0  0  0  0  0  0  0  0
   -0.9566   -4.5913    0.9265 O   0  0  0  0  0  0  0  0  0  0  0  0
   -1.9526   -2.6173    0.5340 N   0  0  0  0  0  0  0  0  0  0  0  0
   -2.7671   -2.0611    0.7790 H   0  0  0  0  0  0  0  0  0  0  0  0
   -0.7053   -1.8769    0.2449 C   0  0  1  0  0  0  0  0  0  0  0  0
   -0.1078   -2.5707   -0.3586 H   0  0  0  0  0  0  0  0  0  0  0  0
   -0.8578   -0.6307   -0.6653 C   0  0  0  0  0  0  0  0  0  0  0  0
   -1.0083    0.2391   -0.0166 H   0  0  0  0  0  0  0  0  0  0  0  0
    0.1084   -0.4805   -1.1606 H   0  0  0  0  0  0  0  0  0  0  0  0
   -1.9625   -0.5776   -1.7539 C   0  0  0  0  0  0  0  0  0  0  0  0
   -2.7512    0.1087   -1.4262 H   0  0  0  0  0  0  0  0  0  0  0  0
   -1.5127   -0.1412   -2.6529 H   0  0  0  0  0  0  0  0  0  0  0  0
   -2.6156   -1.9188   -2.1080 C   0  0  0  0  0  0  0  0  0  0  0  0
   -1.8854   -2.7165   -1.9416 H   0  0  0  0  0  0  0  0  0  0  0  0
   -3.4635   -2.1016   -1.4396 H   0  0  0  0  0  0  0  0  0  0  0  0
   -3.0636   -1.9357   -3.5139 N   0  3  0  0  0  0  0  0  0  0  0  0
   -3.6695   -1.1743   -3.8173 H   0  0  0  0  0  0  0  0  0  0  0  0
   -2.7215   -2.8577   -4.3703 C   0  0  0  0  0  0  0  0  0  0  0  0
   -1.8964   -3.9076   -4.0307 N   0  0  0  0  0  0  0  0  0  0  0  0
   -1.4194   -3.8753   -3.1311 H   0  0  0  0  0  0  0  0  0  0  0  0
   -1.4773   -4.4645   -4.7729 H   0  0  0  0  0  0  0  0  0  0  0  0
   -3.1921   -2.7908   -5.6603 N   0  0  0  0  0  0  0  0  0  0  0  0
   -3.9322   -2.1280   -5.8822 H   0  0  0  0  0  0  0  0  0  0  0  0
   -3.0839   -3.6063   -6.2610 H   0  0  0  0  0  0  0  0  0  0  0  0
    0.1974   -1.5918    1.4651 C   0  0  0  0  0  0  0  0  0  0  0  0
    1.4096   -1.5917    1.3146 O   0  0  0  0  0  0  0  0  0  0  0  0
   -0.3365   -1.1281    2.6550 N   0  0  0  0  0  0  0  0  0  0  0  0
   -1.3454   -1.1188    2.7537 H   0  0  0  0  0  0  0  0  0  0  0  0
    0.4873   -0.7696    3.8060 C   0  0  0  0  0  0  0  0  0  0  0  0
    1.1938    0.0247    3.5413 H   0  0  0  0  0  0  0  0  0  0  0  0
   -0.1400   -0.4108    4.6276 H   0  0  0  0  0  0  0  0  0  0  0  0
    1.0533   -1.6390    4.1575 H   0  0  0  0  0  0  0  0  0  0  0  0
  1  2  1  0  0  0  0
  2  3  1  0  0  0  0
  2  4  1  0  0  0  0
  2  5  1  0  0  0  0
  5  6  2  0  0  0  0
  5  7  1  0  0  0  0
  7  8  1  0  0  0  0
  7  9  1  0  0  0  0
  9 10  1  0  0  0  0
  9 11  1  0  0  0  0
  9 29  1  0  0  0  0
 11 12  1  0  0  0  0
 11 13  1  0  0  0  0
 11 14  1  0  0  0  0
 14 15  1  0  0  0  0
 14 16  1  0  0  0  0
 14 17  1  0  0  0  0
 17 18  1  0  0  0  0
 17 19  1  0  0  0  0
 17 20  1  0  0  0  0
 20 21  1  0  0  0  0
 20 22  2  0  0  0  0
 22 23  1  0  0  0  0
 22 26  1  0  0  0  0
 23 24  1  0  0  0  0
 23 25  1  0  0  0  0
 26 27  1  0  0  0  0
 26 28  1  0  0  0  0
 29 30  2  0  0  0  0
 29 31  1  0  0  0  0
 31 32  1  0  0  0  0
 31 33  1  0  0  0  0
 33 34  1  0  0  0  0
 33 35  1  0  0  0  0
 33 36  1  0  0  0  0
M  CHG  1  20   1
M  END
$$$$

  -OEChem-04042215563D

 36 35  0     1  0  0  0  0  0999 V2000
   -3.0079   -5.4167    2.3641 H   0  0  0  0  0  0  0  0  0  0  0  0
   -3.1702   -4.3878    2.0290 C   0  0  0  0  0  0  0  0  0  0  0  0
   -3.3492   -3.7608    2.9057 H   0  0  0  0  0  0  0  0  0  0  0  0
   -4.0518   -4.3646    1.3845 H   0  0  0  0  0  0  0  0  0  0  0  0
   -1.9527   -3.8914    1.2727 C   0  0  0  0  0  0  0  0  0  0  0  0
   -0.9810   -4.6119    1.1419 O   0  0  0  0  0  0  0  0  0  0  0  0
   -1.9671   -2.6492    0.6629 N   0  0  0  0  0  0  0  0  0  0  0  0
   -2.7667   -2.0709    0.9046 H   0  0  0  0  0  0  0  0  0  0  0  0
   -0.7180   -1.9425    0.3073 C   0  0  1  0  0  0  0  0  0  0  0  0
   -0.1482   -2.6757   -0.2764 H   0  0  0  0  0  0  0  0  0  0  0  0
   -0.8494   -0.7317   -0.6566 C   0  0  0  0  0  0  0  0  0  0  0  0
   -0.9834    0.1549   -0.0269 H   0  0  0  0  0  0  0  0  0  0  0  0
    0.1190   -0.6064   -1.1548 H   0  0  0  0  0  0  0  0  0  0  0  0
   -1.9588   -0.6604   -1.7427 C   0  0  0  0  0  0  0  0  0  0  0  0
   -2.5386    0.2573   -1.5939 H   0  0  0  0  0  0  0  0  0  0  0  0
   -1.4478   -0.5571   -2.7064 H   0  0  0  0  0  0  0  0  0  0  0  0
   -2.9331   -1.8364   -1.8429 C   0  0  0  0  0  0  0  0  0  0  0  0
   -2.3943   -2.7699   -1.6538 H   0  0  0  0  0  0  0  0  0  0  0  0
   -3.7047   -1.7384   -1.0720 H   0  0  0  0  0  0  0  0  0  0  0  0
   -3.5550   -1.8859   -3.1801 N   0  3  0  0  0  0  0  0  0  0  0  0
   -4.2519   -1.1737   -3.3960 H   0  0  0  0  0  0  0  0  0  0  0  0
   -3.2561   -2.7793   -4.0816 C   0  0  0  0  0  0  0  0  0  0  0  0
   -2.3003   -3.7476   -3.8657 N   0  0  0  0  0  0  0  0  0  0  0  0
   -1.7052   -3.6629   -3.0431 H   0  0  0  0  0  0  0  0  0  0  0  0
   -1.9435   -4.2738   -4.6610 H   0  0  0  0  0  0  0  0  0  0  0  0
   -3.9059   -2.7626   -5.2926 N   0  0  0  0  0  0  0  0  0  0  0  0
   -4.7320   -2.1773   -5.3994 H   0  0  0  0  0  0  0  0  0  0  0  0
   -3.8120   -3.5715   -5.9045 H   0  0  0  0  0  0  0  0  0  0  0  0
    0.2159   -1.6208    1.4954 C   0  0  0  0  0  0  0  0  0  0  0  0
    1.4242   -1.6314    1.3169 O   0  0  0  0  0  0  0  0  0  0  0  0
   -0.2870   -1.0987    2.6745 N   0  0  0  0  0  0  0  0  0  0  0  0
   -1.2928   -1.0855    2.7984 H   0  0  0  0  0  0  0  0  0  0  0  0
    0.5641   -0.6934    3.7894 C   0  0  0  0  0  0  0  0  0  0  0  0
    1.2693    0.0831    3.4732 H   0  0  0  0  0  0  0  0  0  0  0  0
   -0.0434   -0.2926    4.6066 H   0  0  0  0  0  0  0  0  0  0  0  0
    1.1330   -1.5494    4.1684 H   0  0  0  0  0  0  0  0  0  0  0  0
  1  2  1  0  0  0  0
  2  3  1  0  0  0  0
  2  4  1  0  0  0  0
  2  5  1  0  0  0  0
  5  6  2  0  0  0  0
  5  7  1  0  0  0  0
  7  8  1  0  0  0  0
  7  9  1  0  0  0  0
  9 10  1  0  0  0  0
  9 11  1  0  0  0  0
  9 29  1  0  0  0  0
 11 12  1  0  0  0  0
 11 13  1  0  0  0  0
 11 14  1  0  0  0  0
 14 15  1  0  0  0  0
 14 16  1  0  0  0  0
 14 17  1  0  0  0  0
 17 18  1  0  0  0  0
 17 19  1  0  0  0  0
 17 20  1  0  0  0  0
 20 21  1  0  0  0  0
 20 22  2  0  0  0  0
 22 23  1  0  0  0  0
 22 26  1  0  0  0  0
 23 24  1  0  0  0  0
 23 25  1  0  0  0  0
 26 27  1  0  0  0  0
 26 28  1  0  0  0  0
 29 30  2  0  0  0  0
 29 31  1  0  0  0  0
 31 32  1  0  0  0  0
 31 33  1  0  0  0  0
 33 34  1  0  0  0  0
 33 35  1  0  0  0  0
 33 36  1  0  0  0  0
M  CHG  1  20   1
M  END
$$$$

  -OEChem-04042215563D

 36 35  0     1  0  0  0  0  0999 V2000
   -2.7724   -5.5132    2.4546 H   0  0  0  0  0  0  0  0  0  0  0  0
   -2.9999   -4.5059    2.0931 C   0  0  0  0  0  0  0  0  0  0  0  0
   -3.2183   -3.8684    2.9531 H   0  0  0  0  0  0  0  0  0  0  0  0
   -3.8806   -4.5557    1.4490 H   0  0  0  0  0  0  0  0  0  0  0  0
   -1.8172   -3.9532    1.3213 C   0  0  0  0  0  0  0  0  0  0  0  0
   -0.8176   -4.6295    1.1724 O   0  0  0  0  0  0  0  0  0  0  0  0
   -1.8956   -2.7056    0.7276 N   0  0  0  0  0  0  0  0  0  0  0  0
   -2.7065   -2.1586    1.0006 H   0  0  0  0  0  0  0  0  0  0  0  0
   -0.6889   -1.9542    0.3240 C   0  0  1  0  0  0  0  0  0  0  0  0
   -0.1235   -2.6612   -0.2955 H   0  0  0  0  0  0  0  0  0  0  0  0
   -0.8953   -0.7318   -0.6127 C   0  0  0  0  0  0  0  0  0  0  0  0
   -1.0427    0.1283    0.0497 H   0  0  0  0  0  0  0  0  0  0  0  0
    0.0488   -0.5517   -1.1401 H   0  0  0  0  0  0  0  0  0  0  0  0
   -2.0502   -0.6612   -1.6496 C   0  0  0  0  0  0  0  0  0  0  0  0
   -2.4532    0.3577   -1.6496 H   0  0  0  0  0  0  0  0  0  0  0  0
   -1.5887   -0.8164   -2.6310 H   0  0  0  0  0  0  0  0  0  0  0  0
   -3.2124   -1.6494   -1.5304 C   0  0  0  0  0  0  0  0  0  0  0  0
   -2.8246   -2.6616   -1.3796 H   0  0  0  0  0  0  0  0  0  0  0  0
   -3.8223   -1.3919   -0.6578 H   0  0  0  0  0  0  0  0  0  0  0  0
   -4.0379   -1.6181   -2.7532 N   0  3  0  0  0  0  0  0  0  0  0  0
   -4.7403   -0.8820   -2.8227 H   0  0  0  0  0  0  0  0  0  0  0  0
   -3.9042   -2.4669   -3.7341 C   0  0  0  0  0  0  0  0  0  0  0  0
   -2.9530   -3.4631   -3.7106 N   0  0  0  0  0  0  0  0  0  0  0  0
   -2.2411   -3.4301   -2.9824 H   0  0  0  0  0  0  0  0  0  0  0  0
   -2.7278   -3.9489   -4.5768 H   0  0  0  0  0  0  0  0  0  0  0  0
   -4.7234   -2.3705   -4.8337 N   0  0  0  0  0  0  0  0  0  0  0  0
   -5.5371   -1.7597   -4.7915 H   0  0  0  0  0  0  0  0  0  0  0  0
   -4.7378   -3.1418   -5.4990 H   0  0  0  0  0  0  0  0  0  0  0  0
    0.2852   -1.6171    1.4758 C   0  0  0  0  0  0  0  0  0  0  0  0
    1.4831   -1.5708    1.2416 O   0  0  0  0  0  0  0  0  0  0  0  0
   -0.1836   -1.1273    2.6827 N   0  0  0  0  0  0  0  0  0  0  0  0
   -1.1809   -1.1697    2.8572 H   0  0  0  0  0  0  0  0  0  0  0  0
    0.7024   -0.7080    3.7647 C   0  0  0  0  0  0  0  0  0  0  0  0
    1.3371    0.1234    3.4400 H   0  0  0  0  0  0  0  0  0  0  0  0
    0.1187   -0.3781    4.6294 H   0  0  0  0  0  0  0  0  0  0  0  0
    1.3450   -1.5378    4.0783 H   0  0  0  0  0  0  0  0  0  0  0  0
  1  2  1  0  0  0  0
  2  3  1  0  0  0  0
  2  4  1  0  0  0  0
  2  5  1  0  0  0  0
  5  6  2  0  0  0  0
  5  7  1  0  0  0  0
  7  8  1  0  0  0  0
  7  9  1  0  0  0  0
  9 10  1  0  0  0  0
  9 11  1  0  0  0  0
  9 29  1  0  0  0  0
 11 12  1  0  0  0  0
 11 13  1  0  0  0  0
 11 14  1  0  0  0  0
 14 15  1  0  0  0  0
 14 16  1  0  0  0  0
 14 17  1  0  0  0  0
 17 18  1  0  0  0  0
 17 19  1  0  0  0  0
 17 20  1  0  0  0  0
 20 21  1  0  0  0  0
 20 22  2  0  0  0  0
 22 23  1  0  0  0  0
 22 26  1  0  0  0  0
 23 24  1  0  0  0  0
 23 25  1  0  0  0  0
 26 27  1  0  0  0  0
 26 28  1  0  0  0  0
 29 30  2  0  0  0  0
 29 31  1  0  0  0  0
 31 32  1  0  0  0  0
 31 33  1  0  0  0  0
 33 34  1  0  0  0  0
 33 35  1  0  0  0  0
 33 36  1  0  0  0  0
M  CHG  1  20   1
M  END
$$$$

  -OEChem-04042215563D

 36 35  0     1  0  0  0  0  0999 V2000
   -2.6843   -5.5023    2.4905 H   0  0  0  0  0  0  0  0  0  0  0  0
   -2.9542   -4.5252    2.0782 C   0  0  0  0  0  0  0  0  0  0  0  0
   -3.2102   -3.8589    2.9053 H   0  0  0  0  0  0  0  0  0  0  0  0
   -3.8255   -4.6473    1.4309 H   0  0  0  0  0  0  0  0  0  0  0  0
   -1.7901   -3.9564    1.2887 C   0  0  0  0  0  0  0  0  0  0  0  0
   -0.7904   -4.6261    1.1139 O   0  0  0  0  0  0  0  0  0  0  0  0
   -1.8825   -2.6959    0.7235 N   0  0  0  0  0  0  0  0  0  0  0  0
   -2.6858   -2.1569    1.0312 H   0  0  0  0  0  0  0  0  0  0  0  0
   -0.6816   -1.9320    0.3266 C   0  0  1  0  0  0  0  0  0  0  0  0
   -0.1206   -2.6216   -0.3160 H   0  0  0  0  0  0  0  0  0  0  0  0
   -0.8969   -0.6853   -0.5747 C   0  0  0  0  0  0  0  0  0  0  0  0
   -1.0420    0.1567    0.1113 H   0  0  0  0  0  0  0  0  0  0  0  0
    0.0400   -0.4884   -1.1091 H   0  0  0  0  0  0  0  0  0  0  0  0
   -2.0633   -0.5953   -1.5930 C   0  0  0  0  0  0  0  0  0  0  0  0
   -2.2863    0.4646   -1.7577 H   0  0  0  0  0  0  0  0  0  0  0  0
   -1.6762   -0.9883   -2.5390 H   0  0  0  0  0  0  0  0  0  0  0  0
   -3.3703   -1.3325   -1.2952 C   0  0  0  0  0  0  0  0  0  0  0  0
   -3.1720   -2.3910   -1.1068 H   0  0  0  0  0  0  0  0  0  0  0  0
   -3.8316   -0.9095   -0.3961 H   0  0  0  0  0  0  0  0  0  0  0  0
   -4.2900   -1.2069   -2.4426 N   0  3  0  0  0  0  0  0  0  0  0  0
   -4.8705   -0.3694   -2.4831 H   0  0  0  0  0  0  0  0  0  0  0  0
   -4.3815   -2.0914   -3.3963 C   0  0  0  0  0  0  0  0  0  0  0  0
   -3.5961   -3.2229   -3.4181 N   0  0  0  0  0  0  0  0  0  0  0  0
   -2.8137   -3.2751   -2.7675 H   0  0  0  0  0  0  0  0  0  0  0  0
   -3.5325   -3.7576   -4.2824 H   0  0  0  0  0  0  0  0  0  0  0  0
   -5.2781   -1.8957   -4.4200 N   0  0  0  0  0  0  0  0  0  0  0  0
   -5.9794   -1.1629   -4.3293 H   0  0  0  0  0  0  0  0  0  0  0  0
   -5.4757   -2.6711   -5.0506 H   0  0  0  0  0  0  0  0  0  0  0  0
    0.3014   -1.6173    1.4774 C   0  0  0  0  0  0  0  0  0  0  0  0
    1.4972   -1.5596    1.2352 O   0  0  0  0  0  0  0  0  0  0  0  0
   -0.1592   -1.1556    2.6986 N   0  0  0  0  0  0  0  0  0  0  0  0
   -1.1532   -1.2172    2.8853 H   0  0  0  0  0  0  0  0  0  0  0  0
    0.7351   -0.7548    3.7809 C   0  0  0  0  0  0  0  0  0  0  0  0
    1.3793    0.0719    3.4618 H   0  0  0  0  0  0  0  0  0  0  0  0
    0.1575   -0.4240    4.6495 H   0  0  0  0  0  0  0  0  0  0  0  0
    1.3683   -1.5952    4.0857 H   0  0  0  0  0  0  0  0  0  0  0  0
  1  2  1  0  0  0  0
  2  3  1  0  0  0  0
  2  4  1  0  0  0  0
  2  5  1  0  0  0  0
  5  6  2  0  0  0  0
  5  7  1  0  0  0  0
  7  8  1  0  0  0  0
  7  9  1  0  0  0  0
  9 10  1  0  0  0  0
  9 11  1  0  0  0  0
  9 29  1  0  0  0  0
 11 12  1  0  0  0  0
 11 13  1  0  0  0  0
 11 14  1  0  0  0  0
 14 15  1  0  0  0  0
 14 16  1  0  0  0  0
 14 17  1  0  0  0  0
 17 18  1  0  0  0  0
 17 19  1  0  0  0  0
 17 20  1  0  0  0  0
 20 21  1  0  0  0  0
 20 22  2  0  0  0  0
 22 23  1  0  0  0  0
 22 26  1  0  0  0  0
 23 24  1  0  0  0  0
 23 25  1  0  0  0  0
 26 27  1  0  0  0  0
 26 28  1  0  0  0  0
 29 30  2  0  0  0  0
 29 31  1  0  0  0  0
 31 32  1  0  0  0  0
 31 33  1  0  0  0  0
 33 34  1  0  0  0  0
 33 35  1  0  0  0  0
 33 36  1  0  0  0  0
M  CHG  1  20   1
M  END
$$$$

  -OEChem-04042215563D

 36 35  0     1  0  0  0  0  0999 V2000
   -2.0241   -5.8557    1.8231 H   0  0  0  0  0  0  0  0  0  0  0  0
   -2.4040   -4.9208    1.3993 C   0  0  0  0  0  0  0  0  0  0  0  0
   -2.9998   -4.4106    2.1597 H   0  0  0  0  0  0  0  0  0  0  0  0
   -3.0368   -5.1591    0.5416 H   0  0  0  0  0  0  0  0  0  0  0  0
   -1.2457   -4.0434    0.9642 C   0  0  0  0  0  0  0  0  0  0  0  0
   -0.1076   -4.4601    1.0563 O   0  0  0  0  0  0  0  0  0  0  0  0
   -1.4854   -2.7729    0.4677 N   0  0  0  0  0  0  0  0  0  0  0  0
   -2.4277   -2.4283    0.6015 H   0  0  0  0  0  0  0  0  0  0  0  0
   -0.4089   -1.7726    0.3266 C   0  0  1  0  0  0  0  0  0  0  0  0
    0.3658   -2.2849   -0.2577 H   0  0  0  0  0  0  0  0  0  0  0  0
   -0.7321   -0.5037   -0.5054 C   0  0  0  0  0  0  0  0  0  0  0  0
   -1.1237    0.2380    0.1994 H   0  0  0  0  0  0  0  0  0  0  0  0
    0.2150   -0.1022   -0.8840 H   0  0  0  0  0  0  0  0  0  0  0  0
   -1.7397   -0.5474   -1.6793 C   0  0  0  0  0  0  0  0  0  0  0  0
   -1.9447    0.4893   -1.9684 H   0  0  0  0  0  0  0  0  0  0  0  0
   -1.2257   -1.0249   -2.5210 H   0  0  0  0  0  0  0  0  0  0  0  0
   -3.0706   -1.2761   -1.4817 C   0  0  0  0  0  0  0  0  0  0  0  0
   -2.8882   -2.3439   -1.3262 H   0  0  0  0  0  0  0  0  0  0  0  0
   -3.5826   -0.8657   -0.6048 H   0  0  0  0  0  0  0  0  0  0  0  0
   -3.8874   -1.0863   -2.6976 N   0  3  0  0  0  0  0  0  0  0  0  0
   -3.4346   -0.6209   -3.4841 H   0  0  0  0  0  0  0  0  0  0  0  0
   -5.1109   -1.5082   -2.8414 C   0  0  0  0  0  0  0  0  0  0  0  0
   -5.7901   -2.1387   -1.8246 N   0  0  0  0  0  0  0  0  0  0  0  0
   -5.3974   -2.0850   -0.8887 H   0  0  0  0  0  0  0  0  0  0  0  0
   -6.7989   -2.2482   -1.9124 H   0  0  0  0  0  0  0  0  0  0  0  0
   -5.7547   -1.3203   -4.0417 N   0  0  0  0  0  0  0  0  0  0  0  0
   -5.2143   -1.0104   -4.8477 H   0  0  0  0  0  0  0  0  0  0  0  0
   -6.6227   -1.8246   -4.2157 H   0  0  0  0  0  0  0  0  0  0  0  0
    0.3037   -1.3920    1.6448 C   0  0  0  0  0  0  0  0  0  0  0  0
    1.4789   -1.0604    1.6101 O   0  0  0  0  0  0  0  0  0  0  0  0
   -0.4282   -1.1368    2.7921 N   0  0  0  0  0  0  0  0  0  0  0  0
   -1.3830   -1.4734    2.8187 H   0  0  0  0  0  0  0  0  0  0  0  0
    0.1937   -0.7028    4.0398 C   0  0  0  0  0  0  0  0  0  0  0  0
    0.6993    0.2594    3.9028 H   0  0  0  0  0  0  0  0  0  0  0  0
   -0.5629   -0.5846    4.8216 H   0  0  0  0  0  0  0  0  0  0  0  0
    0.9302   -1.4399    4.3784 H   0  0  0  0  0  0  0  0  0  0  0  0
  1  2  1  0  0  0  0
  2  3  1  0  0  0  0
  2  4  1  0  0  0  0
  2  5  1  0  0  0  0
  5  6  2  0  0  0  0
  5  7  1  0  0  0  0
  7  8  1  0  0  0  0
  7  9  1  0  0  0  0
  9 10  1  0  0  0  0
  9 11  1  0  0  0  0
  9 29  1  0  0  0  0
 11 12  1  0  0  0  0
 11 13  1  0  0  0  0
 11 14  1  0  0  0  0
 14 15  1  0  0  0  0
 14 16  1  0  0  0  0
 14 17  1  0  0  0  0
 17 18  1  0  0  0  0
 17 19  1  0  0  0  0
 17 20  1  0  0  0  0
 20 21  1  0  0  0  0
 20 22  2  0  0  0  0
 22 23  1  0  0  0  0
 22 26  1  0  0  0  0
 23 24  1  0  0  0  0
 23 25  1  0  0  0  0
 26 27  1  0  0  0  0
 26 28  1  0  0  0  0
 29 30  2  0  0  0  0
 29 31  1  0  0  0  0
 31 32  1  0  0  0  0
 31 33  1  0  0  0  0
 33 34  1  0  0  0  0
 33 35  1  0  0  0  0
 33 36  1  0  0  0  0
M  CHG  1  20   1
M  END
$$$$

  -OEChem-04042215563D

 36 35  0     1  0  0  0  0  0999 V2000
   -1.1711   -6.1821    1.4056 H   0  0  0  0  0  0  0  0  0  0  0  0
   -1.7483   -5.3048    1.0977 C   0  0  0  0  0  0  0  0  0  0  0  0
   -2.4302   -5.0342    1.9073 H   0  0  0  0  0  0  0  0  0  0  0  0
   -2.3267   -5.5636    0.2081 H   0  0  0  0  0  0  0  0  0  0  0  0
   -0.8127   -4.1502    0.7938 C   0  0  0  0  0  0  0  0  0  0  0  0
    0.3864   -4.2910    0.9375 O   0  0  0  0  0  0  0  0  0  0  0  0
   -1.3224   -2.9355    0.3666 N   0  0  0  0  0  0  0  0  0  0  0  0
   -2.3271   -2.8330    0.4413 H   0  0  0  0  0  0  0  0  0  0  0  0
   -0.4970   -1.7125    0.2939 C   0  0  1  0  0  0  0  0  0  0  0  0
    0.3710   -2.0007   -0.3124 H   0  0  0  0  0  0  0  0  0  0  0  0
   -1.1078   -0.5005   -0.4556 C   0  0  0  0  0  0  0  0  0  0  0  0
   -1.6365    0.1121    0.2827 H   0  0  0  0  0  0  0  0  0  0  0  0
   -0.2768    0.1081   -0.8311 H   0  0  0  0  0  0  0  0  0  0  0  0
   -2.0895   -0.7452   -1.6202 C   0  0  0  0  0  0  0  0  0  0  0  0
   -2.3578    0.2321   -2.0344 H   0  0  0  0  0  0  0  0  0  0  0  0
   -1.5578   -1.2943   -2.4054 H   0  0  0  0  0  0  0  0  0  0  0  0
   -3.3667   -1.5125   -1.2688 C   0  0  0  0  0  0  0  0  0  0  0  0
   -3.1227   -2.5594   -1.0661 H   0  0  0  0  0  0  0  0  0  0  0  0
   -3.8202   -1.0925   -0.3646 H   0  0  0  0  0  0  0  0  0  0  0  0
   -4.3175   -1.4538   -2.3972 N   0  3  0  0  0  0  0  0  0  0  0  0
   -4.2360   -2.1839   -3.1055 H   0  0  0  0  0  0  0  0  0  0  0  0
   -5.2299   -0.5342   -2.5431 C   0  0  0  0  0  0  0  0  0  0  0  0
   -5.3645    0.5075   -1.6531 N   0  0  0  0  0  0  0  0  0  0  0  0
   -4.6123    0.6591   -0.9844 H   0  0  0  0  0  0  0  0  0  0  0  0
   -5.9215    1.3136   -1.9313 H   0  0  0  0  0  0  0  0  0  0  0  0
   -6.0825   -0.5894   -3.6201 N   0  0  0  0  0  0  0  0  0  0  0  0
   -6.1087   -1.4349   -4.1873 H   0  0  0  0  0  0  0  0  0  0  0  0
   -6.9020    0.0158   -3.6265 H   0  0  0  0  0  0  0  0  0  0  0  0
    0.1106   -1.2611    1.6416 C   0  0  0  0  0  0  0  0  0  0  0  0
    1.1573   -0.6308    1.6351 O   0  0  0  0  0  0  0  0  0  0  0  0
   -0.6669   -1.2471    2.7875 N   0  0  0  0  0  0  0  0  0  0  0  0
   -1.4721   -1.8625    2.7965 H   0  0  0  0  0  0  0  0  0  0  0  0
   -0.1593   -0.7584    4.0665 C   0  0  0  0  0  0  0  0  0  0  0  0
    0.1279    0.2960    3.9895 H   0  0  0  0  0  0  0  0  0  0  0  0
   -0.9273   -0.8484    4.8409 H   0  0  0  0  0  0  0  0  0  0  0  0
    0.7169   -1.3378    4.3776 H   0  0  0  0  0  0  0  0  0  0  0  0
  1  2  1  0  0  0  0
  2  3  1  0  0  0  0
  2  4  1  0  0  0  0
  2  5  1  0  0  0  0
  5  6  2  0  0  0  0
  5  7  1  0  0  0  0
  7  8  1  0  0  0  0
  7  9  1  0  0  0  0
  9 10  1  0  0  0  0
  9 11  1  0  0  0  0
  9 29  1  0  0  0  0
 11 12  1  0  0  0  0
 11 13  1  0  0  0  0
 11 14  1  0  0  0  0
 14 15  1  0  0  0  0
 14 16  1  0  0  0  0
 14 17  1  0  0  0  0
 17 18  1  0  0  0  0
 17 19  1  0  0  0  0
 17 20  1  0  0  0  0
 20 21  1  0  0  0  0
 20 22  2  0  0  0  0
 22 23  1  0  0  0  0
 22 26  1  0  0  0  0
 23 24  1  0  0  0  0
 23 25  1  0  0  0  0
 26 27  1  0  0  0  0
 26 28  1  0  0  0  0
 29 30  2  0  0  0  0
 29 31  1  0  0  0  0
 31 32  1  0  0  0  0
 31 33  1  0  0  0  0
 33 34  1  0  0  0  0
 33 35  1  0  0  0  0
 33 36  1  0  0  0  0
M  CHG  1  20   1
M  END
$$$$

  -OEChem-04042215563D

 36 35  0     1  0  0  0  0  0999 V2000
   -1.4479   -6.1931    1.1513 H   0  0  0  0  0  0  0  0  0  0  0  0
   -1.8936   -5.3215    0.6625 C   0  0  0  0  0  0  0  0  0  0  0  0
   -2.8641   -5.1231    1.1226 H   0  0  0  0  0  0  0  0  0  0  0  0
   -2.0344   -5.5491   -0.3965 H   0  0  0  0  0  0  0  0  0  0  0  0
   -0.9837   -4.1184    0.8214 C   0  0  0  0  0  0  0  0  0  0  0  0
    0.0879   -4.2442    1.3813 O   0  0  0  0  0  0  0  0  0  0  0  0
   -1.3804   -2.8802    0.3447 N   0  0  0  0  0  0  0  0  0  0  0  0
   -2.2027   -2.8830   -0.2433 H   0  0  0  0  0  0  0  0  0  0  0  0
   -0.4735   -1.7150    0.2780 C   0  0  1  0  0  0  0  0  0  0  0  0
    0.3887   -2.0424   -0.3155 H   0  0  0  0  0  0  0  0  0  0  0  0
   -1.0533   -0.4699   -0.4409 C   0  0  0  0  0  0  0  0  0  0  0  0
   -1.5193    0.1825    0.3059 H   0  0  0  0  0  0  0  0  0  0  0  0
   -0.2055    0.0875   -0.8562 H   0  0  0  0  0  0  0  0  0  0  0  0
   -2.0786   -0.6959   -1.5661 C   0  0  0  0  0  0  0  0  0  0  0  0
   -2.1602    0.2392   -2.1309 H   0  0  0  0  0  0  0  0  0  0  0  0
   -1.7047   -1.4605   -2.2562 H   0  0  0  0  0  0  0  0  0  0  0  0
   -3.4675   -1.0862   -1.0478 C   0  0  0  0  0  0  0  0  0  0  0  0
   -3.4606   -2.1176   -0.6850 H   0  0  0  0  0  0  0  0  0  0  0  0
   -3.7401   -0.4457   -0.2019 H   0  0  0  0  0  0  0  0  0  0  0  0
   -4.4613   -0.9535   -2.1316 N   0  3  0  0  0  0  0  0  0  0  0  0
   -4.5433   -1.7332   -2.7839 H   0  0  0  0  0  0  0  0  0  0  0  0
   -5.2188    0.0937   -2.3036 C   0  0  0  0  0  0  0  0  0  0  0  0
   -5.1331    1.2005   -1.4888 N   0  0  0  0  0  0  0  0  0  0  0  0
   -4.3406    1.2658   -0.8532 H   0  0  0  0  0  0  0  0  0  0  0  0
   -5.5715    2.0674   -1.7945 H   0  0  0  0  0  0  0  0  0  0  0  0
   -6.1288    0.1089   -3.3336 N   0  0  0  0  0  0  0  0  0  0  0  0
   -6.3252   -0.7576   -3.8314 H   0  0  0  0  0  0  0  0  0  0  0  0
   -6.8433    0.8349   -3.3409 H   0  0  0  0  0  0  0  0  0  0  0  0
    0.1071   -1.2702    1.6409 C   0  0  0  0  0  0  0  0  0  0  0  0
    1.1887   -0.7006    1.6601 O   0  0  0  0  0  0  0  0  0  0  0  0
   -0.7187   -1.1796    2.7480 N   0  0  0  0  0  0  0  0  0  0  0  0
   -1.5332   -1.7843    2.7332 H   0  0  0  0  0  0  0  0  0  0  0  0
   -0.2216   -0.7350    4.0465 C   0  0  0  0  0  0  0  0  0  0  0  0
    0.1525    0.2925    3.9846 H   0  0  0  0  0  0  0  0  0  0  0  0
   -1.0233   -0.7639    4.7909 H   0  0  0  0  0  0  0  0  0  0  0  0
    0.5921   -1.3843    4.3878 H   0  0  0  0  0  0  0  0  0  0  0  0
  1  2  1  0  0  0  0
  2  3  1  0  0  0  0
  2  4  1  0  0  0  0
  2  5  1  0  0  0  0
  5  6  2  0  0  0  0
  5  7  1  0  0  0  0
  7  8  1  0  0  0  0
  7  9  1  0  0  0  0
  9 10  1  0  0  0  0
  9 11  1  0  0  0  0
  9 29  1  0  0  0  0
 11 12  1  0  0  0  0
 11 13  1  0  0  0  0
 11 14  1  0  0  0  0
 14 15  1  0  0  0  0
 14 16  1  0  0  0  0
 14 17  1  0  0  0  0
 17 18  1  0  0  0  0
 17 19  1  0  0  0  0
 17 20  1  0  0  0  0
 20 21  1  0  0  0  0
 20 22  2  0  0  0  0
 22 23  1  0  0  0  0
 22 26  1  0  0  0  0
 23 24  1  0  0  0  0
 23 25  1  0  0  0  0
 26 27  1  0  0  0  0
 26 28  1  0  0  0  0
 29 30  2  0  0  0  0
 29 31  1  0  0  0  0
 31 32  1  0  0  0  0
 31 33  1  0  0  0  0
 33 34  1  0  0  0  0
 33 35  1  0  0  0  0
 33 36  1  0  0  0  0
M  CHG  1  20   1
M  END
$$$$

  -OEChem-04042215563D

 36 35  0     1  0  0  0  0  0999 V2000
   -2.3239   -5.9199    1.0497 H   0  0  0  0  0  0  0  0  0  0  0  0
   -2.5619   -4.9658    0.5698 C   0  0  0  0  0  0  0  0  0  0  0  0
   -3.4933   -4.5845    0.9942 H   0  0  0  0  0  0  0  0  0  0  0  0
   -2.6955   -5.1382   -0.5006 H   0  0  0  0  0  0  0  0  0  0  0  0
   -1.4374   -3.9744    0.8015 C   0  0  0  0  0  0  0  0  0  0  0  0
   -0.4601   -4.3094    1.4422 O   0  0  0  0  0  0  0  0  0  0  0  0
   -1.5317   -2.6907    0.2919 N   0  0  0  0  0  0  0  0  0  0  0  0
   -2.2999   -2.5316   -0.3476 H   0  0  0  0  0  0  0  0  0  0  0  0
   -0.3887   -1.7521    0.2550 C   0  0  1  0  0  0  0  0  0  0  0  0
    0.4063   -2.2637   -0.3004 H   0  0  0  0  0  0  0  0  0  0  0  0
   -0.6903   -0.4370   -0.5038 C   0  0  0  0  0  0  0  0  0  0  0  0
   -1.0315    0.3245    0.2067 H   0  0  0  0  0  0  0  0  0  0  0  0
    0.2598   -0.0757   -0.9140 H   0  0  0  0  0  0  0  0  0  0  0  0
   -1.7113   -0.5320   -1.6504 C   0  0  0  0  0  0  0  0  0  0  0  0
   -1.4632    0.2403   -2.3873 H   0  0  0  0  0  0  0  0  0  0  0  0
   -1.6318   -1.5006   -2.1555 H   0  0  0  0  0  0  0  0  0  0  0  0
   -3.1330   -0.2796   -1.1429 C   0  0  0  0  0  0  0  0  0  0  0  0
   -3.4316   -1.0819   -0.4602 H   0  0  0  0  0  0  0  0  0  0  0  0
   -3.1413    0.6635   -0.5862 H   0  0  0  0  0  0  0  0  0  0  0  0
   -4.0692   -0.2035   -2.2807 N   0  3  0  0  0  0  0  0  0  0  0  0
   -3.7811   -0.6482   -3.1519 H   0  0  0  0  0  0  0  0  0  0  0  0
   -5.2089    0.4270   -2.2396 C   0  0  0  0  0  0  0  0  0  0  0  0
   -5.6429    1.0778   -1.1066 N   0  0  0  0  0  0  0  0  0  0  0  0
   -4.9774    1.2134   -0.3485 H   0  0  0  0  0  0  0  0  0  0  0  0
   -6.4112    1.7410   -1.1898 H   0  0  0  0  0  0  0  0  0  0  0  0
   -6.0105    0.4527   -3.3561 N   0  0  0  0  0  0  0  0  0  0  0  0
   -5.7875   -0.1541   -4.1428 H   0  0  0  0  0  0  0  0  0  0  0  0
   -6.9676    0.7899   -3.2658 H   0  0  0  0  0  0  0  0  0  0  0  0
    0.2258   -1.4044    1.6309 C   0  0  0  0  0  0  0  0  0  0  0  0
    1.4052   -1.0864    1.6814 O   0  0  0  0  0  0  0  0  0  0  0  0
   -0.5965   -1.1041    2.7031 N   0  0  0  0  0  0  0  0  0  0  0  0
   -1.5178   -1.5278    2.6769 H   0  0  0  0  0  0  0  0  0  0  0  0
   -0.0579   -0.7168    4.0035 C   0  0  0  0  0  0  0  0  0  0  0  0
    0.5426    0.1952    3.9158 H   0  0  0  0  0  0  0  0  0  0  0  0
   -0.8709   -0.5248    4.7104 H   0  0  0  0  0  0  0  0  0  0  0  0
    0.5744   -1.5143    4.4088 H   0  0  0  0  0  0  0  0  0  0  0  0
  1  2  1  0  0  0  0
  2  3  1  0  0  0  0
  2  4  1  0  0  0  0
  2  5  1  0  0  0  0
  5  6  2  0  0  0  0
  5  7  1  0  0  0  0
  7  8  1  0  0  0  0
  7  9  1  0  0  0  0
  9 10  1  0  0  0  0
  9 11  1  0  0  0  0
  9 29  1  0  0  0  0
 11 12  1  0  0  0  0
 11 13  1  0  0  0  0
 11 14  1  0  0  0  0
 14 15  1  0  0  0  0
 14 16  1  0  0  0  0
 14 17  1  0  0  0  0
 17 18  1  0  0  0  0
 17 19  1  0  0  0  0
 17 20  1  0  0  0  0
 20 21  1  0  0  0  0
 20 22  2  0  0  0  0
 22 23  1  0  0  0  0
 22 26  1  0  0  0  0
 23 24  1  0  0  0  0
 23 25  1  0  0  0  0
 26 27  1  0  0  0  0
 26 28  1  0  0  0  0
 29 30  2  0  0  0  0
 29 31  1  0  0  0  0
 31 32  1  0  0  0  0
 31 33  1  0  0  0  0
 33 34  1  0  0  0  0
 33 35  1  0  0  0  0
 33 36  1  0  0  0  0
M  CHG  1  20   1
M  END
$$$$

  -OEChem-04042215563D

 36 35  0     1  0  0  0  0  0999 V2000
   -2.5180   -5.8088    1.1037 H   0  0  0  0  0  0  0  0  0  0  0  0
   -2.7325   -4.8348    0.6536 C   0  0  0  0  0  0  0  0  0  0  0  0
   -3.5764   -4.3846    1.1813 H   0  0  0  0  0  0  0  0  0  0  0  0
   -3.0006   -4.9864   -0.3944 H   0  0  0  0  0  0  0  0  0  0  0  0
   -1.5138   -3.9373    0.7546 C   0  0  0  0  0  0  0  0  0  0  0  0
   -0.4945   -4.3562    1.2680 O   0  0  0  0  0  0  0  0  0  0  0  0
   -1.5674   -2.6398    0.2767 N   0  0  0  0  0  0  0  0  0  0  0  0
   -2.4204   -2.3618   -0.1928 H   0  0  0  0  0  0  0  0  0  0  0  0
   -0.4013   -1.7312    0.2416 C   0  0  1  0  0  0  0  0  0  0  0  0
    0.3717   -2.2622   -0.3276 H   0  0  0  0  0  0  0  0  0  0  0  0
   -0.6662   -0.4063   -0.5116 C   0  0  0  0  0  0  0  0  0  0  0  0
   -0.9859    0.3563    0.2074 H   0  0  0  0  0  0  0  0  0  0  0  0
    0.2939   -0.0656   -0.9168 H   0  0  0  0  0  0  0  0  0  0  0  0
   -1.6898   -0.4701   -1.6626 C   0  0  0  0  0  0  0  0  0  0  0  0
   -1.2788    0.1022   -2.5020 H   0  0  0  0  0  0  0  0  0  0  0  0
   -1.8283   -1.4967   -2.0171 H   0  0  0  0  0  0  0  0  0  0  0  0
   -3.0207    0.1649   -1.2551 C   0  0  0  0  0  0  0  0  0  0  0  0
   -3.4906   -0.4417   -0.4734 H   0  0  0  0  0  0  0  0  0  0  0  0
   -2.8244    1.1626   -0.8472 H   0  0  0  0  0  0  0  0  0  0  0  0
   -3.9098    0.2684   -2.4283 N   0  3  0  0  0  0  0  0  0  0  0  0
   -3.6093   -0.1991   -3.2833 H   0  0  0  0  0  0  0  0  0  0  0  0
   -5.0096    0.9668   -2.4431 C   0  0  0  0  0  0  0  0  0  0  0  0
   -5.4492    1.6549   -1.3348 N   0  0  0  0  0  0  0  0  0  0  0  0
   -4.8063    1.7603   -0.5526 H   0  0  0  0  0  0  0  0  0  0  0  0
   -6.1732    2.3610   -1.4556 H   0  0  0  0  0  0  0  0  0  0  0  0
   -5.7602    1.0283   -3.5932 N   0  0  0  0  0  0  0  0  0  0  0  0
   -5.5299    0.4141   -4.3719 H   0  0  0  0  0  0  0  0  0  0  0  0
   -6.7028    1.4118   -3.5457 H   0  0  0  0  0  0  0  0  0  0  0  0
    0.2411   -1.4293    1.6144 C   0  0  0  0  0  0  0  0  0  0  0  0
    1.4287   -1.1426    1.6563 O   0  0  0  0  0  0  0  0  0  0  0  0
   -0.5580   -1.1306    2.7041 N   0  0  0  0  0  0  0  0  0  0  0  0
   -1.4966   -1.5140    2.6786 H   0  0  0  0  0  0  0  0  0  0  0  0
    0.0068   -0.7822    4.0044 C   0  0  0  0  0  0  0  0  0  0  0  0
    0.6255    0.1185    3.9267 H   0  0  0  0  0  0  0  0  0  0  0  0
   -0.7916   -0.5880    4.7270 H   0  0  0  0  0  0  0  0  0  0  0  0
    0.6277   -1.6010    4.3845 H   0  0  0  0  0  0  0  0  0  0  0  0
  1  2  1  0  0  0  0
  2  3  1  0  0  0  0
  2  4  1  0  0  0  0
  2  5  1  0  0  0  0
  5  6  2  0  0  0  0
  5  7  1  0  0  0  0
  7  8  1  0  0  0  0
  7  9  1  0  0  0  0
  9 10  1  0  0  0  0
  9 11  1  0  0  0  0
  9 29  1  0  0  0  0
 11 12  1  0  0  0  0
 11 13  1  0  0  0  0
 11 14  1  0  0  0  0
 14 15  1  0  0  0  0
 14 16  1  0  0  0  0
 14 17  1  0  0  0  0
 17 18  1  0  0  0  0
 17 19  1  0  0  0  0
 17 20  1  0  0  0  0
 20 21  1  0  0  0  0
 20 22  2  0  0  0  0
 22 23  1  0  0  0  0
 22 26  1  0  0  0  0
 23 24  1  0  0  0  0
 23 25  1  0  0  0  0
 26 27  1  0  0  0  0
 26 28  1  0  0  0  0
 29 30  2  0  0  0  0
 29 31  1  0  0  0  0
 31 32  1  0  0  0  0
 31 33  1  0  0  0  0
 33 34  1  0  0  0  0
 33 35  1  0  0  0  0
 33 36  1  0  0  0  0
M  CHG  1  20   1
M  END
$$$$

  -OEChem-04042215563D

 36 35  0     1  0  0  0  0  0999 V2000
   -2.5387   -5.7830    1.1203 H   0  0  0  0  0  0  0  0  0  0  0  0
   -2.7789   -4.7852    0.7409 C   0  0  0  0  0  0  0  0  0  0  0  0
   -3.5179   -4.3283    1.4028 H   0  0  0  0  0  0  0  0  0  0  0  0
   -3.2040   -4.8855   -0.2604 H   0  0  0  0  0  0  0  0  0  0  0  0
   -1.5239   -3.9346    0.6913 C   0  0  0  0  0  0  0  0  0  0  0  0
   -0.4616   -4.3990    1.0583 O   0  0  0  0  0  0  0  0  0  0  0  0
   -1.5864   -2.6281    0.2399 N   0  0  0  0  0  0  0  0  0  0  0  0
   -2.5027   -2.2669    0.0010 H   0  0  0  0  0  0  0  0  0  0  0  0
   -0.4233   -1.7157    0.2171 C   0  0  1  0  0  0  0  0  0  0  0  0
    0.3481   -2.2420   -0.3587 H   0  0  0  0  0  0  0  0  0  0  0  0
   -0.6692   -0.3807   -0.5257 C   0  0  0  0  0  0  0  0  0  0  0  0
   -1.0041    0.3588    0.2101 H   0  0  0  0  0  0  0  0  0  0  0  0
    0.2963   -0.0236   -0.9023 H   0  0  0  0  0  0  0  0  0  0  0  0
   -1.6789   -0.4085   -1.6941 C   0  0  0  0  0  0  0  0  0  0  0  0
   -1.1518   -0.0864   -2.5996 H   0  0  0  0  0  0  0  0  0  0  0  0
   -2.0499   -1.4182   -1.8903 H   0  0  0  0  0  0  0  0  0  0  0  0
   -2.8434    0.5474   -1.4308 C   0  0  0  0  0  0  0  0  0  0  0  0
   -3.4185    0.1889   -0.5699 H   0  0  0  0  0  0  0  0  0  0  0  0
   -2.4395    1.5374   -1.1905 H   0  0  0  0  0  0  0  0  0  0  0  0
   -3.7072    0.6347   -2.6231 N   0  3  0  0  0  0  0  0  0  0  0  0
   -3.4807    0.0245   -3.4078 H   0  0  0  0  0  0  0  0  0  0  0  0
   -4.6938    1.4772   -2.7389 C   0  0  0  0  0  0  0  0  0  0  0  0
   -5.0208    2.3570   -1.7318 N   0  0  0  0  0  0  0  0  0  0  0  0
   -4.3633    2.4662   -0.9626 H   0  0  0  0  0  0  0  0  0  0  0  0
   -5.6349    3.1396   -1.9492 H   0  0  0  0  0  0  0  0  0  0  0  0
   -5.4357    1.4996   -3.8958 N   0  0  0  0  0  0  0  0  0  0  0  0
   -5.3102    0.7565   -4.5806 H   0  0  0  0  0  0  0  0  0  0  0  0
   -6.3114    2.0199   -3.9064 H   0  0  0  0  0  0  0  0  0  0  0  0
    0.2199   -1.4439    1.5956 C   0  0  0  0  0  0  0  0  0  0  0  0
    1.4065   -1.1549    1.6457 O   0  0  0  0  0  0  0  0  0  0  0  0
   -0.5802   -1.1720    2.6922 N   0  0  0  0  0  0  0  0  0  0  0  0
   -1.5266   -1.5342    2.6530 H   0  0  0  0  0  0  0  0  0  0  0  0
   -0.0198   -0.8493    4.0009 C   0  0  0  0  0  0  0  0  0  0  0  0
    0.5979    0.0534    3.9436 H   0  0  0  0  0  0  0  0  0  0  0  0
   -0.8206   -0.6704    4.7247 H   0  0  0  0  0  0  0  0  0  0  0  0
    0.6007   -1.6751    4.3654 H   0  0  0  0  0  0  0  0  0  0  0  0
  1  2  1  0  0  0  0
  2  3  1  0  0  0  0
  2  4  1  0  0  0  0
  2  5  1  0  0  0  0
  5  6  2  0  0  0  0
  5  7  1  0  0  0  0
  7  8  1  0  0  0  0
  7  9  1  0  0  0  0
  9 10  1  0  0  0  0
  9 11  1  0  0  0  0
  9 29  1  0  0  0  0
 11 12  1  0  0  0  0
 11 13  1  0  0  0  0
 11 14  1  0  0  0  0
 14 15  1  0  0  0  0
 14 16  1  0  0  0  0
 14 17  1  0  0  0  0
 17 18  1  0  0  0  0
 17 19  1  0  0  0  0
 17 20  1  0  0  0  0
 20 21  1  0  0  0  0
 20 22  2  0  0  0  0
 22 23  1  0  0  0  0
 22 26  1  0  0  0  0
 23 24  1  0  0  0  0
 23 25  1  0  0  0  0
 26 27  1  0  0  0  0
 26 28  1  0  0  0  0
 29 30  2  0  0  0  0
 29 31  1  0  0  0  0
 31 32  1  0  0  0  0
 31 33  1  0  0  0  0
 33 34  1  0  0  0  0
 33 35  1  0  0  0  0
 33 36  1  0  0  0  0
M  CHG  1  20   1
M  END
$$$$

  -OEChem-04042215563D

 36 35  0     1  0  0  0  0  0999 V2000
   -2.6835   -5.7099    1.1548 H   0  0  0  0  0  0  0  0  0  0  0  0
   -2.8883   -4.7160    0.7459 C   0  0  0  0  0  0  0  0  0  0  0  0
   -3.6226   -4.2195    1.3843 H   0  0  0  0  0  0  0  0  0  0  0  0
   -3.3019   -4.8306   -0.2587 H   0  0  0  0  0  0  0  0  0  0  0  0
   -1.6083   -3.9040    0.6914 C   0  0  0  0  0  0  0  0  0  0  0  0
   -0.5592   -4.3983    1.0573 O   0  0  0  0  0  0  0  0  0  0  0  0
   -1.6343   -2.5984    0.2346 N   0  0  0  0  0  0  0  0  0  0  0  0
   -2.5439   -2.2073    0.0175 H   0  0  0  0  0  0  0  0  0  0  0  0
   -0.4474   -1.7180    0.2066 C   0  0  1  0  0  0  0  0  0  0  0  0
    0.3081   -2.2731   -0.3627 H   0  0  0  0  0  0  0  0  0  0  0  0
   -0.6454   -0.3848   -0.5554 C   0  0  0  0  0  0  0  0  0  0  0  0
   -0.9887    0.3510    0.1803 H   0  0  0  0  0  0  0  0  0  0  0  0
    0.3309   -0.0361   -0.9109 H   0  0  0  0  0  0  0  0  0  0  0  0
   -1.6435   -0.3826   -1.7356 C   0  0  0  0  0  0  0  0  0  0  0  0
   -1.0690   -0.3819   -2.6686 H   0  0  0  0  0  0  0  0  0  0  0  0
   -2.2706   -1.2771   -1.7483 H   0  0  0  0  0  0  0  0  0  0  0  0
   -2.5435    0.8527   -1.6729 C   0  0  0  0  0  0  0  0  0  0  0  0
   -3.1857    0.7860   -0.7877 H   0  0  0  0  0  0  0  0  0  0  0  0
   -1.9137    1.7447   -1.5780 H   0  0  0  0  0  0  0  0  0  0  0  0
   -3.3619    0.9469   -2.8969 N   0  3  0  0  0  0  0  0  0  0  0  0
   -3.1299    0.3128   -3.6608 H   0  0  0  0  0  0  0  0  0  0  0  0
   -4.2935    1.8396   -3.0764 C   0  0  0  0  0  0  0  0  0  0  0  0
   -4.6092    2.7646   -2.1072 N   0  0  0  0  0  0  0  0  0  0  0  0
   -3.9765    2.8561   -1.3151 H   0  0  0  0  0  0  0  0  0  0  0  0
   -5.1589    3.5792   -2.3741 H   0  0  0  0  0  0  0  0  0  0  0  0
   -4.9852    1.8712   -4.2642 N   0  0  0  0  0  0  0  0  0  0  0  0
   -4.8803    1.0983   -4.9188 H   0  0  0  0  0  0  0  0  0  0  0  0
   -5.8299    2.4374   -4.3236 H   0  0  0  0  0  0  0  0  0  0  0  0
    0.2083   -1.4539    1.5812 C   0  0  0  0  0  0  0  0  0  0  0  0
    1.4037   -1.2018    1.6237 O   0  0  0  0  0  0  0  0  0  0  0  0
   -0.5755   -1.1531    2.6820 N   0  0  0  0  0  0  0  0  0  0  0  0
   -1.5337   -1.4836    2.6515 H   0  0  0  0  0  0  0  0  0  0  0  0
    0.0034   -0.8361    3.9846 C   0  0  0  0  0  0  0  0  0  0  0  0
    0.6387    0.0539    3.9176 H   0  0  0  0  0  0  0  0  0  0  0  0
   -0.7877   -0.6382    4.7145 H   0  0  0  0  0  0  0  0  0  0  0  0
    0.6107   -1.6724    4.3478 H   0  0  0  0  0  0  0  0  0  0  0  0
  1  2  1  0  0  0  0
  2  3  1  0  0  0  0
  2  4  1  0  0  0  0
  2  5  1  0  0  0  0
  5  6  2  0  0  0  0
  5  7  1  0  0  0  0
  7  8  1  0  0  0  0
  7  9  1  0  0  0  0
  9 10  1  0  0  0  0
  9 11  1  0  0  0  0
  9 29  1  0  0  0  0
 11 12  1  0  0  0  0
 11 13  1  0  0  0  0
 11 14  1  0  0  0  0
 14 15  1  0  0  0  0
 14 16  1  0  0  0  0
 14 17  1  0  0  0  0
 17 18  1  0  0  0  0
 17 19  1  0  0  0  0
 17 20  1  0  0  0  0
 20 21  1  0  0  0  0
 20 22  2  0  0  0  0
 22 23  1  0  0  0  0
 22 26  1  0  0  0  0
 23 24  1  0  0  0  0
 23 25  1  0  0  0  0
 26 27  1  0  0  0  0
 26 28  1  0  0  0  0
 29 30  2  0  0  0  0
 29 31  1  0  0  0  0
 31 32  1  0  0  0  0
 31 33  1  0  0  0  0
 33 34  1  0  0  0  0
 33 35  1  0  0  0  0
 33 36  1  0  0  0  0
M  CHG  1  20   1
M  END
$$$$

  -OEChem-04042215563D

 36 35  0     1  0  0  0  0  0999 V2000
   -2.6793   -5.7065    1.1668 H   0  0  0  0  0  0  0  0  0  0  0  0
   -2.8949   -4.7111    0.7666 C   0  0  0  0  0  0  0  0  0  0  0  0
   -3.6045   -4.2133    1.4314 H   0  0  0  0  0  0  0  0  0  0  0  0
   -3.3446   -4.8223   -0.2228 H   0  0  0  0  0  0  0  0  0  0  0  0
   -1.6144   -3.9035    0.6690 C   0  0  0  0  0  0  0  0  0  0  0  0
   -0.5564   -4.4002    1.0057 O   0  0  0  0  0  0  0  0  0  0  0  0
   -1.6484   -2.5991    0.2092 N   0  0  0  0  0  0  0  0  0  0  0  0
   -2.5641   -2.2016    0.0322 H   0  0  0  0  0  0  0  0  0  0  0  0
   -0.4646   -1.7148    0.1829 C   0  0  1  0  0  0  0  0  0  0  0  0
    0.2942   -2.2687   -0.3830 H   0  0  0  0  0  0  0  0  0  0  0  0
   -0.6629   -0.3832   -0.5805 C   0  0  0  0  0  0  0  0  0  0  0  0
   -1.0232    0.3467    0.1531 H   0  0  0  0  0  0  0  0  0  0  0  0
    0.3120   -0.0251   -0.9301 H   0  0  0  0  0  0  0  0  0  0  0  0
   -1.6572   -0.3906   -1.7598 C   0  0  0  0  0  0  0  0  0  0  0  0
   -1.1196   -0.6766   -2.6708 H   0  0  0  0  0  0  0  0  0  0  0  0
   -2.4627   -1.1130   -1.6096 H   0  0  0  0  0  0  0  0  0  0  0  0
   -2.2857    0.9959   -1.9087 C   0  0  0  0  0  0  0  0  0  0  0  0
   -2.9178    1.1995   -1.0370 H   0  0  0  0  0  0  0  0  0  0  0  0
   -1.4858    1.7445   -1.9381 H   0  0  0  0  0  0  0  0  0  0  0  0
   -3.0808    1.0713   -3.1486 N   0  3  0  0  0  0  0  0  0  0  0  0
   -2.9889    0.2997   -3.8085 H   0  0  0  0  0  0  0  0  0  0  0  0
   -3.8119    2.0995   -3.4727 C   0  0  0  0  0  0  0  0  0  0  0  0
   -3.9254    3.1991   -2.6520 N   0  0  0  0  0  0  0  0  0  0  0  0
   -3.2869    3.2721   -1.8624 H   0  0  0  0  0  0  0  0  0  0  0  0
   -4.3014    4.0611   -3.0424 H   0  0  0  0  0  0  0  0  0  0  0  0
   -4.4912    2.0999   -4.6679 N   0  0  0  0  0  0  0  0  0  0  0  0
   -4.5480    1.2368   -5.2053 H   0  0  0  0  0  0  0  0  0  0  0  0
   -5.2049    2.8097   -4.8245 H   0  0  0  0  0  0  0  0  0  0  0  0
    0.1862   -1.4465    1.5587 C   0  0  0  0  0  0  0  0  0  0  0  0
    1.3783   -1.1793    1.6022 O   0  0  0  0  0  0  0  0  0  0  0  0
   -0.6030   -1.1469    2.6558 N   0  0  0  0  0  0  0  0  0  0  0  0
   -1.5608   -1.4787    2.6238 H   0  0  0  0  0  0  0  0  0  0  0  0
   -0.0331   -0.8058    3.9559 C   0  0  0  0  0  0  0  0  0  0  0  0
    0.5867    0.0944    3.8804 H   0  0  0  0  0  0  0  0  0  0  0  0
   -0.8287   -0.6136    4.6822 H   0  0  0  0  0  0  0  0  0  0  0  0
    0.5875   -1.6273    4.3302 H   0  0  0  0  0  0  0  0  0  0  0  0
  1  2  1  0  0  0  0
  2  3  1  0  0  0  0
  2  4  1  0  0  0  0
  2  5  1  0  0  0  0
  5  6  2  0  0  0  0
  5  7  1  0  0  0  0
  7  8  1  0  0  0  0
  7  9  1  0  0  0  0
  9 10  1  0  0  0  0
  9 11  1  0  0  0  0
  9 29  1  0  0  0  0
 11 12  1  0  0  0  0
 11 13  1  0  0  0  0
 11 14  1  0  0  0  0
 14 15  1  0  0  0  0
 14 16  1  0  0  0  0
 14 17  1  0  0  0  0
 17 18  1  0  0  0  0
 17 19  1  0  0  0  0
 17 20  1  0  0  0  0
 20 21  1  0  0  0  0
 20 22  2  0  0  0  0
 22 23  1  0  0  0  0
 22 26  1  0  0  0  0
 23 24  1  0  0  0  0
 23 25  1  0  0  0  0
 26 27  1  0  0  0  0
 26 28  1  0  0  0  0
 29 30  2  0  0  0  0
 29 31  1  0  0  0  0
 31 32  1  0  0  0  0
 31 33  1  0  0  0  0
 33 34  1  0  0  0  0
 33 35  1  0  0  0  0
 33 36  1  0  0  0  0
M  CHG  1  20   1
M  END
$$$$

  -OEChem-04042215563D

 36 35  0     1  0  0  0  0  0999 V2000
   -2.7237   -5.6653    1.1557 H   0  0  0  0  0  0  0  0  0  0  0  0
   -2.9276   -4.6689    0.7520 C   0  0  0  0  0  0  0  0  0  0  0  0
   -3.6245   -4.1576    1.4200 H   0  0  0  0  0  0  0  0  0  0  0  0
   -3.3867   -4.7783   -0.2333 H   0  0  0  0  0  0  0  0  0  0  0  0
   -1.6363   -3.8808    0.6402 C   0  0  0  0  0  0  0  0  0  0  0  0
   -0.5830   -4.3926    0.9693 O   0  0  0  0  0  0  0  0  0  0  0  0
   -1.6548   -2.5777    0.1755 N   0  0  0  0  0  0  0  0  0  0  0  0
   -2.5667   -2.1657    0.0124 H   0  0  0  0  0  0  0  0  0  0  0  0
   -0.4615   -1.7065    0.1612 C   0  0  1  0  0  0  0  0  0  0  0  0
    0.2986   -2.2653   -0.3980 H   0  0  0  0  0  0  0  0  0  0  0  0
   -0.6492   -0.3754   -0.6017 C   0  0  0  0  0  0  0  0  0  0  0  0
   -1.0090    0.3654    0.1213 H   0  0  0  0  0  0  0  0  0  0  0  0
    0.3294   -0.0301   -0.9542 H   0  0  0  0  0  0  0  0  0  0  0  0
   -1.6398   -0.3984   -1.7792 C   0  0  0  0  0  0  0  0  0  0  0  0
   -1.1857   -0.9356   -2.6194 H   0  0  0  0  0  0  0  0  0  0  0  0
   -2.5682   -0.9091   -1.5090 H   0  0  0  0  0  0  0  0  0  0  0  0
   -1.9765    1.0412   -2.1680 C   0  0  0  0  0  0  0  0  0  0  0  0
   -2.5188    1.5164   -1.3431 H   0  0  0  0  0  0  0  0  0  0  0  0
   -1.0416    1.5898   -2.3290 H   0  0  0  0  0  0  0  0  0  0  0  0
   -2.7876    1.0738   -3.3988 N   0  3  0  0  0  0  0  0  0  0  0  0
   -2.8754    0.2044   -3.9236 H   0  0  0  0  0  0  0  0  0  0  0  0
   -3.3139    2.1639   -3.8797 C   0  0  0  0  0  0  0  0  0  0  0  0
   -3.1735    3.3786   -3.2466 N   0  0  0  0  0  0  0  0  0  0  0  0
   -2.5021    3.4434   -2.4839 H   0  0  0  0  0  0  0  0  0  0  0  0
   -3.3896    4.2275   -3.7657 H   0  0  0  0  0  0  0  0  0  0  0  0
   -4.0285    2.1138   -5.0528 N   0  0  0  0  0  0  0  0  0  0  0  0
   -4.2763    1.2066   -5.4431 H   0  0  0  0  0  0  0  0  0  0  0  0
   -4.5923    2.9201   -5.3169 H   0  0  0  0  0  0  0  0  0  0  0  0
    0.1765   -1.4403    1.5430 C   0  0  0  0  0  0  0  0  0  0  0  0
    1.3714   -1.1879    1.6006 O   0  0  0  0  0  0  0  0  0  0  0  0
   -0.6230   -1.1282    2.6290 N   0  0  0  0  0  0  0  0  0  0  0  0
   -1.5888   -1.4338    2.5818 H   0  0  0  0  0  0  0  0  0  0  0  0
   -0.0693   -0.7766    3.9331 C   0  0  0  0  0  0  0  0  0  0  0  0
    0.5576    0.1181    3.8552 H   0  0  0  0  0  0  0  0  0  0  0  0
   -0.8737   -0.5704    4.6457 H   0  0  0  0  0  0  0  0  0  0  0  0
    0.5399   -1.5982    4.3251 H   0  0  0  0  0  0  0  0  0  0  0  0
  1  2  1  0  0  0  0
  2  3  1  0  0  0  0
  2  4  1  0  0  0  0
  2  5  1  0  0  0  0
  5  6  2  0  0  0  0
  5  7  1  0  0  0  0
  7  8  1  0  0  0  0
  7  9  1  0  0  0  0
  9 10  1  0  0  0  0
  9 11  1  0  0  0  0
  9 29  1  0  0  0  0
 11 12  1  0  0  0  0
 11 13  1  0  0  0  0
 11 14  1  0  0  0  0
 14 15  1  0  0  0  0
 14 16  1  0  0  0  0
 14 17  1  0  0  0  0
 17 18  1  0  0  0  0
 17 19  1  0  0  0  0
 17 20  1  0  0  0  0
 20 21  1  0  0  0  0
 20 22  2  0  0  0  0
 22 23  1  0  0  0  0
 22 26  1  0  0  0  0
 23 24  1  0  0  0  0
 23 25  1  0  0  0  0
 26 27  1  0  0  0  0
 26 28  1  0  0  0  0
 29 30  2  0  0  0  0
 29 31  1  0  0  0  0
 31 32  1  0  0  0  0
 31 33  1  0  0  0  0
 33 34  1  0  0  0  0
 33 35  1  0  0  0  0
 33 36  1  0  0  0  0
M  CHG  1  20   1
M  END
$$$$

  -OEChem-04042215563D

 36 35  0     1  0  0  0  0  0999 V2000
   -2.7276   -5.6641    1.1148 H   0  0  0  0  0  0  0  0  0  0  0  0
   -2.9162   -4.6805    0.6741 C   0  0  0  0  0  0  0  0  0  0  0  0
   -3.6853   -4.1756    1.2631 H   0  0  0  0  0  0  0  0  0  0  0  0
   -3.2765   -4.8190   -0.3478 H   0  0  0  0  0  0  0  0  0  0  0  0
   -1.6390   -3.8623    0.6692 C   0  0  0  0  0  0  0  0  0  0  0  0
   -0.6085   -4.3466    1.0972 O   0  0  0  0  0  0  0  0  0  0  0  0
   -1.6441   -2.5648    0.1883 N   0  0  0  0  0  0  0  0  0  0  0  0
   -2.5321   -2.1949   -0.1297 H   0  0  0  0  0  0  0  0  0  0  0  0
   -0.4477   -1.6964    0.1719 C   0  0  1  0  0  0  0  0  0  0  0  0
    0.3160   -2.2645   -0.3732 H   0  0  0  0  0  0  0  0  0  0  0  0
   -0.6279   -0.3685   -0.6040 C   0  0  0  0  0  0  0  0  0  0  0  0
   -0.7096    0.4493    0.1213 H   0  0  0  0  0  0  0  0  0  0  0  0
    0.2847   -0.1895   -1.1839 H   0  0  0  0  0  0  0  0  0  0  0  0
   -1.8473   -0.2858   -1.5339 C   0  0  0  0  0  0  0  0  0  0  0  0
   -1.7875   -1.0775   -2.2891 H   0  0  0  0  0  0  0  0  0  0  0  0
   -2.7719   -0.4138   -0.9624 H   0  0  0  0  0  0  0  0  0  0  0  0
   -1.8511    1.0883   -2.2054 C   0  0  0  0  0  0  0  0  0  0  0  0
   -1.9306    1.8601   -1.4313 H   0  0  0  0  0  0  0  0  0  0  0  0
   -0.9004    1.2265   -2.7331 H   0  0  0  0  0  0  0  0  0  0  0  0
   -2.9709    1.2083   -3.1578 N   0  3  0  0  0  0  0  0  0  0  0  0
   -3.4672    0.3540   -3.4065 H   0  0  0  0  0  0  0  0  0  0  0  0
   -3.3031    2.3287   -3.7340 C   0  0  0  0  0  0  0  0  0  0  0  0
   -2.6280    3.5020   -3.4830 N   0  0  0  0  0  0  0  0  0  0  0  0
   -1.7505    3.4463   -2.9693 H   0  0  0  0  0  0  0  0  0  0  0  0
   -2.7604    4.2874   -4.1173 H   0  0  0  0  0  0  0  0  0  0  0  0
   -4.3514    2.3545   -4.6231 N   0  0  0  0  0  0  0  0  0  0  0  0
   -4.9654    1.5447   -4.6860 H   0  0  0  0  0  0  0  0  0  0  0  0
   -4.7219    3.2585   -4.9119 H   0  0  0  0  0  0  0  0  0  0  0  0
    0.1746   -1.4185    1.5591 C   0  0  0  0  0  0  0  0  0  0  0  0
    1.3702   -1.1719    1.6286 O   0  0  0  0  0  0  0  0  0  0  0  0
   -0.6383   -1.0935    2.6314 N   0  0  0  0  0  0  0  0  0  0  0  0
   -1.6006   -1.4091    2.5738 H   0  0  0  0  0  0  0  0  0  0  0  0
   -0.1002   -0.7574    3.9461 C   0  0  0  0  0  0  0  0  0  0  0  0
    0.5542    0.1186    3.8823 H   0  0  0  0  0  0  0  0  0  0  0  0
   -0.9126   -0.5280    4.6424 H   0  0  0  0  0  0  0  0  0  0  0  0
    0.4764   -1.5969    4.3494 H   0  0  0  0  0  0  0  0  0  0  0  0
  1  2  1  0  0  0  0
  2  3  1  0  0  0  0
  2  4  1  0  0  0  0
  2  5  1  0  0  0  0
  5  6  2  0  0  0  0
  5  7  1  0  0  0  0
  7  8  1  0  0  0  0
  7  9  1  0  0  0  0
  9 10  1  0  0  0  0
  9 11  1  0  0  0  0
  9 29  1  0  0  0  0
 11 12  1  0  0  0  0
 11 13  1  0  0  0  0
 11 14  1  0  0  0  0
 14 15  1  0  0  0  0
 14 16  1  0  0  0  0
 14 17  1  0  0  0  0
 17 18  1  0  0  0  0
 17 19  1  0  0  0  0
 17 20  1  0  0  0  0
 20 21  1  0  0  0  0
 20 22  2  0  0  0  0
 22 23  1  0  0  0  0
 22 26  1  0  0  0  0
 23 24  1  0  0  0  0
 23 25  1  0  0  0  0
 26 27  1  0  0  0  0
 26 28  1  0  0  0  0
 29 30  2  0  0  0  0
 29 31  1  0  0  0  0
 31 32  1  0  0  0  0
 31 33  1  0  0  0  0
 33 34  1  0  0  0  0
 33 35  1  0  0  0  0
 33 36  1  0  0  0  0
M  CHG  1  20   1
M  END
$$$$

  -OEChem-04042215563D

 36 35  0     1  0  0  0  0  0999 V2000
   -2.7436   -5.6295    1.1463 H   0  0  0  0  0  0  0  0  0  0  0  0
   -2.9320   -4.6465    0.7045 C   0  0  0  0  0  0  0  0  0  0  0  0
   -3.6725   -4.1251    1.3155 H   0  0  0  0  0  0  0  0  0  0  0  0
   -3.3292   -4.7875   -0.3034 H   0  0  0  0  0  0  0  0  0  0  0  0
   -1.6432   -3.8487    0.6484 C   0  0  0  0  0  0  0  0  0  0  0  0
   -0.6008   -4.3541    1.0194 O   0  0  0  0  0  0  0  0  0  0  0  0
   -1.6499   -2.5480    0.1764 N   0  0  0  0  0  0  0  0  0  0  0  0
   -2.5538   -2.1457   -0.0448 H   0  0  0  0  0  0  0  0  0  0  0  0
   -0.4526   -1.6807    0.1678 C   0  0  1  0  0  0  0  0  0  0  0  0
    0.3114   -2.2490   -0.3769 H   0  0  0  0  0  0  0  0  0  0  0  0
   -0.6325   -0.3565   -0.6130 C   0  0  0  0  0  0  0  0  0  0  0  0
   -0.7118    0.4734    0.0988 H   0  0  0  0  0  0  0  0  0  0  0  0
    0.2841   -0.1923   -1.1914 H   0  0  0  0  0  0  0  0  0  0  0  0
   -1.8493   -0.2891   -1.5494 C   0  0  0  0  0  0  0  0  0  0  0  0
   -1.9129   -1.2104   -2.1389 H   0  0  0  0  0  0  0  0  0  0  0  0
   -2.7695   -0.1804   -0.9659 H   0  0  0  0  0  0  0  0  0  0  0  0
   -1.6705    0.8986   -2.4961 C   0  0  0  0  0  0  0  0  0  0  0  0
   -1.5903    1.8153   -1.9009 H   0  0  0  0  0  0  0  0  0  0  0  0
   -0.7368    0.7683   -3.0553 H   0  0  0  0  0  0  0  0  0  0  0  0
   -2.8036    1.0043   -3.4342 N   0  3  0  0  0  0  0  0  0  0  0  0
   -3.4569    0.2234   -3.4700 H   0  0  0  0  0  0  0  0  0  0  0  0
   -2.9720    2.0140   -4.2402 C   0  0  0  0  0  0  0  0  0  0  0  0
   -2.0929    3.0734   -4.2692 N   0  0  0  0  0  0  0  0  0  0  0  0
   -1.2122    2.9779   -3.7670 H   0  0  0  0  0  0  0  0  0  0  0  0
   -2.1273    3.7183   -5.0564 H   0  0  0  0  0  0  0  0  0  0  0  0
   -4.0514    2.0330   -5.0918 N   0  0  0  0  0  0  0  0  0  0  0  0
   -4.7968    1.3522   -4.9590 H   0  0  0  0  0  0  0  0  0  0  0  0
   -4.2789    2.9033   -5.5699 H   0  0  0  0  0  0  0  0  0  0  0  0
    0.1723   -1.4098    1.5551 C   0  0  0  0  0  0  0  0  0  0  0  0
    1.3707   -1.1784    1.6251 O   0  0  0  0  0  0  0  0  0  0  0  0
   -0.6352   -1.0890    2.6326 N   0  0  0  0  0  0  0  0  0  0  0  0
   -1.6051   -1.3785    2.5694 H   0  0  0  0  0  0  0  0  0  0  0  0
   -0.0906   -0.7794    3.9511 C   0  0  0  0  0  0  0  0  0  0  0  0
    0.5874    0.0793    3.8965 H   0  0  0  0  0  0  0  0  0  0  0  0
   -0.8978   -0.5342    4.6483 H   0  0  0  0  0  0  0  0  0  0  0  0
    0.4628   -1.6378    4.3474 H   0  0  0  0  0  0  0  0  0  0  0  0
  1  2  1  0  0  0  0
  2  3  1  0  0  0  0
  2  4  1  0  0  0  0
  2  5  1  0  0  0  0
  5  6  2  0  0  0  0
  5  7  1  0  0  0  0
  7  8  1  0  0  0  0
  7  9  1  0  0  0  0
  9 10  1  0  0  0  0
  9 11  1  0  0  0  0
  9 29  1  0  0  0  0
 11 12  1  0  0  0  0
 11 13  1  0  0  0  0
 11 14  1  0  0  0  0
 14 15  1  0  0  0  0
 14 16  1  0  0  0  0
 14 17  1  0  0  0  0
 17 18  1  0  0  0  0
 17 19  1  0  0  0  0
 17 20  1  0  0  0  0
 20 21  1  0  0  0  0
 20 22  2  0  0  0  0
 22 23  1  0  0  0  0
 22 26  1  0  0  0  0
 23 24  1  0  0  0  0
 23 25  1  0  0  0  0
 26 27  1  0  0  0  0
 26 28  1  0  0  0  0
 29 30  2  0  0  0  0
 29 31  1  0  0  0  0
 31 32  1  0  0  0  0
 31 33  1  0  0  0  0
 33 34  1  0  0  0  0
 33 35  1  0  0  0  0
 33 36  1  0  0  0  0
M  CHG  1  20   1
M  END
$$$$

  -OEChem-04042215563D

 36 35  0     1  0  0  0  0  0999 V2000
   -2.7322   -5.6269    1.2066 H   0  0  0  0  0  0  0  0  0  0  0  0
   -2.9346   -4.6487    0.7603 C   0  0  0  0  0  0  0  0  0  0  0  0
   -3.6507   -4.1183    1.3920 H   0  0  0  0  0  0  0  0  0  0  0  0
   -3.3699   -4.7997   -0.2301 H   0  0  0  0  0  0  0  0  0  0  0  0
   -1.6466   -3.8557    0.6452 C   0  0  0  0  0  0  0  0  0  0  0  0
   -0.5887   -4.3690    0.9570 O   0  0  0  0  0  0  0  0  0  0  0  0
   -1.6704   -2.5523    0.1817 N   0  0  0  0  0  0  0  0  0  0  0  0
   -2.5846   -2.1375    0.0380 H   0  0  0  0  0  0  0  0  0  0  0  0
   -0.4781   -1.6781    0.1639 C   0  0  1  0  0  0  0  0  0  0  0  0
    0.2809   -2.2453   -0.3892 H   0  0  0  0  0  0  0  0  0  0  0  0
   -0.6620   -0.3550   -0.6196 C   0  0  0  0  0  0  0  0  0  0  0  0
   -0.7348    0.4786    0.0885 H   0  0  0  0  0  0  0  0  0  0  0  0
    0.2586   -0.1981   -1.1937 H   0  0  0  0  0  0  0  0  0  0  0  0
   -1.8793   -0.2767   -1.5607 C   0  0  0  0  0  0  0  0  0  0  0  0
   -2.1013   -1.2657   -1.9746 H   0  0  0  0  0  0  0  0  0  0  0  0
   -2.7585    0.0787   -1.0129 H   0  0  0  0  0  0  0  0  0  0  0  0
   -1.5415    0.6532   -2.7275 C   0  0  0  0  0  0  0  0  0  0  0  0
   -1.2945    1.6440   -2.3295 H   0  0  0  0  0  0  0  0  0  0  0  0
   -0.6602    0.2614   -3.2482 H   0  0  0  0  0  0  0  0  0  0  0  0
   -2.6736    0.7562   -3.6675 N   0  3  0  0  0  0  0  0  0  0  0  0
   -3.4647    0.1314   -3.5196 H   0  0  0  0  0  0  0  0  0  0  0  0
   -2.6878    1.5729   -4.6823 C   0  0  0  0  0  0  0  0  0  0  0  0
   -1.6313    2.4135   -4.9517 N   0  0  0  0  0  0  0  0  0  0  0  0
   -0.7641    2.2733   -4.4368 H   0  0  0  0  0  0  0  0  0  0  0  0
   -1.5810    2.8636   -5.8635 H   0  0  0  0  0  0  0  0  0  0  0  0
   -3.7808    1.6040   -5.5153 N   0  0  0  0  0  0  0  0  0  0  0  0
   -4.6319    1.1233   -5.2311 H   0  0  0  0  0  0  0  0  0  0  0  0
   -3.8642    2.3708   -6.1805 H   0  0  0  0  0  0  0  0  0  0  0  0
    0.1660   -1.4103    1.5427 C   0  0  0  0  0  0  0  0  0  0  0  0
    1.3654   -1.1791    1.5956 O   0  0  0  0  0  0  0  0  0  0  0  0
   -0.6244   -1.0995    2.6357 N   0  0  0  0  0  0  0  0  0  0  0  0
   -1.5972   -1.3813    2.5855 H   0  0  0  0  0  0  0  0  0  0  0  0
   -0.0594   -0.7916    3.9463 C   0  0  0  0  0  0  0  0  0  0  0  0
    0.6238    0.0621    3.8814 H   0  0  0  0  0  0  0  0  0  0  0  0
   -0.8548   -0.5395    4.6541 H   0  0  0  0  0  0  0  0  0  0  0  0
    0.4931   -1.6532    4.3364 H   0  0  0  0  0  0  0  0  0  0  0  0
  1  2  1  0  0  0  0
  2  3  1  0  0  0  0
  2  4  1  0  0  0  0
  2  5  1  0  0  0  0
  5  6  2  0  0  0  0
  5  7  1  0  0  0  0
  7  8  1  0  0  0  0
  7  9  1  0  0  0  0
  9 10  1  0  0  0  0
  9 11  1  0  0  0  0
  9 29  1  0  0  0  0
 11 12  1  0  0  0  0
 11 13  1  0  0  0  0
 11 14  1  0  0  0  0
 14 15  1  0  0  0  0
 14 16  1  0  0  0  0
 14 17  1  0  0  0  0
 17 18  1  0  0  0  0
 17 19  1  0  0  0  0
 17 20  1  0  0  0  0
 20 21  1  0  0  0  0
 20 22  2  0  0  0  0
 22 23  1  0  0  0  0
 22 26  1  0  0  0  0
 23 24  1  0  0  0  0
 23 25  1  0  0  0  0
 26 27  1  0  0  0  0
 26 28  1  0  0  0  0
 29 30  2  0  0  0  0
 29 31  1  0  0  0  0
 31 32  1  0  0  0  0
 31 33  1  0  0  0  0
 33 34  1  0  0  0  0
 33 35  1  0  0  0  0
 33 36  1  0  0  0  0
M  CHG  1  20   1
M  END
$$$$

  -OEChem-04042215563D

 36 35  0     1  0  0  0  0  0999 V2000
   -2.7068   -5.6411    1.2644 H   0  0  0  0  0  0  0  0  0  0  0  0
   -2.9302   -4.6551    0.8461 C   0  0  0  0  0  0  0  0  0  0  0  0
   -3.5884   -4.1238    1.5375 H   0  0  0  0  0  0  0  0  0  0  0  0
   -3.4426   -4.7881   -0.1096 H   0  0  0  0  0  0  0  0  0  0  0  0
   -1.6456   -3.8748    0.6428 C   0  0  0  0  0  0  0  0  0  0  0  0
   -0.5731   -4.3959    0.8844 O   0  0  0  0  0  0  0  0  0  0  0  0
   -1.6919   -2.5695    0.1861 N   0  0  0  0  0  0  0  0  0  0  0  0
   -2.6127   -2.1478    0.1266 H   0  0  0  0  0  0  0  0  0  0  0  0
   -0.5072   -1.6862    0.1531 C   0  0  1  0  0  0  0  0  0  0  0  0
    0.2463   -2.2500   -0.4106 H   0  0  0  0  0  0  0  0  0  0  0  0
   -0.6959   -0.3614   -0.6294 C   0  0  0  0  0  0  0  0  0  0  0  0
   -0.7724    0.4632    0.0886 H   0  0  0  0  0  0  0  0  0  0  0  0
    0.2292   -0.1922   -1.1926 H   0  0  0  0  0  0  0  0  0  0  0  0
   -1.9144   -0.2564   -1.5732 C   0  0  0  0  0  0  0  0  0  0  0  0
   -2.3317   -1.2424   -1.7950 H   0  0  0  0  0  0  0  0  0  0  0  0
   -2.6969    0.3506   -1.1052 H   0  0  0  0  0  0  0  0  0  0  0  0
   -1.4606    0.3587   -2.8993 C   0  0  0  0  0  0  0  0  0  0  0  0
   -1.0333    1.3486   -2.7015 H   0  0  0  0  0  0  0  0  0  0  0  0
   -0.6780   -0.2742   -3.3327 H   0  0  0  0  0  0  0  0  0  0  0  0
   -2.5868    0.4790   -3.8439 N   0  3  0  0  0  0  0  0  0  0  0  0
   -3.4863    0.0995   -3.5530 H   0  0  0  0  0  0  0  0  0  0  0  0
   -2.4742    1.0242   -5.0218 C   0  0  0  0  0  0  0  0  0  0  0  0
   -1.2768    1.5315   -5.4739 N   0  0  0  0  0  0  0  0  0  0  0  0
   -0.4366    1.3269   -4.9364 H   0  0  0  0  0  0  0  0  0  0  0  0
   -1.1732    1.7384   -6.4654 H   0  0  0  0  0  0  0  0  0  0  0  0
   -3.5717    1.0992   -5.8463 N   0  0  0  0  0  0  0  0  0  0  0  0
   -4.4915    0.8907   -5.4632 H   0  0  0  0  0  0  0  0  0  0  0  0
   -3.5210    1.6958   -6.6706 H   0  0  0  0  0  0  0  0  0  0  0  0
    0.1569   -1.4218    1.5227 C   0  0  0  0  0  0  0  0  0  0  0  0
    1.3561   -1.1869    1.5586 O   0  0  0  0  0  0  0  0  0  0  0  0
   -0.6168   -1.1233    2.6308 N   0  0  0  0  0  0  0  0  0  0  0  0
   -1.5925   -1.3968    2.5940 H   0  0  0  0  0  0  0  0  0  0  0  0
   -0.0329   -0.8046    3.9301 C   0  0  0  0  0  0  0  0  0  0  0  0
    0.6107    0.0788    3.8573 H   0  0  0  0  0  0  0  0  0  0  0  0
   -0.8204   -0.5956    4.6606 H   0  0  0  0  0  0  0  0  0  0  0  0
    0.5671   -1.6446    4.2966 H   0  0  0  0  0  0  0  0  0  0  0  0
  1  2  1  0  0  0  0
  2  3  1  0  0  0  0
  2  4  1  0  0  0  0
  2  5  1  0  0  0  0
  5  6  2  0  0  0  0
  5  7  1  0  0  0  0
  7  8  1  0  0  0  0
  7  9  1  0  0  0  0
  9 10  1  0  0  0  0
  9 11  1  0  0  0  0
  9 29  1  0  0  0  0
 11 12  1  0  0  0  0
 11 13  1  0  0  0  0
 11 14  1  0  0  0  0
 14 15  1  0  0  0  0
 14 16  1  0  0  0  0
 14 17  1  0  0  0  0
 17 18  1  0  0  0  0
 17 19  1  0  0  0  0
 17 20  1  0  0  0  0
 20 21  1  0  0  0  0
 20 22  2  0  0  0  0
 22 23  1  0  0  0  0
 22 26  1  0  0  0  0
 23 24  1  0  0  0  0
 23 25  1  0  0  0  0
 26 27  1  0  0  0  0
 26 28  1  0  0  0  0
 29 30  2  0  0  0  0
 29 31  1  0  0  0  0
 31 32  1  0  0  0  0
 31 33  1  0  0  0  0
 33 34  1  0  0  0  0
 33 35  1  0  0  0  0
 33 36  1  0  0  0  0
M  CHG  1  20   1
M  END
$$$$

  -OEChem-04042215563D

 36 35  0     1  0  0  0  0  0999 V2000
   -2.6881   -5.6581    1.2816 H   0  0  0  0  0  0  0  0  0  0  0  0
   -2.9294   -4.6561    0.9143 C   0  0  0  0  0  0  0  0  0  0  0  0
   -3.5312   -4.1438    1.6683 H   0  0  0  0  0  0  0  0  0  0  0  0
   -3.5089   -4.7508   -0.0067 H   0  0  0  0  0  0  0  0  0  0  0  0
   -1.6535   -3.8802    0.6487 C   0  0  0  0  0  0  0  0  0  0  0  0
   -0.5730   -4.4059    0.8395 O   0  0  0  0  0  0  0  0  0  0  0  0
   -1.7161   -2.5731    0.1984 N   0  0  0  0  0  0  0  0  0  0  0  0
   -2.6382   -2.1499    0.1892 H   0  0  0  0  0  0  0  0  0  0  0  0
   -0.5362   -1.6844    0.1522 C   0  0  1  0  0  0  0  0  0  0  0  0
    0.2106   -2.2495   -0.4187 H   0  0  0  0  0  0  0  0  0  0  0  0
   -0.7200   -0.3633   -0.6395 C   0  0  0  0  0  0  0  0  0  0  0  0
   -0.8187    0.4486    0.0902 H   0  0  0  0  0  0  0  0  0  0  0  0
    0.2122   -0.1671   -1.1813 H   0  0  0  0  0  0  0  0  0  0  0  0
   -1.9337   -0.2428   -1.5912 C   0  0  0  0  0  0  0  0  0  0  0  0
   -2.5559   -1.1402   -1.5917 H   0  0  0  0  0  0  0  0  0  0  0  0
   -2.5598    0.5982   -1.2729 H   0  0  0  0  0  0  0  0  0  0  0  0
   -1.4193   -0.0001   -3.0118 C   0  0  0  0  0  0  0  0  0  0  0  0
   -0.7988    0.9034   -3.0129 H   0  0  0  0  0  0  0  0  0  0  0  0
   -0.7929   -0.8488   -3.3090 H   0  0  0  0  0  0  0  0  0  0  0  0
   -2.5335    0.1595   -3.9644 N   0  3  0  0  0  0  0  0  0  0  0  0
   -3.4806    0.0848   -3.5963 H   0  0  0  0  0  0  0  0  0  0  0  0
   -2.3563    0.3916   -5.2342 C   0  0  0  0  0  0  0  0  0  0  0  0
   -1.0982    0.4854   -5.7859 N   0  0  0  0  0  0  0  0  0  0  0  0
   -0.3024    0.2051   -5.2155 H   0  0  0  0  0  0  0  0  0  0  0  0
   -1.0003    0.4458   -6.7985 H   0  0  0  0  0  0  0  0  0  0  0  0
   -3.4464    0.5471   -6.0571 N   0  0  0  0  0  0  0  0  0  0  0  0
   -4.3657    0.6692   -5.6369 H   0  0  0  0  0  0  0  0  0  0  0  0
   -3.2976    0.9180   -6.9941 H   0  0  0  0  0  0  0  0  0  0  0  0
    0.1470   -1.4234    1.5132 C   0  0  0  0  0  0  0  0  0  0  0  0
    1.3473   -1.1920    1.5316 O   0  0  0  0  0  0  0  0  0  0  0  0
   -0.6081   -1.1334    2.6364 N   0  0  0  0  0  0  0  0  0  0  0  0
   -1.5862   -1.3997    2.6130 H   0  0  0  0  0  0  0  0  0  0  0  0
   -0.0026   -0.8225    3.9280 C   0  0  0  0  0  0  0  0  0  0  0  0
    0.6161    0.0785    3.8556 H   0  0  0  0  0  0  0  0  0  0  0  0
   -0.7777   -0.6467    4.6802 H   0  0  0  0  0  0  0  0  0  0  0  0
    0.6261   -1.6532    4.2667 H   0  0  0  0  0  0  0  0  0  0  0  0
  1  2  1  0  0  0  0
  2  3  1  0  0  0  0
  2  4  1  0  0  0  0
  2  5  1  0  0  0  0
  5  6  2  0  0  0  0
  5  7  1  0  0  0  0
  7  8  1  0  0  0  0
  7  9  1  0  0  0  0
  9 10  1  0  0  0  0
  9 11  1  0  0  0  0
  9 29  1  0  0  0  0
 11 12  1  0  0  0  0
 11 13  1  0  0  0  0
 11 14  1  0  0  0  0
 14 15  1  0  0  0  0
 14 16  1  0  0  0  0
 14 17  1  0  0  0  0
 17 18  1  0  0  0  0
 17 19  1  0  0  0  0
 17 20  1  0  0  0  0
 20 21  1  0  0  0  0
 20 22  2  0  0  0  0
 22 23  1  0  0  0  0
 22 26  1  0  0  0  0
 23 24  1  0  0  0  0
 23 25  1  0  0  0  0
 26 27  1  0  0  0  0
 26 28  1  0  0  0  0
 29 30  2  0  0  0  0
 29 31  1  0  0  0  0
 31 32  1  0  0  0  0
 31 33  1  0  0  0  0
 33 34  1  0  0  0  0
 33 35  1  0  0  0  0
 33 36  1  0  0  0  0
M  CHG  1  20   1
M  END
$$$$

  -OEChem-04042215563D

 36 35  0     1  0  0  0  0  0999 V2000
   -2.7073   -5.6426    1.2649 H   0  0  0  0  0  0  0  0  0  0  0  0
   -2.9447   -4.6294    0.9261 C   0  0  0  0  0  0  0  0  0  0  0  0
   -3.5115   -4.1227    1.7105 H   0  0  0  0  0  0  0  0  0  0  0  0
   -3.5583   -4.6961    0.0250 H   0  0  0  0  0  0  0  0  0  0  0  0
   -1.6660   -3.8687    0.6314 C   0  0  0  0  0  0  0  0  0  0  0  0
   -0.5884   -4.4135    0.7801 O   0  0  0  0  0  0  0  0  0  0  0  0
   -1.7229   -2.5584    0.1896 N   0  0  0  0  0  0  0  0  0  0  0  0
   -2.6387   -2.1228    0.2250 H   0  0  0  0  0  0  0  0  0  0  0  0
   -0.5346   -1.6800    0.1504 C   0  0  1  0  0  0  0  0  0  0  0  0
    0.2085   -2.2489   -0.4218 H   0  0  0  0  0  0  0  0  0  0  0  0
   -0.7047   -0.3560   -0.6388 C   0  0  0  0  0  0  0  0  0  0  0  0
   -0.8190    0.4429    0.1028 H   0  0  0  0  0  0  0  0  0  0  0  0
    0.2293   -0.1411   -1.1703 H   0  0  0  0  0  0  0  0  0  0  0  0
   -1.9148   -0.2294   -1.5913 C   0  0  0  0  0  0  0  0  0  0  0  0
   -2.7025   -0.9566   -1.3841 H   0  0  0  0  0  0  0  0  0  0  0  0
   -2.3525    0.7675   -1.4674 H   0  0  0  0  0  0  0  0  0  0  0  0
   -1.4170   -0.3722   -3.0303 C   0  0  0  0  0  0  0  0  0  0  0  0
   -0.6382    0.3770   -3.2128 H   0  0  0  0  0  0  0  0  0  0  0  0
   -0.9731   -1.3670   -3.1504 H   0  0  0  0  0  0  0  0  0  0  0  0
   -2.5161   -0.1918   -3.9960 N   0  3  0  0  0  0  0  0  0  0  0  0
   -3.4364    0.0360   -3.6232 H   0  0  0  0  0  0  0  0  0  0  0  0
   -2.3545   -0.2940   -5.2845 C   0  0  0  0  0  0  0  0  0  0  0  0
   -1.1332   -0.6057   -5.8386 N   0  0  0  0  0  0  0  0  0  0  0  0
   -0.3874   -0.9099   -5.2155 H   0  0  0  0  0  0  0  0  0  0  0  0
   -1.0942   -0.8992   -6.8126 H   0  0  0  0  0  0  0  0  0  0  0  0
   -3.4241   -0.0896   -6.1234 N   0  0  0  0  0  0  0  0  0  0  0  0
   -4.2749    0.3201   -5.7432 H   0  0  0  0  0  0  0  0  0  0  0  0
   -3.2435    0.0272   -7.1191 H   0  0  0  0  0  0  0  0  0  0  0  0
    0.1508   -1.4340    1.5128 C   0  0  0  0  0  0  0  0  0  0  0  0
    1.3557   -1.2298    1.5367 O   0  0  0  0  0  0  0  0  0  0  0  0
   -0.6015   -1.1441    2.6376 N   0  0  0  0  0  0  0  0  0  0  0  0
   -1.5888   -1.3719    2.6060 H   0  0  0  0  0  0  0  0  0  0  0  0
    0.0042   -0.8385    3.9299 C   0  0  0  0  0  0  0  0  0  0  0  0
    0.6341    0.0545    3.8574 H   0  0  0  0  0  0  0  0  0  0  0  0
   -0.7703   -0.6521    4.6799 H   0  0  0  0  0  0  0  0  0  0  0  0
    0.6224   -1.6759    4.2706 H   0  0  0  0  0  0  0  0  0  0  0  0
  1  2  1  0  0  0  0
  2  3  1  0  0  0  0
  2  4  1  0  0  0  0
  2  5  1  0  0  0  0
  5  6  2  0  0  0  0
  5  7  1  0  0  0  0
  7  8  1  0  0  0  0
  7  9  1  0  0  0  0
  9 10  1  0  0  0  0
  9 11  1  0  0  0  0
  9 29  1  0  0  0  0
 11 12  1  0  0  0  0
 11 13  1  0  0  0  0
 11 14  1  0  0  0  0
 14 15  1  0  0  0  0
 14 16  1  0  0  0  0
 14 17  1  0  0  0  0
 17 18  1  0  0  0  0
 17 19  1  0  0  0  0
 17 20  1  0  0  0  0
 20 21  1  0  0  0  0
 20 22  2  0  0  0  0
 22 23  1  0  0  0  0
 22 26  1  0  0  0  0
 23 24  1  0  0  0  0
 23 25  1  0  0  0  0
 26 27  1  0  0  0  0
 26 28  1  0  0  0  0
 29 30  2  0  0  0  0
 29 31  1  0  0  0  0
 31 32  1  0  0  0  0
 31 33  1  0  0  0  0
 33 34  1  0  0  0  0
 33 35  1  0  0  0  0
 33 36  1  0  0  0  0
M  CHG  1  20   1
M  END
$$$$

  -OEChem-04042215563D

 36 35  0     1  0  0  0  0  0999 V2000
   -2.7344   -5.6111    1.2240 H   0  0  0  0  0  0  0  0  0  0  0  0
   -2.9596   -4.5829    0.9253 C   0  0  0  0  0  0  0  0  0  0  0  0
   -3.4815   -4.0874    1.7474 H   0  0  0  0  0  0  0  0  0  0  0  0
   -3.6105   -4.6081    0.0487 H   0  0  0  0  0  0  0  0  0  0  0  0
   -1.6751   -3.8443    0.6015 C   0  0  0  0  0  0  0  0  0  0  0  0
   -0.6046   -4.4125    0.7082 O   0  0  0  0  0  0  0  0  0  0  0  0
   -1.7192   -2.5302    0.1699 N   0  0  0  0  0  0  0  0  0  0  0  0
   -2.6268   -2.0812    0.2367 H   0  0  0  0  0  0  0  0  0  0  0  0
   -0.5207   -1.6647    0.1478 C   0  0  1  0  0  0  0  0  0  0  0  0
    0.2220   -2.2344   -0.4239 H   0  0  0  0  0  0  0  0  0  0  0  0
   -0.6810   -0.3373   -0.6357 C   0  0  0  0  0  0  0  0  0  0  0  0
   -0.8000    0.4605    0.1062 H   0  0  0  0  0  0  0  0  0  0  0  0
    0.2498   -0.1201   -1.1721 H   0  0  0  0  0  0  0  0  0  0  0  0
   -1.8903   -0.2255   -1.5849 C   0  0  0  0  0  0  0  0  0  0  0  0
   -2.7727   -0.7515   -1.2126 H   0  0  0  0  0  0  0  0  0  0  0  0
   -2.1596    0.8330   -1.6742 H   0  0  0  0  0  0  0  0  0  0  0  0
   -1.4692   -0.7386   -2.9625 C   0  0  0  0  0  0  0  0  0  0  0  0
   -0.5769   -0.1919   -3.2878 H   0  0  0  0  0  0  0  0  0  0  0  0
   -1.2099   -1.8000   -2.8760 H   0  0  0  0  0  0  0  0  0  0  0  0
   -2.5470   -0.5606   -3.9524 N   0  3  0  0  0  0  0  0  0  0  0  0
   -3.3836   -0.0629   -3.6514 H   0  0  0  0  0  0  0  0  0  0  0  0
   -2.4563   -0.9761   -5.1837 C   0  0  0  0  0  0  0  0  0  0  0  0
   -1.3449   -1.6481   -5.6412 N   0  0  0  0  0  0  0  0  0  0  0  0
   -0.6495   -1.9475   -4.9600 H   0  0  0  0  0  0  0  0  0  0  0  0
   -1.4001   -2.1503   -6.5250 H   0  0  0  0  0  0  0  0  0  0  0  0
   -3.4907   -0.7449   -6.0589 N   0  0  0  0  0  0  0  0  0  0  0  0
   -4.2210   -0.0878   -5.7915 H   0  0  0  0  0  0  0  0  0  0  0  0
   -3.3243   -0.8914   -7.0532 H   0  0  0  0  0  0  0  0  0  0  0  0
    0.1567   -1.4376    1.5172 C   0  0  0  0  0  0  0  0  0  0  0  0
    1.3662   -1.2685    1.5553 O   0  0  0  0  0  0  0  0  0  0  0  0
   -0.5987   -1.1480    2.6401 N   0  0  0  0  0  0  0  0  0  0  0  0
   -1.5935   -1.3368    2.5944 H   0  0  0  0  0  0  0  0  0  0  0  0
    0.0015   -0.8680    3.9409 C   0  0  0  0  0  0  0  0  0  0  0  0
    0.6393    0.0210    3.8860 H   0  0  0  0  0  0  0  0  0  0  0  0
   -0.7764   -0.6874    4.6892 H   0  0  0  0  0  0  0  0  0  0  0  0
    0.6106   -1.7163    4.2720 H   0  0  0  0  0  0  0  0  0  0  0  0
  1  2  1  0  0  0  0
  2  3  1  0  0  0  0
  2  4  1  0  0  0  0
  2  5  1  0  0  0  0
  5  6  2  0  0  0  0
  5  7  1  0  0  0  0
  7  8  1  0  0  0  0
  7  9  1  0  0  0  0
  9 10  1  0  0  0  0
  9 11  1  0  0  0  0
  9 29  1  0  0  0  0
 11 12  1  0  0  0  0
 11 13  1  0  0  0  0
 11 14  1  0  0  0  0
 14 15  1  0  0  0  0
 14 16  1  0  0  0  0
 14 17  1  0  0  0  0
 17 18  1  0  0  0  0
 17 19  1  0  0  0  0
 17 20  1  0  0  0  0
 20 21  1  0  0  0  0
 20 22  2  0  0  0  0
 22 23  1  0  0  0  0
 22 26  1  0  0  0  0
 23 24  1  0  0  0  0
 23 25  1  0  0  0  0
 26 27  1  0  0  0  0
 26 28  1  0  0  0  0
 29 30  2  0  0  0  0
 29 31  1  0  0  0  0
 31 32  1  0  0  0  0
 31 33  1  0  0  0  0
 33 34  1  0  0  0  0
 33 35  1  0  0  0  0
 33 36  1  0  0  0  0
M  CHG  1  20   1
M  END
$$$$

  -OEChem-04042215563D

 36 35  0     1  0  0  0  0  0999 V2000
   -2.8069   -5.5453    1.1788 H   0  0  0  0  0  0  0  0  0  0  0  0
   -3.0080   -4.5141    0.8729 C   0  0  0  0  0  0  0  0  0  0  0  0
   -3.5119   -3.9989    1.6943 H   0  0  0  0  0  0  0  0  0  0  0  0
   -3.6648   -4.5290    0.0004 H   0  0  0  0  0  0  0  0  0  0  0  0
   -1.7072   -3.8112    0.5353 C   0  0  0  0  0  0  0  0  0  0  0  0
   -0.6545   -4.4176    0.5960 O   0  0  0  0  0  0  0  0  0  0  0  0
   -1.7171   -2.4902    0.1244 N   0  0  0  0  0  0  0  0  0  0  0  0
   -2.6105   -2.0176    0.2172 H   0  0  0  0  0  0  0  0  0  0  0  0
   -0.4970   -1.6537    0.1412 C   0  0  1  0  0  0  0  0  0  0  0  0
    0.2452   -2.2274   -0.4271 H   0  0  0  0  0  0  0  0  0  0  0  0
   -0.6255   -0.3130   -0.6234 C   0  0  0  0  0  0  0  0  0  0  0  0
   -0.7310    0.4860    0.1190 H   0  0  0  0  0  0  0  0  0  0  0  0
    0.3082   -0.1155   -1.1624 H   0  0  0  0  0  0  0  0  0  0  0  0
   -1.8238   -0.1931   -1.5794 C   0  0  0  0  0  0  0  0  0  0  0  0
   -2.7592   -0.5010   -1.1036 H   0  0  0  0  0  0  0  0  0  0  0  0
   -1.9343    0.8578   -1.8685 H   0  0  0  0  0  0  0  0  0  0  0  0
   -1.5240   -1.0279   -2.8253 C   0  0  0  0  0  0  0  0  0  0  0  0
   -0.5624   -0.7075   -3.2422 H   0  0  0  0  0  0  0  0  0  0  0  0
   -1.4363   -2.0797   -2.5297 H   0  0  0  0  0  0  0  0  0  0  0  0
   -2.5803   -0.8740   -3.8416 N   0  3  0  0  0  0  0  0  0  0  0  0
   -3.2290   -0.0962   -3.7292 H   0  0  0  0  0  0  0  0  0  0  0  0
   -2.6523   -1.6186   -4.9081 C   0  0  0  0  0  0  0  0  0  0  0  0
   -1.7617   -2.6435   -5.1378 N   0  0  0  0  0  0  0  0  0  0  0  0
   -0.9460   -2.7132   -4.5317 H   0  0  0  0  0  0  0  0  0  0  0  0
   -1.6958   -3.0361   -6.0749 H   0  0  0  0  0  0  0  0  0  0  0  0
   -3.6359   -1.3809   -5.8386 N   0  0  0  0  0  0  0  0  0  0  0  0
   -4.3944   -0.7430   -5.6052 H   0  0  0  0  0  0  0  0  0  0  0  0
   -3.7993   -2.0753   -6.5658 H   0  0  0  0  0  0  0  0  0  0  0  0
    0.1605   -1.4631    1.5257 C   0  0  0  0  0  0  0  0  0  0  0  0
    1.3740   -1.3388    1.5912 O   0  0  0  0  0  0  0  0  0  0  0  0
   -0.6076   -1.1718    2.6395 N   0  0  0  0  0  0  0  0  0  0  0  0
   -1.6100   -1.3024    2.5667 H   0  0  0  0  0  0  0  0  0  0  0  0
   -0.0270   -0.9164    3.9542 C   0  0  0  0  0  0  0  0  0  0  0  0
    0.6343   -0.0438    3.9196 H   0  0  0  0  0  0  0  0  0  0  0  0
   -0.8154   -0.7212    4.6876 H   0  0  0  0  0  0  0  0  0  0  0  0
    0.5530   -1.7824    4.2916 H   0  0  0  0  0  0  0  0  0  0  0  0
  1  2  1  0  0  0  0
  2  3  1  0  0  0  0
  2  4  1  0  0  0  0
  2  5  1  0  0  0  0
  5  6  2  0  0  0  0
  5  7  1  0  0  0  0
  7  8  1  0  0  0  0
  7  9  1  0  0  0  0
  9 10  1  0  0  0  0
  9 11  1  0  0  0  0
  9 29  1  0  0  0  0
 11 12  1  0  0  0  0
 11 13  1  0  0  0  0
 11 14  1  0  0  0  0
 14 15  1  0  0  0  0
 14 16  1  0  0  0  0
 14 17  1  0  0  0  0
 17 18  1  0  0  0  0
 17 19  1  0  0  0  0
 17 20  1  0  0  0  0
 20 21  1  0  0  0  0
 20 22  2  0  0  0  0
 22 23  1  0  0  0  0
 22 26  1  0  0  0  0
 23 24  1  0  0  0  0
 23 25  1  0  0  0  0
 26 27  1  0  0  0  0
 26 28  1  0  0  0  0
 29 30  2  0  0  0  0
 29 31  1  0  0  0  0
 31 32  1  0  0  0  0
 31 33  1  0  0  0  0
 33 34  1  0  0  0  0
 33 35  1  0  0  0  0
 33 36  1  0  0  0  0
M  CHG  1  20   1
M  END
$$$$

  -OEChem-04042215563D

 36 35  0     1  0  0  0  0  0999 V2000
   -2.7754   -5.5517    1.2548 H   0  0  0  0  0  0  0  0  0  0  0  0
   -2.9768   -4.5177    0.9587 C   0  0  0  0  0  0  0  0  0  0  0  0
   -3.4470   -4.0006    1.7984 H   0  0  0  0  0  0  0  0  0  0  0  0
   -3.6635   -4.5235    0.1095 H   0  0  0  0  0  0  0  0  0  0  0  0
   -1.6817   -3.8256    0.5800 C   0  0  0  0  0  0  0  0  0  0  0  0
   -0.6326   -4.4399    0.6101 O   0  0  0  0  0  0  0  0  0  0  0  0
   -1.6951   -2.5112    0.1495 N   0  0  0  0  0  0  0  0  0  0  0  0
   -2.5866   -2.0371    0.2552 H   0  0  0  0  0  0  0  0  0  0  0  0
   -0.4780   -1.6696    0.1722 C   0  0  1  0  0  0  0  0  0  0  0  0
    0.2757   -2.2496   -0.3744 H   0  0  0  0  0  0  0  0  0  0  0  0
   -0.5991   -0.3440   -0.6207 C   0  0  0  0  0  0  0  0  0  0  0  0
   -0.7021    0.4772    0.0973 H   0  0  0  0  0  0  0  0  0  0  0  0
    0.3413   -0.1753   -1.1576 H   0  0  0  0  0  0  0  0  0  0  0  0
   -1.7744   -0.2324   -1.6073 C   0  0  0  0  0  0  0  0  0  0  0  0
   -2.7282   -0.3056   -1.0750 H   0  0  0  0  0  0  0  0  0  0  0  0
   -1.7355    0.7506   -2.0892 H   0  0  0  0  0  0  0  0  0  0  0  0
   -1.6664   -1.3341   -2.6676 C   0  0  0  0  0  0  0  0  0  0  0  0
   -0.6740   -1.2770   -3.1294 H   0  0  0  0  0  0  0  0  0  0  0  0
   -1.7606   -2.3131   -2.1878 H   0  0  0  0  0  0  0  0  0  0  0  0
   -2.7020   -1.1814   -3.7050 N   0  3  0  0  0  0  0  0  0  0  0  0
   -3.1905   -0.2881   -3.7525 H   0  0  0  0  0  0  0  0  0  0  0  0
   -2.9392   -2.0901   -4.6075 C   0  0  0  0  0  0  0  0  0  0  0  0
   -2.2591   -3.2876   -4.6253 N   0  0  0  0  0  0  0  0  0  0  0  0
   -1.4454   -3.3821   -4.0194 H   0  0  0  0  0  0  0  0  0  0  0  0
   -2.2941   -3.8577   -5.4681 H   0  0  0  0  0  0  0  0  0  0  0  0
   -3.8880   -1.8572   -5.5744 N   0  0  0  0  0  0  0  0  0  0  0  0
   -4.5059   -1.0535   -5.4790 H   0  0  0  0  0  0  0  0  0  0  0  0
   -4.1982   -2.6356   -6.1537 H   0  0  0  0  0  0  0  0  0  0  0  0
    0.1574   -1.4578    1.5638 C   0  0  0  0  0  0  0  0  0  0  0  0
    1.3707   -1.3476    1.6501 O   0  0  0  0  0  0  0  0  0  0  0  0
   -0.6273   -1.1540    2.6627 N   0  0  0  0  0  0  0  0  0  0  0  0
   -1.6309   -1.2603    2.5705 H   0  0  0  0  0  0  0  0  0  0  0  0
   -0.0667   -0.8934    3.9851 C   0  0  0  0  0  0  0  0  0  0  0  0
    0.5910   -0.0180    3.9584 H   0  0  0  0  0  0  0  0  0  0  0  0
   -0.8665   -0.7011    4.7064 H   0  0  0  0  0  0  0  0  0  0  0  0
    0.5124   -1.7558    4.3325 H   0  0  0  0  0  0  0  0  0  0  0  0
  1  2  1  0  0  0  0
  2  3  1  0  0  0  0
  2  4  1  0  0  0  0
  2  5  1  0  0  0  0
  5  6  2  0  0  0  0
  5  7  1  0  0  0  0
  7  8  1  0  0  0  0
  7  9  1  0  0  0  0
  9 10  1  0  0  0  0
  9 11  1  0  0  0  0
  9 29  1  0  0  0  0
 11 12  1  0  0  0  0
 11 13  1  0  0  0  0
 11 14  1  0  0  0  0
 14 15  1  0  0  0  0
 14 16  1  0  0  0  0
 14 17  1  0  0  0  0
 17 18  1  0  0  0  0
 17 19  1  0  0  0  0
 17 20  1  0  0  0  0
 20 21  1  0  0  0  0
 20 22  2  0  0  0  0
 22 23  1  0  0  0  0
 22 26  1  0  0  0  0
 23 24  1  0  0  0  0
 23 25  1  0  0  0  0
 26 27  1  0  0  0  0
 26 28  1  0  0  0  0
 29 30  2  0  0  0  0
 29 31  1  0  0  0  0
 31 32  1  0  0  0  0
 31 33  1  0  0  0  0
 33 34  1  0  0  0  0
 33 35  1  0  0  0  0
 33 36  1  0  0  0  0
M  CHG  1  20   1
M  END
$$$$

  -OEChem-04042215563D

 36 35  0     1  0  0  0  0  0999 V2000
   -2.6999   -5.6299    1.7860 H   0  0  0  0  0  0  0  0  0  0  0  0
   -2.9376   -4.6114    1.4637 C   0  0  0  0  0  0  0  0  0  0  0  0
   -3.3361   -4.0600    2.3186 H   0  0  0  0  0  0  0  0  0  0  0  0
   -3.6977   -4.6605    0.6809 H   0  0  0  0  0  0  0  0  0  0  0  0
   -1.6882   -3.9291    0.9398 C   0  0  0  0  0  0  0  0  0  0  0  0
   -0.6258   -4.5212    0.9436 O   0  0  0  0  0  0  0  0  0  0  0  0
   -1.7607   -2.6519    0.4120 N   0  0  0  0  0  0  0  0  0  0  0  0
   -2.6482   -2.1796    0.5546 H   0  0  0  0  0  0  0  0  0  0  0  0
   -0.5618   -1.8008    0.2529 C   0  0  1  0  0  0  0  0  0  0  0  0
    0.1448   -2.4197   -0.3138 H   0  0  0  0  0  0  0  0  0  0  0  0
   -0.7592   -0.5362   -0.6246 C   0  0  0  0  0  0  0  0  0  0  0  0
   -0.7779    0.3401    0.0334 H   0  0  0  0  0  0  0  0  0  0  0  0
    0.1338   -0.4333   -1.2517 H   0  0  0  0  0  0  0  0  0  0  0  0
   -2.0017   -0.4386   -1.5348 C   0  0  0  0  0  0  0  0  0  0  0  0
   -2.8817   -0.1991   -0.9288 H   0  0  0  0  0  0  0  0  0  0  0  0
   -1.8436    0.3918   -2.2318 H   0  0  0  0  0  0  0  0  0  0  0  0
   -2.2651   -1.7339   -2.3138 C   0  0  0  0  0  0  0  0  0  0  0  0
   -1.3004   -2.1424   -2.6339 H   0  0  0  0  0  0  0  0  0  0  0  0
   -2.7511   -2.4699   -1.6664 H   0  0  0  0  0  0  0  0  0  0  0  0
   -3.1107   -1.4740   -3.4936 N   0  3  0  0  0  0  0  0  0  0  0  0
   -3.6518   -0.6104   -3.5001 H   0  0  0  0  0  0  0  0  0  0  0  0
   -3.1662   -2.2710   -4.5228 C   0  0  0  0  0  0  0  0  0  0  0  0
   -2.4432   -3.4421   -4.5744 N   0  0  0  0  0  0  0  0  0  0  0  0
   -1.7419   -3.6053   -3.8539 H   0  0  0  0  0  0  0  0  0  0  0  0
   -2.3214   -3.9039   -5.4736 H   0  0  0  0  0  0  0  0  0  0  0  0
   -3.9633   -1.9440   -5.5942 N   0  0  0  0  0  0  0  0  0  0  0  0
   -4.6217   -1.1724   -5.5051 H   0  0  0  0  0  0  0  0  0  0  0  0
   -4.1481   -2.6542   -6.3007 H   0  0  0  0  0  0  0  0  0  0  0  0
    0.1978   -1.4756    1.5585 C   0  0  0  0  0  0  0  0  0  0  0  0
    1.4106   -1.3362    1.5179 O   0  0  0  0  0  0  0  0  0  0  0  0
   -0.4856   -1.0940    2.7002 N   0  0  0  0  0  0  0  0  0  0  0  0
   -1.4902   -1.2266    2.7160 H   0  0  0  0  0  0  0  0  0  0  0  0
    0.1911   -0.7044    3.9337 C   0  0  0  0  0  0  0  0  0  0  0  0
    0.8420    0.1592    3.7590 H   0  0  0  0  0  0  0  0  0  0  0  0
   -0.5409   -0.4328    4.7005 H   0  0  0  0  0  0  0  0  0  0  0  0
    0.8007   -1.5311    4.3143 H   0  0  0  0  0  0  0  0  0  0  0  0
  1  2  1  0  0  0  0
  2  3  1  0  0  0  0
  2  4  1  0  0  0  0
  2  5  1  0  0  0  0
  5  6  2  0  0  0  0
  5  7  1  0  0  0  0
  7  8  1  0  0  0  0
  7  9  1  0  0  0  0
  9 10  1  0  0  0  0
  9 11  1  0  0  0  0
  9 29  1  0  0  0  0
 11 12  1  0  0  0  0
 11 13  1  0  0  0  0
 11 14  1  0  0  0  0
 14 15  1  0  0  0  0
 14 16  1  0  0  0  0
 14 17  1  0  0  0  0
 17 18  1  0  0  0  0
 17 19  1  0  0  0  0
 17 20  1  0  0  0  0
 20 21  1  0  0  0  0
 20 22  2  0  0  0  0
 22 23  1  0  0  0  0
 22 26  1  0  0  0  0
 23 24  1  0  0  0  0
 23 25  1  0  0  0  0
 26 27  1  0  0  0  0
 26 28  1  0  0  0  0
 29 30  2  0  0  0  0
 29 31  1  0  0  0  0
 31 32  1  0  0  0  0
 31 33  1  0  0  0  0
 33 34  1  0  0  0  0
 33 35  1  0  0  0  0
 33 36  1  0  0  0  0
M  CHG  1  20   1
M  END
$$$$

  -OEChem-04042215563D

 36 35  0     1  0  0  0  0  0999 V2000
   -2.7750   -5.5379    2.4793 H   0  0  0  0  0  0  0  0  0  0  0  0
   -3.0433   -4.5725    2.0397 C   0  0  0  0  0  0  0  0  0  0  0  0
   -3.3391   -3.8948    2.8439 H   0  0  0  0  0  0  0  0  0  0  0  0
   -3.8883   -4.7182    1.3628 H   0  0  0  0  0  0  0  0  0  0  0  0
   -1.8598   -4.0011    1.2825 C   0  0  0  0  0  0  0  0  0  0  0  0
   -0.8332   -4.6458    1.1814 O   0  0  0  0  0  0  0  0  0  0  0  0
   -1.9558   -2.7639    0.6693 N   0  0  0  0  0  0  0  0  0  0  0  0
   -2.7856   -2.2297    0.9089 H   0  0  0  0  0  0  0  0  0  0  0  0
   -0.7611   -2.0050    0.2427 C   0  0  1  0  0  0  0  0  0  0  0  0
   -0.1944   -2.7153   -0.3718 H   0  0  0  0  0  0  0  0  0  0  0  0
   -1.0116   -0.7967   -0.7026 C   0  0  0  0  0  0  0  0  0  0  0  0
   -0.8541    0.1235   -0.1282 H   0  0  0  0  0  0  0  0  0  0  0  0
   -0.2184   -0.8227   -1.4579 H   0  0  0  0  0  0  0  0  0  0  0  0
   -2.3586   -0.6271   -1.4441 C   0  0  0  0  0  0  0  0  0  0  0  0
   -3.0316   -0.0289   -0.8204 H   0  0  0  0  0  0  0  0  0  0  0  0
   -2.1666   -0.0465   -2.3532 H   0  0  0  0  0  0  0  0  0  0  0  0
   -3.0790   -1.9353   -1.7933 C   0  0  0  0  0  0  0  0  0  0  0  0
   -2.3515   -2.7527   -1.8391 H   0  0  0  0  0  0  0  0  0  0  0  0
   -3.7923   -2.1826   -1.0000 H   0  0  0  0  0  0  0  0  0  0  0  0
   -3.7827   -1.8189   -3.0851 N   0  3  0  0  0  0  0  0  0  0  0  0
   -4.6997   -1.3733   -3.0778 H   0  0  0  0  0  0  0  0  0  0  0  0
   -3.2961   -2.2584   -4.2118 C   0  0  0  0  0  0  0  0  0  0  0  0
   -2.0527   -2.8456   -4.2882 N   0  0  0  0  0  0  0  0  0  0  0  0
   -1.4445   -2.7925   -3.4729 H   0  0  0  0  0  0  0  0  0  0  0  0
   -1.6213   -2.9722   -5.2016 H   0  0  0  0  0  0  0  0  0  0  0  0
   -4.0319   -2.1300   -5.3656 N   0  0  0  0  0  0  0  0  0  0  0  0
   -5.0146   -1.8730   -5.2956 H   0  0  0  0  0  0  0  0  0  0  0  0
   -3.7315   -2.6444   -6.1918 H   0  0  0  0  0  0  0  0  0  0  0  0
    0.2229   -1.6354    1.3748 C   0  0  0  0  0  0  0  0  0  0  0  0
    1.4144   -1.5602    1.1152 O   0  0  0  0  0  0  0  0  0  0  0  0
   -0.2384   -1.1300    2.5778 N   0  0  0  0  0  0  0  0  0  0  0  0
   -1.2296   -1.2099    2.7748 H   0  0  0  0  0  0  0  0  0  0  0  0
    0.6547   -0.6773    3.6400 C   0  0  0  0  0  0  0  0  0  0  0  0
    1.2402    0.1860    3.3064 H   0  0  0  0  0  0  0  0  0  0  0  0
    0.0787   -0.3829    4.5227 H   0  0  0  0  0  0  0  0  0  0  0  0
    1.3446   -1.4778    3.9292 H   0  0  0  0  0  0  0  0  0  0  0  0
  1  2  1  0  0  0  0
  2  3  1  0  0  0  0
  2  4  1  0  0  0  0
  2  5  1  0  0  0  0
  5  6  2  0  0  0  0
  5  7  1  0  0  0  0
  7  8  1  0  0  0  0
  7  9  1  0  0  0  0
  9 10  1  0  0  0  0
  9 11  1  0  0  0  0
  9 29  1  0  0  0  0
 11 12  1  0  0  0  0
 11 13  1  0  0  0  0
 11 14  1  0  0  0  0
 14 15  1  0  0  0  0
 14 16  1  0  0  0  0
 14 17  1  0  0  0  0
 17 18  1  0  0  0  0
 17 19  1  0  0  0  0
 17 20  1  0  0  0  0
 20 21  1  0  0  0  0
 20 22  2  0  0  0  0
 22 23  1  0  0  0  0
 22 26  1  0  0  0  0
 23 24  1  0  0  0  0
 23 25  1  0  0  0  0
 26 27  1  0  0  0  0
 26 28  1  0  0  0  0
 29 30  2  0  0  0  0
 29 31  1  0  0  0  0
 31 32  1  0  0  0  0
 31 33  1  0  0  0  0
 33 34  1  0  0  0  0
 33 35  1  0  0  0  0
 33 36  1  0  0  0  0
M  CHG  1  20   1
M  END
$$$$

  -OEChem-04042215563D

 36 35  0     1  0  0  0  0  0999 V2000
   -2.7745   -5.5308    1.5115 H   0  0  0  0  0  0  0  0  0  0  0  0
   -2.8967   -4.6523    0.8702 C   0  0  0  0  0  0  0  0  0  0  0  0
   -3.6438   -3.9954    1.3210 H   0  0  0  0  0  0  0  0  0  0  0  0
   -3.2456   -4.9815   -0.1103 H   0  0  0  0  0  0  0  0  0  0  0  0
   -1.5726   -3.9251    0.7367 C   0  0  0  0  0  0  0  0  0  0  0  0
   -0.5624   -4.4304    1.1836 O   0  0  0  0  0  0  0  0  0  0  0  0
   -1.5145   -2.6967    0.1015 N   0  0  0  0  0  0  0  0  0  0  0  0
   -2.4032   -2.2754   -0.1407 H   0  0  0  0  0  0  0  0  0  0  0  0
   -0.3432   -1.8049    0.2053 C   0  0  1  0  0  0  0  0  0  0  0  0
    0.5071   -2.4345   -0.0864 H   0  0  0  0  0  0  0  0  0  0  0  0
   -0.2838   -0.5960   -0.7742 C   0  0  0  0  0  0  0  0  0  0  0  0
   -0.4717    0.3105   -0.1871 H   0  0  0  0  0  0  0  0  0  0  0  0
    0.7603   -0.5261   -1.1011 H   0  0  0  0  0  0  0  0  0  0  0  0
   -1.1672   -0.4692   -2.0471 C   0  0  0  0  0  0  0  0  0  0  0  0
   -1.9010    0.3261   -1.8784 H   0  0  0  0  0  0  0  0  0  0  0  0
   -0.5133   -0.1111   -2.8502 H   0  0  0  0  0  0  0  0  0  0  0  0
   -1.8931   -1.7122   -2.5767 C   0  0  0  0  0  0  0  0  0  0  0  0
   -1.3862   -2.6121   -2.2127 H   0  0  0  0  0  0  0  0  0  0  0  0
   -1.8096   -1.7080   -3.6695 H   0  0  0  0  0  0  0  0  0  0  0  0
   -3.3266   -1.7183   -2.2200 N   0  3  0  0  0  0  0  0  0  0  0  0
   -3.7374   -0.8299   -1.9340 H   0  0  0  0  0  0  0  0  0  0  0  0
   -4.1066   -2.7382   -2.4418 C   0  0  0  0  0  0  0  0  0  0  0  0
   -3.6122   -3.9415   -2.8947 N   0  0  0  0  0  0  0  0  0  0  0  0
   -2.6446   -3.9801   -3.2126 H   0  0  0  0  0  0  0  0  0  0  0  0
   -4.2587   -4.6539   -3.2294 H   0  0  0  0  0  0  0  0  0  0  0  0
   -5.4560   -2.6249   -2.2021 N   0  0  0  0  0  0  0  0  0  0  0  0
   -5.8595   -1.6999   -2.0623 H   0  0  0  0  0  0  0  0  0  0  0  0
   -6.0747   -3.3753   -2.5064 H   0  0  0  0  0  0  0  0  0  0  0  0
   -0.0026   -1.3512    1.6444 C   0  0  0  0  0  0  0  0  0  0  0  0
    1.1628   -1.1313    1.9358 O   0  0  0  0  0  0  0  0  0  0  0  0
   -0.9991   -0.9237    2.5057 N   0  0  0  0  0  0  0  0  0  0  0  0
   -1.9543   -1.1625    2.2696 H   0  0  0  0  0  0  0  0  0  0  0  0
   -0.7157   -0.4072    3.8420 C   0  0  0  0  0  0  0  0  0  0  0  0
   -0.0876    0.4884    3.7824 H   0  0  0  0  0  0  0  0  0  0  0  0
   -1.6456   -0.1404    4.3533 H   0  0  0  0  0  0  0  0  0  0  0  0
   -0.1944   -1.1610    4.4422 H   0  0  0  0  0  0  0  0  0  0  0  0
  1  2  1  0  0  0  0
  2  3  1  0  0  0  0
  2  4  1  0  0  0  0
  2  5  1  0  0  0  0
  5  6  2  0  0  0  0
  5  7  1  0  0  0  0
  7  8  1  0  0  0  0
  7  9  1  0  0  0  0
  9 10  1  0  0  0  0
  9 11  1  0  0  0  0
  9 29  1  0  0  0  0
 11 12  1  0  0  0  0
 11 13  1  0  0  0  0
 11 14  1  0  0  0  0
 14 15  1  0  0  0  0
 14 16  1  0  0  0  0
 14 17  1  0  0  0  0
 17 18  1  0  0  0  0
 17 19  1  0  0  0  0
 17 20  1  0  0  0  0
 20 21  1  0  0  0  0
 20 22  2  0  0  0  0
 22 23  1  0  0  0  0
 22 26  1  0  0  0  0
 23 24  1  0  0  0  0
 23 25  1  0  0  0  0
 26 27  1  0  0  0  0
 26 28  1  0  0  0  0
 29 30  2  0  0  0  0
 29 31  1  0  0  0  0
 31 32  1  0  0  0  0
 31 33  1  0  0  0  0
 33 34  1  0  0  0  0
 33 35  1  0  0  0  0
 33 36  1  0  0  0  0
M  CHG  1  20   1
M  END
$$$$

  -OEChem-04042215563D

 36 35  0     1  0  0  0  0  0999 V2000
   -2.2000   -5.7400    2.4861 H   0  0  0  0  0  0  0  0  0  0  0  0
   -2.5490   -4.7469    2.1868 C   0  0  0  0  0  0  0  0  0  0  0  0
   -2.7518   -4.1632    3.0878 H   0  0  0  0  0  0  0  0  0  0  0  0
   -3.4724   -4.8592    1.6145 H   0  0  0  0  0  0  0  0  0  0  0  0
   -1.4915   -4.0575    1.3462 C   0  0  0  0  0  0  0  0  0  0  0  0
   -0.4233   -4.6035    1.1475 O   0  0  0  0  0  0  0  0  0  0  0  0
   -1.7495   -2.8191    0.7831 N   0  0  0  0  0  0  0  0  0  0  0  0
   -2.5976   -2.3738    1.1179 H   0  0  0  0  0  0  0  0  0  0  0  0
   -0.6628   -1.9289    0.3242 C   0  0  1  0  0  0  0  0  0  0  0  0
   -0.0588   -2.5672   -0.3326 H   0  0  0  0  0  0  0  0  0  0  0  0
   -1.0371   -0.7220   -0.5881 C   0  0  0  0  0  0  0  0  0  0  0  0
   -0.9540    0.1742    0.0370 H   0  0  0  0  0  0  0  0  0  0  0  0
   -0.2427   -0.6334   -1.3381 H   0  0  0  0  0  0  0  0  0  0  0  0
   -2.3983   -0.5837   -1.3257 C   0  0  0  0  0  0  0  0  0  0  0  0
   -2.8580    0.3634   -1.0213 H   0  0  0  0  0  0  0  0  0  0  0  0
   -2.1677   -0.4912   -2.3927 H   0  0  0  0  0  0  0  0  0  0  0  0
   -3.4404   -1.6903   -1.1592 C   0  0  0  0  0  0  0  0  0  0  0  0
   -2.9556   -2.6685   -1.2402 H   0  0  0  0  0  0  0  0  0  0  0  0
   -3.8884   -1.6230   -0.1625 H   0  0  0  0  0  0  0  0  0  0  0  0
   -4.4879   -1.5686   -2.1920 N   0  3  0  0  0  0  0  0  0  0  0  0
   -5.2476   -0.9134   -2.0092 H   0  0  0  0  0  0  0  0  0  0  0  0
   -4.4808   -2.2382   -3.3109 C   0  0  0  0  0  0  0  0  0  0  0  0
   -3.4635   -3.1092   -3.6332 N   0  0  0  0  0  0  0  0  0  0  0  0
   -2.6276   -3.1073   -3.0509 H   0  0  0  0  0  0  0  0  0  0  0  0
   -3.3728   -3.4224   -4.5978 H   0  0  0  0  0  0  0  0  0  0  0  0
   -5.5080   -2.0711   -4.2090 N   0  0  0  0  0  0  0  0  0  0  0  0
   -6.3466   -1.5762   -3.9116 H   0  0  0  0  0  0  0  0  0  0  0  0
   -5.5917   -2.7316   -4.9801 H   0  0  0  0  0  0  0  0  0  0  0  0
    0.3313   -1.5018    1.4285 C   0  0  0  0  0  0  0  0  0  0  0  0
    1.4981   -1.3007    1.1284 O   0  0  0  0  0  0  0  0  0  0  0  0
   -0.1244   -1.0890    2.6690 N   0  0  0  0  0  0  0  0  0  0  0  0
   -1.0914   -1.2795    2.9041 H   0  0  0  0  0  0  0  0  0  0  0  0
    0.7678   -0.5997    3.7157 C   0  0  0  0  0  0  0  0  0  0  0  0
    1.2962    0.2998    3.3818 H   0  0  0  0  0  0  0  0  0  0  0  0
    0.1978   -0.3488    4.6156 H   0  0  0  0  0  0  0  0  0  0  0  0
    1.5077   -1.3639    3.9766 H   0  0  0  0  0  0  0  0  0  0  0  0
  1  2  1  0  0  0  0
  2  3  1  0  0  0  0
  2  4  1  0  0  0  0
  2  5  1  0  0  0  0
  5  6  2  0  0  0  0
  5  7  1  0  0  0  0
  7  8  1  0  0  0  0
  7  9  1  0  0  0  0
  9 10  1  0  0  0  0
  9 11  1  0  0  0  0
  9 29  1  0  0  0  0
 11 12  1  0  0  0  0
 11 13  1  0  0  0  0
 11 14  1  0  0  0  0
 14 15  1  0  0  0  0
 14 16  1  0  0  0  0
 14 17  1  0  0  0  0
 17 18  1  0  0  0  0
 17 19  1  0  0  0  0
 17 20  1  0  0  0  0
 20 21  1  0  0  0  0
 20 22  2  0  0  0  0
 22 23  1  0  0  0  0
 22 26  1  0  0  0  0
 23 24  1  0  0  0  0
 23 25  1  0  0  0  0
 26 27  1  0  0  0  0
 26 28  1  0  0  0  0
 29 30  2  0  0  0  0
 29 31  1  0  0  0  0
 31 32  1  0  0  0  0
 31 33  1  0  0  0  0
 33 34  1  0  0  0  0
 33 35  1  0  0  0  0
 33 36  1  0  0  0  0
M  CHG  1  20   1
M  END
$$$$

  -OEChem-04042215563D

 36 35  0     1  0  0  0  0  0999 V2000
   -2.1998   -5.7582    2.4558 H   0  0  0  0  0  0  0  0  0  0  0  0
   -2.5666   -4.7826    2.1225 C   0  0  0  0  0  0  0  0  0  0  0  0
   -2.8319   -4.1918    3.0024 H   0  0  0  0  0  0  0  0  0  0  0  0
   -3.4567   -4.9343    1.5080 H   0  0  0  0  0  0  0  0  0  0  0  0
   -1.4926   -4.0724    1.3213 C   0  0  0  0  0  0  0  0  0  0  0  0
   -0.4246   -4.6184    1.1232 O   0  0  0  0  0  0  0  0  0  0  0  0
   -1.7372   -2.8152    0.7944 N   0  0  0  0  0  0  0  0  0  0  0  0
   -2.5821   -2.3729    1.1398 H   0  0  0  0  0  0  0  0  0  0  0  0
   -0.6391   -1.9236    0.3672 C   0  0  1  0  0  0  0  0  0  0  0  0
   -0.0388   -2.5507   -0.3037 H   0  0  0  0  0  0  0  0  0  0  0  0
   -0.9892   -0.6897   -0.5181 C   0  0  0  0  0  0  0  0  0  0  0  0
   -0.9215    0.1799    0.1455 H   0  0  0  0  0  0  0  0  0  0  0  0
   -0.1810   -0.5692   -1.2489 H   0  0  0  0  0  0  0  0  0  0  0  0
   -2.3399   -0.5157   -1.2653 C   0  0  0  0  0  0  0  0  0  0  0  0
   -2.6442    0.5331   -1.1745 H   0  0  0  0  0  0  0  0  0  0  0  0
   -2.1290   -0.6909   -2.3256 H   0  0  0  0  0  0  0  0  0  0  0  0
   -3.5270   -1.4007   -0.8856 C   0  0  0  0  0  0  0  0  0  0  0  0
   -3.2356   -2.4547   -0.9255 H   0  0  0  0  0  0  0  0  0  0  0  0
   -3.8355   -1.1742    0.1405 H   0  0  0  0  0  0  0  0  0  0  0  0
   -4.6510   -1.1618   -1.8124 N   0  3  0  0  0  0  0  0  0  0  0  0
   -5.2624   -0.3722   -1.6055 H   0  0  0  0  0  0  0  0  0  0  0  0
   -4.8831   -1.8836   -2.8736 C   0  0  0  0  0  0  0  0  0  0  0  0
   -4.0741   -2.9405   -3.2279 N   0  0  0  0  0  0  0  0  0  0  0  0
   -3.1839   -3.0449   -2.7439 H   0  0  0  0  0  0  0  0  0  0  0  0
   -4.1529   -3.3236   -4.1682 H   0  0  0  0  0  0  0  0  0  0  0  0
   -5.9585   -1.5858   -3.6768 N   0  0  0  0  0  0  0  0  0  0  0  0
   -6.6564   -0.9225   -3.3447 H   0  0  0  0  0  0  0  0  0  0  0  0
   -6.2383   -2.2591   -4.3883 H   0  0  0  0  0  0  0  0  0  0  0  0
    0.3540   -1.5405    1.4890 C   0  0  0  0  0  0  0  0  0  0  0  0
    1.5244   -1.3428    1.2013 O   0  0  0  0  0  0  0  0  0  0  0  0
   -0.1034   -1.1601    2.7393 N   0  0  0  0  0  0  0  0  0  0  0  0
   -1.0676   -1.3684    2.9691 H   0  0  0  0  0  0  0  0  0  0  0  0
    0.7919   -0.7311    3.8102 C   0  0  0  0  0  0  0  0  0  0  0  0
    1.4065    0.1151    3.4840 H   0  0  0  0  0  0  0  0  0  0  0  0
    0.2152   -0.4166    4.6856 H   0  0  0  0  0  0  0  0  0  0  0  0
    1.4548   -1.5510    4.1070 H   0  0  0  0  0  0  0  0  0  0  0  0
  1  2  1  0  0  0  0
  2  3  1  0  0  0  0
  2  4  1  0  0  0  0
  2  5  1  0  0  0  0
  5  6  2  0  0  0  0
  5  7  1  0  0  0  0
  7  8  1  0  0  0  0
  7  9  1  0  0  0  0
  9 10  1  0  0  0  0
  9 11  1  0  0  0  0
  9 29  1  0  0  0  0
 11 12  1  0  0  0  0
 11 13  1  0  0  0  0
 11 14  1  0  0  0  0
 14 15  1  0  0  0  0
 14 16  1  0  0  0  0
 14 17  1  0  0  0  0
 17 18  1  0  0  0  0
 17 19  1  0  0  0  0
 17 20  1  0  0  0  0
 20 21  1  0  0  0  0
 20 22  2  0  0  0  0
 22 23  1  0  0  0  0
 22 26  1  0  0  0  0
 23 24  1  0  0  0  0
 23 25  1  0  0  0  0
 26 27  1  0  0  0  0
 26 28  1  0  0  0  0
 29 30  2  0  0  0  0
 29 31  1  0  0  0  0
 31 32  1  0  0  0  0
 31 33  1  0  0  0  0
 33 34  1  0  0  0  0
 33 35  1  0  0  0  0
 33 36  1  0  0  0  0
M  CHG  1  20   1
M  END
$$$$

  -OEChem-04042215563D

 36 35  0     1  0  0  0  0  0999 V2000
   -0.7069   -6.2110    1.4633 H   0  0  0  0  0  0  0  0  0  0  0  0
   -1.3494   -5.4067    1.0923 C   0  0  0  0  0  0  0  0  0  0  0  0
   -2.1240   -5.2081    1.8362 H   0  0  0  0  0  0  0  0  0  0  0  0
   -1.8172   -5.7358    0.1618 H   0  0  0  0  0  0  0  0  0  0  0  0
   -0.5248   -4.1578    0.8477 C   0  0  0  0  0  0  0  0  0  0  0  0
    0.6759   -4.1803    1.0370 O   0  0  0  0  0  0  0  0  0  0  0  0
   -1.1412   -2.9888    0.4341 N   0  0  0  0  0  0  0  0  0  0  0  0
   -2.1526   -2.9921    0.4575 H   0  0  0  0  0  0  0  0  0  0  0  0
   -0.4394   -1.6899    0.3853 C   0  0  1  0  0  0  0  0  0  0  0  0
    0.4631   -1.9003   -0.2025 H   0  0  0  0  0  0  0  0  0  0  0  0
   -1.1108   -0.5091   -0.3782 C   0  0  0  0  0  0  0  0  0  0  0  0
   -1.4950    0.1658    0.3945 H   0  0  0  0  0  0  0  0  0  0  0  0
   -0.3183    0.0448   -0.8946 H   0  0  0  0  0  0  0  0  0  0  0  0
   -2.2888   -0.6911   -1.3686 C   0  0  0  0  0  0  0  0  0  0  0  0
   -2.8385    0.2554   -1.4077 H   0  0  0  0  0  0  0  0  0  0  0  0
   -1.8466   -0.8423   -2.3596 H   0  0  0  0  0  0  0  0  0  0  0  0
   -3.2717   -1.8405   -1.1419 C   0  0  0  0  0  0  0  0  0  0  0  0
   -2.7409   -2.7933   -1.2365 H   0  0  0  0  0  0  0  0  0  0  0  0
   -3.6919   -1.7842   -0.1324 H   0  0  0  0  0  0  0  0  0  0  0  0
   -4.3446   -1.7957   -2.1563 N   0  3  0  0  0  0  0  0  0  0  0  0
   -4.1983   -2.3509   -2.9997 H   0  0  0  0  0  0  0  0  0  0  0  0
   -5.4433   -1.1027   -2.0466 C   0  0  0  0  0  0  0  0  0  0  0  0
   -5.7130   -0.3247   -0.9431 N   0  0  0  0  0  0  0  0  0  0  0  0
   -5.0898   -0.3785   -0.1407 H   0  0  0  0  0  0  0  0  0  0  0  0
   -6.6559    0.0350   -0.8052 H   0  0  0  0  0  0  0  0  0  0  0  0
   -6.3687   -1.1409   -3.0624 N   0  0  0  0  0  0  0  0  0  0  0  0
   -6.1044   -1.5584   -3.9532 H   0  0  0  0  0  0  0  0  0  0  0  0
   -7.1214   -0.4542   -3.0624 H   0  0  0  0  0  0  0  0  0  0  0  0
    0.1080   -1.2101    1.7504 C   0  0  0  0  0  0  0  0  0  0  0  0
    1.0870   -0.4794    1.7700 O   0  0  0  0  0  0  0  0  0  0  0  0
   -0.6801   -1.2963    2.8860 N   0  0  0  0  0  0  0  0  0  0  0  0
   -1.4080   -2.0009    2.8744 H   0  0  0  0  0  0  0  0  0  0  0  0
   -0.2306   -0.7959    4.1822 C   0  0  0  0  0  0  0  0  0  0  0  0
   -0.0442    0.2825    4.1350 H   0  0  0  0  0  0  0  0  0  0  0  0
   -0.9923   -0.9789    4.9462 H   0  0  0  0  0  0  0  0  0  0  0  0
    0.6941   -1.2977    4.4873 H   0  0  0  0  0  0  0  0  0  0  0  0
  1  2  1  0  0  0  0
  2  3  1  0  0  0  0
  2  4  1  0  0  0  0
  2  5  1  0  0  0  0
  5  6  2  0  0  0  0
  5  7  1  0  0  0  0
  7  8  1  0  0  0  0
  7  9  1  0  0  0  0
  9 10  1  0  0  0  0
  9 11  1  0  0  0  0
  9 29  1  0  0  0  0
 11 12  1  0  0  0  0
 11 13  1  0  0  0  0
 11 14  1  0  0  0  0
 14 15  1  0  0  0  0
 14 16  1  0  0  0  0
 14 17  1  0  0  0  0
 17 18  1  0  0  0  0
 17 19  1  0  0  0  0
 17 20  1  0  0  0  0
 20 21  1  0  0  0  0
 20 22  2  0  0  0  0
 22 23  1  0  0  0  0
 22 26  1  0  0  0  0
 23 24  1  0  0  0  0
 23 25  1  0  0  0  0
 26 27  1  0  0  0  0
 26 28  1  0  0  0  0
 29 30  2  0  0  0  0
 29 31  1  0  0  0  0
 31 32  1  0  0  0  0
 31 33  1  0  0  0  0
 33 34  1  0  0  0  0
 33 35  1  0  0  0  0
 33 36  1  0  0  0  0
M  CHG  1  20   1
M  END
$$$$

  -OEChem-04042215563D

 36 35  0     1  0  0  0  0  0999 V2000
   -0.7227   -6.2730    1.1142 H   0  0  0  0  0  0  0  0  0  0  0  0
   -1.2615   -5.4783    0.5893 C   0  0  0  0  0  0  0  0  0  0  0  0
   -2.3021   -5.4840    0.9210 H   0  0  0  0  0  0  0  0  0  0  0  0
   -1.2230   -5.6814   -0.4834 H   0  0  0  0  0  0  0  0  0  0  0  0
   -0.6242   -4.1351    0.8903 C   0  0  0  0  0  0  0  0  0  0  0  0
    0.3456   -4.0799    1.6210 O   0  0  0  0  0  0  0  0  0  0  0  0
   -1.1639   -2.9791    0.3503 N   0  0  0  0  0  0  0  0  0  0  0  0
   -1.8282   -3.1517   -0.3925 H   0  0  0  0  0  0  0  0  0  0  0  0
   -0.4128   -1.7072    0.2891 C   0  0  1  0  0  0  0  0  0  0  0  0
    0.5182   -1.9417   -0.2414 H   0  0  0  0  0  0  0  0  0  0  0  0
   -1.0812   -0.5380   -0.4986 C   0  0  0  0  0  0  0  0  0  0  0  0
   -1.4426    0.1848    0.2417 H   0  0  0  0  0  0  0  0  0  0  0  0
   -0.2888   -0.0286   -1.0586 H   0  0  0  0  0  0  0  0  0  0  0  0
   -2.2712   -0.7621   -1.4589 C   0  0  0  0  0  0  0  0  0  0  0  0
   -2.6762    0.2238   -1.7116 H   0  0  0  0  0  0  0  0  0  0  0  0
   -1.8879   -1.1977   -2.3882 H   0  0  0  0  0  0  0  0  0  0  0  0
   -3.3958   -1.6639   -0.9391 C   0  0  0  0  0  0  0  0  0  0  0  0
   -3.5339   -1.5004    0.1354 H   0  0  0  0  0  0  0  0  0  0  0  0
   -3.1250   -2.7141   -1.0817 H   0  0  0  0  0  0  0  0  0  0  0  0
   -4.6529   -1.3820   -1.6610 N   0  3  0  0  0  0  0  0  0  0  0  0
   -4.8152   -1.8940   -2.5282 H   0  0  0  0  0  0  0  0  0  0  0  0
   -5.5476   -0.5236   -1.2573 C   0  0  0  0  0  0  0  0  0  0  0  0
   -5.3714    0.2313   -0.1194 N   0  0  0  0  0  0  0  0  0  0  0  0
   -4.4462    0.2431    0.3057 H   0  0  0  0  0  0  0  0  0  0  0  0
   -5.9748    1.0383    0.0293 H   0  0  0  0  0  0  0  0  0  0  0  0
   -6.6997   -0.3511   -1.9869 N   0  0  0  0  0  0  0  0  0  0  0  0
   -6.9249   -1.0224   -2.7188 H   0  0  0  0  0  0  0  0  0  0  0  0
   -7.4661    0.1759   -1.5710 H   0  0  0  0  0  0  0  0  0  0  0  0
    0.0295   -1.1615    1.6692 C   0  0  0  0  0  0  0  0  0  0  0  0
    1.0114   -0.4352    1.7217 O   0  0  0  0  0  0  0  0  0  0  0  0
   -0.8628   -1.1569    2.7280 N   0  0  0  0  0  0  0  0  0  0  0  0
   -1.5449   -1.9083    2.7102 H   0  0  0  0  0  0  0  0  0  0  0  0
   -0.4964   -0.6090    4.0310 C   0  0  0  0  0  0  0  0  0  0  0  0
   -0.2575    0.4567    3.9474 H   0  0  0  0  0  0  0  0  0  0  0  0
   -1.3245   -0.7205    4.7373 H   0  0  0  0  0  0  0  0  0  0  0  0
    0.3772   -1.1329    4.4343 H   0  0  0  0  0  0  0  0  0  0  0  0
  1  2  1  0  0  0  0
  2  3  1  0  0  0  0
  2  4  1  0  0  0  0
  2  5  1  0  0  0  0
  5  6  2  0  0  0  0
  5  7  1  0  0  0  0
  7  8  1  0  0  0  0
  7  9  1  0  0  0  0
  9 10  1  0  0  0  0
  9 11  1  0  0  0  0
  9 29  1  0  0  0  0
 11 12  1  0  0  0  0
 11 13  1  0  0  0  0
 11 14  1  0  0  0  0
 14 15  1  0  0  0  0
 14 16  1  0  0  0  0
 14 17  1  0  0  0  0
 17 18  1  0  0  0  0
 17 19  1  0  0  0  0
 17 20  1  0  0  0  0
 20 21  1  0  0  0  0
 20 22  2  0  0  0  0
 22 23  1  0  0  0  0
 22 26  1  0  0  0  0
 23 24  1  0  0  0  0
 23 25  1  0  0  0  0
 26 27  1  0  0  0  0
 26 28  1  0  0  0  0
 29 30  2  0  0  0  0
 29 31  1  0  0  0  0
 31 32  1  0  0  0  0
 31 33  1  0  0  0  0
 33 34  1  0  0  0  0
 33 35  1  0  0  0  0
 33 36  1  0  0  0  0
M  CHG  1  20   1
M  END
$$$$

  -OEChem-04042215563D

 36 35  0     1  0  0  0  0  0999 V2000
   -1.2127   -6.2897    0.9554 H   0  0  0  0  0  0  0  0  0  0  0  0
   -1.6577   -5.4256    0.4526 C   0  0  0  0  0  0  0  0  0  0  0  0
   -2.6958   -5.3292    0.7781 H   0  0  0  0  0  0  0  0  0  0  0  0
   -1.6317   -5.5994   -0.6257 H   0  0  0  0  0  0  0  0  0  0  0  0
   -0.8822   -4.1680    0.7975 C   0  0  0  0  0  0  0  0  0  0  0  0
    0.1074   -4.2447    1.4992 O   0  0  0  0  0  0  0  0  0  0  0  0
   -1.3186   -2.9386    0.3319 N   0  0  0  0  0  0  0  0  0  0  0  0
   -2.0215   -3.0032   -0.3938 H   0  0  0  0  0  0  0  0  0  0  0  0
   -0.4486   -1.7433    0.3091 C   0  0  1  0  0  0  0  0  0  0  0  0
    0.4392   -2.0332   -0.2660 H   0  0  0  0  0  0  0  0  0  0  0  0
   -1.0468   -0.4927   -0.3989 C   0  0  0  0  0  0  0  0  0  0  0  0
   -1.3118    0.2418    0.3702 H   0  0  0  0  0  0  0  0  0  0  0  0
   -0.2429   -0.0396   -0.9903 H   0  0  0  0  0  0  0  0  0  0  0  0
   -2.2848   -0.6355   -1.3064 C   0  0  0  0  0  0  0  0  0  0  0  0
   -2.5075    0.3552   -1.7178 H   0  0  0  0  0  0  0  0  0  0  0  0
   -2.0392   -1.2891   -2.1506 H   0  0  0  0  0  0  0  0  0  0  0  0
   -3.5259   -1.1798   -0.5863 C   0  0  0  0  0  0  0  0  0  0  0  0
   -3.4434   -2.2618   -0.4525 H   0  0  0  0  0  0  0  0  0  0  0  0
   -3.5962   -0.7342    0.4121 H   0  0  0  0  0  0  0  0  0  0  0  0
   -4.7425   -0.8763   -1.3665 N   0  3  0  0  0  0  0  0  0  0  0  0
   -5.0034   -1.5380   -2.0974 H   0  0  0  0  0  0  0  0  0  0  0  0
   -5.4918    0.1723   -1.1690 C   0  0  0  0  0  0  0  0  0  0  0  0
   -5.1797    1.1237   -0.2240 N   0  0  0  0  0  0  0  0  0  0  0  0
   -4.2559    1.0890    0.2029 H   0  0  0  0  0  0  0  0  0  0  0  0
   -5.6566    2.0229   -0.2585 H   0  0  0  0  0  0  0  0  0  0  0  0
   -6.6247    0.3484   -1.9271 N   0  0  0  0  0  0  0  0  0  0  0  0
   -6.9624   -0.4257   -2.4962 H   0  0  0  0  0  0  0  0  0  0  0  0
   -7.2975    1.0571   -1.6394 H   0  0  0  0  0  0  0  0  0  0  0  0
    0.0866   -1.3062    1.6945 C   0  0  0  0  0  0  0  0  0  0  0  0
    1.1352   -0.6791    1.7420 O   0  0  0  0  0  0  0  0  0  0  0  0
   -0.7669   -1.2646    2.7835 N   0  0  0  0  0  0  0  0  0  0  0  0
   -1.5202   -1.9443    2.7563 H   0  0  0  0  0  0  0  0  0  0  0  0
   -0.3070   -0.8192    4.0960 C   0  0  0  0  0  0  0  0  0  0  0  0
    0.0415    0.2182    4.0512 H   0  0  0  0  0  0  0  0  0  0  0  0
   -1.1213   -0.8758    4.8248 H   0  0  0  0  0  0  0  0  0  0  0  0
    0.5175   -1.4494    4.4468 H   0  0  0  0  0  0  0  0  0  0  0  0
  1  2  1  0  0  0  0
  2  3  1  0  0  0  0
  2  4  1  0  0  0  0
  2  5  1  0  0  0  0
  5  6  2  0  0  0  0
  5  7  1  0  0  0  0
  7  8  1  0  0  0  0
  7  9  1  0  0  0  0
  9 10  1  0  0  0  0
  9 11  1  0  0  0  0
  9 29  1  0  0  0  0
 11 12  1  0  0  0  0
 11 13  1  0  0  0  0
 11 14  1  0  0  0  0
 14 15  1  0  0  0  0
 14 16  1  0  0  0  0
 14 17  1  0  0  0  0
 17 18  1  0  0  0  0
 17 19  1  0  0  0  0
 17 20  1  0  0  0  0
 20 21  1  0  0  0  0
 20 22  2  0  0  0  0
 22 23  1  0  0  0  0
 22 26  1  0  0  0  0
 23 24  1  0  0  0  0
 23 25  1  0  0  0  0
 26 27  1  0  0  0  0
 26 28  1  0  0  0  0
 29 30  2  0  0  0  0
 29 31  1  0  0  0  0
 31 32  1  0  0  0  0
 31 33  1  0  0  0  0
 33 34  1  0  0  0  0
 33 35  1  0  0  0  0
 33 36  1  0  0  0  0
M  CHG  1  20   1
M  END
$$$$

  -OEChem-04042215563D

 36 35  0     1  0  0  0  0  0999 V2000
   -2.0951   -6.0345    0.9628 H   0  0  0  0  0  0  0  0  0  0  0  0
   -2.3607   -5.0964    0.4659 C   0  0  0  0  0  0  0  0  0  0  0  0
   -3.3483   -4.7848    0.8131 H   0  0  0  0  0  0  0  0  0  0  0  0
   -2.3946   -5.2710   -0.6120 H   0  0  0  0  0  0  0  0  0  0  0  0
   -1.3322   -4.0296    0.7893 C   0  0  0  0  0  0  0  0  0  0  0  0
   -0.3905   -4.3009    1.5085 O   0  0  0  0  0  0  0  0  0  0  0  0
   -1.4863   -2.7474    0.2892 N   0  0  0  0  0  0  0  0  0  0  0  0
   -2.1911   -2.6655   -0.4340 H   0  0  0  0  0  0  0  0  0  0  0  0
   -0.3763   -1.7689    0.2562 C   0  0  1  0  0  0  0  0  0  0  0  0
    0.4350   -2.2501   -0.3037 H   0  0  0  0  0  0  0  0  0  0  0  0
   -0.7113   -0.4442   -0.4839 C   0  0  0  0  0  0  0  0  0  0  0  0
   -0.8114    0.3648    0.2486 H   0  0  0  0  0  0  0  0  0  0  0  0
    0.1572   -0.1921   -1.1029 H   0  0  0  0  0  0  0  0  0  0  0  0
   -1.9620   -0.4180   -1.3791 C   0  0  0  0  0  0  0  0  0  0  0  0
   -1.9048    0.4738   -2.0133 H   0  0  0  0  0  0  0  0  0  0  0  0
   -1.9706   -1.2913   -2.0400 H   0  0  0  0  0  0  0  0  0  0  0  0
   -3.2437   -0.3501   -0.5426 C   0  0  0  0  0  0  0  0  0  0  0  0
   -3.3801   -1.2821    0.0147 H   0  0  0  0  0  0  0  0  0  0  0  0
   -3.1406    0.4658    0.1808 H   0  0  0  0  0  0  0  0  0  0  0  0
   -4.4061   -0.1075   -1.4186 N   0  3  0  0  0  0  0  0  0  0  0  0
   -4.3241   -0.3985   -2.3923 H   0  0  0  0  0  0  0  0  0  0  0  0
   -5.4996    0.4831   -1.0261 C   0  0  0  0  0  0  0  0  0  0  0  0
   -5.6655    0.9311    0.2654 N   0  0  0  0  0  0  0  0  0  0  0  0
   -4.8499    0.9505    0.8742 H   0  0  0  0  0  0  0  0  0  0  0  0
   -6.4230    1.5828    0.4623 H   0  0  0  0  0  0  0  0  0  0  0  0
   -6.5264    0.6728   -1.9202 N   0  0  0  0  0  0  0  0  0  0  0  0
   -6.4901    0.2089   -2.8259 H   0  0  0  0  0  0  0  0  0  0  0  0
   -7.4362    0.9642   -1.5667 H   0  0  0  0  0  0  0  0  0  0  0  0
    0.2258   -1.4201    1.6385 C   0  0  0  0  0  0  0  0  0  0  0  0
    1.3887   -1.0473    1.6923 O   0  0  0  0  0  0  0  0  0  0  0  0
   -0.6100   -1.1649    2.7121 N   0  0  0  0  0  0  0  0  0  0  0  0
   -1.4941   -1.6619    2.6882 H   0  0  0  0  0  0  0  0  0  0  0  0
   -0.0802   -0.7894    4.0202 C   0  0  0  0  0  0  0  0  0  0  0  0
    0.4884    0.1445    3.9526 H   0  0  0  0  0  0  0  0  0  0  0  0
   -0.8966   -0.6423    4.7338 H   0  0  0  0  0  0  0  0  0  0  0  0
    0.5805   -1.5739    4.4055 H   0  0  0  0  0  0  0  0  0  0  0  0
  1  2  1  0  0  0  0
  2  3  1  0  0  0  0
  2  4  1  0  0  0  0
  2  5  1  0  0  0  0
  5  6  2  0  0  0  0
  5  7  1  0  0  0  0
  7  8  1  0  0  0  0
  7  9  1  0  0  0  0
  9 10  1  0  0  0  0
  9 11  1  0  0  0  0
  9 29  1  0  0  0  0
 11 12  1  0  0  0  0
 11 13  1  0  0  0  0
 11 14  1  0  0  0  0
 14 15  1  0  0  0  0
 14 16  1  0  0  0  0
 14 17  1  0  0  0  0
 17 18  1  0  0  0  0
 17 19  1  0  0  0  0
 17 20  1  0  0  0  0
 20 21  1  0  0  0  0
 20 22  2  0  0  0  0
 22 23  1  0  0  0  0
 22 26  1  0  0  0  0
 23 24  1  0  0  0  0
 23 25  1  0  0  0  0
 26 27  1  0  0  0  0
 26 28  1  0  0  0  0
 29 30  2  0  0  0  0
 29 31  1  0  0  0  0
 31 32  1  0  0  0  0
 31 33  1  0  0  0  0
 33 34  1  0  0  0  0
 33 35  1  0  0  0  0
 33 36  1  0  0  0  0
M  CHG  1  20   1
M  END
$$$$

  -OEChem-04042215563D

 36 35  0     1  0  0  0  0  0999 V2000
   -2.2875   -5.9471    0.9657 H   0  0  0  0  0  0  0  0  0  0  0  0
   -2.5303   -4.9904    0.4934 C   0  0  0  0  0  0  0  0  0  0  0  0
   -3.4771   -4.6296    0.9012 H   0  0  0  0  0  0  0  0  0  0  0  0
   -2.6371   -5.1504   -0.5820 H   0  0  0  0  0  0  0  0  0  0  0  0
   -1.4274   -3.9847    0.7642 C   0  0  0  0  0  0  0  0  0  0  0  0
   -0.4661   -4.3105    1.4331 O   0  0  0  0  0  0  0  0  0  0  0  0
   -1.5304   -2.6950    0.2716 N   0  0  0  0  0  0  0  0  0  0  0  0
   -2.2820   -2.5477   -0.3912 H   0  0  0  0  0  0  0  0  0  0  0  0
   -0.3898   -1.7511    0.2435 C   0  0  1  0  0  0  0  0  0  0  0  0
    0.4073   -2.2560   -0.3160 H   0  0  0  0  0  0  0  0  0  0  0  0
   -0.6859   -0.4201   -0.4973 C   0  0  0  0  0  0  0  0  0  0  0  0
   -0.7496    0.4008    0.2267 H   0  0  0  0  0  0  0  0  0  0  0  0
    0.1874   -0.2044   -1.1236 H   0  0  0  0  0  0  0  0  0  0  0  0
   -1.9369   -0.3814   -1.3930 C   0  0  0  0  0  0  0  0  0  0  0  0
   -1.7558    0.3526   -2.1866 H   0  0  0  0  0  0  0  0  0  0  0  0
   -2.1099   -1.3450   -1.8823 H   0  0  0  0  0  0  0  0  0  0  0  0
   -3.1507    0.0754   -0.5809 C   0  0  0  0  0  0  0  0  0  0  0  0
   -3.4073   -0.6944    0.1552 H   0  0  0  0  0  0  0  0  0  0  0  0
   -2.8856    0.9907   -0.0402 H   0  0  0  0  0  0  0  0  0  0  0  0
   -4.2983    0.3347   -1.4710 N   0  3  0  0  0  0  0  0  0  0  0  0
   -4.2448   -0.0298   -2.4216 H   0  0  0  0  0  0  0  0  0  0  0  0
   -5.3333    1.0445   -1.1208 C   0  0  0  0  0  0  0  0  0  0  0  0
   -5.4450    1.5968    0.1355 N   0  0  0  0  0  0  0  0  0  0  0  0
   -4.6244    1.5829    0.7379 H   0  0  0  0  0  0  0  0  0  0  0  0
   -6.1353    2.3301    0.2871 H   0  0  0  0  0  0  0  0  0  0  0  0
   -6.3480    1.2587   -2.0229 N   0  0  0  0  0  0  0  0  0  0  0  0
   -6.3600    0.7276   -2.8917 H   0  0  0  0  0  0  0  0  0  0  0  0
   -7.2276    1.6472   -1.6863 H   0  0  0  0  0  0  0  0  0  0  0  0
    0.2208   -1.4267    1.6272 C   0  0  0  0  0  0  0  0  0  0  0  0
    1.3935   -1.0865    1.6846 O   0  0  0  0  0  0  0  0  0  0  0  0
   -0.6091   -1.1495    2.6999 N   0  0  0  0  0  0  0  0  0  0  0  0
   -1.5118   -1.6116    2.6701 H   0  0  0  0  0  0  0  0  0  0  0  0
   -0.0721   -0.7945    4.0103 C   0  0  0  0  0  0  0  0  0  0  0  0
    0.5177    0.1264    3.9483 H   0  0  0  0  0  0  0  0  0  0  0  0
   -0.8856   -0.6335    4.7239 H   0  0  0  0  0  0  0  0  0  0  0  0
    0.5700   -1.5962    4.3909 H   0  0  0  0  0  0  0  0  0  0  0  0
  1  2  1  0  0  0  0
  2  3  1  0  0  0  0
  2  4  1  0  0  0  0
  2  5  1  0  0  0  0
  5  6  2  0  0  0  0
  5  7  1  0  0  0  0
  7  8  1  0  0  0  0
  7  9  1  0  0  0  0
  9 10  1  0  0  0  0
  9 11  1  0  0  0  0
  9 29  1  0  0  0  0
 11 12  1  0  0  0  0
 11 13  1  0  0  0  0
 11 14  1  0  0  0  0
 14 15  1  0  0  0  0
 14 16  1  0  0  0  0
 14 17  1  0  0  0  0
 17 18  1  0  0  0  0
 17 19  1  0  0  0  0
 17 20  1  0  0  0  0
 20 21  1  0  0  0  0
 20 22  2  0  0  0  0
 22 23  1  0  0  0  0
 22 26  1  0  0  0  0
 23 24  1  0  0  0  0
 23 25  1  0  0  0  0
 26 27  1  0  0  0  0
 26 28  1  0  0  0  0
 29 30  2  0  0  0  0
 29 31  1  0  0  0  0
 31 32  1  0  0  0  0
 31 33  1  0  0  0  0
 33 34  1  0  0  0  0
 33 35  1  0  0  0  0
 33 36  1  0  0  0  0
M  CHG  1  20   1
M  END
$$$$

  -OEChem-04042215563D

 36 35  0     1  0  0  0  0  0999 V2000
   -2.3456   -5.9231    0.9899 H   0  0  0  0  0  0  0  0  0  0  0  0
   -2.6078   -4.9479    0.5683 C   0  0  0  0  0  0  0  0  0  0  0  0
   -3.4942   -4.5712    1.0837 H   0  0  0  0  0  0  0  0  0  0  0  0
   -2.8341   -5.0768   -0.4927 H   0  0  0  0  0  0  0  0  0  0  0  0
   -1.4512   -3.9815    0.7420 C   0  0  0  0  0  0  0  0  0  0  0  0
   -0.4384   -4.3482    1.3064 O   0  0  0  0  0  0  0  0  0  0  0  0
   -1.5552   -2.6816    0.2769 N   0  0  0  0  0  0  0  0  0  0  0  0
   -2.3836   -2.4664   -0.2642 H   0  0  0  0  0  0  0  0  0  0  0  0
   -0.4163   -1.7372    0.2406 C   0  0  1  0  0  0  0  0  0  0  0  0
    0.3684   -2.2435   -0.3349 H   0  0  0  0  0  0  0  0  0  0  0  0
   -0.6994   -0.3973   -0.4909 C   0  0  0  0  0  0  0  0  0  0  0  0
   -0.7461    0.4119    0.2466 H   0  0  0  0  0  0  0  0  0  0  0  0
    0.1783   -0.1852   -1.1114 H   0  0  0  0  0  0  0  0  0  0  0  0
   -1.9498   -0.3181   -1.3907 C   0  0  0  0  0  0  0  0  0  0  0  0
   -1.6638    0.2096   -2.3077 H   0  0  0  0  0  0  0  0  0  0  0  0
   -2.3053   -1.3056   -1.6968 H   0  0  0  0  0  0  0  0  0  0  0  0
   -3.0494    0.4904   -0.6996 C   0  0  0  0  0  0  0  0  0  0  0  0
   -3.4030   -0.0587    0.1803 H   0  0  0  0  0  0  0  0  0  0  0  0
   -2.6254    1.4431   -0.3638 H   0  0  0  0  0  0  0  0  0  0  0  0
   -4.1666    0.7398   -1.6300 N   0  3  0  0  0  0  0  0  0  0  0  0
   -4.1652    0.2256   -2.5102 H   0  0  0  0  0  0  0  0  0  0  0  0
   -5.1114    1.6081   -1.4047 C   0  0  0  0  0  0  0  0  0  0  0  0
   -5.1442    2.3648   -0.2550 N   0  0  0  0  0  0  0  0  0  0  0  0
   -4.3198    2.3610    0.3424 H   0  0  0  0  0  0  0  0  0  0  0  0
   -5.7506    3.1824   -0.2257 H   0  0  0  0  0  0  0  0  0  0  0  0
   -6.1073    1.7840   -2.3360 N   0  0  0  0  0  0  0  0  0  0  0  0
   -6.1882    1.1229   -3.1063 H   0  0  0  0  0  0  0  0  0  0  0  0
   -6.9345    2.3177   -2.0737 H   0  0  0  0  0  0  0  0  0  0  0  0
    0.2202   -1.4402    1.6183 C   0  0  0  0  0  0  0  0  0  0  0  0
    1.3938   -1.1006    1.6621 O   0  0  0  0  0  0  0  0  0  0  0  0
   -0.5902   -1.1843    2.7111 N   0  0  0  0  0  0  0  0  0  0  0  0
   -1.5026   -1.6269    2.6832 H   0  0  0  0  0  0  0  0  0  0  0  0
   -0.0330   -0.8538    4.0194 C   0  0  0  0  0  0  0  0  0  0  0  0
    0.5585    0.0667    3.9652 H   0  0  0  0  0  0  0  0  0  0  0  0
   -0.8354   -0.7035    4.7479 H   0  0  0  0  0  0  0  0  0  0  0  0
    0.6123   -1.6642    4.3758 H   0  0  0  0  0  0  0  0  0  0  0  0
  1  2  1  0  0  0  0
  2  3  1  0  0  0  0
  2  4  1  0  0  0  0
  2  5  1  0  0  0  0
  5  6  2  0  0  0  0
  5  7  1  0  0  0  0
  7  8  1  0  0  0  0
  7  9  1  0  0  0  0
  9 10  1  0  0  0  0
  9 11  1  0  0  0  0
  9 29  1  0  0  0  0
 11 12  1  0  0  0  0
 11 13  1  0  0  0  0
 11 14  1  0  0  0  0
 14 15  1  0  0  0  0
 14 16  1  0  0  0  0
 14 17  1  0  0  0  0
 17 18  1  0  0  0  0
 17 19  1  0  0  0  0
 17 20  1  0  0  0  0
 20 21  1  0  0  0  0
 20 22  2  0  0  0  0
 22 23  1  0  0  0  0
 22 26  1  0  0  0  0
 23 24  1  0  0  0  0
 23 25  1  0  0  0  0
 26 27  1  0  0  0  0
 26 28  1  0  0  0  0
 29 30  2  0  0  0  0
 29 31  1  0  0  0  0
 31 32  1  0  0  0  0
 31 33  1  0  0  0  0
 33 34  1  0  0  0  0
 33 35  1  0  0  0  0
 33 36  1  0  0  0  0
M  CHG  1  20   1
M  END
$$$$

  -OEChem-04042215563D

 36 35  0     1  0  0  0  0  0999 V2000
   -2.5075   -5.8333    1.1448 H   0  0  0  0  0  0  0  0  0  0  0  0
   -2.7356   -4.8687    0.6814 C   0  0  0  0  0  0  0  0  0  0  0  0
   -3.5800   -4.4190    1.2086 H   0  0  0  0  0  0  0  0  0  0  0  0
   -3.0100   -5.0397   -0.3622 H   0  0  0  0  0  0  0  0  0  0  0  0
   -1.5252   -3.9579    0.7583 C   0  0  0  0  0  0  0  0  0  0  0  0
   -0.4900   -4.3671    1.2483 O   0  0  0  0  0  0  0  0  0  0  0  0
   -1.6031   -2.6588    0.2874 N   0  0  0  0  0  0  0  0  0  0  0  0
   -2.4758   -2.3851   -0.1477 H   0  0  0  0  0  0  0  0  0  0  0  0
   -0.4458   -1.7398    0.2262 C   0  0  1  0  0  0  0  0  0  0  0  0
    0.3174   -2.2778   -0.3493 H   0  0  0  0  0  0  0  0  0  0  0  0
   -0.6846   -0.4047   -0.5313 C   0  0  0  0  0  0  0  0  0  0  0  0
   -0.7200    0.4027    0.2091 H   0  0  0  0  0  0  0  0  0  0  0  0
    0.2066   -0.2114   -1.1394 H   0  0  0  0  0  0  0  0  0  0  0  0
   -1.9270   -0.2808   -1.4440 C   0  0  0  0  0  0  0  0  0  0  0  0
   -1.5756   -0.0557   -2.4572 H   0  0  0  0  0  0  0  0  0  0  0  0
   -2.4976   -1.2091   -1.5108 H   0  0  0  0  0  0  0  0  0  0  0  0
   -2.8262    0.8604   -0.9615 C   0  0  0  0  0  0  0  0  0  0  0  0
   -3.2732    0.5832   -0.0003 H   0  0  0  0  0  0  0  0  0  0  0  0
   -2.2109    1.7549   -0.8112 H   0  0  0  0  0  0  0  0  0  0  0  0
   -3.8787    1.1469   -1.9541 N   0  3  0  0  0  0  0  0  0  0  0  0
   -3.8162    0.6674   -2.8513 H   0  0  0  0  0  0  0  0  0  0  0  0
   -4.8116    2.0385   -1.7752 C   0  0  0  0  0  0  0  0  0  0  0  0
   -4.9116    2.7614   -0.6078 N   0  0  0  0  0  0  0  0  0  0  0  0
   -4.1348    2.7167    0.0488 H   0  0  0  0  0  0  0  0  0  0  0  0
   -5.4975    3.5944   -0.5979 H   0  0  0  0  0  0  0  0  0  0  0  0
   -5.7254    2.2758   -2.7746 N   0  0  0  0  0  0  0  0  0  0  0  0
   -5.7621    1.6465   -3.5742 H   0  0  0  0  0  0  0  0  0  0  0  0
   -6.5521    2.8321   -2.5627 H   0  0  0  0  0  0  0  0  0  0  0  0
    0.2165   -1.4492    1.5933 C   0  0  0  0  0  0  0  0  0  0  0  0
    1.3990   -1.1396    1.6184 O   0  0  0  0  0  0  0  0  0  0  0  0
   -0.5699   -1.1695    2.6980 N   0  0  0  0  0  0  0  0  0  0  0  0
   -1.5014   -1.5712    2.6820 H   0  0  0  0  0  0  0  0  0  0  0  0
    0.0142   -0.8503    3.9974 C   0  0  0  0  0  0  0  0  0  0  0  0
    0.6314    0.0521    3.9311 H   0  0  0  0  0  0  0  0  0  0  0  0
   -0.7733   -0.6728    4.7360 H   0  0  0  0  0  0  0  0  0  0  0  0
    0.6404   -1.6775    4.3491 H   0  0  0  0  0  0  0  0  0  0  0  0
  1  2  1  0  0  0  0
  2  3  1  0  0  0  0
  2  4  1  0  0  0  0
  2  5  1  0  0  0  0
  5  6  2  0  0  0  0
  5  7  1  0  0  0  0
  7  8  1  0  0  0  0
  7  9  1  0  0  0  0
  9 10  1  0  0  0  0
  9 11  1  0  0  0  0
  9 29  1  0  0  0  0
 11 12  1  0  0  0  0
 11 13  1  0  0  0  0
 11 14  1  0  0  0  0
 14 15  1  0  0  0  0
 14 16  1  0  0  0  0
 14 17  1  0  0  0  0
 17 18  1  0  0  0  0
 17 19  1  0  0  0  0
 17 20  1  0  0  0  0
 20 21  1  0  0  0  0
 20 22  2  0  0  0  0
 22 23  1  0  0  0  0
 22 26  1  0  0  0  0
 23 24  1  0  0  0  0
 23 25  1  0  0  0  0
 26 27  1  0  0  0  0
 26 28  1  0  0  0  0
 29 30  2  0  0  0  0
 29 31  1  0  0  0  0
 31 32  1  0  0  0  0
 31 33  1  0  0  0  0
 33 34  1  0  0  0  0
 33 35  1  0  0  0  0
 33 36  1  0  0  0  0
M  CHG  1  20   1
M  END
$$$$

  -OEChem-04042215563D

 36 35  0     1  0  0  0  0  0999 V2000
   -2.5265   -5.8154    1.1540 H   0  0  0  0  0  0  0  0  0  0  0  0
   -2.7619   -4.8486    0.6988 C   0  0  0  0  0  0  0  0  0  0  0  0
   -3.5804   -4.3894    1.2575 H   0  0  0  0  0  0  0  0  0  0  0  0
   -3.0788   -5.0165   -0.3332 H   0  0  0  0  0  0  0  0  0  0  0  0
   -1.5393   -3.9514    0.7275 C   0  0  0  0  0  0  0  0  0  0  0  0
   -0.4860   -4.3772    1.1616 O   0  0  0  0  0  0  0  0  0  0  0  0
   -1.6239   -2.6468    0.2741 N   0  0  0  0  0  0  0  0  0  0  0  0
   -2.5226   -2.3438   -0.0813 H   0  0  0  0  0  0  0  0  0  0  0  0
   -0.4715   -1.7220    0.2195 C   0  0  1  0  0  0  0  0  0  0  0  0
    0.2907   -2.2561   -0.3612 H   0  0  0  0  0  0  0  0  0  0  0  0
   -0.7062   -0.3849   -0.5366 C   0  0  0  0  0  0  0  0  0  0  0  0
   -0.7789    0.3999    0.2253 H   0  0  0  0  0  0  0  0  0  0  0  0
    0.1934   -0.1574   -1.1195 H   0  0  0  0  0  0  0  0  0  0  0  0
   -1.9410   -0.2558   -1.4583 C   0  0  0  0  0  0  0  0  0  0  0  0
   -1.6057   -0.3336   -2.4986 H   0  0  0  0  0  0  0  0  0  0  0  0
   -2.6706   -1.0498   -1.2921 H   0  0  0  0  0  0  0  0  0  0  0  0
   -2.6306    1.0896   -1.2186 C   0  0  0  0  0  0  0  0  0  0  0  0
   -3.0738    1.0930   -0.2165 H   0  0  0  0  0  0  0  0  0  0  0  0
   -1.8767    1.8838   -1.2657 H   0  0  0  0  0  0  0  0  0  0  0  0
   -3.6674    1.3316   -2.2394 N   0  3  0  0  0  0  0  0  0  0  0  0
   -3.7192    0.6742   -3.0166 H   0  0  0  0  0  0  0  0  0  0  0  0
   -4.4457    2.3763   -2.2387 C   0  0  0  0  0  0  0  0  0  0  0  0
   -4.3818    3.3290   -1.2469 N   0  0  0  0  0  0  0  0  0  0  0  0
   -3.5909    3.2972   -0.6066 H   0  0  0  0  0  0  0  0  0  0  0  0
   -4.8310    4.2290   -1.4054 H   0  0  0  0  0  0  0  0  0  0  0  0
   -5.3572    2.5454   -3.2540 N   0  0  0  0  0  0  0  0  0  0  0  0
   -5.5222    1.7806   -3.9057 H   0  0  0  0  0  0  0  0  0  0  0  0
   -6.0840    3.2513   -3.1481 H   0  0  0  0  0  0  0  0  0  0  0  0
    0.1979   -1.4441    1.5855 C   0  0  0  0  0  0  0  0  0  0  0  0
    1.3794   -1.1300    1.6080 O   0  0  0  0  0  0  0  0  0  0  0  0
   -0.5825   -1.1809    2.6980 N   0  0  0  0  0  0  0  0  0  0  0  0
   -1.5177   -1.5734    2.6804 H   0  0  0  0  0  0  0  0  0  0  0  0
    0.0040   -0.8643    3.9969 C   0  0  0  0  0  0  0  0  0  0  0  0
    0.6202    0.0391    3.9318 H   0  0  0  0  0  0  0  0  0  0  0  0
   -0.7825   -0.6898    4.7374 H   0  0  0  0  0  0  0  0  0  0  0  0
    0.6316   -1.6917    4.3456 H   0  0  0  0  0  0  0  0  0  0  0  0
  1  2  1  0  0  0  0
  2  3  1  0  0  0  0
  2  4  1  0  0  0  0
  2  5  1  0  0  0  0
  5  6  2  0  0  0  0
  5  7  1  0  0  0  0
  7  8  1  0  0  0  0
  7  9  1  0  0  0  0
  9 10  1  0  0  0  0
  9 11  1  0  0  0  0
  9 29  1  0  0  0  0
 11 12  1  0  0  0  0
 11 13  1  0  0  0  0
 11 14  1  0  0  0  0
 14 15  1  0  0  0  0
 14 16  1  0  0  0  0
 14 17  1  0  0  0  0
 17 18  1  0  0  0  0
 17 19  1  0  0  0  0
 17 20  1  0  0  0  0
 20 21  1  0  0  0  0
 20 22  2  0  0  0  0
 22 23  1  0  0  0  0
 22 26  1  0  0  0  0
 23 24  1  0  0  0  0
 23 25  1  0  0  0  0
 26 27  1  0  0  0  0
 26 28  1  0  0  0  0
 29 30  2  0  0  0  0
 29 31  1  0  0  0  0
 31 32  1  0  0  0  0
 31 33  1  0  0  0  0
 33 34  1  0  0  0  0
 33 35  1  0  0  0  0
 33 36  1  0  0  0  0
M  CHG  1  20   1
M  END
$$$$

  -OEChem-04042215563D

 36 35  0     1  0  0  0  0  0999 V2000
   -2.6185   -5.7811    1.0930 H   0  0  0  0  0  0  0  0  0  0  0  0
   -2.8360   -4.7985    0.6635 C   0  0  0  0  0  0  0  0  0  0  0  0
   -3.6643   -4.3506    1.2171 H   0  0  0  0  0  0  0  0  0  0  0  0
   -3.1286   -4.9310   -0.3805 H   0  0  0  0  0  0  0  0  0  0  0  0
   -1.6090   -3.9117    0.7523 C   0  0  0  0  0  0  0  0  0  0  0  0
   -0.5932   -4.3346    1.2706 O   0  0  0  0  0  0  0  0  0  0  0  0
   -1.6486   -2.6201    0.2569 N   0  0  0  0  0  0  0  0  0  0  0  0
   -2.4973   -2.3467   -0.2231 H   0  0  0  0  0  0  0  0  0  0  0  0
   -0.4682   -1.7309    0.2000 C   0  0  1  0  0  0  0  0  0  0  0  0
    0.2914   -2.2945   -0.3552 H   0  0  0  0  0  0  0  0  0  0  0  0
   -0.6676   -0.4023   -0.5795 C   0  0  0  0  0  0  0  0  0  0  0  0
   -0.7410    0.3950    0.1691 H   0  0  0  0  0  0  0  0  0  0  0  0
    0.2395   -0.1981   -1.1594 H   0  0  0  0  0  0  0  0  0  0  0  0
   -1.8962   -0.2739   -1.5038 C   0  0  0  0  0  0  0  0  0  0  0  0
   -1.6412   -0.6566   -2.4983 H   0  0  0  0  0  0  0  0  0  0  0  0
   -2.7473   -0.8449   -1.1267 H   0  0  0  0  0  0  0  0  0  0  0  0
   -2.3202    1.1952   -1.5655 C   0  0  0  0  0  0  0  0  0  0  0  0
   -2.6666    1.5073   -0.5740 H   0  0  0  0  0  0  0  0  0  0  0  0
   -1.4479    1.8022   -1.8331 H   0  0  0  0  0  0  0  0  0  0  0  0
   -3.3871    1.3968   -2.5633 N   0  3  0  0  0  0  0  0  0  0  0  0
   -3.5512    0.6440   -3.2307 H   0  0  0  0  0  0  0  0  0  0  0  0
   -4.0522    2.5109   -2.6830 C   0  0  0  0  0  0  0  0  0  0  0  0
   -3.8231    3.5858   -1.8536 N   0  0  0  0  0  0  0  0  0  0  0  0
   -3.0003    3.5578   -1.2546 H   0  0  0  0  0  0  0  0  0  0  0  0
   -4.1818    4.4985   -2.1277 H   0  0  0  0  0  0  0  0  0  0  0  0
   -5.0088    2.6316   -3.6628 N   0  0  0  0  0  0  0  0  0  0  0  0
   -5.3028    1.8008   -4.1726 H   0  0  0  0  0  0  0  0  0  0  0  0
   -5.6503    3.4220   -3.6244 H   0  0  0  0  0  0  0  0  0  0  0  0
    0.1787   -1.4312    1.5728 C   0  0  0  0  0  0  0  0  0  0  0  0
    1.3676   -1.1474    1.6130 O   0  0  0  0  0  0  0  0  0  0  0  0
   -0.6200   -1.1121    2.6572 N   0  0  0  0  0  0  0  0  0  0  0  0
   -1.5657   -1.4790    2.6281 H   0  0  0  0  0  0  0  0  0  0  0  0
   -0.0582   -0.7600    3.9576 C   0  0  0  0  0  0  0  0  0  0  0  0
    0.5604    0.1405    3.8782 H   0  0  0  0  0  0  0  0  0  0  0  0
   -0.8589   -0.5638    4.6772 H   0  0  0  0  0  0  0  0  0  0  0  0
    0.5616   -1.5776    4.3416 H   0  0  0  0  0  0  0  0  0  0  0  0
  1  2  1  0  0  0  0
  2  3  1  0  0  0  0
  2  4  1  0  0  0  0
  2  5  1  0  0  0  0
  5  6  2  0  0  0  0
  5  7  1  0  0  0  0
  7  8  1  0  0  0  0
  7  9  1  0  0  0  0
  9 10  1  0  0  0  0
  9 11  1  0  0  0  0
  9 29  1  0  0  0  0
 11 12  1  0  0  0  0
 11 13  1  0  0  0  0
 11 14  1  0  0  0  0
 14 15  1  0  0  0  0
 14 16  1  0  0  0  0
 14 17  1  0  0  0  0
 17 18  1  0  0  0  0
 17 19  1  0  0  0  0
 17 20  1  0  0  0  0
 20 21  1  0  0  0  0
 20 22  2  0  0  0  0
 22 23  1  0  0  0  0
 22 26  1  0  0  0  0
 23 24  1  0  0  0  0
 23 25  1  0  0  0  0
 26 27  1  0  0  0  0
 26 28  1  0  0  0  0
 29 30  2  0  0  0  0
 29 31  1  0  0  0  0
 31 32  1  0  0  0  0
 31 33  1  0  0  0  0
 33 34  1  0  0  0  0
 33 35  1  0  0  0  0
 33 36  1  0  0  0  0
M  CHG  1  20   1
M  END
$$$$

  -OEChem-04042215563D

 36 35  0     1  0  0  0  0  0999 V2000
   -2.7018   -5.6998    1.0942 H   0  0  0  0  0  0  0  0  0  0  0  0
   -2.8889   -4.7185    0.6477 C   0  0  0  0  0  0  0  0  0  0  0  0
   -3.6986   -4.2335    1.1979 H   0  0  0  0  0  0  0  0  0  0  0  0
   -3.1926   -4.8603   -0.3922 H   0  0  0  0  0  0  0  0  0  0  0  0
   -1.6323   -3.8713    0.7125 C   0  0  0  0  0  0  0  0  0  0  0  0
   -0.6210   -4.3257    1.2125 O   0  0  0  0  0  0  0  0  0  0  0  0
   -1.6379   -2.5805    0.2137 N   0  0  0  0  0  0  0  0  0  0  0  0
   -2.4958   -2.2631   -0.2210 H   0  0  0  0  0  0  0  0  0  0  0  0
   -0.4439   -1.7084    0.1845 C   0  0  1  0  0  0  0  0  0  0  0  0
    0.3219   -2.2814   -0.3523 H   0  0  0  0  0  0  0  0  0  0  0  0
   -0.6191   -0.3837   -0.6026 C   0  0  0  0  0  0  0  0  0  0  0  0
   -0.7052    0.4274    0.1300 H   0  0  0  0  0  0  0  0  0  0  0  0
    0.2965   -0.1956   -1.1750 H   0  0  0  0  0  0  0  0  0  0  0  0
   -1.8347   -0.2838   -1.5396 C   0  0  0  0  0  0  0  0  0  0  0  0
   -1.6680   -0.9049   -2.4267 H   0  0  0  0  0  0  0  0  0  0  0  0
   -2.7416   -0.6301   -1.0362 H   0  0  0  0  0  0  0  0  0  0  0  0
   -2.0353    1.1835   -1.9222 C   0  0  0  0  0  0  0  0  0  0  0  0
   -2.2216    1.7655   -1.0128 H   0  0  0  0  0  0  0  0  0  0  0  0
   -1.1154    1.5569   -2.3868 H   0  0  0  0  0  0  0  0  0  0  0  0
   -3.1630    1.3337   -2.8606 N   0  3  0  0  0  0  0  0  0  0  0  0
   -3.5103    0.4894   -3.3135 H   0  0  0  0  0  0  0  0  0  0  0  0
   -3.6770    2.4867   -3.1828 C   0  0  0  0  0  0  0  0  0  0  0  0
   -3.2051    3.6661   -2.6516 N   0  0  0  0  0  0  0  0  0  0  0  0
   -2.3253    3.6396   -2.1396 H   0  0  0  0  0  0  0  0  0  0  0  0
   -3.4742    4.5436   -3.0928 H   0  0  0  0  0  0  0  0  0  0  0  0
   -4.7182    2.5403   -4.0787 N   0  0  0  0  0  0  0  0  0  0  0  0
   -5.1862    1.6760   -4.3438 H   0  0  0  0  0  0  0  0  0  0  0  0
   -5.2364    3.4123   -4.1716 H   0  0  0  0  0  0  0  0  0  0  0  0
    0.1723   -1.4132    1.5710 C   0  0  0  0  0  0  0  0  0  0  0  0
    1.3655   -1.1560    1.6425 O   0  0  0  0  0  0  0  0  0  0  0  0
   -0.6497   -1.0791    2.6332 N   0  0  0  0  0  0  0  0  0  0  0  0
   -1.6066   -1.4109    2.5720 H   0  0  0  0  0  0  0  0  0  0  0  0
   -0.1188   -0.7526    3.9526 C   0  0  0  0  0  0  0  0  0  0  0  0
    0.5451    0.1167    3.8972 H   0  0  0  0  0  0  0  0  0  0  0  0
   -0.9346   -0.5173    4.6427 H   0  0  0  0  0  0  0  0  0  0  0  0
    0.4459   -1.5993    4.3575 H   0  0  0  0  0  0  0  0  0  0  0  0
  1  2  1  0  0  0  0
  2  3  1  0  0  0  0
  2  4  1  0  0  0  0
  2  5  1  0  0  0  0
  5  6  2  0  0  0  0
  5  7  1  0  0  0  0
  7  8  1  0  0  0  0
  7  9  1  0  0  0  0
  9 10  1  0  0  0  0
  9 11  1  0  0  0  0
  9 29  1  0  0  0  0
 11 12  1  0  0  0  0
 11 13  1  0  0  0  0
 11 14  1  0  0  0  0
 14 15  1  0  0  0  0
 14 16  1  0  0  0  0
 14 17  1  0  0  0  0
 17 18  1  0  0  0  0
 17 19  1  0  0  0  0
 17 20  1  0  0  0  0
 20 21  1  0  0  0  0
 20 22  2  0  0  0  0
 22 23  1  0  0  0  0
 22 26  1  0  0  0  0
 23 24  1  0  0  0  0
 23 25  1  0  0  0  0
 26 27  1  0  0  0  0
 26 28  1  0  0  0  0
 29 30  2  0  0  0  0
 29 31  1  0  0  0  0
 31 32  1  0  0  0  0
 31 33  1  0  0  0  0
 33 34  1  0  0  0  0
 33 35  1  0  0  0  0
 33 36  1  0  0  0  0
M  CHG  1  20   1
M  END
$$$$

  -OEChem-04042215563D

 36 35  0     1  0  0  0  0  0999 V2000
   -2.6818   -5.7024    1.0320 H   0  0  0  0  0  0  0  0  0  0  0  0
   -2.8642   -4.7212    0.5837 C   0  0  0  0  0  0  0  0  0  0  0  0
   -3.7118   -4.2568    1.0928 H   0  0  0  0  0  0  0  0  0  0  0  0
   -3.1084   -4.8598   -0.4718 H   0  0  0  0  0  0  0  0  0  0  0  0
   -1.6307   -3.8500    0.7230 C   0  0  0  0  0  0  0  0  0  0  0  0
   -0.6460   -4.2835    1.2898 O   0  0  0  0  0  0  0  0  0  0  0  0
   -1.6307   -2.5616    0.2175 N   0  0  0  0  0  0  0  0  0  0  0  0
   -2.4412   -2.2932   -0.3278 H   0  0  0  0  0  0  0  0  0  0  0  0
   -0.4303   -1.6971    0.1874 C   0  0  1  0  0  0  0  0  0  0  0  0
    0.3405   -2.2649   -0.3478 H   0  0  0  0  0  0  0  0  0  0  0  0
   -0.6244   -0.3670   -0.5889 C   0  0  0  0  0  0  0  0  0  0  0  0
   -0.4075    0.4731    0.0813 H   0  0  0  0  0  0  0  0  0  0  0  0
    0.1279   -0.3347   -1.3848 H   0  0  0  0  0  0  0  0  0  0  0  0
   -2.0097   -0.1319   -1.2101 C   0  0  0  0  0  0  0  0  0  0  0  0
   -2.2374   -0.9291   -1.9259 H   0  0  0  0  0  0  0  0  0  0  0  0
   -2.7742   -0.1309   -0.4258 H   0  0  0  0  0  0  0  0  0  0  0  0
   -1.9980    1.2208   -1.9246 C   0  0  0  0  0  0  0  0  0  0  0  0
   -1.7537    2.0017   -1.1955 H   0  0  0  0  0  0  0  0  0  0  0  0
   -1.2156    1.2089   -2.6919 H   0  0  0  0  0  0  0  0  0  0  0  0
   -3.3044    1.5065   -2.5481 N   0  3  0  0  0  0  0  0  0  0  0  0
   -3.9818    0.7467   -2.5887 H   0  0  0  0  0  0  0  0  0  0  0  0
   -3.6051    2.6565   -3.0826 C   0  0  0  0  0  0  0  0  0  0  0  0
   -2.7154    3.7071   -3.0934 N   0  0  0  0  0  0  0  0  0  0  0  0
   -1.7535    3.5230   -2.8146 H   0  0  0  0  0  0  0  0  0  0  0  0
   -2.8923    4.4946   -3.7141 H   0  0  0  0  0  0  0  0  0  0  0  0
   -4.8397    2.8390   -3.6594 N   0  0  0  0  0  0  0  0  0  0  0  0
   -5.5651    2.1420   -3.5032 H   0  0  0  0  0  0  0  0  0  0  0  0
   -5.1308    3.7861   -3.8961 H   0  0  0  0  0  0  0  0  0  0  0  0
    0.1789   -1.4051    1.5789 C   0  0  0  0  0  0  0  0  0  0  0  0
    1.3749   -1.1628    1.6584 O   0  0  0  0  0  0  0  0  0  0  0  0
   -0.6455   -1.0641    2.6370 N   0  0  0  0  0  0  0  0  0  0  0  0
   -1.6012   -1.3987    2.5716 H   0  0  0  0  0  0  0  0  0  0  0  0
   -0.1159   -0.7585    3.9627 C   0  0  0  0  0  0  0  0  0  0  0  0
    0.5660    0.0975    3.9186 H   0  0  0  0  0  0  0  0  0  0  0  0
   -0.9307   -0.5118    4.6500 H   0  0  0  0  0  0  0  0  0  0  0  0
    0.4292   -1.6193    4.3651 H   0  0  0  0  0  0  0  0  0  0  0  0
  1  2  1  0  0  0  0
  2  3  1  0  0  0  0
  2  4  1  0  0  0  0
  2  5  1  0  0  0  0
  5  6  2  0  0  0  0
  5  7  1  0  0  0  0
  7  8  1  0  0  0  0
  7  9  1  0  0  0  0
  9 10  1  0  0  0  0
  9 11  1  0  0  0  0
  9 29  1  0  0  0  0
 11 12  1  0  0  0  0
 11 13  1  0  0  0  0
 11 14  1  0  0  0  0
 14 15  1  0  0  0  0
 14 16  1  0  0  0  0
 14 17  1  0  0  0  0
 17 18  1  0  0  0  0
 17 19  1  0  0  0  0
 17 20  1  0  0  0  0
 20 21  1  0  0  0  0
 20 22  2  0  0  0  0
 22 23  1  0  0  0  0
 22 26  1  0  0  0  0
 23 24  1  0  0  0  0
 23 25  1  0  0  0  0
 26 27  1  0  0  0  0
 26 28  1  0  0  0  0
 29 30  2  0  0  0  0
 29 31  1  0  0  0  0
 31 32  1  0  0  0  0
 31 33  1  0  0  0  0
 33 34  1  0  0  0  0
 33 35  1  0  0  0  0
 33 36  1  0  0  0  0
M  CHG  1  20   1
M  END
$$$$

  -OEChem-04042215563D

 36 35  0     1  0  0  0  0  0999 V2000
   -2.6699   -5.6873    1.1125 H   0  0  0  0  0  0  0  0  0  0  0  0
   -2.8669   -4.7085    0.6650 C   0  0  0  0  0  0  0  0  0  0  0  0
   -3.6564   -4.2154    1.2367 H   0  0  0  0  0  0  0  0  0  0  0  0
   -3.2047   -4.8565   -0.3632 H   0  0  0  0  0  0  0  0  0  0  0  0
   -1.6042   -3.8683    0.6813 C   0  0  0  0  0  0  0  0  0  0  0  0
   -0.5717   -4.3354    1.1232 O   0  0  0  0  0  0  0  0  0  0  0  0
   -1.6280   -2.5697    0.2037 N   0  0  0  0  0  0  0  0  0  0  0  0
   -2.5167   -2.2205   -0.1352 H   0  0  0  0  0  0  0  0  0  0  0  0
   -0.4444   -1.6836    0.1805 C   0  0  1  0  0  0  0  0  0  0  0  0
    0.3308   -2.2363   -0.3643 H   0  0  0  0  0  0  0  0  0  0  0  0
   -0.6508   -0.3524   -0.5904 C   0  0  0  0  0  0  0  0  0  0  0  0
   -0.4410    0.4923    0.0761 H   0  0  0  0  0  0  0  0  0  0  0  0
    0.1076   -0.3222   -1.3810 H   0  0  0  0  0  0  0  0  0  0  0  0
   -2.0332   -0.1252   -1.2248 C   0  0  0  0  0  0  0  0  0  0  0  0
   -2.3524   -1.0236   -1.7634 H   0  0  0  0  0  0  0  0  0  0  0  0
   -2.7696    0.1019   -0.4462 H   0  0  0  0  0  0  0  0  0  0  0  0
   -1.9260    1.0264   -2.2264 C   0  0  0  0  0  0  0  0  0  0  0  0
   -1.5724    1.9198   -1.6992 H   0  0  0  0  0  0  0  0  0  0  0  0
   -1.1871    0.7627   -2.9916 H   0  0  0  0  0  0  0  0  0  0  0  0
   -3.2279    1.3035   -2.8629 N   0  3  0  0  0  0  0  0  0  0  0  0
   -3.9894    0.6527   -2.6776 H   0  0  0  0  0  0  0  0  0  0  0  0
   -3.4310    2.3111   -3.6640 C   0  0  0  0  0  0  0  0  0  0  0  0
   -2.4295    3.2032   -3.9752 N   0  0  0  0  0  0  0  0  0  0  0  0
   -1.4786    2.9747   -3.6920 H   0  0  0  0  0  0  0  0  0  0  0  0
   -2.5558    3.8263   -4.7704 H   0  0  0  0  0  0  0  0  0  0  0  0
   -4.6727    2.4986   -4.2239 N   0  0  0  0  0  0  0  0  0  0  0  0
   -5.4611    1.9637   -3.8652 H   0  0  0  0  0  0  0  0  0  0  0  0
   -4.8690    3.3857   -4.6846 H   0  0  0  0  0  0  0  0  0  0  0  0
    0.1752   -1.4061    1.5699 C   0  0  0  0  0  0  0  0  0  0  0  0
    1.3691   -1.1523    1.6411 O   0  0  0  0  0  0  0  0  0  0  0  0
   -0.6379   -1.0994    2.6472 N   0  0  0  0  0  0  0  0  0  0  0  0
   -1.5944   -1.4313    2.5886 H   0  0  0  0  0  0  0  0  0  0  0  0
   -0.0949   -0.7946    3.9679 C   0  0  0  0  0  0  0  0  0  0  0  0
    0.5838    0.0636    3.9176 H   0  0  0  0  0  0  0  0  0  0  0  0
   -0.9025   -0.5512    4.6650 H   0  0  0  0  0  0  0  0  0  0  0  0
    0.4577   -1.6545    4.3619 H   0  0  0  0  0  0  0  0  0  0  0  0
  1  2  1  0  0  0  0
  2  3  1  0  0  0  0
  2  4  1  0  0  0  0
  2  5  1  0  0  0  0
  5  6  2  0  0  0  0
  5  7  1  0  0  0  0
  7  8  1  0  0  0  0
  7  9  1  0  0  0  0
  9 10  1  0  0  0  0
  9 11  1  0  0  0  0
  9 29  1  0  0  0  0
 11 12  1  0  0  0  0
 11 13  1  0  0  0  0
 11 14  1  0  0  0  0
 14 15  1  0  0  0  0
 14 16  1  0  0  0  0
 14 17  1  0  0  0  0
 17 18  1  0  0  0  0
 17 19  1  0  0  0  0
 17 20  1  0  0  0  0
 20 21  1  0  0  0  0
 20 22  2  0  0  0  0
 22 23  1  0  0  0  0
 22 26  1  0  0  0  0
 23 24  1  0  0  0  0
 23 25  1  0  0  0  0
 26 27  1  0  0  0  0
 26 28  1  0  0  0  0
 29 30  2  0  0  0  0
 29 31  1  0  0  0  0
 31 32  1  0  0  0  0
 31 33  1  0  0  0  0
 33 34  1  0  0  0  0
 33 35  1  0  0  0  0
 33 36  1  0  0  0  0
M  CHG  1  20   1
M  END
$$$$

  -OEChem-04042215563D

 36 35  0     1  0  0  0  0  0999 V2000
   -2.6178   -5.7018    1.2029 H   0  0  0  0  0  0  0  0  0  0  0  0
   -2.8493   -4.7230    0.7720 C   0  0  0  0  0  0  0  0  0  0  0  0
   -3.5773   -4.2223    1.4141 H   0  0  0  0  0  0  0  0  0  0  0  0
   -3.2838   -4.8716   -0.2192 H   0  0  0  0  0  0  0  0  0  0  0  0
   -1.5851   -3.8912    0.6658 C   0  0  0  0  0  0  0  0  0  0  0  0
   -0.5160   -4.3699    0.9937 O   0  0  0  0  0  0  0  0  0  0  0  0
   -1.6459   -2.5881    0.2035 N   0  0  0  0  0  0  0  0  0  0  0  0
   -2.5695   -2.2083    0.0308 H   0  0  0  0  0  0  0  0  0  0  0  0
   -0.4766   -1.6835    0.1700 C   0  0  1  0  0  0  0  0  0  0  0  0
    0.2949   -2.2273   -0.3890 H   0  0  0  0  0  0  0  0  0  0  0  0
   -0.6920   -0.3494   -0.5950 C   0  0  0  0  0  0  0  0  0  0  0  0
   -0.4761    0.4950    0.0703 H   0  0  0  0  0  0  0  0  0  0  0  0
    0.0710   -0.3221   -1.3812 H   0  0  0  0  0  0  0  0  0  0  0  0
   -2.0730   -0.1048   -1.2348 C   0  0  0  0  0  0  0  0  0  0  0  0
   -2.5193   -1.0461   -1.5680 H   0  0  0  0  0  0  0  0  0  0  0  0
   -2.7444    0.3634   -0.5067 H   0  0  0  0  0  0  0  0  0  0  0  0
   -1.8890    0.7773   -2.4712 C   0  0  0  0  0  0  0  0  0  0  0  0
   -1.4086    1.7146   -2.1677 H   0  0  0  0  0  0  0  0  0  0  0  0
   -1.2266    0.2633   -3.1767 H   0  0  0  0  0  0  0  0  0  0  0  0
   -3.1824    1.0652   -3.1180 N   0  3  0  0  0  0  0  0  0  0  0  0
   -4.0105    0.6116   -2.7357 H   0  0  0  0  0  0  0  0  0  0  0  0
   -3.3031    1.8457   -4.1540 C   0  0  0  0  0  0  0  0  0  0  0  0
   -2.2149    2.4653   -4.7268 N   0  0  0  0  0  0  0  0  0  0  0  0
   -1.2856    2.1862   -4.4180 H   0  0  0  0  0  0  0  0  0  0  0  0
   -2.3109    2.8669   -5.6575 H   0  0  0  0  0  0  0  0  0  0  0  0
   -4.5453    2.0611   -4.7018 N   0  0  0  0  0  0  0  0  0  0  0  0
   -5.3694    1.7653   -4.1822 H   0  0  0  0  0  0  0  0  0  0  0  0
   -4.6535    2.8165   -5.3765 H   0  0  0  0  0  0  0  0  0  0  0  0
    0.1646   -1.4123    1.5499 C   0  0  0  0  0  0  0  0  0  0  0  0
    1.3572   -1.1484    1.6034 O   0  0  0  0  0  0  0  0  0  0  0  0
   -0.6325   -1.1302    2.6454 N   0  0  0  0  0  0  0  0  0  0  0  0
   -1.5946   -1.4461    2.5950 H   0  0  0  0  0  0  0  0  0  0  0  0
   -0.0723   -0.8268    3.9587 C   0  0  0  0  0  0  0  0  0  0  0  0
    0.5668    0.0617    3.9098 H   0  0  0  0  0  0  0  0  0  0  0  0
   -0.8734   -0.6336    4.6785 H   0  0  0  0  0  0  0  0  0  0  0  0
    0.5261   -1.6690    4.3230 H   0  0  0  0  0  0  0  0  0  0  0  0
  1  2  1  0  0  0  0
  2  3  1  0  0  0  0
  2  4  1  0  0  0  0
  2  5  1  0  0  0  0
  5  6  2  0  0  0  0
  5  7  1  0  0  0  0
  7  8  1  0  0  0  0
  7  9  1  0  0  0  0
  9 10  1  0  0  0  0
  9 11  1  0  0  0  0
  9 29  1  0  0  0  0
 11 12  1  0  0  0  0
 11 13  1  0  0  0  0
 11 14  1  0  0  0  0
 14 15  1  0  0  0  0
 14 16  1  0  0  0  0
 14 17  1  0  0  0  0
 17 18  1  0  0  0  0
 17 19  1  0  0  0  0
 17 20  1  0  0  0  0
 20 21  1  0  0  0  0
 20 22  2  0  0  0  0
 22 23  1  0  0  0  0
 22 26  1  0  0  0  0
 23 24  1  0  0  0  0
 23 25  1  0  0  0  0
 26 27  1  0  0  0  0
 26 28  1  0  0  0  0
 29 30  2  0  0  0  0
 29 31  1  0  0  0  0
 31 32  1  0  0  0  0
 31 33  1  0  0  0  0
 33 34  1  0  0  0  0
 33 35  1  0  0  0  0
 33 36  1  0  0  0  0
M  CHG  1  20   1
M  END
$$$$

  -OEChem-04042215563D

 36 35  0     1  0  0  0  0  0999 V2000
   -2.5844   -5.7101    1.2596 H   0  0  0  0  0  0  0  0  0  0  0  0
   -2.8385   -4.7268    0.8523 C   0  0  0  0  0  0  0  0  0  0  0  0
   -3.5170   -4.2260    1.5465 H   0  0  0  0  0  0  0  0  0  0  0  0
   -3.3416   -4.8646   -0.1076 H   0  0  0  0  0  0  0  0  0  0  0  0
   -1.5791   -3.9025    0.6657 C   0  0  0  0  0  0  0  0  0  0  0  0
   -0.4926   -4.3897    0.9144 O   0  0  0  0  0  0  0  0  0  0  0  0
   -1.6650   -2.5964    0.2169 N   0  0  0  0  0  0  0  0  0  0  0  0
   -2.5982   -2.2056    0.1515 H   0  0  0  0  0  0  0  0  0  0  0  0
   -0.5051   -1.6806    0.1740 C   0  0  1  0  0  0  0  0  0  0  0  0
    0.2630   -2.2212   -0.3932 H   0  0  0  0  0  0  0  0  0  0  0  0
   -0.7241   -0.3492   -0.5975 C   0  0  0  0  0  0  0  0  0  0  0  0
   -0.5167    0.4924    0.0736 H   0  0  0  0  0  0  0  0  0  0  0  0
    0.0522   -0.3136   -1.3701 H   0  0  0  0  0  0  0  0  0  0  0  0
   -2.1013   -0.0890   -1.2504 C   0  0  0  0  0  0  0  0  0  0  0  0
   -2.6902   -1.0042   -1.3404 H   0  0  0  0  0  0  0  0  0  0  0  0
   -2.6676    0.6219   -0.6387 H   0  0  0  0  0  0  0  0  0  0  0  0
   -1.8825    0.4578   -2.6631 C   0  0  0  0  0  0  0  0  0  0  0  0
   -1.2676    1.3630   -2.5996 H   0  0  0  0  0  0  0  0  0  0  0  0
   -1.3370   -0.2894   -3.2506 H   0  0  0  0  0  0  0  0  0  0  0  0
   -3.1654    0.7730   -3.3181 N   0  3  0  0  0  0  0  0  0  0  0  0
   -4.0183    0.5947   -2.7902 H   0  0  0  0  0  0  0  0  0  0  0  0
   -3.2478    1.2702   -4.5195 C   0  0  0  0  0  0  0  0  0  0  0  0
   -2.1261    1.5238   -5.2770 N   0  0  0  0  0  0  0  0  0  0  0  0
   -1.2314    1.1696   -4.9437 H   0  0  0  0  0  0  0  0  0  0  0  0
   -2.2335    1.6946   -6.2750 H   0  0  0  0  0  0  0  0  0  0  0  0
   -4.4812    1.5519   -5.0571 N   0  0  0  0  0  0  0  0  0  0  0  0
   -5.2971    1.5412   -4.4483 H   0  0  0  0  0  0  0  0  0  0  0  0
   -4.5240    2.1200   -5.9014 H   0  0  0  0  0  0  0  0  0  0  0  0
    0.1569   -1.4151    1.5455 C   0  0  0  0  0  0  0  0  0  0  0  0
    1.3505   -1.1536    1.5832 O   0  0  0  0  0  0  0  0  0  0  0  0
   -0.6215   -1.1500    2.6586 N   0  0  0  0  0  0  0  0  0  0  0  0
   -1.5863   -1.4588    2.6212 H   0  0  0  0  0  0  0  0  0  0  0  0
   -0.0389   -0.8545    3.9640 C   0  0  0  0  0  0  0  0  0  0  0  0
    0.5807    0.0474    3.9142 H   0  0  0  0  0  0  0  0  0  0  0  0
   -0.8276   -0.6883    4.7039 H   0  0  0  0  0  0  0  0  0  0  0  0
    0.5848   -1.6892    4.3025 H   0  0  0  0  0  0  0  0  0  0  0  0
  1  2  1  0  0  0  0
  2  3  1  0  0  0  0
  2  4  1  0  0  0  0
  2  5  1  0  0  0  0
  5  6  2  0  0  0  0
  5  7  1  0  0  0  0
  7  8  1  0  0  0  0
  7  9  1  0  0  0  0
  9 10  1  0  0  0  0
  9 11  1  0  0  0  0
  9 29  1  0  0  0  0
 11 12  1  0  0  0  0
 11 13  1  0  0  0  0
 11 14  1  0  0  0  0
 14 15  1  0  0  0  0
 14 16  1  0  0  0  0
 14 17  1  0  0  0  0
 17 18  1  0  0  0  0
 17 19  1  0  0  0  0
 17 20  1  0  0  0  0
 20 21  1  0  0  0  0
 20 22  2  0  0  0  0
 22 23  1  0  0  0  0
 22 26  1  0  0  0  0
 23 24  1  0  0  0  0
 23 25  1  0  0  0  0
 26 27  1  0  0  0  0
 26 28  1  0  0  0  0
 29 30  2  0  0  0  0
 29 31  1  0  0  0  0
 31 32  1  0  0  0  0
 31 33  1  0  0  0  0
 33 34  1  0  0  0  0
 33 35  1  0  0  0  0
 33 36  1  0  0  0  0
M  CHG  1  20   1
M  END
$$$$

  -OEChem-04042215563D

 36 35  0     1  0  0  0  0  0999 V2000
   -2.5784   -5.7086    1.2949 H   0  0  0  0  0  0  0  0  0  0  0  0
   -2.8402   -4.7210    0.9034 C   0  0  0  0  0  0  0  0  0  0  0  0
   -3.4829   -4.2176    1.6290 H   0  0  0  0  0  0  0  0  0  0  0  0
   -3.3867   -4.8494   -0.0338 H   0  0  0  0  0  0  0  0  0  0  0  0
   -1.5821   -3.9078    0.6655 C   0  0  0  0  0  0  0  0  0  0  0  0
   -0.4913   -4.4065    0.8678 O   0  0  0  0  0  0  0  0  0  0  0  0
   -1.6737   -2.5998    0.2224 N   0  0  0  0  0  0  0  0  0  0  0  0
   -2.6058   -2.2017    0.2049 H   0  0  0  0  0  0  0  0  0  0  0  0
   -0.5125   -1.6857    0.1755 C   0  0  1  0  0  0  0  0  0  0  0  0
    0.2504   -2.2284   -0.3964 H   0  0  0  0  0  0  0  0  0  0  0  0
   -0.7241   -0.3541   -0.5989 C   0  0  0  0  0  0  0  0  0  0  0  0
   -0.5367    0.4748    0.0937 H   0  0  0  0  0  0  0  0  0  0  0  0
    0.0672   -0.2898   -1.3545 H   0  0  0  0  0  0  0  0  0  0  0  0
   -2.0980   -0.0798   -1.2569 C   0  0  0  0  0  0  0  0  0  0  0  0
   -2.8212   -0.8771   -1.0789 H   0  0  0  0  0  0  0  0  0  0  0  0
   -2.5141    0.8403   -0.8314 H   0  0  0  0  0  0  0  0  0  0  0  0
   -1.9015    0.0950   -2.7646 C   0  0  0  0  0  0  0  0  0  0  0  0
   -1.1620    0.8857   -2.9341 H   0  0  0  0  0  0  0  0  0  0  0  0
   -1.5080   -0.8405   -3.1780 H   0  0  0  0  0  0  0  0  0  0  0  0
   -3.1679    0.4483   -3.4327 N   0  3  0  0  0  0  0  0  0  0  0  0
   -3.9903    0.5733   -2.8444 H   0  0  0  0  0  0  0  0  0  0  0  0
   -3.2698    0.6261   -4.7194 C   0  0  0  0  0  0  0  0  0  0  0  0
   -2.1915    0.4735   -5.5622 N   0  0  0  0  0  0  0  0  0  0  0  0
   -1.3370    0.0682   -5.1847 H   0  0  0  0  0  0  0  0  0  0  0  0
   -2.3537    0.4067   -6.5651 H   0  0  0  0  0  0  0  0  0  0  0  0
   -4.4828    0.9739   -5.2645 N   0  0  0  0  0  0  0  0  0  0  0  0
   -5.2316    1.2761   -4.6447 H   0  0  0  0  0  0  0  0  0  0  0  0
   -4.5059    1.2948   -6.2309 H   0  0  0  0  0  0  0  0  0  0  0  0
    0.1588   -1.4282    1.5443 C   0  0  0  0  0  0  0  0  0  0  0  0
    1.3538   -1.1729    1.5766 O   0  0  0  0  0  0  0  0  0  0  0  0
   -0.6120   -1.1672    2.6638 N   0  0  0  0  0  0  0  0  0  0  0  0
   -1.5820   -1.4594    2.6286 H   0  0  0  0  0  0  0  0  0  0  0  0
   -0.0243   -0.8658    3.9654 C   0  0  0  0  0  0  0  0  0  0  0  0
    0.5873    0.0413    3.9103 H   0  0  0  0  0  0  0  0  0  0  0  0
   -0.8105   -0.7051    4.7095 H   0  0  0  0  0  0  0  0  0  0  0  0
    0.6077   -1.6950    4.3019 H   0  0  0  0  0  0  0  0  0  0  0  0
  1  2  1  0  0  0  0
  2  3  1  0  0  0  0
  2  4  1  0  0  0  0
  2  5  1  0  0  0  0
  5  6  2  0  0  0  0
  5  7  1  0  0  0  0
  7  8  1  0  0  0  0
  7  9  1  0  0  0  0
  9 10  1  0  0  0  0
  9 11  1  0  0  0  0
  9 29  1  0  0  0  0
 11 12  1  0  0  0  0
 11 13  1  0  0  0  0
 11 14  1  0  0  0  0
 14 15  1  0  0  0  0
 14 16  1  0  0  0  0
 14 17  1  0  0  0  0
 17 18  1  0  0  0  0
 17 19  1  0  0  0  0
 17 20  1  0  0  0  0
 20 21  1  0  0  0  0
 20 22  2  0  0  0  0
 22 23  1  0  0  0  0
 22 26  1  0  0  0  0
 23 24  1  0  0  0  0
 23 25  1  0  0  0  0
 26 27  1  0  0  0  0
 26 28  1  0  0  0  0
 29 30  2  0  0  0  0
 29 31  1  0  0  0  0
 31 32  1  0  0  0  0
 31 33  1  0  0  0  0
 33 34  1  0  0  0  0
 33 35  1  0  0  0  0
 33 36  1  0  0  0  0
M  CHG  1  20   1
M  END
$$$$

  -OEChem-04042215563D

 36 35  0     1  0  0  0  0  0999 V2000
   -2.6546   -5.6349    1.3260 H   0  0  0  0  0  0  0  0  0  0  0  0
   -2.8947   -4.6638    0.8825 C   0  0  0  0  0  0  0  0  0  0  0  0
   -3.5432   -4.1178    1.5713 H   0  0  0  0  0  0  0  0  0  0  0  0
   -3.4254   -4.8299   -0.0578 H   0  0  0  0  0  0  0  0  0  0  0  0
   -1.6201   -3.8814    0.6291 C   0  0  0  0  0  0  0  0  0  0  0  0
   -0.5398   -4.4132    0.8008 O   0  0  0  0  0  0  0  0  0  0  0  0
   -1.6838   -2.5669    0.2002 N   0  0  0  0  0  0  0  0  0  0  0  0
   -2.6049   -2.1439    0.2137 H   0  0  0  0  0  0  0  0  0  0  0  0
   -0.5008   -1.6794    0.1759 C   0  0  1  0  0  0  0  0  0  0  0  0
    0.2549   -2.2323   -0.3955 H   0  0  0  0  0  0  0  0  0  0  0  0
   -0.6786   -0.3401   -0.5916 C   0  0  0  0  0  0  0  0  0  0  0  0
   -0.5045    0.4725    0.1231 H   0  0  0  0  0  0  0  0  0  0  0  0
    0.1250   -0.2586   -1.3320 H   0  0  0  0  0  0  0  0  0  0  0  0
   -2.0422   -0.0491   -1.2562 C   0  0  0  0  0  0  0  0  0  0  0  0
   -2.8543   -0.6554   -0.8500 H   0  0  0  0  0  0  0  0  0  0  0  0
   -2.2980    0.9986   -1.0622 H   0  0  0  0  0  0  0  0  0  0  0  0
   -1.9138   -0.2447   -2.7682 C   0  0  0  0  0  0  0  0  0  0  0  0
   -1.0809    0.3661   -3.1351 H   0  0  0  0  0  0  0  0  0  0  0  0
   -1.6832   -1.2973   -2.9692 H   0  0  0  0  0  0  0  0  0  0  0  0
   -3.1569    0.1438   -3.4607 N   0  3  0  0  0  0  0  0  0  0  0  0
   -3.8513    0.6606   -2.9230 H   0  0  0  0  0  0  0  0  0  0  0  0
   -3.3678   -0.0773   -4.7271 C   0  0  0  0  0  0  0  0  0  0  0  0
   -2.4382   -0.7159   -5.5166 N   0  0  0  0  0  0  0  0  0  0  0  0
   -1.5066   -0.8635   -5.1326 H   0  0  0  0  0  0  0  0  0  0  0  0
   -2.5350   -0.6618   -6.5288 H   0  0  0  0  0  0  0  0  0  0  0  0
   -4.5452    0.3363   -5.3038 N   0  0  0  0  0  0  0  0  0  0  0  0
   -5.3047    0.6531   -4.7042 H   0  0  0  0  0  0  0  0  0  0  0  0
   -4.7807   -0.0086   -6.2330 H   0  0  0  0  0  0  0  0  0  0  0  0
    0.1655   -1.4518    1.5526 C   0  0  0  0  0  0  0  0  0  0  0  0
    1.3678   -1.2377    1.5976 O   0  0  0  0  0  0  0  0  0  0  0  0
   -0.6048   -1.1844    2.6710 N   0  0  0  0  0  0  0  0  0  0  0  0
   -1.5854   -1.4366    2.6253 H   0  0  0  0  0  0  0  0  0  0  0  0
   -0.0186   -0.9031    3.9780 C   0  0  0  0  0  0  0  0  0  0  0  0
    0.6143   -0.0102    3.9318 H   0  0  0  0  0  0  0  0  0  0  0  0
   -0.8054   -0.7278    4.7181 H   0  0  0  0  0  0  0  0  0  0  0  0
    0.5923   -1.7480    4.3143 H   0  0  0  0  0  0  0  0  0  0  0  0
  1  2  1  0  0  0  0
  2  3  1  0  0  0  0
  2  4  1  0  0  0  0
  2  5  1  0  0  0  0
  5  6  2  0  0  0  0
  5  7  1  0  0  0  0
  7  8  1  0  0  0  0
  7  9  1  0  0  0  0
  9 10  1  0  0  0  0
  9 11  1  0  0  0  0
  9 29  1  0  0  0  0
 11 12  1  0  0  0  0
 11 13  1  0  0  0  0
 11 14  1  0  0  0  0
 14 15  1  0  0  0  0
 14 16  1  0  0  0  0
 14 17  1  0  0  0  0
 17 18  1  0  0  0  0
 17 19  1  0  0  0  0
 17 20  1  0  0  0  0
 20 21  1  0  0  0  0
 20 22  2  0  0  0  0
 22 23  1  0  0  0  0
 22 26  1  0  0  0  0
 23 24  1  0  0  0  0
 23 25  1  0  0  0  0
 26 27  1  0  0  0  0
 26 28  1  0  0  0  0
 29 30  2  0  0  0  0
 29 31  1  0  0  0  0
 31 32  1  0  0  0  0
 31 33  1  0  0  0  0
 33 34  1  0  0  0  0
 33 35  1  0  0  0  0
 33 36  1  0  0  0  0
M  CHG  1  20   1
M  END
$$$$

  -OEChem-04042215563D

 36 35  0     1  0  0  0  0  0999 V2000
   -2.7072   -5.5966    1.2685 H   0  0  0  0  0  0  0  0  0  0  0  0
   -2.9315   -4.5978    0.8823 C   0  0  0  0  0  0  0  0  0  0  0  0
   -3.5247   -4.0620    1.6268 H   0  0  0  0  0  0  0  0  0  0  0  0
   -3.5132   -4.7006   -0.0364 H   0  0  0  0  0  0  0  0  0  0  0  0
   -1.6419   -3.8497    0.6025 C   0  0  0  0  0  0  0  0  0  0  0  0
   -0.5728   -4.4121    0.7434 O   0  0  0  0  0  0  0  0  0  0  0  0
   -1.6802   -2.5327    0.1786 N   0  0  0  0  0  0  0  0  0  0  0  0
   -2.5907   -2.0881    0.2147 H   0  0  0  0  0  0  0  0  0  0  0  0
   -0.4810   -1.6661    0.1751 C   0  0  1  0  0  0  0  0  0  0  0  0
    0.2743   -2.2259   -0.3906 H   0  0  0  0  0  0  0  0  0  0  0  0
   -0.6411   -0.3267   -0.5920 C   0  0  0  0  0  0  0  0  0  0  0  0
   -0.4748    0.4856    0.1250 H   0  0  0  0  0  0  0  0  0  0  0  0
    0.1616   -0.2430   -1.3332 H   0  0  0  0  0  0  0  0  0  0  0  0
   -2.0032   -0.0533   -1.2562 C   0  0  0  0  0  0  0  0  0  0  0  0
   -2.8382   -0.4542   -0.6761 H   0  0  0  0  0  0  0  0  0  0  0  0
   -2.1423    1.0322   -1.3098 H   0  0  0  0  0  0  0  0  0  0  0  0
   -1.9786   -0.6098   -2.6807 C   0  0  0  0  0  0  0  0  0  0  0  0
   -1.1142   -0.1924   -3.2097 H   0  0  0  0  0  0  0  0  0  0  0  0
   -1.8592   -1.6982   -2.6317 H   0  0  0  0  0  0  0  0  0  0  0  0
   -3.2166   -0.2649   -3.4037 N   0  3  0  0  0  0  0  0  0  0  0  0
   -3.8185    0.4447   -2.9880 H   0  0  0  0  0  0  0  0  0  0  0  0
   -3.5214   -0.7529   -4.5727 C   0  0  0  0  0  0  0  0  0  0  0  0
   -2.7129   -1.6653   -5.2129 N   0  0  0  0  0  0  0  0  0  0  0  0
   -1.7829   -1.8297   -4.8318 H   0  0  0  0  0  0  0  0  0  0  0  0
   -2.8582   -1.8342   -6.2065 H   0  0  0  0  0  0  0  0  0  0  0  0
   -4.6783   -0.3512   -5.1970 N   0  0  0  0  0  0  0  0  0  0  0  0
   -5.3599    0.1943   -4.6732 H   0  0  0  0  0  0  0  0  0  0  0  0
   -5.0044   -0.8769   -6.0064 H   0  0  0  0  0  0  0  0  0  0  0  0
    0.1730   -1.4547    1.5598 C   0  0  0  0  0  0  0  0  0  0  0  0
    1.3801   -1.2758    1.6219 O   0  0  0  0  0  0  0  0  0  0  0  0
   -0.6035   -1.1772    2.6716 N   0  0  0  0  0  0  0  0  0  0  0  0
   -1.5927   -1.3888    2.6102 H   0  0  0  0  0  0  0  0  0  0  0  0
   -0.0255   -0.9227    3.9878 C   0  0  0  0  0  0  0  0  0  0  0  0
    0.6234   -0.0405    3.9589 H   0  0  0  0  0  0  0  0  0  0  0  0
   -0.8160   -0.7438    4.7233 H   0  0  0  0  0  0  0  0  0  0  0  0
    0.5674   -1.7827    4.3184 H   0  0  0  0  0  0  0  0  0  0  0  0
  1  2  1  0  0  0  0
  2  3  1  0  0  0  0
  2  4  1  0  0  0  0
  2  5  1  0  0  0  0
  5  6  2  0  0  0  0
  5  7  1  0  0  0  0
  7  8  1  0  0  0  0
  7  9  1  0  0  0  0
  9 10  1  0  0  0  0
  9 11  1  0  0  0  0
  9 29  1  0  0  0  0
 11 12  1  0  0  0  0
 11 13  1  0  0  0  0
 11 14  1  0  0  0  0
 14 15  1  0  0  0  0
 14 16  1  0  0  0  0
 14 17  1  0  0  0  0
 17 18  1  0  0  0  0
 17 19  1  0  0  0  0
 17 20  1  0  0  0  0
 20 21  1  0  0  0  0
 20 22  2  0  0  0  0
 22 23  1  0  0  0  0
 22 26  1  0  0  0  0
 23 24  1  0  0  0  0
 23 25  1  0  0  0  0
 26 27  1  0  0  0  0
 26 28  1  0  0  0  0
 29 30  2  0  0  0  0
 29 31  1  0  0  0  0
 31 32  1  0  0  0  0
 31 33  1  0  0  0  0
 33 34  1  0  0  0  0
 33 35  1  0  0  0  0
 33 36  1  0  0  0  0
M  CHG  1  20   1
M  END
$$$$

  -OEChem-04042215563D

 36 35  0     1  0  0  0  0  0999 V2000
   -2.7265   -5.5792    1.2602 H   0  0  0  0  0  0  0  0  0  0  0  0
   -2.9427   -4.5615    0.9208 C   0  0  0  0  0  0  0  0  0  0  0  0
   -3.4831   -4.0380    1.7130 H   0  0  0  0  0  0  0  0  0  0  0  0
   -3.5719   -4.6160    0.0298 H   0  0  0  0  0  0  0  0  0  0  0  0
   -1.6487   -3.8365    0.6034 C   0  0  0  0  0  0  0  0  0  0  0  0
   -0.5870   -4.4200    0.7062 O   0  0  0  0  0  0  0  0  0  0  0  0
   -1.6753   -2.5209    0.1745 N   0  0  0  0  0  0  0  0  0  0  0  0
   -2.5771   -2.0619    0.2433 H   0  0  0  0  0  0  0  0  0  0  0  0
   -0.4664   -1.6665    0.1805 C   0  0  1  0  0  0  0  0  0  0  0  0
    0.2899   -2.2346   -0.3760 H   0  0  0  0  0  0  0  0  0  0  0  0
   -0.6117   -0.3299   -0.5948 C   0  0  0  0  0  0  0  0  0  0  0  0
   -0.4355    0.4923    0.1082 H   0  0  0  0  0  0  0  0  0  0  0  0
    0.1859   -0.2692   -1.3439 H   0  0  0  0  0  0  0  0  0  0  0  0
   -1.9681   -0.0633   -1.2681 C   0  0  0  0  0  0  0  0  0  0  0  0
   -2.7962   -0.2463   -0.5768 H   0  0  0  0  0  0  0  0  0  0  0  0
   -2.0093    0.9927   -1.5576 H   0  0  0  0  0  0  0  0  0  0  0  0
   -2.0828   -0.9319   -2.5236 C   0  0  0  0  0  0  0  0  0  0  0  0
   -1.2110   -0.7456   -3.1611 H   0  0  0  0  0  0  0  0  0  0  0  0
   -2.0724   -1.9874   -2.2303 H   0  0  0  0  0  0  0  0  0  0  0  0
   -3.3165   -0.6246   -3.2702 N   0  3  0  0  0  0  0  0  0  0  0  0
   -3.8185    0.2251   -3.0153 H   0  0  0  0  0  0  0  0  0  0  0  0
   -3.7293   -1.3301   -4.2846 C   0  0  0  0  0  0  0  0  0  0  0  0
   -3.0523   -2.4511   -4.7104 N   0  0  0  0  0  0  0  0  0  0  0  0
   -2.1236   -2.6204   -4.3278 H   0  0  0  0  0  0  0  0  0  0  0  0
   -3.2633   -2.8281   -5.6325 H   0  0  0  0  0  0  0  0  0  0  0  0
   -4.8678   -0.9543   -4.9575 N   0  0  0  0  0  0  0  0  0  0  0  0
   -5.4578   -0.2219   -4.5674 H   0  0  0  0  0  0  0  0  0  0  0  0
   -5.2845   -1.6062   -5.6202 H   0  0  0  0  0  0  0  0  0  0  0  0
    0.1760   -1.4576    1.5711 C   0  0  0  0  0  0  0  0  0  0  0  0
    1.3861   -1.3098    1.6477 O   0  0  0  0  0  0  0  0  0  0  0  0
   -0.6061   -1.1683    2.6762 N   0  0  0  0  0  0  0  0  0  0  0  0
   -1.6016   -1.3421    2.6018 H   0  0  0  0  0  0  0  0  0  0  0  0
   -0.0366   -0.9262    3.9988 C   0  0  0  0  0  0  0  0  0  0  0  0
    0.6214   -0.0508    3.9802 H   0  0  0  0  0  0  0  0  0  0  0  0
   -0.8311   -0.7429    4.7286 H   0  0  0  0  0  0  0  0  0  0  0  0
    0.5447   -1.7936    4.3299 H   0  0  0  0  0  0  0  0  0  0  0  0
  1  2  1  0  0  0  0
  2  3  1  0  0  0  0
  2  4  1  0  0  0  0
  2  5  1  0  0  0  0
  5  6  2  0  0  0  0
  5  7  1  0  0  0  0
  7  8  1  0  0  0  0
  7  9  1  0  0  0  0
  9 10  1  0  0  0  0
  9 11  1  0  0  0  0
  9 29  1  0  0  0  0
 11 12  1  0  0  0  0
 11 13  1  0  0  0  0
 11 14  1  0  0  0  0
 14 15  1  0  0  0  0
 14 16  1  0  0  0  0
 14 17  1  0  0  0  0
 17 18  1  0  0  0  0
 17 19  1  0  0  0  0
 17 20  1  0  0  0  0
 20 21  1  0  0  0  0
 20 22  2  0  0  0  0
 22 23  1  0  0  0  0
 22 26  1  0  0  0  0
 23 24  1  0  0  0  0
 23 25  1  0  0  0  0
 26 27  1  0  0  0  0
 26 28  1  0  0  0  0
 29 30  2  0  0  0  0
 29 31  1  0  0  0  0
 31 32  1  0  0  0  0
 31 33  1  0  0  0  0
 33 34  1  0  0  0  0
 33 35  1  0  0  0  0
 33 36  1  0  0  0  0
M  CHG  1  20   1
M  END
$$$$

  -OEChem-04042215563D

 36 35  0     1  0  0  0  0  0999 V2000
   -2.5676   -5.6800    1.6214 H   0  0  0  0  0  0  0  0  0  0  0  0
   -2.8313   -4.6759    1.2757 C   0  0  0  0  0  0  0  0  0  0  0  0
   -3.3132   -4.1406    2.0970 H   0  0  0  0  0  0  0  0  0  0  0  0
   -3.5321   -4.7660    0.4429 H   0  0  0  0  0  0  0  0  0  0  0  0
   -1.5828   -3.9371    0.8329 C   0  0  0  0  0  0  0  0  0  0  0  0
   -0.5005   -4.4881    0.8909 O   0  0  0  0  0  0  0  0  0  0  0  0
   -1.6755   -2.6469    0.3403 N   0  0  0  0  0  0  0  0  0  0  0  0
   -2.5824   -2.2071    0.4566 H   0  0  0  0  0  0  0  0  0  0  0  0
   -0.4973   -1.7583    0.2431 C   0  0  1  0  0  0  0  0  0  0  0  0
    0.2485   -2.3347   -0.3183 H   0  0  0  0  0  0  0  0  0  0  0  0
   -0.7045   -0.4640   -0.5917 C   0  0  0  0  0  0  0  0  0  0  0  0
   -0.4966    0.3984    0.0525 H   0  0  0  0  0  0  0  0  0  0  0  0
    0.0573   -0.4483   -1.3791 H   0  0  0  0  0  0  0  0  0  0  0  0
   -2.0784   -0.2177   -1.2425 C   0  0  0  0  0  0  0  0  0  0  0  0
   -2.8486   -0.1357   -0.4688 H   0  0  0  0  0  0  0  0  0  0  0  0
   -2.0359    0.7402   -1.7731 H   0  0  0  0  0  0  0  0  0  0  0  0
   -2.4387   -1.3357   -2.2286 C   0  0  0  0  0  0  0  0  0  0  0  0
   -1.5658   -1.5300   -2.8615 H   0  0  0  0  0  0  0  0  0  0  0  0
   -2.6777   -2.2544   -1.6860 H   0  0  0  0  0  0  0  0  0  0  0  0
   -3.5825   -0.9426   -3.0717 N   0  3  0  0  0  0  0  0  0  0  0  0
   -4.0622   -0.0745   -2.8370 H   0  0  0  0  0  0  0  0  0  0  0  0
   -3.9645   -1.6218   -4.1157 C   0  0  0  0  0  0  0  0  0  0  0  0
   -3.3276   -2.7807   -4.4996 N   0  0  0  0  0  0  0  0  0  0  0  0
   -2.4408   -3.0081   -4.0536 H   0  0  0  0  0  0  0  0  0  0  0  0
   -3.4974   -3.1449   -5.4352 H   0  0  0  0  0  0  0  0  0  0  0  0
   -5.0304   -1.1809   -4.8635 N   0  0  0  0  0  0  0  0  0  0  0  0
   -5.6068   -0.4214   -4.5060 H   0  0  0  0  0  0  0  0  0  0  0  0
   -5.4403   -1.8118   -5.5504 H   0  0  0  0  0  0  0  0  0  0  0  0
    0.2035   -1.4600    1.5883 C   0  0  0  0  0  0  0  0  0  0  0  0
    1.4100   -1.2692    1.5978 O   0  0  0  0  0  0  0  0  0  0  0  0
   -0.5344   -1.1380    2.7146 N   0  0  0  0  0  0  0  0  0  0  0  0
   -1.5272   -1.3402    2.6985 H   0  0  0  0  0  0  0  0  0  0  0  0
    0.0867   -0.7799    3.9866 C   0  0  0  0  0  0  0  0  0  0  0  0
    0.7037    0.1183    3.8740 H   0  0  0  0  0  0  0  0  0  0  0  0
   -0.6793   -0.5777    4.7414 H   0  0  0  0  0  0  0  0  0  0  0  0
    0.7208   -1.5973    4.3471 H   0  0  0  0  0  0  0  0  0  0  0  0
  1  2  1  0  0  0  0
  2  3  1  0  0  0  0
  2  4  1  0  0  0  0
  2  5  1  0  0  0  0
  5  6  2  0  0  0  0
  5  7  1  0  0  0  0
  7  8  1  0  0  0  0
  7  9  1  0  0  0  0
  9 10  1  0  0  0  0
  9 11  1  0  0  0  0
  9 29  1  0  0  0  0
 11 12  1  0  0  0  0
 11 13  1  0  0  0  0
 11 14  1  0  0  0  0
 14 15  1  0  0  0  0
 14 16  1  0  0  0  0
 14 17  1  0  0  0  0
 17 18  1  0  0  0  0
 17 19  1  0  0  0  0
 17 20  1  0  0  0  0
 20 21  1  0  0  0  0
 20 22  2  0  0  0  0
 22 23  1  0  0  0  0
 22 26  1  0  0  0  0
 23 24  1  0  0  0  0
 23 25  1  0  0  0  0
 26 27  1  0  0  0  0
 26 28  1  0  0  0  0
 29 30  2  0  0  0  0
 29 31  1  0  0  0  0
 31 32  1  0  0  0  0
 31 33  1  0  0  0  0
 33 34  1  0  0  0  0
 33 35  1  0  0  0  0
 33 36  1  0  0  0  0
M  CHG  1  20   1
M  END
$$$$

  -OEChem-04042215563D

 36 35  0     1  0  0  0  0  0999 V2000
   -2.3404   -5.8044    1.9545 H   0  0  0  0  0  0  0  0  0  0  0  0
   -2.6686   -4.8058    1.6500 C   0  0  0  0  0  0  0  0  0  0  0  0
   -3.0583   -4.2851    2.5278 H   0  0  0  0  0  0  0  0  0  0  0  0
   -3.4650   -4.9109    0.9100 H   0  0  0  0  0  0  0  0  0  0  0  0
   -1.5026   -4.0354    1.0599 C   0  0  0  0  0  0  0  0  0  0  0  0
   -0.3987   -4.5437    1.0231 O   0  0  0  0  0  0  0  0  0  0  0  0
   -1.6983   -2.7692    0.5347 N   0  0  0  0  0  0  0  0  0  0  0  0
   -2.6014   -2.3561    0.7419 H   0  0  0  0  0  0  0  0  0  0  0  0
   -0.5734   -1.8440    0.2812 C   0  0  1  0  0  0  0  0  0  0  0  0
    0.1325   -2.4194   -0.3306 H   0  0  0  0  0  0  0  0  0  0  0  0
   -0.8936   -0.5816   -0.5719 C   0  0  0  0  0  0  0  0  0  0  0  0
   -0.6189    0.3075    0.0072 H   0  0  0  0  0  0  0  0  0  0  0  0
   -0.2146   -0.6052   -1.4314 H   0  0  0  0  0  0  0  0  0  0  0  0
   -2.3159   -0.3352   -1.1209 C   0  0  0  0  0  0  0  0  0  0  0  0
   -2.9573    0.0235   -0.3090 H   0  0  0  0  0  0  0  0  0  0  0  0
   -2.2477    0.4678   -1.8636 H   0  0  0  0  0  0  0  0  0  0  0  0
   -2.9635   -1.5721   -1.7529 C   0  0  0  0  0  0  0  0  0  0  0  0
   -2.1807   -2.1552   -2.2482 H   0  0  0  0  0  0  0  0  0  0  0  0
   -3.4131   -2.1988   -0.9770 H   0  0  0  0  0  0  0  0  0  0  0  0
   -3.9956   -1.1709   -2.7282 N   0  3  0  0  0  0  0  0  0  0  0  0
   -4.5676   -0.3605   -2.4929 H   0  0  0  0  0  0  0  0  0  0  0  0
   -4.1991   -1.7835   -3.8604 C   0  0  0  0  0  0  0  0  0  0  0  0
   -3.4537   -2.8751   -4.2467 N   0  0  0  0  0  0  0  0  0  0  0  0
   -2.6182   -3.1005   -3.7100 H   0  0  0  0  0  0  0  0  0  0  0  0
   -3.4898   -3.1721   -5.2199 H   0  0  0  0  0  0  0  0  0  0  0  0
   -5.1859   -1.3334   -4.7052 N   0  0  0  0  0  0  0  0  0  0  0  0
   -5.8510   -0.6412   -4.3659 H   0  0  0  0  0  0  0  0  0  0  0  0
   -5.4643   -1.9214   -5.4889 H   0  0  0  0  0  0  0  0  0  0  0  0
    0.2480   -1.4724    1.5373 C   0  0  0  0  0  0  0  0  0  0  0  0
    1.4400   -1.2338    1.4166 O   0  0  0  0  0  0  0  0  0  0  0  0
   -0.3873   -1.1363    2.7205 N   0  0  0  0  0  0  0  0  0  0  0  0
   -1.3689   -1.3715    2.8095 H   0  0  0  0  0  0  0  0  0  0  0  0
    0.3376   -0.6949    3.9081 C   0  0  0  0  0  0  0  0  0  0  0  0
    0.9122    0.2124    3.6930 H   0  0  0  0  0  0  0  0  0  0  0  0
   -0.3612   -0.4734    4.7205 H   0  0  0  0  0  0  0  0  0  0  0  0
    1.0278   -1.4747    4.2472 H   0  0  0  0  0  0  0  0  0  0  0  0
  1  2  1  0  0  0  0
  2  3  1  0  0  0  0
  2  4  1  0  0  0  0
  2  5  1  0  0  0  0
  5  6  2  0  0  0  0
  5  7  1  0  0  0  0
  7  8  1  0  0  0  0
  7  9  1  0  0  0  0
  9 10  1  0  0  0  0
  9 11  1  0  0  0  0
  9 29  1  0  0  0  0
 11 12  1  0  0  0  0
 11 13  1  0  0  0  0
 11 14  1  0  0  0  0
 14 15  1  0  0  0  0
 14 16  1  0  0  0  0
 14 17  1  0  0  0  0
 17 18  1  0  0  0  0
 17 19  1  0  0  0  0
 17 20  1  0  0  0  0
 20 21  1  0  0  0  0
 20 22  2  0  0  0  0
 22 23  1  0  0  0  0
 22 26  1  0  0  0  0
 23 24  1  0  0  0  0
 23 25  1  0  0  0  0
 26 27  1  0  0  0  0
 26 28  1  0  0  0  0
 29 30  2  0  0  0  0
 29 31  1  0  0  0  0
 31 32  1  0  0  0  0
 31 33  1  0  0  0  0
 33 34  1  0  0  0  0
 33 35  1  0  0  0  0
 33 36  1  0  0  0  0
M  CHG  1  20   1
M  END
$$$$

  -OEChem-04042215563D

 36 35  0     1  0  0  0  0  0999 V2000
   -2.0442   -5.8620    2.2593 H   0  0  0  0  0  0  0  0  0  0  0  0
   -2.4322   -4.8660    2.0251 C   0  0  0  0  0  0  0  0  0  0  0  0
   -2.6624   -4.3526    2.9617 H   0  0  0  0  0  0  0  0  0  0  0  0
   -3.3476   -4.9769    1.4397 H   0  0  0  0  0  0  0  0  0  0  0  0
   -1.3990   -4.0799    1.2407 C   0  0  0  0  0  0  0  0  0  0  0  0
   -0.2901   -4.5461    1.0630 O   0  0  0  0  0  0  0  0  0  0  0  0
   -1.7225   -2.8438    0.7070 N   0  0  0  0  0  0  0  0  0  0  0  0
   -2.6022   -2.4592    1.0344 H   0  0  0  0  0  0  0  0  0  0  0  0
   -0.6847   -1.8839    0.2760 C   0  0  1  0  0  0  0  0  0  0  0  0
   -0.0378   -2.4622   -0.3955 H   0  0  0  0  0  0  0  0  0  0  0  0
   -1.1419   -0.6694   -0.5886 C   0  0  0  0  0  0  0  0  0  0  0  0
   -0.8166    0.2504   -0.0886 H   0  0  0  0  0  0  0  0  0  0  0  0
   -0.5587   -0.7260   -1.5144 H   0  0  0  0  0  0  0  0  0  0  0  0
   -2.6162   -0.4462   -1.0082 C   0  0  0  0  0  0  0  0  0  0  0  0
   -3.1017    0.1758   -0.2485 H   0  0  0  0  0  0  0  0  0  0  0  0
   -2.6057    0.1368   -1.9361 H   0  0  0  0  0  0  0  0  0  0  0  0
   -3.4700   -1.7044   -1.1961 C   0  0  0  0  0  0  0  0  0  0  0  0
   -3.9167   -1.9912   -0.2383 H   0  0  0  0  0  0  0  0  0  0  0  0
   -2.8308   -2.5324   -1.5206 H   0  0  0  0  0  0  0  0  0  0  0  0
   -4.5329   -1.4660   -2.1928 N   0  3  0  0  0  0  0  0  0  0  0  0
   -5.3458   -0.9313   -1.8874 H   0  0  0  0  0  0  0  0  0  0  0  0
   -4.4777   -1.8901   -3.4247 C   0  0  0  0  0  0  0  0  0  0  0  0
   -3.3939   -2.5885   -3.9088 N   0  0  0  0  0  0  0  0  0  0  0  0
   -2.5527   -2.6274   -3.3362 H   0  0  0  0  0  0  0  0  0  0  0  0
   -3.2935   -2.7059   -4.9152 H   0  0  0  0  0  0  0  0  0  0  0  0
   -5.5234   -1.6330   -4.2790 N   0  0  0  0  0  0  0  0  0  0  0  0
   -6.3975   -1.2784   -3.8955 H   0  0  0  0  0  0  0  0  0  0  0  0
   -5.5585   -2.1299   -5.1677 H   0  0  0  0  0  0  0  0  0  0  0  0
    0.2757   -1.4352    1.4018 C   0  0  0  0  0  0  0  0  0  0  0  0
    1.4319   -1.1606    1.1187 O   0  0  0  0  0  0  0  0  0  0  0  0
   -0.2122   -1.0829    2.6485 N   0  0  0  0  0  0  0  0  0  0  0  0
   -1.1639   -1.3492    2.8722 H   0  0  0  0  0  0  0  0  0  0  0  0
    0.6489   -0.5982    3.7230 C   0  0  0  0  0  0  0  0  0  0  0  0
    1.1622    0.3209    3.4206 H   0  0  0  0  0  0  0  0  0  0  0  0
    0.0568   -0.3816    4.6173 H   0  0  0  0  0  0  0  0  0  0  0  0
    1.4016   -1.3514    3.9797 H   0  0  0  0  0  0  0  0  0  0  0  0
  1  2  1  0  0  0  0
  2  3  1  0  0  0  0
  2  4  1  0  0  0  0
  2  5  1  0  0  0  0
  5  6  2  0  0  0  0
  5  7  1  0  0  0  0
  7  8  1  0  0  0  0
  7  9  1  0  0  0  0
  9 10  1  0  0  0  0
  9 11  1  0  0  0  0
  9 29  1  0  0  0  0
 11 12  1  0  0  0  0
 11 13  1  0  0  0  0
 11 14  1  0  0  0  0
 14 15  1  0  0  0  0
 14 16  1  0  0  0  0
 14 17  1  0  0  0  0
 17 18  1  0  0  0  0
 17 19  1  0  0  0  0
 17 20  1  0  0  0  0
 20 21  1  0  0  0  0
 20 22  2  0  0  0  0
 22 23  1  0  0  0  0
 22 26  1  0  0  0  0
 23 24  1  0  0  0  0
 23 25  1  0  0  0  0
 26 27  1  0  0  0  0
 26 28  1  0  0  0  0
 29 30  2  0  0  0  0
 29 31  1  0  0  0  0
 31 32  1  0  0  0  0
 31 33  1  0  0  0  0
 33 34  1  0  0  0  0
 33 35  1  0  0  0  0
 33 36  1  0  0  0  0
M  CHG  1  20   1
M  END
$$$$

  -OEChem-04042215563D

 36 35  0     1  0  0  0  0  0999 V2000
   -1.6585   -5.9900    2.1799 H   0  0  0  0  0  0  0  0  0  0  0  0
   -2.1424   -5.0382    1.9403 C   0  0  0  0  0  0  0  0  0  0  0  0
   -2.4189   -4.5440    2.8745 H   0  0  0  0  0  0  0  0  0  0  0  0
   -3.0442   -5.2416    1.3586 H   0  0  0  0  0  0  0  0  0  0  0  0
   -1.1938   -4.1609    1.1454 C   0  0  0  0  0  0  0  0  0  0  0  0
   -0.0747   -4.5600    0.8870 O   0  0  0  0  0  0  0  0  0  0  0  0
   -1.6040   -2.9138    0.7031 N   0  0  0  0  0  0  0  0  0  0  0  0
   -2.4774   -2.5909    1.1038 H   0  0  0  0  0  0  0  0  0  0  0  0
   -0.6378   -1.8843    0.2653 C   0  0  1  0  0  0  0  0  0  0  0  0
   -0.0094   -2.4016   -0.4712 H   0  0  0  0  0  0  0  0  0  0  0  0
   -1.1783   -0.6421   -0.5119 C   0  0  0  0  0  0  0  0  0  0  0  0
   -0.8541    0.2564    0.0262 H   0  0  0  0  0  0  0  0  0  0  0  0
   -0.6305   -0.6280   -1.4607 H   0  0  0  0  0  0  0  0  0  0  0  0
   -2.6729   -0.4163   -0.8657 C   0  0  0  0  0  0  0  0  0  0  0  0
   -3.0584    0.3737   -0.2115 H   0  0  0  0  0  0  0  0  0  0  0  0
   -2.7053   -0.0203   -1.8868 H   0  0  0  0  0  0  0  0  0  0  0  0
   -3.6305   -1.6043   -0.7582 C   0  0  0  0  0  0  0  0  0  0  0  0
   -3.1385   -2.5094   -1.1299 H   0  0  0  0  0  0  0  0  0  0  0  0
   -3.8868   -1.7732    0.2928 H   0  0  0  0  0  0  0  0  0  0  0  0
   -4.8570   -1.3477   -1.5393 N   0  3  0  0  0  0  0  0  0  0  0  0
   -5.6007   -0.8226   -1.0795 H   0  0  0  0  0  0  0  0  0  0  0  0
   -5.0239   -1.7390   -2.7721 C   0  0  0  0  0  0  0  0  0  0  0  0
   -4.0415   -2.4159   -3.4605 N   0  0  0  0  0  0  0  0  0  0  0  0
   -3.1121   -2.4637   -3.0465 H   0  0  0  0  0  0  0  0  0  0  0  0
   -4.1187   -2.4984   -4.4726 H   0  0  0  0  0  0  0  0  0  0  0  0
   -6.2059   -1.4646   -3.4181 N   0  0  0  0  0  0  0  0  0  0  0  0
   -7.0002   -1.1338   -2.8735 H   0  0  0  0  0  0  0  0  0  0  0  0
   -6.3956   -1.9294   -4.3045 H   0  0  0  0  0  0  0  0  0  0  0  0
    0.3710   -1.4542    1.3559 C   0  0  0  0  0  0  0  0  0  0  0  0
    1.4931   -1.1074    1.0194 O   0  0  0  0  0  0  0  0  0  0  0  0
   -0.0516   -1.1938    2.6483 N   0  0  0  0  0  0  0  0  0  0  0  0
   -0.9707   -1.5247    2.9172 H   0  0  0  0  0  0  0  0  0  0  0  0
    0.8550   -0.7222    3.6911 C   0  0  0  0  0  0  0  0  0  0  0  0
    1.2956    0.2407    3.4109 H   0  0  0  0  0  0  0  0  0  0  0  0
    0.3168   -0.5911    4.6347 H   0  0  0  0  0  0  0  0  0  0  0  0
    1.6634   -1.4441    3.8509 H   0  0  0  0  0  0  0  0  0  0  0  0
  1  2  1  0  0  0  0
  2  3  1  0  0  0  0
  2  4  1  0  0  0  0
  2  5  1  0  0  0  0
  5  6  2  0  0  0  0
  5  7  1  0  0  0  0
  7  8  1  0  0  0  0
  7  9  1  0  0  0  0
  9 10  1  0  0  0  0
  9 11  1  0  0  0  0
  9 29  1  0  0  0  0
 11 12  1  0  0  0  0
 11 13  1  0  0  0  0
 11 14  1  0  0  0  0
 14 15  1  0  0  0  0
 14 16  1  0  0  0  0
 14 17  1  0  0  0  0
 17 18  1  0  0  0  0
 17 19  1  0  0  0  0
 17 20  1  0  0  0  0
 20 21  1  0  0  0  0
 20 22  2  0  0  0  0
 22 23  1  0  0  0  0
 22 26  1  0  0  0  0
 23 24  1  0  0  0  0
 23 25  1  0  0  0  0
 26 27  1  0  0  0  0
 26 28  1  0  0  0  0
 29 30  2  0  0  0  0
 29 31  1  0  0  0  0
 31 32  1  0  0  0  0
 31 33  1  0  0  0  0
 33 34  1  0  0  0  0
 33 35  1  0  0  0  0
 33 36  1  0  0  0  0
M  CHG  1  20   1
M  END
$$$$

  -OEChem-04042215563D

 36 35  0     1  0  0  0  0  0999 V2000
   -1.8586   -5.9635    2.2667 H   0  0  0  0  0  0  0  0  0  0  0  0
   -2.2862   -4.9909    2.0040 C   0  0  0  0  0  0  0  0  0  0  0  0
   -2.5837   -4.4816    2.9236 H   0  0  0  0  0  0  0  0  0  0  0  0
   -3.1677   -5.1544    1.3799 H   0  0  0  0  0  0  0  0  0  0  0  0
   -1.2614   -4.1604    1.2550 C   0  0  0  0  0  0  0  0  0  0  0  0
   -0.1424   -4.5999    1.0750 O   0  0  0  0  0  0  0  0  0  0  0  0
   -1.6036   -2.9085    0.7711 N   0  0  0  0  0  0  0  0  0  0  0  0
   -2.4838   -2.5475    1.1194 H   0  0  0  0  0  0  0  0  0  0  0  0
   -0.5836   -1.9254    0.3500 C   0  0  1  0  0  0  0  0  0  0  0  0
    0.0523   -2.4827   -0.3496 H   0  0  0  0  0  0  0  0  0  0  0  0
   -1.0425   -0.6813   -0.4761 C   0  0  0  0  0  0  0  0  0  0  0  0
   -0.7188    0.2073    0.0788 H   0  0  0  0  0  0  0  0  0  0  0  0
   -0.4416   -0.6843   -1.3926 H   0  0  0  0  0  0  0  0  0  0  0  0
   -2.5102   -0.3958   -0.9013 C   0  0  0  0  0  0  0  0  0  0  0  0
   -2.7848    0.5893   -0.5079 H   0  0  0  0  0  0  0  0  0  0  0  0
   -2.5115   -0.3072   -1.9930 H   0  0  0  0  0  0  0  0  0  0  0  0
   -3.6107   -1.3792   -0.5041 C   0  0  0  0  0  0  0  0  0  0  0  0
   -3.3191   -2.3967   -0.7841 H   0  0  0  0  0  0  0  0  0  0  0  0
   -3.7454   -1.3542    0.5824 H   0  0  0  0  0  0  0  0  0  0  0  0
   -4.8771   -1.0200   -1.1726 N   0  3  0  0  0  0  0  0  0  0  0  0
   -5.4553   -0.3109   -0.7214 H   0  0  0  0  0  0  0  0  0  0  0  0
   -5.2774   -1.5399   -2.2995 C   0  0  0  0  0  0  0  0  0  0  0  0
   -4.5248   -2.4695   -2.9822 N   0  0  0  0  0  0  0  0  0  0  0  0
   -3.5604   -2.6128   -2.6878 H   0  0  0  0  0  0  0  0  0  0  0  0
   -4.7610   -2.6714   -3.9521 H   0  0  0  0  0  0  0  0  0  0  0  0
   -6.4813   -1.1498   -2.8360 N   0  0  0  0  0  0  0  0  0  0  0  0
   -7.1217   -0.6011   -2.2654 H   0  0  0  0  0  0  0  0  0  0  0  0
   -6.8719   -1.6920   -3.6050 H   0  0  0  0  0  0  0  0  0  0  0  0
    0.3979   -1.5097    1.4716 C   0  0  0  0  0  0  0  0  0  0  0  0
    1.5412   -1.2000    1.1729 O   0  0  0  0  0  0  0  0  0  0  0  0
   -0.0665   -1.2068    2.7403 N   0  0  0  0  0  0  0  0  0  0  0  0
   -0.9976   -1.5228    2.9831 H   0  0  0  0  0  0  0  0  0  0  0  0
    0.8154   -0.7496    3.8107 C   0  0  0  0  0  0  0  0  0  0  0  0
    1.3368    0.1676    3.5156 H   0  0  0  0  0  0  0  0  0  0  0  0
    0.2383   -0.5384    4.7162 H   0  0  0  0  0  0  0  0  0  0  0  0
    1.5621   -1.5159    4.0455 H   0  0  0  0  0  0  0  0  0  0  0  0
  1  2  1  0  0  0  0
  2  3  1  0  0  0  0
  2  4  1  0  0  0  0
  2  5  1  0  0  0  0
  5  6  2  0  0  0  0
  5  7  1  0  0  0  0
  7  8  1  0  0  0  0
  7  9  1  0  0  0  0
  9 10  1  0  0  0  0
  9 11  1  0  0  0  0
  9 29  1  0  0  0  0
 11 12  1  0  0  0  0
 11 13  1  0  0  0  0
 11 14  1  0  0  0  0
 14 15  1  0  0  0  0
 14 16  1  0  0  0  0
 14 17  1  0  0  0  0
 17 18  1  0  0  0  0
 17 19  1  0  0  0  0
 17 20  1  0  0  0  0
 20 21  1  0  0  0  0
 20 22  2  0  0  0  0
 22 23  1  0  0  0  0
 22 26  1  0  0  0  0
 23 24  1  0  0  0  0
 23 25  1  0  0  0  0
 26 27  1  0  0  0  0
 26 28  1  0  0  0  0
 29 30  2  0  0  0  0
 29 31  1  0  0  0  0
 31 32  1  0  0  0  0
 31 33  1  0  0  0  0
 33 34  1  0  0  0  0
 33 35  1  0  0  0  0
 33 36  1  0  0  0  0
M  CHG  1  20   1
M  END
$$$$

  -OEChem-04042215563D

 36 35  0     1  0  0  0  0  0999 V2000
   -0.7148   -6.3774    1.0391 H   0  0  0  0  0  0  0  0  0  0  0  0
   -1.2450   -5.5610    0.5396 C   0  0  0  0  0  0  0  0  0  0  0  0
   -2.2930   -5.5858    0.8466 H   0  0  0  0  0  0  0  0  0  0  0  0
   -1.1807   -5.7148   -0.5401 H   0  0  0  0  0  0  0  0  0  0  0  0
   -0.6220   -4.2303    0.9166 C   0  0  0  0  0  0  0  0  0  0  0  0
    0.2837   -4.1996    1.7265 O   0  0  0  0  0  0  0  0  0  0  0  0
   -1.1141   -3.0585    0.3643 N   0  0  0  0  0  0  0  0  0  0  0  0
   -1.7175   -3.2196   -0.4321 H   0  0  0  0  0  0  0  0  0  0  0  0
   -0.3353   -1.8007    0.3478 C   0  0  1  0  0  0  0  0  0  0  0  0
    0.6184   -2.0456   -0.1356 H   0  0  0  0  0  0  0  0  0  0  0  0
   -0.9389   -0.5954   -0.4516 C   0  0  0  0  0  0  0  0  0  0  0  0
   -1.0311    0.2443    0.2476 H   0  0  0  0  0  0  0  0  0  0  0  0
   -0.1721   -0.2867   -1.1711 H   0  0  0  0  0  0  0  0  0  0  0  0
   -2.2896   -0.6286   -1.2187 C   0  0  0  0  0  0  0  0  0  0  0  0
   -2.7879    0.3298   -1.0356 H   0  0  0  0  0  0  0  0  0  0  0  0
   -2.0581   -0.6608   -2.2893 H   0  0  0  0  0  0  0  0  0  0  0  0
   -3.2763   -1.7625   -0.9361 C   0  0  0  0  0  0  0  0  0  0  0  0
   -2.8902   -2.6944   -1.3612 H   0  0  0  0  0  0  0  0  0  0  0  0
   -3.3794   -1.9044    0.1450 H   0  0  0  0  0  0  0  0  0  0  0  0
   -4.5900   -1.4600   -1.5393 N   0  3  0  0  0  0  0  0  0  0  0  0
   -4.7492   -1.7921   -2.4905 H   0  0  0  0  0  0  0  0  0  0  0  0
   -5.5430   -0.8090   -0.9323 C   0  0  0  0  0  0  0  0  0  0  0  0
   -5.3971   -0.3249    0.3484 N   0  0  0  0  0  0  0  0  0  0  0  0
   -4.5667   -0.5821    0.8780 H   0  0  0  0  0  0  0  0  0  0  0  0
   -6.2187   -0.0034    0.8569 H   0  0  0  0  0  0  0  0  0  0  0  0
   -6.7335   -0.5873   -1.5835 N   0  0  0  0  0  0  0  0  0  0  0  0
   -6.7968   -0.7861   -2.5802 H   0  0  0  0  0  0  0  0  0  0  0  0
   -7.3865    0.0881   -1.1894 H   0  0  0  0  0  0  0  0  0  0  0  0
    0.0502   -1.2879    1.7592 C   0  0  0  0  0  0  0  0  0  0  0  0
    1.0483   -0.5913    1.8753 O   0  0  0  0  0  0  0  0  0  0  0  0
   -0.8912   -1.2820    2.7745 N   0  0  0  0  0  0  0  0  0  0  0  0
   -1.5687   -2.0350    2.7189 H   0  0  0  0  0  0  0  0  0  0  0  0
   -0.5707   -0.7637    4.1015 C   0  0  0  0  0  0  0  0  0  0  0  0
   -0.3146    0.3000    4.0485 H   0  0  0  0  0  0  0  0  0  0  0  0
   -1.4275   -0.8778    4.7724 H   0  0  0  0  0  0  0  0  0  0  0  0
    0.2794   -1.3065    4.5291 H   0  0  0  0  0  0  0  0  0  0  0  0
  1  2  1  0  0  0  0
  2  3  1  0  0  0  0
  2  4  1  0  0  0  0
  2  5  1  0  0  0  0
  5  6  2  0  0  0  0
  5  7  1  0  0  0  0
  7  8  1  0  0  0  0
  7  9  1  0  0  0  0
  9 10  1  0  0  0  0
  9 11  1  0  0  0  0
  9 29  1  0  0  0  0
 11 12  1  0  0  0  0
 11 13  1  0  0  0  0
 11 14  1  0  0  0  0
 14 15  1  0  0  0  0
 14 16  1  0  0  0  0
 14 17  1  0  0  0  0
 17 18  1  0  0  0  0
 17 19  1  0  0  0  0
 17 20  1  0  0  0  0
 20 21  1  0  0  0  0
 20 22  2  0  0  0  0
 22 23  1  0  0  0  0
 22 26  1  0  0  0  0
 23 24  1  0  0  0  0
 23 25  1  0  0  0  0
 26 27  1  0  0  0  0
 26 28  1  0  0  0  0
 29 30  2  0  0  0  0
 29 31  1  0  0  0  0
 31 32  1  0  0  0  0
 31 33  1  0  0  0  0
 33 34  1  0  0  0  0
 33 35  1  0  0  0  0
 33 36  1  0  0  0  0
M  CHG  1  20   1
M  END
$$$$

  -OEChem-04042215563D

 36 35  0     1  0  0  0  0  0999 V2000
   -0.6002   -6.3037    0.7500 H   0  0  0  0  0  0  0  0  0  0  0  0
   -1.1644   -5.4809    0.3005 C   0  0  0  0  0  0  0  0  0  0  0  0
   -2.2072   -5.5579    0.6162 H   0  0  0  0  0  0  0  0  0  0  0  0
   -1.1083   -5.5756   -0.7864 H   0  0  0  0  0  0  0  0  0  0  0  0
   -0.5814   -4.1516    0.7407 C   0  0  0  0  0  0  0  0  0  0  0  0
    0.3196   -4.1312    1.5564 O   0  0  0  0  0  0  0  0  0  0  0  0
   -1.1065   -2.9698    0.2430 N   0  0  0  0  0  0  0  0  0  0  0  0
   -1.7018   -3.1090   -0.5650 H   0  0  0  0  0  0  0  0  0  0  0  0
   -0.3691   -1.6882    0.2925 C   0  0  1  0  0  0  0  0  0  0  0  0
    0.5930   -1.8685   -0.2026 H   0  0  0  0  0  0  0  0  0  0  0  0
   -1.0315   -0.4716   -0.4364 C   0  0  0  0  0  0  0  0  0  0  0  0
   -1.1580    0.3266    0.3042 H   0  0  0  0  0  0  0  0  0  0  0  0
   -0.2957   -0.0910   -1.1536 H   0  0  0  0  0  0  0  0  0  0  0  0
   -2.3894   -0.5578   -1.1770 C   0  0  0  0  0  0  0  0  0  0  0  0
   -2.8248    0.4476   -1.1782 H   0  0  0  0  0  0  0  0  0  0  0  0
   -2.1916   -0.8170   -2.2230 H   0  0  0  0  0  0  0  0  0  0  0  0
   -3.4103   -1.5652   -0.6390 C   0  0  0  0  0  0  0  0  0  0  0  0
   -3.3334   -1.6203    0.4527 H   0  0  0  0  0  0  0  0  0  0  0  0
   -3.1904   -2.5609   -1.0369 H   0  0  0  0  0  0  0  0  0  0  0  0
   -4.7786   -1.1698   -1.0273 N   0  3  0  0  0  0  0  0  0  0  0  0
   -5.1305   -1.5244   -1.9167 H   0  0  0  0  0  0  0  0  0  0  0  0
   -5.5452   -0.4031   -0.3030 C   0  0  0  0  0  0  0  0  0  0  0  0
   -5.1165    0.1386    0.8886 N   0  0  0  0  0  0  0  0  0  0  0  0
   -4.1233    0.0826    1.1078 H   0  0  0  0  0  0  0  0  0  0  0  0
   -5.6505    0.9046    1.2951 H   0  0  0  0  0  0  0  0  0  0  0  0
   -6.8167   -0.1111   -0.7364 N   0  0  0  0  0  0  0  0  0  0  0  0
   -7.2050   -0.6356   -1.5182 H   0  0  0  0  0  0  0  0  0  0  0  0
   -7.4667    0.3255   -0.0845 H   0  0  0  0  0  0  0  0  0  0  0  0
   -0.0124   -1.2404    1.7325 C   0  0  0  0  0  0  0  0  0  0  0  0
    0.9478   -0.5016    1.8953 O   0  0  0  0  0  0  0  0  0  0  0  0
   -0.9689   -1.3235    2.7307 N   0  0  0  0  0  0  0  0  0  0  0  0
   -1.5970   -2.1146    2.6309 H   0  0  0  0  0  0  0  0  0  0  0  0
   -0.6815   -0.8703    4.0889 C   0  0  0  0  0  0  0  0  0  0  0  0
   -0.4545    0.2013    4.0994 H   0  0  0  0  0  0  0  0  0  0  0  0
   -1.5442   -1.0441    4.7390 H   0  0  0  0  0  0  0  0  0  0  0  0
    0.1772   -1.4133    4.4990 H   0  0  0  0  0  0  0  0  0  0  0  0
  1  2  1  0  0  0  0
  2  3  1  0  0  0  0
  2  4  1  0  0  0  0
  2  5  1  0  0  0  0
  5  6  2  0  0  0  0
  5  7  1  0  0  0  0
  7  8  1  0  0  0  0
  7  9  1  0  0  0  0
  9 10  1  0  0  0  0
  9 11  1  0  0  0  0
  9 29  1  0  0  0  0
 11 12  1  0  0  0  0
 11 13  1  0  0  0  0
 11 14  1  0  0  0  0
 14 15  1  0  0  0  0
 14 16  1  0  0  0  0
 14 17  1  0  0  0  0
 17 18  1  0  0  0  0
 17 19  1  0  0  0  0
 17 20  1  0  0  0  0
 20 21  1  0  0  0  0
 20 22  2  0  0  0  0
 22 23  1  0  0  0  0
 22 26  1  0  0  0  0
 23 24  1  0  0  0  0
 23 25  1  0  0  0  0
 26 27  1  0  0  0  0
 26 28  1  0  0  0  0
 29 30  2  0  0  0  0
 29 31  1  0  0  0  0
 31 32  1  0  0  0  0
 31 33  1  0  0  0  0
 33 34  1  0  0  0  0
 33 35  1  0  0  0  0
 33 36  1  0  0  0  0
M  CHG  1  20   1
M  END
$$$$

  -OEChem-04042215563D

 36 35  0     1  0  0  0  0  0999 V2000
   -0.7938   -6.2441    1.0080 H   0  0  0  0  0  0  0  0  0  0  0  0
   -1.2412   -5.4733    0.3730 C   0  0  0  0  0  0  0  0  0  0  0  0
   -2.3287   -5.5517    0.4410 H   0  0  0  0  0  0  0  0  0  0  0  0
   -0.9312   -5.6500   -0.6599 H   0  0  0  0  0  0  0  0  0  0  0  0
   -0.7846   -4.0994    0.8246 C   0  0  0  0  0  0  0  0  0  0  0  0
   -0.0401   -3.9915    1.7797 O   0  0  0  0  0  0  0  0  0  0  0  0
   -1.2668   -2.9665    0.1901 N   0  0  0  0  0  0  0  0  0  0  0  0
   -1.7531   -3.1722   -0.6774 H   0  0  0  0  0  0  0  0  0  0  0  0
   -0.5731   -1.6597    0.2502 C   0  0  1  0  0  0  0  0  0  0  0  0
    0.4493   -1.8357   -0.1065 H   0  0  0  0  0  0  0  0  0  0  0  0
   -1.1725   -0.5230   -0.6386 C   0  0  0  0  0  0  0  0  0  0  0  0
   -1.4064    0.3347    0.0012 H   0  0  0  0  0  0  0  0  0  0  0  0
   -0.3724   -0.1840   -1.3065 H   0  0  0  0  0  0  0  0  0  0  0  0
   -2.4211   -0.7707   -1.5108 C   0  0  0  0  0  0  0  0  0  0  0  0
   -2.7670    0.1847   -1.9218 H   0  0  0  0  0  0  0  0  0  0  0  0
   -2.1085   -1.3814   -2.3651 H   0  0  0  0  0  0  0  0  0  0  0  0
   -3.5710   -1.5137   -0.8114 C   0  0  0  0  0  0  0  0  0  0  0  0
   -3.8773   -2.3663   -1.4276 H   0  0  0  0  0  0  0  0  0  0  0  0
   -3.2556   -1.9033    0.1601 H   0  0  0  0  0  0  0  0  0  0  0  0
   -4.7208   -0.6058   -0.6252 N   0  3  0  0  0  0  0  0  0  0  0  0
   -5.4268   -0.6040   -1.3610 H   0  0  0  0  0  0  0  0  0  0  0  0
   -4.8690    0.2024    0.3877 C   0  0  0  0  0  0  0  0  0  0  0  0
   -3.9517    0.2888    1.4103 N   0  0  0  0  0  0  0  0  0  0  0  0
   -3.0530   -0.1816    1.3013 H   0  0  0  0  0  0  0  0  0  0  0  0
   -3.9884    1.0934    2.0327 H   0  0  0  0  0  0  0  0  0  0  0  0
   -5.9782    1.0124    0.4442 N   0  0  0  0  0  0  0  0  0  0  0  0
   -6.7472    0.8445   -0.2017 H   0  0  0  0  0  0  0  0  0  0  0  0
   -6.1813    1.5014    1.3144 H   0  0  0  0  0  0  0  0  0  0  0  0
   -0.4196   -1.1194    1.6929 C   0  0  0  0  0  0  0  0  0  0  0  0
    0.4338   -0.2723    1.9088 O   0  0  0  0  0  0  0  0  0  0  0  0
   -1.5061   -1.1857    2.5512 N   0  0  0  0  0  0  0  0  0  0  0  0
   -2.0016   -2.0715    2.4740 H   0  0  0  0  0  0  0  0  0  0  0  0
   -1.4155   -0.6202    3.8964 C   0  0  0  0  0  0  0  0  0  0  0  0
   -1.2674    0.4643    3.8529 H   0  0  0  0  0  0  0  0  0  0  0  0
   -2.3339   -0.8200    4.4567 H   0  0  0  0  0  0  0  0  0  0  0  0
   -0.5750   -1.0642    4.4420 H   0  0  0  0  0  0  0  0  0  0  0  0
  1  2  1  0  0  0  0
  2  3  1  0  0  0  0
  2  4  1  0  0  0  0
  2  5  1  0  0  0  0
  5  6  2  0  0  0  0
  5  7  1  0  0  0  0
  7  8  1  0  0  0  0
  7  9  1  0  0  0  0
  9 10  1  0  0  0  0
  9 11  1  0  0  0  0
  9 29  1  0  0  0  0
 11 12  1  0  0  0  0
 11 13  1  0  0  0  0
 11 14  1  0  0  0  0
 14 15  1  0  0  0  0
 14 16  1  0  0  0  0
 14 17  1  0  0  0  0
 17 18  1  0  0  0  0
 17 19  1  0  0  0  0
 17 20  1  0  0  0  0
 20 21  1  0  0  0  0
 20 22  2  0  0  0  0
 22 23  1  0  0  0  0
 22 26  1  0  0  0  0
 23 24  1  0  0  0  0
 23 25  1  0  0  0  0
 26 27  1  0  0  0  0
 26 28  1  0  0  0  0
 29 30  2  0  0  0  0
 29 31  1  0  0  0  0
 31 32  1  0  0  0  0
 31 33  1  0  0  0  0
 33 34  1  0  0  0  0
 33 35  1  0  0  0  0
 33 36  1  0  0  0  0
M  CHG  1  20   1
M  END
$$$$

  -OEChem-04042215563D

 36 35  0     1  0  0  0  0  0999 V2000
   -1.3878   -6.2424    0.6021 H   0  0  0  0  0  0  0  0  0  0  0  0
   -1.7663   -5.3321    0.1278 C   0  0  0  0  0  0  0  0  0  0  0  0
   -2.8191   -5.2128    0.3923 H   0  0  0  0  0  0  0  0  0  0  0  0
   -1.6759   -5.4396   -0.9557 H   0  0  0  0  0  0  0  0  0  0  0  0
   -0.9681   -4.1315    0.5990 C   0  0  0  0  0  0  0  0  0  0  0  0
   -0.0231   -4.2921    1.3467 O   0  0  0  0  0  0  0  0  0  0  0  0
   -1.3422   -2.8573    0.2059 N   0  0  0  0  0  0  0  0  0  0  0  0
   -2.0209   -2.8465   -0.5473 H   0  0  0  0  0  0  0  0  0  0  0  0
   -0.4244   -1.6984    0.2812 C   0  0  1  0  0  0  0  0  0  0  0  0
    0.4686   -1.9672   -0.2960 H   0  0  0  0  0  0  0  0  0  0  0  0
   -0.9916   -0.3839   -0.3315 C   0  0  0  0  0  0  0  0  0  0  0  0
   -0.9691    0.4061    0.4280 H   0  0  0  0  0  0  0  0  0  0  0  0
   -0.2966   -0.0686   -1.1179 H   0  0  0  0  0  0  0  0  0  0  0  0
   -2.4062   -0.3917   -0.9372 C   0  0  0  0  0  0  0  0  0  0  0  0
   -2.6078    0.6119   -1.3270 H   0  0  0  0  0  0  0  0  0  0  0  0
   -2.4463   -1.0836   -1.7850 H   0  0  0  0  0  0  0  0  0  0  0  0
   -3.4743   -0.7695    0.0969 C   0  0  0  0  0  0  0  0  0  0  0  0
   -3.4975   -1.8552    0.2335 H   0  0  0  0  0  0  0  0  0  0  0  0
   -3.2164   -0.3284    1.0659 H   0  0  0  0  0  0  0  0  0  0  0  0
   -4.8010   -0.2938   -0.3422 N   0  3  0  0  0  0  0  0  0  0  0  0
   -5.3021   -0.8703   -1.0176 H   0  0  0  0  0  0  0  0  0  0  0  0
   -5.3557    0.8056    0.0859 C   0  0  0  0  0  0  0  0  0  0  0  0
   -4.7216    1.6463    0.9735 N   0  0  0  0  0  0  0  0  0  0  0  0
   -3.7343    1.4862    1.1651 H   0  0  0  0  0  0  0  0  0  0  0  0
   -5.0888    2.5865    1.1080 H   0  0  0  0  0  0  0  0  0  0  0  0
   -6.6089    1.1502   -0.3617 N   0  0  0  0  0  0  0  0  0  0  0  0
   -7.1578    0.4584   -0.8685 H   0  0  0  0  0  0  0  0  0  0  0  0
   -7.1095    1.8953    0.1202 H   0  0  0  0  0  0  0  0  0  0  0  0
    0.0845   -1.3864    1.7098 C   0  0  0  0  0  0  0  0  0  0  0  0
    1.1477   -0.7958    1.8348 O   0  0  0  0  0  0  0  0  0  0  0  0
   -0.8051   -1.3895    2.7709 N   0  0  0  0  0  0  0  0  0  0  0  0
   -1.5559   -2.0659    2.6762 H   0  0  0  0  0  0  0  0  0  0  0  0
   -0.3637   -1.0684    4.1253 C   0  0  0  0  0  0  0  0  0  0  0  0
    0.0321   -0.0479    4.1713 H   0  0  0  0  0  0  0  0  0  0  0  0
   -1.1998   -1.1443    4.8269 H   0  0  0  0  0  0  0  0  0  0  0  0
    0.4219   -1.7618    4.4449 H   0  0  0  0  0  0  0  0  0  0  0  0
  1  2  1  0  0  0  0
  2  3  1  0  0  0  0
  2  4  1  0  0  0  0
  2  5  1  0  0  0  0
  5  6  2  0  0  0  0
  5  7  1  0  0  0  0
  7  8  1  0  0  0  0
  7  9  1  0  0  0  0
  9 10  1  0  0  0  0
  9 11  1  0  0  0  0
  9 29  1  0  0  0  0
 11 12  1  0  0  0  0
 11 13  1  0  0  0  0
 11 14  1  0  0  0  0
 14 15  1  0  0  0  0
 14 16  1  0  0  0  0
 14 17  1  0  0  0  0
 17 18  1  0  0  0  0
 17 19  1  0  0  0  0
 17 20  1  0  0  0  0
 20 21  1  0  0  0  0
 20 22  2  0  0  0  0
 22 23  1  0  0  0  0
 22 26  1  0  0  0  0
 23 24  1  0  0  0  0
 23 25  1  0  0  0  0
 26 27  1  0  0  0  0
 26 28  1  0  0  0  0
 29 30  2  0  0  0  0
 29 31  1  0  0  0  0
 31 32  1  0  0  0  0
 31 33  1  0  0  0  0
 33 34  1  0  0  0  0
 33 35  1  0  0  0  0
 33 36  1  0  0  0  0
M  CHG  1  20   1
M  END
$$$$

  -OEChem-04042215563D

 36 35  0     1  0  0  0  0  0999 V2000
   -2.1758   -6.0110    0.7624 H   0  0  0  0  0  0  0  0  0  0  0  0
   -2.4235   -5.0492    0.3027 C   0  0  0  0  0  0  0  0  0  0  0  0
   -3.4172   -4.7459    0.6400 H   0  0  0  0  0  0  0  0  0  0  0  0
   -2.4335   -5.1757   -0.7826 H   0  0  0  0  0  0  0  0  0  0  0  0
   -1.3951   -4.0058    0.6969 C   0  0  0  0  0  0  0  0  0  0  0  0
   -0.5031   -4.3014    1.4682 O   0  0  0  0  0  0  0  0  0  0  0  0
   -1.4995   -2.7138    0.2096 N   0  0  0  0  0  0  0  0  0  0  0  0
   -2.1748   -2.6105   -0.5393 H   0  0  0  0  0  0  0  0  0  0  0  0
   -0.3642   -1.7611    0.2177 C   0  0  1  0  0  0  0  0  0  0  0  0
    0.4580   -2.2385   -0.3289 H   0  0  0  0  0  0  0  0  0  0  0  0
   -0.6689   -0.4061   -0.4843 C   0  0  0  0  0  0  0  0  0  0  0  0
   -0.4706    0.4275    0.1998 H   0  0  0  0  0  0  0  0  0  0  0  0
    0.0536   -0.3032   -1.3014 H   0  0  0  0  0  0  0  0  0  0  0  0
   -2.0728   -0.2210   -1.0820 C   0  0  0  0  0  0  0  0  0  0  0  0
   -2.0523    0.6565   -1.7382 H   0  0  0  0  0  0  0  0  0  0  0  0
   -2.3576   -1.0812   -1.6956 H   0  0  0  0  0  0  0  0  0  0  0  0
   -3.0778    0.0240    0.0461 C   0  0  0  0  0  0  0  0  0  0  0  0
   -3.1869   -0.8882    0.6427 H   0  0  0  0  0  0  0  0  0  0  0  0
   -2.6814    0.8115    0.6961 H   0  0  0  0  0  0  0  0  0  0  0  0
   -4.3855    0.4339   -0.4990 N   0  3  0  0  0  0  0  0  0  0  0  0
   -4.5799    0.2034   -1.4726 H   0  0  0  0  0  0  0  0  0  0  0  0
   -5.2756    1.0921    0.1886 C   0  0  0  0  0  0  0  0  0  0  0  0
   -5.0590    1.4582    1.4982 N   0  0  0  0  0  0  0  0  0  0  0  0
   -4.1177    1.3559    1.8727 H   0  0  0  0  0  0  0  0  0  0  0  0
   -5.6624    2.1662    1.9128 H   0  0  0  0  0  0  0  0  0  0  0  0
   -6.4686    1.4386   -0.4001 N   0  0  0  0  0  0  0  0  0  0  0  0
   -6.7112    1.0329   -1.3019 H   0  0  0  0  0  0  0  0  0  0  0  0
   -7.2256    1.7762    0.1923 H   0  0  0  0  0  0  0  0  0  0  0  0
    0.1934   -1.4572    1.6293 C   0  0  0  0  0  0  0  0  0  0  0  0
    1.3553   -1.0926    1.7360 O   0  0  0  0  0  0  0  0  0  0  0  0
   -0.6852   -1.2044    2.6696 N   0  0  0  0  0  0  0  0  0  0  0  0
   -1.5496   -1.7330    2.6140 H   0  0  0  0  0  0  0  0  0  0  0  0
   -0.1994   -0.8530    4.0009 C   0  0  0  0  0  0  0  0  0  0  0  0
    0.3819    0.0748    3.9665 H   0  0  0  0  0  0  0  0  0  0  0  0
   -1.0391   -0.7064    4.6868 H   0  0  0  0  0  0  0  0  0  0  0  0
    0.4388   -1.6501    4.3980 H   0  0  0  0  0  0  0  0  0  0  0  0
  1  2  1  0  0  0  0
  2  3  1  0  0  0  0
  2  4  1  0  0  0  0
  2  5  1  0  0  0  0
  5  6  2  0  0  0  0
  5  7  1  0  0  0  0
  7  8  1  0  0  0  0
  7  9  1  0  0  0  0
  9 10  1  0  0  0  0
  9 11  1  0  0  0  0
  9 29  1  0  0  0  0
 11 12  1  0  0  0  0
 11 13  1  0  0  0  0
 11 14  1  0  0  0  0
 14 15  1  0  0  0  0
 14 16  1  0  0  0  0
 14 17  1  0  0  0  0
 17 18  1  0  0  0  0
 17 19  1  0  0  0  0
 17 20  1  0  0  0  0
 20 21  1  0  0  0  0
 20 22  2  0  0  0  0
 22 23  1  0  0  0  0
 22 26  1  0  0  0  0
 23 24  1  0  0  0  0
 23 25  1  0  0  0  0
 26 27  1  0  0  0  0
 26 28  1  0  0  0  0
 29 30  2  0  0  0  0
 29 31  1  0  0  0  0
 31 32  1  0  0  0  0
 31 33  1  0  0  0  0
 33 34  1  0  0  0  0
 33 35  1  0  0  0  0
 33 36  1  0  0  0  0
M  CHG  1  20   1
M  END
$$$$

  -OEChem-04042215563D

 36 35  0     1  0  0  0  0  0999 V2000
   -2.5096   -5.8416    1.0066 H   0  0  0  0  0  0  0  0  0  0  0  0
   -2.6554   -4.9129    0.4462 C   0  0  0  0  0  0  0  0  0  0  0  0
   -3.6205   -4.4846    0.7254 H   0  0  0  0  0  0  0  0  0  0  0  0
   -2.6590   -5.1464   -0.6211 H   0  0  0  0  0  0  0  0  0  0  0  0
   -1.5379   -3.9367    0.7599 C   0  0  0  0  0  0  0  0  0  0  0  0
   -0.6332   -4.2759    1.4979 O   0  0  0  0  0  0  0  0  0  0  0  0
   -1.5754   -2.6535    0.2407 N   0  0  0  0  0  0  0  0  0  0  0  0
   -2.2745   -2.5180   -0.4804 H   0  0  0  0  0  0  0  0  0  0  0  0
   -0.3878   -1.7684    0.2047 C   0  0  1  0  0  0  0  0  0  0  0  0
    0.3951   -2.3097   -0.3403 H   0  0  0  0  0  0  0  0  0  0  0  0
   -0.6164   -0.4163   -0.5296 C   0  0  0  0  0  0  0  0  0  0  0  0
   -0.3381    0.4224    0.1200 H   0  0  0  0  0  0  0  0  0  0  0  0
    0.0962   -0.3966   -1.3616 H   0  0  0  0  0  0  0  0  0  0  0  0
   -2.0116   -0.1489   -1.1220 C   0  0  0  0  0  0  0  0  0  0  0  0
   -1.8881    0.5347   -1.9694 H   0  0  0  0  0  0  0  0  0  0  0  0
   -2.4805   -1.0559   -1.5124 H   0  0  0  0  0  0  0  0  0  0  0  0
   -2.8821    0.5400   -0.0705 C   0  0  0  0  0  0  0  0  0  0  0  0
   -3.0747   -0.1625    0.7483 H   0  0  0  0  0  0  0  0  0  0  0  0
   -2.3350    1.3998    0.3334 H   0  0  0  0  0  0  0  0  0  0  0  0
   -4.1522    0.9952   -0.6653 N   0  3  0  0  0  0  0  0  0  0  0  0
   -4.2517    0.9085   -1.6760 H   0  0  0  0  0  0  0  0  0  0  0  0
   -5.0996    1.5693    0.0196 C   0  0  0  0  0  0  0  0  0  0  0  0
   -4.9969    1.7639    1.3788 N   0  0  0  0  0  0  0  0  0  0  0  0
   -4.0862    1.6207    1.8113 H   0  0  0  0  0  0  0  0  0  0  0  0
   -5.6381    2.4165    1.8260 H   0  0  0  0  0  0  0  0  0  0  0  0
   -6.2365    1.9982   -0.6232 N   0  0  0  0  0  0  0  0  0  0  0  0
   -6.3911    1.7260   -1.5921 H   0  0  0  0  0  0  0  0  0  0  0  0
   -7.0459    2.2629   -0.0643 H   0  0  0  0  0  0  0  0  0  0  0  0
    0.2112   -1.4619    1.5984 C   0  0  0  0  0  0  0  0  0  0  0  0
    1.3954   -1.1679    1.6774 O   0  0  0  0  0  0  0  0  0  0  0  0
   -0.6306   -1.1323    2.6474 N   0  0  0  0  0  0  0  0  0  0  0  0
   -1.5350   -1.5911    2.6109 H   0  0  0  0  0  0  0  0  0  0  0  0
   -0.0999   -0.7974    3.9656 C   0  0  0  0  0  0  0  0  0  0  0  0
    0.5342    0.0939    3.9104 H   0  0  0  0  0  0  0  0  0  0  0  0
   -0.9164   -0.5944    4.6650 H   0  0  0  0  0  0  0  0  0  0  0  0
    0.4975   -1.6271    4.3598 H   0  0  0  0  0  0  0  0  0  0  0  0
  1  2  1  0  0  0  0
  2  3  1  0  0  0  0
  2  4  1  0  0  0  0
  2  5  1  0  0  0  0
  5  6  2  0  0  0  0
  5  7  1  0  0  0  0
  7  8  1  0  0  0  0
  7  9  1  0  0  0  0
  9 10  1  0  0  0  0
  9 11  1  0  0  0  0
  9 29  1  0  0  0  0
 11 12  1  0  0  0  0
 11 13  1  0  0  0  0
 11 14  1  0  0  0  0
 14 15  1  0  0  0  0
 14 16  1  0  0  0  0
 14 17  1  0  0  0  0
 17 18  1  0  0  0  0
 17 19  1  0  0  0  0
 17 20  1  0  0  0  0
 20 21  1  0  0  0  0
 20 22  2  0  0  0  0
 22 23  1  0  0  0  0
 22 26  1  0  0  0  0
 23 24  1  0  0  0  0
 23 25  1  0  0  0  0
 26 27  1  0  0  0  0
 26 28  1  0  0  0  0
 29 30  2  0  0  0  0
 29 31  1  0  0  0  0
 31 32  1  0  0  0  0
 31 33  1  0  0  0  0
 33 34  1  0  0  0  0
 33 35  1  0  0  0  0
 33 36  1  0  0  0  0
M  CHG  1  20   1
M  END
$$$$

  -OEChem-04042215563D

 36 35  0     1  0  0  0  0  0999 V2000
   -2.5200   -5.8439    1.0296 H   0  0  0  0  0  0  0  0  0  0  0  0
   -2.6895   -4.9054    0.4931 C   0  0  0  0  0  0  0  0  0  0  0  0
   -3.6436   -4.4844    0.8179 H   0  0  0  0  0  0  0  0  0  0  0  0
   -2.7346   -5.1194   -0.5774 H   0  0  0  0  0  0  0  0  0  0  0  0
   -1.5623   -3.9325    0.7820 C   0  0  0  0  0  0  0  0  0  0  0  0
   -0.6411   -4.2753    1.4979 O   0  0  0  0  0  0  0  0  0  0  0  0
   -1.5997   -2.6534    0.2521 N   0  0  0  0  0  0  0  0  0  0  0  0
   -2.3141   -2.5150   -0.4530 H   0  0  0  0  0  0  0  0  0  0  0  0
   -0.4126   -1.7689    0.2014 C   0  0  1  0  0  0  0  0  0  0  0  0
    0.3680   -2.3195   -0.3377 H   0  0  0  0  0  0  0  0  0  0  0  0
   -0.6273   -0.4190   -0.5452 C   0  0  0  0  0  0  0  0  0  0  0  0
   -0.3242    0.4168    0.0962 H   0  0  0  0  0  0  0  0  0  0  0  0
    0.0872   -0.4211   -1.3758 H   0  0  0  0  0  0  0  0  0  0  0  0
   -2.0140   -0.1152   -1.1528 C   0  0  0  0  0  0  0  0  0  0  0  0
   -1.8577    0.3293   -2.1423 H   0  0  0  0  0  0  0  0  0  0  0  0
   -2.6244   -1.0080   -1.3006 H   0  0  0  0  0  0  0  0  0  0  0  0
   -2.7323    0.9096   -0.2729 C   0  0  0  0  0  0  0  0  0  0  0  0
   -2.9275    0.4586    0.7065 H   0  0  0  0  0  0  0  0  0  0  0  0
   -2.0755    1.7751   -0.1277 H   0  0  0  0  0  0  0  0  0  0  0  0
   -3.9964    1.3460   -0.8946 N   0  3  0  0  0  0  0  0  0  0  0  0
   -4.1487    1.0950   -1.8709 H   0  0  0  0  0  0  0  0  0  0  0  0
   -4.8658    2.1027   -0.2870 C   0  0  0  0  0  0  0  0  0  0  0  0
   -4.6767    2.5269    1.0092 N   0  0  0  0  0  0  0  0  0  0  0  0
   -3.7566    2.3904    1.4237 H   0  0  0  0  0  0  0  0  0  0  0  0
   -5.2474    3.2945    1.3585 H   0  0  0  0  0  0  0  0  0  0  0  0
   -6.0042    2.4991   -0.9477 N   0  0  0  0  0  0  0  0  0  0  0  0
   -6.2362    2.0671   -1.8400 H   0  0  0  0  0  0  0  0  0  0  0  0
   -6.7572    2.9274   -0.4119 H   0  0  0  0  0  0  0  0  0  0  0  0
    0.1877   -1.4545    1.5937 C   0  0  0  0  0  0  0  0  0  0  0  0
    1.3734   -1.1660    1.6728 O   0  0  0  0  0  0  0  0  0  0  0  0
   -0.6529   -1.1182    2.6415 N   0  0  0  0  0  0  0  0  0  0  0  0
   -1.5680   -1.5550    2.5973 H   0  0  0  0  0  0  0  0  0  0  0  0
   -0.1258   -0.7894    3.9631 C   0  0  0  0  0  0  0  0  0  0  0  0
    0.5196    0.0941    3.9125 H   0  0  0  0  0  0  0  0  0  0  0  0
   -0.9440   -0.5768    4.6577 H   0  0  0  0  0  0  0  0  0  0  0  0
    0.4583   -1.6266    4.3607 H   0  0  0  0  0  0  0  0  0  0  0  0
  1  2  1  0  0  0  0
  2  3  1  0  0  0  0
  2  4  1  0  0  0  0
  2  5  1  0  0  0  0
  5  6  2  0  0  0  0
  5  7  1  0  0  0  0
  7  8  1  0  0  0  0
  7  9  1  0  0  0  0
  9 10  1  0  0  0  0
  9 11  1  0  0  0  0
  9 29  1  0  0  0  0
 11 12  1  0  0  0  0
 11 13  1  0  0  0  0
 11 14  1  0  0  0  0
 14 15  1  0  0  0  0
 14 16  1  0  0  0  0
 14 17  1  0  0  0  0
 17 18  1  0  0  0  0
 17 19  1  0  0  0  0
 17 20  1  0  0  0  0
 20 21  1  0  0  0  0
 20 22  2  0  0  0  0
 22 23  1  0  0  0  0
 22 26  1  0  0  0  0
 23 24  1  0  0  0  0
 23 25  1  0  0  0  0
 26 27  1  0  0  0  0
 26 28  1  0  0  0  0
 29 30  2  0  0  0  0
 29 31  1  0  0  0  0
 31 32  1  0  0  0  0
 31 33  1  0  0  0  0
 33 34  1  0  0  0  0
 33 35  1  0  0  0  0
 33 36  1  0  0  0  0
M  CHG  1  20   1
M  END
$$$$

  -OEChem-04042215563D

 36 35  0     1  0  0  0  0  0999 V2000
   -2.5485   -5.8463    0.9870 H   0  0  0  0  0  0  0  0  0  0  0  0
   -2.7380   -4.8866    0.4971 C   0  0  0  0  0  0  0  0  0  0  0  0
   -3.6837   -4.4854    0.8680 H   0  0  0  0  0  0  0  0  0  0  0  0
   -2.8149   -5.0546   -0.5797 H   0  0  0  0  0  0  0  0  0  0  0  0
   -1.6073   -3.9198    0.7940 C   0  0  0  0  0  0  0  0  0  0  0  0
   -0.6930   -4.2668    1.5171 O   0  0  0  0  0  0  0  0  0  0  0  0
   -1.6308   -2.6443    0.2551 N   0  0  0  0  0  0  0  0  0  0  0  0
   -2.3367   -2.5074   -0.4589 H   0  0  0  0  0  0  0  0  0  0  0  0
   -0.4355   -1.7718    0.2050 C   0  0  1  0  0  0  0  0  0  0  0  0
    0.3412   -2.3370   -0.3244 H   0  0  0  0  0  0  0  0  0  0  0  0
   -0.6244   -0.4252   -0.5581 C   0  0  0  0  0  0  0  0  0  0  0  0
   -0.3323    0.4015    0.1005 H   0  0  0  0  0  0  0  0  0  0  0  0
    0.1126   -0.4211   -1.3688 H   0  0  0  0  0  0  0  0  0  0  0  0
   -1.9987   -0.0963   -1.1895 C   0  0  0  0  0  0  0  0  0  0  0  0
   -1.8629    0.0452   -2.2675 H   0  0  0  0  0  0  0  0  0  0  0  0
   -2.7317   -0.8931   -1.0582 H   0  0  0  0  0  0  0  0  0  0  0  0
   -2.5388    1.1941   -0.5681 C   0  0  0  0  0  0  0  0  0  0  0  0
   -2.6818    1.0326    0.5063 H   0  0  0  0  0  0  0  0  0  0  0  0
   -1.7962    1.9893   -0.7012 H   0  0  0  0  0  0  0  0  0  0  0  0
   -3.8119    1.5934   -1.1959 N   0  3  0  0  0  0  0  0  0  0  0  0
   -4.0468    1.1662   -2.0909 H   0  0  0  0  0  0  0  0  0  0  0  0
   -4.5948    2.5103   -0.7025 C   0  0  0  0  0  0  0  0  0  0  0  0
   -4.2906    3.1712    0.4665 N   0  0  0  0  0  0  0  0  0  0  0  0
   -3.3510    3.0616    0.8435 H   0  0  0  0  0  0  0  0  0  0  0  0
   -4.7964    4.0263    0.6896 H   0  0  0  0  0  0  0  0  0  0  0  0
   -5.7577    2.8381   -1.3584 N   0  0  0  0  0  0  0  0  0  0  0  0
   -6.0780    2.2454   -2.1217 H   0  0  0  0  0  0  0  0  0  0  0  0
   -6.4497    3.4048   -0.8705 H   0  0  0  0  0  0  0  0  0  0  0  0
    0.1633   -1.4513    1.5964 C   0  0  0  0  0  0  0  0  0  0  0  0
    1.3508   -1.1700    1.6744 O   0  0  0  0  0  0  0  0  0  0  0  0
   -0.6759   -1.0980    2.6392 N   0  0  0  0  0  0  0  0  0  0  0  0
   -1.5986   -1.5194    2.5993 H   0  0  0  0  0  0  0  0  0  0  0  0
   -0.1533   -0.7313    3.9520 C   0  0  0  0  0  0  0  0  0  0  0  0
    0.5116    0.1356    3.8735 H   0  0  0  0  0  0  0  0  0  0  0  0
   -0.9730   -0.4737    4.6296 H   0  0  0  0  0  0  0  0  0  0  0  0
    0.4090   -1.5650    4.3865 H   0  0  0  0  0  0  0  0  0  0  0  0
  1  2  1  0  0  0  0
  2  3  1  0  0  0  0
  2  4  1  0  0  0  0
  2  5  1  0  0  0  0
  5  6  2  0  0  0  0
  5  7  1  0  0  0  0
  7  8  1  0  0  0  0
  7  9  1  0  0  0  0
  9 10  1  0  0  0  0
  9 11  1  0  0  0  0
  9 29  1  0  0  0  0
 11 12  1  0  0  0  0
 11 13  1  0  0  0  0
 11 14  1  0  0  0  0
 14 15  1  0  0  0  0
 14 16  1  0  0  0  0
 14 17  1  0  0  0  0
 17 18  1  0  0  0  0
 17 19  1  0  0  0  0
 17 20  1  0  0  0  0
 20 21  1  0  0  0  0
 20 22  2  0  0  0  0
 22 23  1  0  0  0  0
 22 26  1  0  0  0  0
 23 24  1  0  0  0  0
 23 25  1  0  0  0  0
 26 27  1  0  0  0  0
 26 28  1  0  0  0  0
 29 30  2  0  0  0  0
 29 31  1  0  0  0  0
 31 32  1  0  0  0  0
 31 33  1  0  0  0  0
 33 34  1  0  0  0  0
 33 35  1  0  0  0  0
 33 36  1  0  0  0  0
M  CHG  1  20   1
M  END
$$$$

  -OEChem-04042215563D

 36 35  0     1  0  0  0  0  0999 V2000
   -2.5828   -5.8086    0.9975 H   0  0  0  0  0  0  0  0  0  0  0  0
   -2.7695   -4.8444    0.5149 C   0  0  0  0  0  0  0  0  0  0  0  0
   -3.6983   -4.4281    0.9116 H   0  0  0  0  0  0  0  0  0  0  0  0
   -2.8773   -5.0081   -0.5599 H   0  0  0  0  0  0  0  0  0  0  0  0
   -1.6164   -3.8967    0.7851 C   0  0  0  0  0  0  0  0  0  0  0  0
   -0.6920   -4.2580    1.4879 O   0  0  0  0  0  0  0  0  0  0  0  0
   -1.6316   -2.6212    0.2463 N   0  0  0  0  0  0  0  0  0  0  0  0
   -2.3471   -2.4697   -0.4554 H   0  0  0  0  0  0  0  0  0  0  0  0
   -0.4347   -1.7513    0.2005 C   0  0  1  0  0  0  0  0  0  0  0  0
    0.3431   -2.3194   -0.3240 H   0  0  0  0  0  0  0  0  0  0  0  0
   -0.6217   -0.4121   -0.5750 C   0  0  0  0  0  0  0  0  0  0  0  0
   -0.3672    0.4097    0.1048 H   0  0  0  0  0  0  0  0  0  0  0  0
    0.1326   -0.3805   -1.3689 H   0  0  0  0  0  0  0  0  0  0  0  0
   -1.9960   -0.1017   -1.2140 C   0  0  0  0  0  0  0  0  0  0  0  0
   -1.9403   -0.2708   -2.2952 H   0  0  0  0  0  0  0  0  0  0  0  0
   -2.7884   -0.7367   -0.8129 H   0  0  0  0  0  0  0  0  0  0  0  0
   -2.3724    1.3502   -0.9077 C   0  0  0  0  0  0  0  0  0  0  0  0
   -2.4334    1.4763    0.1791 H   0  0  0  0  0  0  0  0  0  0  0  0
   -1.5829    2.0090   -1.2872 H   0  0  0  0  0  0  0  0  0  0  0  0
   -3.6605    1.7071   -1.5301 N   0  3  0  0  0  0  0  0  0  0  0  0
   -4.0094    1.0969   -2.2678 H   0  0  0  0  0  0  0  0  0  0  0  0
   -4.3242    2.7869   -1.2288 C   0  0  0  0  0  0  0  0  0  0  0  0
   -3.8664    3.6826   -0.2888 N   0  0  0  0  0  0  0  0  0  0  0  0
   -2.9099    3.5765    0.0440 H   0  0  0  0  0  0  0  0  0  0  0  0
   -4.2812    4.6120   -0.2580 H   0  0  0  0  0  0  0  0  0  0  0  0
   -5.5136    3.0538   -1.8638 N   0  0  0  0  0  0  0  0  0  0  0  0
   -5.9466    2.3244   -2.4265 H   0  0  0  0  0  0  0  0  0  0  0  0
   -6.1133    3.7856   -1.4863 H   0  0  0  0  0  0  0  0  0  0  0  0
    0.1584   -1.4318    1.5944 C   0  0  0  0  0  0  0  0  0  0  0  0
    1.3486   -1.1639    1.6810 O   0  0  0  0  0  0  0  0  0  0  0  0
   -0.6844   -1.0765    2.6331 N   0  0  0  0  0  0  0  0  0  0  0  0
   -1.6196   -1.4670    2.5753 H   0  0  0  0  0  0  0  0  0  0  0  0
   -0.1706   -0.7328    3.9551 C   0  0  0  0  0  0  0  0  0  0  0  0
    0.4998    0.1313    3.8951 H   0  0  0  0  0  0  0  0  0  0  0  0
   -0.9944   -0.4815    4.6297 H   0  0  0  0  0  0  0  0  0  0  0  0
    0.3832   -1.5764    4.3813 H   0  0  0  0  0  0  0  0  0  0  0  0
  1  2  1  0  0  0  0
  2  3  1  0  0  0  0
  2  4  1  0  0  0  0
  2  5  1  0  0  0  0
  5  6  2  0  0  0  0
  5  7  1  0  0  0  0
  7  8  1  0  0  0  0
  7  9  1  0  0  0  0
  9 10  1  0  0  0  0
  9 11  1  0  0  0  0
  9 29  1  0  0  0  0
 11 12  1  0  0  0  0
 11 13  1  0  0  0  0
 11 14  1  0  0  0  0
 14 15  1  0  0  0  0
 14 16  1  0  0  0  0
 14 17  1  0  0  0  0
 17 18  1  0  0  0  0
 17 19  1  0  0  0  0
 17 20  1  0  0  0  0
 20 21  1  0  0  0  0
 20 22  2  0  0  0  0
 22 23  1  0  0  0  0
 22 26  1  0  0  0  0
 23 24  1  0  0  0  0
 23 25  1  0  0  0  0
 26 27  1  0  0  0  0
 26 28  1  0  0  0  0
 29 30  2  0  0  0  0
 29 31  1  0  0  0  0
 31 32  1  0  0  0  0
 31 33  1  0  0  0  0
 33 34  1  0  0  0  0
 33 35  1  0  0  0  0
 33 36  1  0  0  0  0
M  CHG  1  20   1
M  END
$$$$

  -OEChem-04042215563D

 36 35  0     1  0  0  0  0  0999 V2000
   -2.6234   -5.7692    0.9932 H   0  0  0  0  0  0  0  0  0  0  0  0
   -2.8082   -4.7990    0.5222 C   0  0  0  0  0  0  0  0  0  0  0  0
   -3.7198   -4.3726    0.9473 H   0  0  0  0  0  0  0  0  0  0  0  0
   -2.9475   -4.9542   -0.5503 H   0  0  0  0  0  0  0  0  0  0  0  0
   -1.6328   -3.8716    0.7678 C   0  0  0  0  0  0  0  0  0  0  0  0
   -0.6924   -4.2555    1.4367 O   0  0  0  0  0  0  0  0  0  0  0  0
   -1.6376   -2.5925    0.2378 N   0  0  0  0  0  0  0  0  0  0  0  0
   -2.3740   -2.4093   -0.4338 H   0  0  0  0  0  0  0  0  0  0  0  0
   -0.4353   -1.7295    0.1995 C   0  0  1  0  0  0  0  0  0  0  0  0
    0.3386   -2.3021   -0.3258 H   0  0  0  0  0  0  0  0  0  0  0  0
   -0.6168   -0.3957   -0.5815 C   0  0  0  0  0  0  0  0  0  0  0  0
   -0.3890    0.4283    0.1051 H   0  0  0  0  0  0  0  0  0  0  0  0
    0.1434   -0.3523   -1.3693 H   0  0  0  0  0  0  0  0  0  0  0  0
   -1.9932   -0.1145   -1.2171 C   0  0  0  0  0  0  0  0  0  0  0  0
   -2.0357   -0.5520   -2.2205 H   0  0  0  0  0  0  0  0  0  0  0  0
   -2.7966   -0.5465   -0.6142 H   0  0  0  0  0  0  0  0  0  0  0  0
   -2.2211    1.3983   -1.2570 C   0  0  0  0  0  0  0  0  0  0  0  0
   -2.1878    1.7879   -0.2332 H   0  0  0  0  0  0  0  0  0  0  0  0
   -1.4104    1.8634   -1.8294 H   0  0  0  0  0  0  0  0  0  0  0  0
   -3.5194    1.7208   -1.8778 N   0  3  0  0  0  0  0  0  0  0  0  0
   -3.9827    0.9825   -2.4056 H   0  0  0  0  0  0  0  0  0  0  0  0
   -4.0603    2.9051   -1.8297 C   0  0  0  0  0  0  0  0  0  0  0  0
   -3.4476    3.9579   -1.1879 N   0  0  0  0  0  0  0  0  0  0  0  0
   -2.4785    3.8409   -0.8979 H   0  0  0  0  0  0  0  0  0  0  0  0
   -3.7791    4.9026   -1.3730 H   0  0  0  0  0  0  0  0  0  0  0  0
   -5.2743    3.1238   -2.4366 N   0  0  0  0  0  0  0  0  0  0  0  0
   -5.8152    2.3243   -2.7605 H   0  0  0  0  0  0  0  0  0  0  0  0
   -5.7753    3.9858   -2.2268 H   0  0  0  0  0  0  0  0  0  0  0  0
    0.1620   -1.4183    1.5928 C   0  0  0  0  0  0  0  0  0  0  0  0
    1.3545   -1.1603    1.6773 O   0  0  0  0  0  0  0  0  0  0  0  0
   -0.6757   -1.0617    2.6352 N   0  0  0  0  0  0  0  0  0  0  0  0
   -1.6198   -1.4286    2.5725 H   0  0  0  0  0  0  0  0  0  0  0  0
   -0.1582   -0.7324    3.9592 C   0  0  0  0  0  0  0  0  0  0  0  0
    0.5229    0.1235    3.9050 H   0  0  0  0  0  0  0  0  0  0  0  0
   -0.9789   -0.4750    4.6353 H   0  0  0  0  0  0  0  0  0  0  0  0
    0.3846   -1.5859    4.3800 H   0  0  0  0  0  0  0  0  0  0  0  0
  1  2  1  0  0  0  0
  2  3  1  0  0  0  0
  2  4  1  0  0  0  0
  2  5  1  0  0  0  0
  5  6  2  0  0  0  0
  5  7  1  0  0  0  0
  7  8  1  0  0  0  0
  7  9  1  0  0  0  0
  9 10  1  0  0  0  0
  9 11  1  0  0  0  0
  9 29  1  0  0  0  0
 11 12  1  0  0  0  0
 11 13  1  0  0  0  0
 11 14  1  0  0  0  0
 14 15  1  0  0  0  0
 14 16  1  0  0  0  0
 14 17  1  0  0  0  0
 17 18  1  0  0  0  0
 17 19  1  0  0  0  0
 17 20  1  0  0  0  0
 20 21  1  0  0  0  0
 20 22  2  0  0  0  0
 22 23  1  0  0  0  0
 22 26  1  0  0  0  0
 23 24  1  0  0  0  0
 23 25  1  0  0  0  0
 26 27  1  0  0  0  0
 26 28  1  0  0  0  0
 29 30  2  0  0  0  0
 29 31  1  0  0  0  0
 31 32  1  0  0  0  0
 31 33  1  0  0  0  0
 33 34  1  0  0  0  0
 33 35  1  0  0  0  0
 33 36  1  0  0  0  0
M  CHG  1  20   1
M  END
$$$$

  -OEChem-04042215563D

 36 35  0     1  0  0  0  0  0999 V2000
   -2.6513   -5.7398    0.9975 H   0  0  0  0  0  0  0  0  0  0  0  0
   -2.8344   -4.7656    0.5343 C   0  0  0  0  0  0  0  0  0  0  0  0
   -3.7301   -4.3286    0.9815 H   0  0  0  0  0  0  0  0  0  0  0  0
   -2.9998   -4.9142   -0.5353 H   0  0  0  0  0  0  0  0  0  0  0  0
   -1.6422   -3.8545    0.7561 C   0  0  0  0  0  0  0  0  0  0  0  0
   -0.6915   -4.2535    1.4014 O   0  0  0  0  0  0  0  0  0  0  0  0
   -1.6428   -2.5729    0.2322 N   0  0  0  0  0  0  0  0  0  0  0  0
   -2.4020   -2.3620   -0.4051 H   0  0  0  0  0  0  0  0  0  0  0  0
   -0.4384   -1.7136    0.1957 C   0  0  1  0  0  0  0  0  0  0  0  0
    0.3325   -2.2865   -0.3333 H   0  0  0  0  0  0  0  0  0  0  0  0
   -0.6263   -0.3853   -0.5873 C   0  0  0  0  0  0  0  0  0  0  0  0
   -0.4089    0.4479    0.0917 H   0  0  0  0  0  0  0  0  0  0  0  0
    0.1294   -0.3447   -1.3795 H   0  0  0  0  0  0  0  0  0  0  0  0
   -2.0087   -0.1338   -1.2119 C   0  0  0  0  0  0  0  0  0  0  0  0
   -2.1478   -0.7780   -2.0869 H   0  0  0  0  0  0  0  0  0  0  0  0
   -2.7971   -0.3507   -0.4836 H   0  0  0  0  0  0  0  0  0  0  0  0
   -2.1009    1.3432   -1.5990 C   0  0  0  0  0  0  0  0  0  0  0  0
   -1.9630    1.9533   -0.6991 H   0  0  0  0  0  0  0  0  0  0  0  0
   -1.2908    1.5763   -2.2998 H   0  0  0  0  0  0  0  0  0  0  0  0
   -3.4025    1.6493   -2.2206 N   0  3  0  0  0  0  0  0  0  0  0  0
   -3.9789    0.8622   -2.5137 H   0  0  0  0  0  0  0  0  0  0  0  0
   -3.8133    2.8627   -2.4574 C   0  0  0  0  0  0  0  0  0  0  0  0
   -3.0528    3.9633   -2.1316 N   0  0  0  0  0  0  0  0  0  0  0  0
   -2.0864    3.8105   -1.8494 H   0  0  0  0  0  0  0  0  0  0  0  0
   -3.2963    4.8653   -2.5362 H   0  0  0  0  0  0  0  0  0  0  0  0
   -5.0361    3.0626   -3.0531 N   0  0  0  0  0  0  0  0  0  0  0  0
   -5.6806    2.2784   -3.1322 H   0  0  0  0  0  0  0  0  0  0  0  0
   -5.4260    4.0037   -3.0611 H   0  0  0  0  0  0  0  0  0  0  0  0
    0.1678   -1.4062    1.5855 C   0  0  0  0  0  0  0  0  0  0  0  0
    1.3623   -1.1551    1.6622 O   0  0  0  0  0  0  0  0  0  0  0  0
   -0.6600   -1.0487    2.6354 N   0  0  0  0  0  0  0  0  0  0  0  0
   -1.6089   -1.4039    2.5778 H   0  0  0  0  0  0  0  0  0  0  0  0
   -0.1311   -0.7245    3.9566 C   0  0  0  0  0  0  0  0  0  0  0  0
    0.5505    0.1310    3.8999 H   0  0  0  0  0  0  0  0  0  0  0  0
   -0.9457   -0.4687    4.6412 H   0  0  0  0  0  0  0  0  0  0  0  0
    0.4148   -1.5798    4.3700 H   0  0  0  0  0  0  0  0  0  0  0  0
  1  2  1  0  0  0  0
  2  3  1  0  0  0  0
  2  4  1  0  0  0  0
  2  5  1  0  0  0  0
  5  6  2  0  0  0  0
  5  7  1  0  0  0  0
  7  8  1  0  0  0  0
  7  9  1  0  0  0  0
  9 10  1  0  0  0  0
  9 11  1  0  0  0  0
  9 29  1  0  0  0  0
 11 12  1  0  0  0  0
 11 13  1  0  0  0  0
 11 14  1  0  0  0  0
 14 15  1  0  0  0  0
 14 16  1  0  0  0  0
 14 17  1  0  0  0  0
 17 18  1  0  0  0  0
 17 19  1  0  0  0  0
 17 20  1  0  0  0  0
 20 21  1  0  0  0  0
 20 22  2  0  0  0  0
 22 23  1  0  0  0  0
 22 26  1  0  0  0  0
 23 24  1  0  0  0  0
 23 25  1  0  0  0  0
 26 27  1  0  0  0  0
 26 28  1  0  0  0  0
 29 30  2  0  0  0  0
 29 31  1  0  0  0  0
 31 32  1  0  0  0  0
 31 33  1  0  0  0  0
 33 34  1  0  0  0  0
 33 35  1  0  0  0  0
 33 36  1  0  0  0  0
M  CHG  1  20   1
M  END
$$$$

  -OEChem-04042215563D

 36 35  0     1  0  0  0  0  0999 V2000
   -2.6454   -5.7288    0.9560 H   0  0  0  0  0  0  0  0  0  0  0  0
   -2.8218   -4.7526    0.4942 C   0  0  0  0  0  0  0  0  0  0  0  0
   -3.7240   -4.3176    0.9300 H   0  0  0  0  0  0  0  0  0  0  0  0
   -2.9722   -4.8968   -0.5781 H   0  0  0  0  0  0  0  0  0  0  0  0
   -1.6330   -3.8420    0.7360 C   0  0  0  0  0  0  0  0  0  0  0  0
   -0.6923   -4.2413    1.3951 O   0  0  0  0  0  0  0  0  0  0  0  0
   -1.6256   -2.5603    0.2128 N   0  0  0  0  0  0  0  0  0  0  0  0
   -2.3691   -2.3572   -0.4451 H   0  0  0  0  0  0  0  0  0  0  0  0
   -0.4180   -1.7049    0.1835 C   0  0  1  0  0  0  0  0  0  0  0  0
    0.3620   -2.2642   -0.3469 H   0  0  0  0  0  0  0  0  0  0  0  0
   -0.6236   -0.3648   -0.5714 C   0  0  0  0  0  0  0  0  0  0  0  0
   -0.1281    0.4443   -0.0214 H   0  0  0  0  0  0  0  0  0  0  0  0
   -0.1061   -0.4509   -1.5330 H   0  0  0  0  0  0  0  0  0  0  0  0
   -2.0770    0.0459   -0.8518 C   0  0  0  0  0  0  0  0  0  0  0  0
   -2.5746   -0.7094   -1.4683 H   0  0  0  0  0  0  0  0  0  0  0  0
   -2.6210    0.1437    0.0942 H   0  0  0  0  0  0  0  0  0  0  0  0
   -2.0634    1.3823   -1.5955 C   0  0  0  0  0  0  0  0  0  0  0  0
   -1.5329    2.1207   -0.9830 H   0  0  0  0  0  0  0  0  0  0  0  0
   -1.5159    1.2585   -2.5370 H   0  0  0  0  0  0  0  0  0  0  0  0
   -3.4334    1.8528   -1.8719 N   0  3  0  0  0  0  0  0  0  0  0  0
   -4.2003    1.2146   -1.6660 H   0  0  0  0  0  0  0  0  0  0  0  0
   -3.6955    3.0200   -2.3881 C   0  0  0  0  0  0  0  0  0  0  0  0
   -2.6977    3.9125   -2.7097 N   0  0  0  0  0  0  0  0  0  0  0  0
   -1.7328    3.5891   -2.6741 H   0  0  0  0  0  0  0  0  0  0  0  0
   -2.9185    4.7033   -3.3120 H   0  0  0  0  0  0  0  0  0  0  0  0
   -4.9999    3.3802   -2.6289 N   0  0  0  0  0  0  0  0  0  0  0  0
   -5.7484    2.8180   -2.2289 H   0  0  0  0  0  0  0  0  0  0  0  0
   -5.2021    4.3526   -2.8551 H   0  0  0  0  0  0  0  0  0  0  0  0
    0.1739   -1.4055    1.5820 C   0  0  0  0  0  0  0  0  0  0  0  0
    1.3704   -1.1697    1.6752 O   0  0  0  0  0  0  0  0  0  0  0  0
   -0.6618   -1.0488    2.6262 N   0  0  0  0  0  0  0  0  0  0  0  0
   -1.6108   -1.4015    2.5579 H   0  0  0  0  0  0  0  0  0  0  0  0
   -0.1426   -0.7430    3.9558 C   0  0  0  0  0  0  0  0  0  0  0  0
    0.5391    0.1135    3.9170 H   0  0  0  0  0  0  0  0  0  0  0  0
   -0.9627   -0.4975    4.6373 H   0  0  0  0  0  0  0  0  0  0  0  0
    0.3998   -1.6041    4.3611 H   0  0  0  0  0  0  0  0  0  0  0  0
  1  2  1  0  0  0  0
  2  3  1  0  0  0  0
  2  4  1  0  0  0  0
  2  5  1  0  0  0  0
  5  6  2  0  0  0  0
  5  7  1  0  0  0  0
  7  8  1  0  0  0  0
  7  9  1  0  0  0  0
  9 10  1  0  0  0  0
  9 11  1  0  0  0  0
  9 29  1  0  0  0  0
 11 12  1  0  0  0  0
 11 13  1  0  0  0  0
 11 14  1  0  0  0  0
 14 15  1  0  0  0  0
 14 16  1  0  0  0  0
 14 17  1  0  0  0  0
 17 18  1  0  0  0  0
 17 19  1  0  0  0  0
 17 20  1  0  0  0  0
 20 21  1  0  0  0  0
 20 22  2  0  0  0  0
 22 23  1  0  0  0  0
 22 26  1  0  0  0  0
 23 24  1  0  0  0  0
 23 25  1  0  0  0  0
 26 27  1  0  0  0  0
 26 28  1  0  0  0  0
 29 30  2  0  0  0  0
 29 31  1  0  0  0  0
 31 32  1  0  0  0  0
 31 33  1  0  0  0  0
 33 34  1  0  0  0  0
 33 35  1  0  0  0  0
 33 36  1  0  0  0  0
M  CHG  1  20   1
M  END
$$$$

  -OEChem-04042215563D

 36 35  0     1  0  0  0  0  0999 V2000
   -2.6317   -5.7391    1.0024 H   0  0  0  0  0  0  0  0  0  0  0  0
   -2.8212   -4.7618    0.5485 C   0  0  0  0  0  0  0  0  0  0  0  0
   -3.6992   -4.3193    1.0245 H   0  0  0  0  0  0  0  0  0  0  0  0
   -3.0213   -4.9042   -0.5160 H   0  0  0  0  0  0  0  0  0  0  0  0
   -1.6158   -3.8604    0.7365 C   0  0  0  0  0  0  0  0  0  0  0  0
   -0.6449   -4.2694    1.3439 O   0  0  0  0  0  0  0  0  0  0  0  0
   -1.6290   -2.5740    0.2253 N   0  0  0  0  0  0  0  0  0  0  0  0
   -2.4088   -2.3519   -0.3820 H   0  0  0  0  0  0  0  0  0  0  0  0
   -0.4326   -1.7044    0.1826 C   0  0  1  0  0  0  0  0  0  0  0  0
    0.3444   -2.2560   -0.3604 H   0  0  0  0  0  0  0  0  0  0  0  0
   -0.6476   -0.3586   -0.5631 C   0  0  0  0  0  0  0  0  0  0  0  0
   -0.1397    0.4514   -0.0267 H   0  0  0  0  0  0  0  0  0  0  0  0
   -0.1372   -0.4576   -1.5274 H   0  0  0  0  0  0  0  0  0  0  0  0
   -2.0993    0.0702   -0.8406 C   0  0  0  0  0  0  0  0  0  0  0  0
   -2.6793   -0.7628   -1.2471 H   0  0  0  0  0  0  0  0  0  0  0  0
   -2.5699    0.4037    0.0909 H   0  0  0  0  0  0  0  0  0  0  0  0
   -2.0836    1.1925   -1.8798 C   0  0  0  0  0  0  0  0  0  0  0  0
   -1.4834    2.0228   -1.4907 H   0  0  0  0  0  0  0  0  0  0  0  0
   -1.6082    0.8230   -2.7954 H   0  0  0  0  0  0  0  0  0  0  0  0
   -3.4501    1.6608   -2.1768 N   0  3  0  0  0  0  0  0  0  0  0  0
   -4.2220    1.1722   -1.7259 H   0  0  0  0  0  0  0  0  0  0  0  0
   -3.7055    2.6535   -2.9811 C   0  0  0  0  0  0  0  0  0  0  0  0
   -2.7014    3.3426   -3.6235 N   0  0  0  0  0  0  0  0  0  0  0  0
   -1.7532    2.9754   -3.5682 H   0  0  0  0  0  0  0  0  0  0  0  0
   -2.9399    3.9457   -4.4086 H   0  0  0  0  0  0  0  0  0  0  0  0
   -5.0083    3.0300   -3.2053 N   0  0  0  0  0  0  0  0  0  0  0  0
   -5.7387    2.6555   -2.6032 H   0  0  0  0  0  0  0  0  0  0  0  0
   -5.1836    3.9189   -3.6707 H   0  0  0  0  0  0  0  0  0  0  0  0
    0.1780   -1.4113    1.5736 C   0  0  0  0  0  0  0  0  0  0  0  0
    1.3747   -1.1716    1.6517 O   0  0  0  0  0  0  0  0  0  0  0  0
   -0.6438   -1.0739    2.6347 N   0  0  0  0  0  0  0  0  0  0  0  0
   -1.5948   -1.4222    2.5748 H   0  0  0  0  0  0  0  0  0  0  0  0
   -0.1075   -0.7730    3.9585 C   0  0  0  0  0  0  0  0  0  0  0  0
    0.5756    0.0821    3.9133 H   0  0  0  0  0  0  0  0  0  0  0  0
   -0.9185   -0.5271    4.6506 H   0  0  0  0  0  0  0  0  0  0  0  0
    0.4385   -1.6363    4.3548 H   0  0  0  0  0  0  0  0  0  0  0  0
  1  2  1  0  0  0  0
  2  3  1  0  0  0  0
  2  4  1  0  0  0  0
  2  5  1  0  0  0  0
  5  6  2  0  0  0  0
  5  7  1  0  0  0  0
  7  8  1  0  0  0  0
  7  9  1  0  0  0  0
  9 10  1  0  0  0  0
  9 11  1  0  0  0  0
  9 29  1  0  0  0  0
 11 12  1  0  0  0  0
 11 13  1  0  0  0  0
 11 14  1  0  0  0  0
 14 15  1  0  0  0  0
 14 16  1  0  0  0  0
 14 17  1  0  0  0  0
 17 18  1  0  0  0  0
 17 19  1  0  0  0  0
 17 20  1  0  0  0  0
 20 21  1  0  0  0  0
 20 22  2  0  0  0  0
 22 23  1  0  0  0  0
 22 26  1  0  0  0  0
 23 24  1  0  0  0  0
 23 25  1  0  0  0  0
 26 27  1  0  0  0  0
 26 28  1  0  0  0  0
 29 30  2  0  0  0  0
 29 31  1  0  0  0  0
 31 32  1  0  0  0  0
 31 33  1  0  0  0  0
 33 34  1  0  0  0  0
 33 35  1  0  0  0  0
 33 36  1  0  0  0  0
M  CHG  1  20   1
M  END
$$$$

  -OEChem-04042215563D

 36 35  0     1  0  0  0  0  0999 V2000
   -2.6084   -5.7701    1.0568 H   0  0  0  0  0  0  0  0  0  0  0  0
   -2.8081   -4.8011    0.5893 C   0  0  0  0  0  0  0  0  0  0  0  0
   -3.6921   -4.3627    1.0579 H   0  0  0  0  0  0  0  0  0  0  0  0
   -3.0037   -4.9603   -0.4737 H   0  0  0  0  0  0  0  0  0  0  0  0
   -1.6135   -3.8835    0.7678 C   0  0  0  0  0  0  0  0  0  0  0  0
   -0.6313   -4.2817    1.3641 O   0  0  0  0  0  0  0  0  0  0  0  0
   -1.6445   -2.5994    0.2515 N   0  0  0  0  0  0  0  0  0  0  0  0
   -2.4315   -2.3914   -0.3511 H   0  0  0  0  0  0  0  0  0  0  0  0
   -0.4548   -1.7218    0.1861 C   0  0  1  0  0  0  0  0  0  0  0  0
    0.3168   -2.2763   -0.3623 H   0  0  0  0  0  0  0  0  0  0  0  0
   -0.6717   -0.3766   -0.5642 C   0  0  0  0  0  0  0  0  0  0  0  0
   -0.1450    0.4337   -0.0458 H   0  0  0  0  0  0  0  0  0  0  0  0
   -0.1657   -0.4973   -1.5284 H   0  0  0  0  0  0  0  0  0  0  0  0
   -2.1176    0.0836   -0.8458 C   0  0  0  0  0  0  0  0  0  0  0  0
   -2.7902   -0.7637   -0.9942 H   0  0  0  0  0  0  0  0  0  0  0  0
   -2.4838    0.6659    0.0070 H   0  0  0  0  0  0  0  0  0  0  0  0
   -2.1306    0.9162   -2.1301 C   0  0  0  0  0  0  0  0  0  0  0  0
   -1.3977    1.7252   -2.0311 H   0  0  0  0  0  0  0  0  0  0  0  0
   -1.8303    0.2802   -2.9702 H   0  0  0  0  0  0  0  0  0  0  0  0
   -3.4678    1.4865   -2.3806 N   0  3  0  0  0  0  0  0  0  0  0  0
   -4.1740    1.3612   -1.6567 H   0  0  0  0  0  0  0  0  0  0  0  0
   -3.7591    2.1860   -3.4408 C   0  0  0  0  0  0  0  0  0  0  0  0
   -2.8292    2.4321   -4.4258 N   0  0  0  0  0  0  0  0  0  0  0  0
   -1.8555    2.2076   -4.2300 H   0  0  0  0  0  0  0  0  0  0  0  0
   -3.0237    3.1599   -5.1109 H   0  0  0  0  0  0  0  0  0  0  0  0
   -5.0246    2.7010   -3.5923 N   0  0  0  0  0  0  0  0  0  0  0  0
   -5.7623    2.3945   -2.9612 H   0  0  0  0  0  0  0  0  0  0  0  0
   -5.2960    3.0679   -4.5031 H   0  0  0  0  0  0  0  0  0  0  0  0
    0.1744   -1.4200    1.5676 C   0  0  0  0  0  0  0  0  0  0  0  0
    1.3716   -1.1764    1.6268 O   0  0  0  0  0  0  0  0  0  0  0  0
   -0.6322   -1.0845    2.6409 N   0  0  0  0  0  0  0  0  0  0  0  0
   -1.5833   -1.4348    2.5963 H   0  0  0  0  0  0  0  0  0  0  0  0
   -0.0775   -0.7735    3.9547 C   0  0  0  0  0  0  0  0  0  0  0  0
    0.5960    0.0881    3.8950 H   0  0  0  0  0  0  0  0  0  0  0  0
   -0.8792   -0.5331    4.6593 H   0  0  0  0  0  0  0  0  0  0  0  0
    0.4835   -1.6296    4.3453 H   0  0  0  0  0  0  0  0  0  0  0  0
  1  2  1  0  0  0  0
  2  3  1  0  0  0  0
  2  4  1  0  0  0  0
  2  5  1  0  0  0  0
  5  6  2  0  0  0  0
  5  7  1  0  0  0  0
  7  8  1  0  0  0  0
  7  9  1  0  0  0  0
  9 10  1  0  0  0  0
  9 11  1  0  0  0  0
  9 29  1  0  0  0  0
 11 12  1  0  0  0  0
 11 13  1  0  0  0  0
 11 14  1  0  0  0  0
 14 15  1  0  0  0  0
 14 16  1  0  0  0  0
 14 17  1  0  0  0  0
 17 18  1  0  0  0  0
 17 19  1  0  0  0  0
 17 20  1  0  0  0  0
 20 21  1  0  0  0  0
 20 22  2  0  0  0  0
 22 23  1  0  0  0  0
 22 26  1  0  0  0  0
 23 24  1  0  0  0  0
 23 25  1  0  0  0  0
 26 27  1  0  0  0  0
 26 28  1  0  0  0  0
 29 30  2  0  0  0  0
 29 31  1  0  0  0  0
 31 32  1  0  0  0  0
 31 33  1  0  0  0  0
 33 34  1  0  0  0  0
 33 35  1  0  0  0  0
 33 36  1  0  0  0  0
M  CHG  1  20   1
M  END
$$$$

  -OEChem-04042215563D

 36 35  0     1  0  0  0  0  0999 V2000
   -2.6484   -5.7502    1.0986 H   0  0  0  0  0  0  0  0  0  0  0  0
   -2.8334   -4.7849    0.6178 C   0  0  0  0  0  0  0  0  0  0  0  0
   -3.7112   -4.3270    1.0793 H   0  0  0  0  0  0  0  0  0  0  0  0
   -3.0311   -4.9557   -0.4427 H   0  0  0  0  0  0  0  0  0  0  0  0
   -1.6251   -3.8830    0.7837 C   0  0  0  0  0  0  0  0  0  0  0  0
   -0.6448   -4.2917    1.3759 O   0  0  0  0  0  0  0  0  0  0  0  0
   -1.6417   -2.6015    0.2593 N   0  0  0  0  0  0  0  0  0  0  0  0
   -2.4246   -2.3889   -0.3472 H   0  0  0  0  0  0  0  0  0  0  0  0
   -0.4435   -1.7355    0.1916 C   0  0  1  0  0  0  0  0  0  0  0  0
    0.3249   -2.3008   -0.3498 H   0  0  0  0  0  0  0  0  0  0  0  0
   -0.6410   -0.3899   -0.5665 C   0  0  0  0  0  0  0  0  0  0  0  0
   -0.1067    0.4129   -0.0444 H   0  0  0  0  0  0  0  0  0  0  0  0
   -0.1223   -0.5167   -1.5230 H   0  0  0  0  0  0  0  0  0  0  0  0
   -2.0780    0.1011   -0.8626 C   0  0  0  0  0  0  0  0  0  0  0  0
   -2.8233   -0.6831   -0.7226 H   0  0  0  0  0  0  0  0  0  0  0  0
   -2.3210    0.9103   -0.1649 H   0  0  0  0  0  0  0  0  0  0  0  0
   -2.1684    0.5982   -2.3079 C   0  0  0  0  0  0  0  0  0  0  0  0
   -1.3977    1.3607   -2.4680 H   0  0  0  0  0  0  0  0  0  0  0  0
   -1.9719   -0.2386   -2.9874 H   0  0  0  0  0  0  0  0  0  0  0  0
   -3.5001    1.1710   -2.5797 N   0  3  0  0  0  0  0  0  0  0  0  0
   -4.1298    1.2866   -1.7867 H   0  0  0  0  0  0  0  0  0  0  0  0
   -3.8758    1.5890   -3.7551 C   0  0  0  0  0  0  0  0  0  0  0  0
   -3.0469    1.5152   -4.8522 N   0  0  0  0  0  0  0  0  0  0  0  0
   -2.0654    1.2952   -4.6947 H   0  0  0  0  0  0  0  0  0  0  0  0
   -3.2875    2.0527   -5.6829 H   0  0  0  0  0  0  0  0  0  0  0  0
   -5.1321    2.1238   -3.9169 N   0  0  0  0  0  0  0  0  0  0  0  0
   -5.8080    2.0358   -3.1605 H   0  0  0  0  0  0  0  0  0  0  0  0
   -5.4865    2.2625   -4.8620 H   0  0  0  0  0  0  0  0  0  0  0  0
    0.1815   -1.4338    1.5753 C   0  0  0  0  0  0  0  0  0  0  0  0
    1.3821   -1.2101    1.6423 O   0  0  0  0  0  0  0  0  0  0  0  0
   -0.6265   -1.0855    2.6436 N   0  0  0  0  0  0  0  0  0  0  0  0
   -1.5850   -1.4141    2.5918 H   0  0  0  0  0  0  0  0  0  0  0  0
   -0.0758   -0.7826    3.9611 C   0  0  0  0  0  0  0  0  0  0  0  0
    0.6070    0.0721    3.9065 H   0  0  0  0  0  0  0  0  0  0  0  0
   -0.8790   -0.5353    4.6619 H   0  0  0  0  0  0  0  0  0  0  0  0
    0.4738   -1.6453    4.3532 H   0  0  0  0  0  0  0  0  0  0  0  0
  1  2  1  0  0  0  0
  2  3  1  0  0  0  0
  2  4  1  0  0  0  0
  2  5  1  0  0  0  0
  5  6  2  0  0  0  0
  5  7  1  0  0  0  0
  7  8  1  0  0  0  0
  7  9  1  0  0  0  0
  9 10  1  0  0  0  0
  9 11  1  0  0  0  0
  9 29  1  0  0  0  0
 11 12  1  0  0  0  0
 11 13  1  0  0  0  0
 11 14  1  0  0  0  0
 14 15  1  0  0  0  0
 14 16  1  0  0  0  0
 14 17  1  0  0  0  0
 17 18  1  0  0  0  0
 17 19  1  0  0  0  0
 17 20  1  0  0  0  0
 20 21  1  0  0  0  0
 20 22  2  0  0  0  0
 22 23  1  0  0  0  0
 22 26  1  0  0  0  0
 23 24  1  0  0  0  0
 23 25  1  0  0  0  0
 26 27  1  0  0  0  0
 26 28  1  0  0  0  0
 29 30  2  0  0  0  0
 29 31  1  0  0  0  0
 31 32  1  0  0  0  0
 31 33  1  0  0  0  0
 33 34  1  0  0  0  0
 33 35  1  0  0  0  0
 33 36  1  0  0  0  0
M  CHG  1  20   1
M  END
$$$$

  -OEChem-04042215563D

 36 35  0     1  0  0  0  0  0999 V2000
   -2.6410   -5.7496    1.1536 H   0  0  0  0  0  0  0  0  0  0  0  0
   -2.8205   -4.7935    0.6528 C   0  0  0  0  0  0  0  0  0  0  0  0
   -3.6879   -4.3155    1.1135 H   0  0  0  0  0  0  0  0  0  0  0  0
   -3.0309   -4.9857   -0.4018 H   0  0  0  0  0  0  0  0  0  0  0  0
   -1.6011   -3.9017    0.7868 C   0  0  0  0  0  0  0  0  0  0  0  0
   -0.6100   -4.3174    1.3553 O   0  0  0  0  0  0  0  0  0  0  0  0
   -1.6178   -2.6224    0.2582 N   0  0  0  0  0  0  0  0  0  0  0  0
   -2.4168   -2.3931   -0.3204 H   0  0  0  0  0  0  0  0  0  0  0  0
   -0.4239   -1.7505    0.1967 C   0  0  1  0  0  0  0  0  0  0  0  0
    0.3519   -2.3132   -0.3368 H   0  0  0  0  0  0  0  0  0  0  0  0
   -0.6255   -0.4127   -0.5724 C   0  0  0  0  0  0  0  0  0  0  0  0
   -0.1204    0.3940   -0.0279 H   0  0  0  0  0  0  0  0  0  0  0  0
   -0.0792   -0.5123   -1.5167 H   0  0  0  0  0  0  0  0  0  0  0  0
   -2.0663    0.0588   -0.8805 C   0  0  0  0  0  0  0  0  0  0  0  0
   -2.8265   -0.5986   -0.4540 H   0  0  0  0  0  0  0  0  0  0  0  0
   -2.2045    1.0416   -0.4156 H   0  0  0  0  0  0  0  0  0  0  0  0
   -2.2680    0.1871   -2.3922 C   0  0  0  0  0  0  0  0  0  0  0  0
   -1.4653    0.8105   -2.8027 H   0  0  0  0  0  0  0  0  0  0  0  0
   -2.2019   -0.8067   -2.8492 H   0  0  0  0  0  0  0  0  0  0  0  0
   -3.5755    0.8009   -2.6917 N   0  3  0  0  0  0  0  0  0  0  0  0
   -4.1156    1.1584   -1.9045 H   0  0  0  0  0  0  0  0  0  0  0  0
   -4.0274    0.9706   -3.9018 C   0  0  0  0  0  0  0  0  0  0  0  0
   -3.3165    0.5561   -5.0054 N   0  0  0  0  0  0  0  0  0  0  0  0
   -2.3474    0.2748   -4.8700 H   0  0  0  0  0  0  0  0  0  0  0  0
   -3.5874    0.9077   -5.9218 H   0  0  0  0  0  0  0  0  0  0  0  0
   -5.2440    1.5809   -4.0950 N   0  0  0  0  0  0  0  0  0  0  0  0
   -5.8490    1.7484   -3.2933 H   0  0  0  0  0  0  0  0  0  0  0  0
   -5.6710    1.5421   -5.0191 H   0  0  0  0  0  0  0  0  0  0  0  0
    0.1882   -1.4399    1.5840 C   0  0  0  0  0  0  0  0  0  0  0  0
    1.3867   -1.2095    1.6596 O   0  0  0  0  0  0  0  0  0  0  0  0
   -0.6304   -1.0914    2.6441 N   0  0  0  0  0  0  0  0  0  0  0  0
   -1.5896   -1.4164    2.5868 H   0  0  0  0  0  0  0  0  0  0  0  0
   -0.0941   -0.7528    3.9586 C   0  0  0  0  0  0  0  0  0  0  0  0
    0.5692    0.1162    3.8905 H   0  0  0  0  0  0  0  0  0  0  0  0
   -0.9062   -0.5107    4.6509 H   0  0  0  0  0  0  0  0  0  0  0  0
    0.4731   -1.5954    4.3689 H   0  0  0  0  0  0  0  0  0  0  0  0
  1  2  1  0  0  0  0
  2  3  1  0  0  0  0
  2  4  1  0  0  0  0
  2  5  1  0  0  0  0
  5  6  2  0  0  0  0
  5  7  1  0  0  0  0
  7  8  1  0  0  0  0
  7  9  1  0  0  0  0
  9 10  1  0  0  0  0
  9 11  1  0  0  0  0
  9 29  1  0  0  0  0
 11 12  1  0  0  0  0
 11 13  1  0  0  0  0
 11 14  1  0  0  0  0
 14 15  1  0  0  0  0
 14 16  1  0  0  0  0
 14 17  1  0  0  0  0
 17 18  1  0  0  0  0
 17 19  1  0  0  0  0
 17 20  1  0  0  0  0
 20 21  1  0  0  0  0
 20 22  2  0  0  0  0
 22 23  1  0  0  0  0
 22 26  1  0  0  0  0
 23 24  1  0  0  0  0
 23 25  1  0  0  0  0
 26 27  1  0  0  0  0
 26 28  1  0  0  0  0
 29 30  2  0  0  0  0
 29 31  1  0  0  0  0
 31 32  1  0  0  0  0
 31 33  1  0  0  0  0
 33 34  1  0  0  0  0
 33 35  1  0  0  0  0
 33 36  1  0  0  0  0
M  CHG  1  20   1
M  END
$$$$

  -OEChem-04042215563D

 36 35  0     1  0  0  0  0  0999 V2000
   -2.6864   -5.6938    1.1530 H   0  0  0  0  0  0  0  0  0  0  0  0
   -2.8581   -4.7272    0.6697 C   0  0  0  0  0  0  0  0  0  0  0  0
   -3.6898   -4.2287    1.1729 H   0  0  0  0  0  0  0  0  0  0  0  0
   -3.1203   -4.9015   -0.3763 H   0  0  0  0  0  0  0  0  0  0  0  0
   -1.6065   -3.8750    0.7578 C   0  0  0  0  0  0  0  0  0  0  0  0
   -0.6026   -4.3282    1.2722 O   0  0  0  0  0  0  0  0  0  0  0  0
   -1.6073   -2.5867    0.2516 N   0  0  0  0  0  0  0  0  0  0  0  0
   -2.4442   -2.2918   -0.2366 H   0  0  0  0  0  0  0  0  0  0  0  0
   -0.4074   -1.7223    0.2070 C   0  0  1  0  0  0  0  0  0  0  0  0
    0.3651   -2.2863   -0.3296 H   0  0  0  0  0  0  0  0  0  0  0  0
   -0.6041   -0.3895   -0.5681 C   0  0  0  0  0  0  0  0  0  0  0  0
   -0.1311    0.4169    0.0052 H   0  0  0  0  0  0  0  0  0  0  0  0
   -0.0370   -0.4583   -1.5030 H   0  0  0  0  0  0  0  0  0  0  0  0
   -2.0491    0.0542   -0.8808 C   0  0  0  0  0  0  0  0  0  0  0  0
   -2.7829   -0.4251   -0.2273 H   0  0  0  0  0  0  0  0  0  0  0  0
   -2.1144    1.1309   -0.6876 H   0  0  0  0  0  0  0  0  0  0  0  0
   -2.3640   -0.1868   -2.3588 C   0  0  0  0  0  0  0  0  0  0  0  0
   -1.5784    0.2766   -2.9669 H   0  0  0  0  0  0  0  0  0  0  0  0
   -2.3605   -1.2648   -2.5546 H   0  0  0  0  0  0  0  0  0  0  0  0
   -3.6729    0.3939   -2.7129 N   0  3  0  0  0  0  0  0  0  0  0  0
   -4.1357    0.9662   -2.0076 H   0  0  0  0  0  0  0  0  0  0  0  0
   -4.2106    0.2859   -3.8947 C   0  0  0  0  0  0  0  0  0  0  0  0
   -3.6009   -0.4184   -4.9086 N   0  0  0  0  0  0  0  0  0  0  0  0
   -2.6328   -0.7043   -4.7756 H   0  0  0  0  0  0  0  0  0  0  0  0
   -3.9315   -0.2843   -5.8624 H   0  0  0  0  0  0  0  0  0  0  0  0
   -5.4188    0.8900   -4.1502 N   0  0  0  0  0  0  0  0  0  0  0  0
   -5.9553    1.2740   -3.3746 H   0  0  0  0  0  0  0  0  0  0  0  0
   -5.9178    0.6463   -5.0045 H   0  0  0  0  0  0  0  0  0  0  0  0
    0.2083   -1.4351    1.5972 C   0  0  0  0  0  0  0  0  0  0  0  0
    1.4104   -1.2262    1.6766 O   0  0  0  0  0  0  0  0  0  0  0  0
   -0.6046   -1.0961    2.6646 N   0  0  0  0  0  0  0  0  0  0  0  0
   -1.5685   -1.4049    2.6019 H   0  0  0  0  0  0  0  0  0  0  0  0
   -0.0609   -0.8029    3.9870 C   0  0  0  0  0  0  0  0  0  0  0  0
    0.6078    0.0636    3.9448 H   0  0  0  0  0  0  0  0  0  0  0  0
   -0.8690   -0.5789    4.6900 H   0  0  0  0  0  0  0  0  0  0  0  0
    0.5027   -1.6617    4.3678 H   0  0  0  0  0  0  0  0  0  0  0  0
  1  2  1  0  0  0  0
  2  3  1  0  0  0  0
  2  4  1  0  0  0  0
  2  5  1  0  0  0  0
  5  6  2  0  0  0  0
  5  7  1  0  0  0  0
  7  8  1  0  0  0  0
  7  9  1  0  0  0  0
  9 10  1  0  0  0  0
  9 11  1  0  0  0  0
  9 29  1  0  0  0  0
 11 12  1  0  0  0  0
 11 13  1  0  0  0  0
 11 14  1  0  0  0  0
 14 15  1  0  0  0  0
 14 16  1  0  0  0  0
 14 17  1  0  0  0  0
 17 18  1  0  0  0  0
 17 19  1  0  0  0  0
 17 20  1  0  0  0  0
 20 21  1  0  0  0  0
 20 22  2  0  0  0  0
 22 23  1  0  0  0  0
 22 26  1  0  0  0  0
 23 24  1  0  0  0  0
 23 25  1  0  0  0  0
 26 27  1  0  0  0  0
 26 28  1  0  0  0  0
 29 30  2  0  0  0  0
 29 31  1  0  0  0  0
 31 32  1  0  0  0  0
 31 33  1  0  0  0  0
 33 34  1  0  0  0  0
 33 35  1  0  0  0  0
 33 36  1  0  0  0  0
M  CHG  1  20   1
M  END
$$$$

  -OEChem-04042215563D

 36 35  0     1  0  0  0  0  0999 V2000
   -2.6996   -5.6185    1.2258 H   0  0  0  0  0  0  0  0  0  0  0  0
   -2.8973   -4.6315    0.7960 C   0  0  0  0  0  0  0  0  0  0  0  0
   -3.5775   -4.0919    1.4592 H   0  0  0  0  0  0  0  0  0  0  0  0
   -3.3715   -4.7640   -0.1790 H   0  0  0  0  0  0  0  0  0  0  0  0
   -1.5977   -3.8643    0.6430 C   0  0  0  0  0  0  0  0  0  0  0  0
   -0.5420   -4.4019    0.9150 O   0  0  0  0  0  0  0  0  0  0  0  0
   -1.6109   -2.5564    0.1910 N   0  0  0  0  0  0  0  0  0  0  0  0
   -2.5216   -2.1276    0.0787 H   0  0  0  0  0  0  0  0  0  0  0  0
   -0.4095   -1.6922    0.1892 C   0  0  1  0  0  0  0  0  0  0  0  0
    0.3636   -2.2429   -0.3610 H   0  0  0  0  0  0  0  0  0  0  0  0
   -0.5928   -0.3480   -0.5647 C   0  0  0  0  0  0  0  0  0  0  0  0
   -0.1436    0.4491    0.0399 H   0  0  0  0  0  0  0  0  0  0  0  0
   -0.0097   -0.3865   -1.4917 H   0  0  0  0  0  0  0  0  0  0  0  0
   -2.0365    0.0744   -0.8888 C   0  0  0  0  0  0  0  0  0  0  0  0
   -2.7313   -0.2291   -0.0998 H   0  0  0  0  0  0  0  0  0  0  0  0
   -2.0652    1.1686   -0.9396 H   0  0  0  0  0  0  0  0  0  0  0  0
   -2.4400   -0.4838   -2.2551 C   0  0  0  0  0  0  0  0  0  0  0  0
   -1.6937   -0.1766   -2.9968 H   0  0  0  0  0  0  0  0  0  0  0  0
   -2.4463   -1.5783   -2.2074 H   0  0  0  0  0  0  0  0  0  0  0  0
   -3.7682    0.0192   -2.6509 N   0  3  0  0  0  0  0  0  0  0  0  0
   -4.1712    0.7673   -2.0876 H   0  0  0  0  0  0  0  0  0  0  0  0
   -4.3899   -0.3719   -3.7269 C   0  0  0  0  0  0  0  0  0  0  0  0
   -3.8599   -1.3272   -4.5655 N   0  0  0  0  0  0  0  0  0  0  0  0
   -2.8867   -1.5936   -4.4284 H   0  0  0  0  0  0  0  0  0  0  0  0
   -4.2523   -1.4262   -5.5001 H   0  0  0  0  0  0  0  0  0  0  0  0
   -5.6078    0.1803   -4.0453 N   0  0  0  0  0  0  0  0  0  0  0  0
   -6.0843    0.7613   -3.3581 H   0  0  0  0  0  0  0  0  0  0  0  0
   -6.1669   -0.2533   -4.7782 H   0  0  0  0  0  0  0  0  0  0  0  0
    0.2079   -1.4601    1.5882 C   0  0  0  0  0  0  0  0  0  0  0  0
    1.4115   -1.2685    1.6776 O   0  0  0  0  0  0  0  0  0  0  0  0
   -0.5993   -1.1618    2.6726 N   0  0  0  0  0  0  0  0  0  0  0  0
   -1.5762   -1.4214    2.5993 H   0  0  0  0  0  0  0  0  0  0  0  0
   -0.0520   -0.8880    3.9982 C   0  0  0  0  0  0  0  0  0  0  0  0
    0.6116   -0.0171    3.9683 H   0  0  0  0  0  0  0  0  0  0  0  0
   -0.8581   -0.6802    4.7083 H   0  0  0  0  0  0  0  0  0  0  0  0
    0.5183   -1.7494    4.3625 H   0  0  0  0  0  0  0  0  0  0  0  0
  1  2  1  0  0  0  0
  2  3  1  0  0  0  0
  2  4  1  0  0  0  0
  2  5  1  0  0  0  0
  5  6  2  0  0  0  0
  5  7  1  0  0  0  0
  7  8  1  0  0  0  0
  7  9  1  0  0  0  0
  9 10  1  0  0  0  0
  9 11  1  0  0  0  0
  9 29  1  0  0  0  0
 11 12  1  0  0  0  0
 11 13  1  0  0  0  0
 11 14  1  0  0  0  0
 14 15  1  0  0  0  0
 14 16  1  0  0  0  0
 14 17  1  0  0  0  0
 17 18  1  0  0  0  0
 17 19  1  0  0  0  0
 17 20  1  0  0  0  0
 20 21  1  0  0  0  0
 20 22  2  0  0  0  0
 22 23  1  0  0  0  0
 22 26  1  0  0  0  0
 23 24  1  0  0  0  0
 23 25  1  0  0  0  0
 26 27  1  0  0  0  0
 26 28  1  0  0  0  0
 29 30  2  0  0  0  0
 29 31  1  0  0  0  0
 31 32  1  0  0  0  0
 31 33  1  0  0  0  0
 33 34  1  0  0  0  0
 33 35  1  0  0  0  0
 33 36  1  0  0  0  0
M  CHG  1  20   1
M  END
$$$$

  -OEChem-04042215563D

 36 35  0     1  0  0  0  0  0999 V2000
   -2.5549   -5.7186    1.3893 H   0  0  0  0  0  0  0  0  0  0  0  0
   -2.8031   -4.7042    1.0621 C   0  0  0  0  0  0  0  0  0  0  0  0
   -3.3657   -4.2092    1.8570 H   0  0  0  0  0  0  0  0  0  0  0  0
   -3.4239   -4.7691    0.1657 H   0  0  0  0  0  0  0  0  0  0  0  0
   -1.5323   -3.9318    0.7638 C   0  0  0  0  0  0  0  0  0  0  0  0
   -0.4499   -4.4548    0.9444 O   0  0  0  0  0  0  0  0  0  0  0  0
   -1.6051   -2.6381    0.2770 N   0  0  0  0  0  0  0  0  0  0  0  0
   -2.5250   -2.2134    0.2938 H   0  0  0  0  0  0  0  0  0  0  0  0
   -0.4269   -1.7462    0.2140 C   0  0  1  0  0  0  0  0  0  0  0  0
    0.3426   -2.2954   -0.3427 H   0  0  0  0  0  0  0  0  0  0  0  0
   -0.6545   -0.4270   -0.5732 C   0  0  0  0  0  0  0  0  0  0  0  0
   -0.1943    0.3957   -0.0135 H   0  0  0  0  0  0  0  0  0  0  0  0
   -0.1057   -0.4951   -1.5187 H   0  0  0  0  0  0  0  0  0  0  0  0
   -2.1063   -0.0260   -0.8833 C   0  0  0  0  0  0  0  0  0  0  0  0
   -2.7234   -0.0988    0.0183 H   0  0  0  0  0  0  0  0  0  0  0  0
   -2.1074    1.0228   -1.2008 H   0  0  0  0  0  0  0  0  0  0  0  0
   -2.6759   -0.8901   -2.0136 C   0  0  0  0  0  0  0  0  0  0  0  0
   -1.9657   -0.8821   -2.8479 H   0  0  0  0  0  0  0  0  0  0  0  0
   -2.7876   -1.9241   -1.6727 H   0  0  0  0  0  0  0  0  0  0  0  0
   -3.9763   -0.3595   -2.4635 N   0  3  0  0  0  0  0  0  0  0  0  0
   -4.3670    0.4250   -1.9428 H   0  0  0  0  0  0  0  0  0  0  0  0
   -4.5963   -0.7889   -3.5260 C   0  0  0  0  0  0  0  0  0  0  0  0
   -4.0917   -1.8121   -4.2969 N   0  0  0  0  0  0  0  0  0  0  0  0
   -3.1362   -2.1173   -4.1211 H   0  0  0  0  0  0  0  0  0  0  0  0
   -4.4737   -1.9549   -5.2299 H   0  0  0  0  0  0  0  0  0  0  0  0
   -5.7862   -0.2102   -3.8999 N   0  0  0  0  0  0  0  0  0  0  0  0
   -6.2488    0.4349   -3.2620 H   0  0  0  0  0  0  0  0  0  0  0  0
   -6.3499   -0.6646   -4.6166 H   0  0  0  0  0  0  0  0  0  0  0  0
    0.2268   -1.4633    1.5867 C   0  0  0  0  0  0  0  0  0  0  0  0
    1.4279   -1.2461    1.6382 O   0  0  0  0  0  0  0  0  0  0  0  0
   -0.5557   -1.1562    2.6866 N   0  0  0  0  0  0  0  0  0  0  0  0
   -1.5339   -1.4161    2.6441 H   0  0  0  0  0  0  0  0  0  0  0  0
    0.0179   -0.8124    3.9841 C   0  0  0  0  0  0  0  0  0  0  0  0
    0.6462    0.0814    3.9023 H   0  0  0  0  0  0  0  0  0  0  0  0
   -0.7760   -0.6084    4.7091 H   0  0  0  0  0  0  0  0  0  0  0  0
    0.6307   -1.6378    4.3621 H   0  0  0  0  0  0  0  0  0  0  0  0
  1  2  1  0  0  0  0
  2  3  1  0  0  0  0
  2  4  1  0  0  0  0
  2  5  1  0  0  0  0
  5  6  2  0  0  0  0
  5  7  1  0  0  0  0
  7  8  1  0  0  0  0
  7  9  1  0  0  0  0
  9 10  1  0  0  0  0
  9 11  1  0  0  0  0
  9 29  1  0  0  0  0
 11 12  1  0  0  0  0
 11 13  1  0  0  0  0
 11 14  1  0  0  0  0
 14 15  1  0  0  0  0
 14 16  1  0  0  0  0
 14 17  1  0  0  0  0
 17 18  1  0  0  0  0
 17 19  1  0  0  0  0
 17 20  1  0  0  0  0
 20 21  1  0  0  0  0
 20 22  2  0  0  0  0
 22 23  1  0  0  0  0
 22 26  1  0  0  0  0
 23 24  1  0  0  0  0
 23 25  1  0  0  0  0
 26 27  1  0  0  0  0
 26 28  1  0  0  0  0
 29 30  2  0  0  0  0
 29 31  1  0  0  0  0
 31 32  1  0  0  0  0
 31 33  1  0  0  0  0
 33 34  1  0  0  0  0
 33 35  1  0  0  0  0
 33 36  1  0  0  0  0
M  CHG  1  20   1
M  END
$$$$

  -OEChem-04042215563D

 36 35  0     1  0  0  0  0  0999 V2000
   -2.2383   -5.8488    1.7363 H   0  0  0  0  0  0  0  0  0  0  0  0
   -2.5789   -4.8582    1.4198 C   0  0  0  0  0  0  0  0  0  0  0  0
   -3.0626   -4.3686    2.2682 H   0  0  0  0  0  0  0  0  0  0  0  0
   -3.3034   -4.9804    0.6116 H   0  0  0  0  0  0  0  0  0  0  0  0
   -1.3985   -4.0331    0.9438 C   0  0  0  0  0  0  0  0  0  0  0  0
   -0.2762   -4.4970    0.9970 O   0  0  0  0  0  0  0  0  0  0  0  0
   -1.5999   -2.7595    0.4393 N   0  0  0  0  0  0  0  0  0  0  0  0
   -2.5277   -2.3797    0.5870 H   0  0  0  0  0  0  0  0  0  0  0  0
   -0.4895   -1.8026    0.2510 C   0  0  1  0  0  0  0  0  0  0  0  0
    0.2610   -2.3299   -0.3516 H   0  0  0  0  0  0  0  0  0  0  0  0
   -0.8327   -0.5178   -0.5558 C   0  0  0  0  0  0  0  0  0  0  0  0
   -0.3503    0.3387   -0.0704 H   0  0  0  0  0  0  0  0  0  0  0  0
   -0.3548   -0.6178   -1.5362 H   0  0  0  0  0  0  0  0  0  0  0  0
   -2.3061   -0.1396   -0.8041 C   0  0  0  0  0  0  0  0  0  0  0  0
   -2.8014    0.0502    0.1539 H   0  0  0  0  0  0  0  0  0  0  0  0
   -2.3135    0.7982   -1.3710 H   0  0  0  0  0  0  0  0  0  0  0  0
   -3.0787   -1.2090   -1.5859 C   0  0  0  0  0  0  0  0  0  0  0  0
   -2.4251   -1.6002   -2.3725 H   0  0  0  0  0  0  0  0  0  0  0  0
   -3.3528   -2.0380   -0.9276 H   0  0  0  0  0  0  0  0  0  0  0  0
   -4.2955   -0.6241   -2.1811 N   0  3  0  0  0  0  0  0  0  0  0  0
   -4.7332    0.1485   -1.6802 H   0  0  0  0  0  0  0  0  0  0  0  0
   -4.8145   -1.0224   -3.3085 C   0  0  0  0  0  0  0  0  0  0  0  0
   -4.2636   -2.0469   -4.0456 N   0  0  0  0  0  0  0  0  0  0  0  0
   -3.3379   -2.3817   -3.7860 H   0  0  0  0  0  0  0  0  0  0  0  0
   -4.5640   -2.1727   -5.0103 H   0  0  0  0  0  0  0  0  0  0  0  0
   -5.9464   -0.4068   -3.7882 N   0  0  0  0  0  0  0  0  0  0  0  0
   -6.4553    0.2373   -3.1859 H   0  0  0  0  0  0  0  0  0  0  0  0
   -6.4472   -0.8361   -4.5645 H   0  0  0  0  0  0  0  0  0  0  0  0
    0.2631   -1.4507    1.5561 C   0  0  0  0  0  0  0  0  0  0  0  0
    1.4512   -1.1721    1.4999 O   0  0  0  0  0  0  0  0  0  0  0  0
   -0.4361   -1.1643    2.7167 N   0  0  0  0  0  0  0  0  0  0  0  0
   -1.4016   -1.4675    2.7625 H   0  0  0  0  0  0  0  0  0  0  0  0
    0.2297   -0.7732    3.9559 C   0  0  0  0  0  0  0  0  0  0  0  0
    0.8074    0.1457    3.8088 H   0  0  0  0  0  0  0  0  0  0  0  0
   -0.5073   -0.5925    4.7444 H   0  0  0  0  0  0  0  0  0  0  0  0
    0.9096   -1.5638    4.2914 H   0  0  0  0  0  0  0  0  0  0  0  0
  1  2  1  0  0  0  0
  2  3  1  0  0  0  0
  2  4  1  0  0  0  0
  2  5  1  0  0  0  0
  5  6  2  0  0  0  0
  5  7  1  0  0  0  0
  7  8  1  0  0  0  0
  7  9  1  0  0  0  0
  9 10  1  0  0  0  0
  9 11  1  0  0  0  0
  9 29  1  0  0  0  0
 11 12  1  0  0  0  0
 11 13  1  0  0  0  0
 11 14  1  0  0  0  0
 14 15  1  0  0  0  0
 14 16  1  0  0  0  0
 14 17  1  0  0  0  0
 17 18  1  0  0  0  0
 17 19  1  0  0  0  0
 17 20  1  0  0  0  0
 20 21  1  0  0  0  0
 20 22  2  0  0  0  0
 22 23  1  0  0  0  0
 22 26  1  0  0  0  0
 23 24  1  0  0  0  0
 23 25  1  0  0  0  0
 26 27  1  0  0  0  0
 26 28  1  0  0  0  0
 29 30  2  0  0  0  0
 29 31  1  0  0  0  0
 31 32  1  0  0  0  0
 31 33  1  0  0  0  0
 33 34  1  0  0  0  0
 33 35  1  0  0  0  0
 33 36  1  0  0  0  0
M  CHG  1  20   1
M  END
$$$$

  -OEChem-04042215563D

 36 35  0     1  0  0  0  0  0999 V2000
   -1.7839   -5.9636    2.0362 H   0  0  0  0  0  0  0  0  0  0  0  0
   -2.2052   -4.9645    1.8886 C   0  0  0  0  0  0  0  0  0  0  0  0
   -2.3955   -4.5177    2.8673 H   0  0  0  0  0  0  0  0  0  0  0  0
   -3.1481   -5.0614    1.3460 H   0  0  0  0  0  0  0  0  0  0  0  0
   -1.2319   -4.1049    1.1042 C   0  0  0  0  0  0  0  0  0  0  0  0
   -0.1013   -4.5033    0.9013 O   0  0  0  0  0  0  0  0  0  0  0  0
   -1.6291   -2.8716    0.6149 N   0  0  0  0  0  0  0  0  0  0  0  0
   -2.5163   -2.5368    0.9716 H   0  0  0  0  0  0  0  0  0  0  0  0
   -0.6570   -1.8642    0.1414 C   0  0  1  0  0  0  0  0  0  0  0  0
   -0.0273   -2.3871   -0.5897 H   0  0  0  0  0  0  0  0  0  0  0  0
   -1.2323   -0.6370   -0.6279 C   0  0  0  0  0  0  0  0  0  0  0  0
   -0.6871    0.2614   -0.3148 H   0  0  0  0  0  0  0  0  0  0  0  0
   -0.9730   -0.7931   -1.6803 H   0  0  0  0  0  0  0  0  0  0  0  0
   -2.7384   -0.2944   -0.5998 C   0  0  0  0  0  0  0  0  0  0  0  0
   -2.9755    0.1708    0.3630 H   0  0  0  0  0  0  0  0  0  0  0  0
   -2.9165    0.4618   -1.3727 H   0  0  0  0  0  0  0  0  0  0  0  0
   -3.6829   -1.4840   -0.8067 C   0  0  0  0  0  0  0  0  0  0  0  0
   -3.9490   -1.9138    0.1642 H   0  0  0  0  0  0  0  0  0  0  0  0
   -3.1698   -2.2638   -1.3802 H   0  0  0  0  0  0  0  0  0  0  0  0
   -4.9073   -1.0597   -1.5147 N   0  3  0  0  0  0  0  0  0  0  0  0
   -5.6429   -0.6291   -0.9548 H   0  0  0  0  0  0  0  0  0  0  0  0
   -5.0886   -1.2032   -2.7980 C   0  0  0  0  0  0  0  0  0  0  0  0
   -4.1229   -1.7483   -3.6142 N   0  0  0  0  0  0  0  0  0  0  0  0
   -3.1910   -1.8871   -3.2278 H   0  0  0  0  0  0  0  0  0  0  0  0
   -4.2103   -1.6322   -4.6221 H   0  0  0  0  0  0  0  0  0  0  0  0
   -6.2704   -0.7936   -3.3683 N   0  0  0  0  0  0  0  0  0  0  0  0
   -7.0540   -0.5543   -2.7636 H   0  0  0  0  0  0  0  0  0  0  0  0
   -6.4756   -1.0825   -4.3234 H   0  0  0  0  0  0  0  0  0  0  0  0
    0.3467   -1.4075    1.2266 C   0  0  0  0  0  0  0  0  0  0  0  0
    1.4681   -1.0613    0.8871 O   0  0  0  0  0  0  0  0  0  0  0  0
   -0.0882   -1.1047    2.5058 N   0  0  0  0  0  0  0  0  0  0  0  0
   -0.9970   -1.4568    2.7820 H   0  0  0  0  0  0  0  0  0  0  0  0
    0.8115   -0.6128    3.5453 C   0  0  0  0  0  0  0  0  0  0  0  0
    1.2796    0.3281    3.2363 H   0  0  0  0  0  0  0  0  0  0  0  0
    0.2592   -0.4322    4.4725 H   0  0  0  0  0  0  0  0  0  0  0  0
    1.5995   -1.3459    3.7489 H   0  0  0  0  0  0  0  0  0  0  0  0
  1  2  1  0  0  0  0
  2  3  1  0  0  0  0
  2  4  1  0  0  0  0
  2  5  1  0  0  0  0
  5  6  2  0  0  0  0
  5  7  1  0  0  0  0
  7  8  1  0  0  0  0
  7  9  1  0  0  0  0
  9 10  1  0  0  0  0
  9 11  1  0  0  0  0
  9 29  1  0  0  0  0
 11 12  1  0  0  0  0
 11 13  1  0  0  0  0
 11 14  1  0  0  0  0
 14 15  1  0  0  0  0
 14 16  1  0  0  0  0
 14 17  1  0  0  0  0
 17 18  1  0  0  0  0
 17 19  1  0  0  0  0
 17 20  1  0  0  0  0
 20 21  1  0  0  0  0
 20 22  2  0  0  0  0
 22 23  1  0  0  0  0
 22 26  1  0  0  0  0
 23 24  1  0  0  0  0
 23 25  1  0  0  0  0
 26 27  1  0  0  0  0
 26 28  1  0  0  0  0
 29 30  2  0  0  0  0
 29 31  1  0  0  0  0
 31 32  1  0  0  0  0
 31 33  1  0  0  0  0
 33 34  1  0  0  0  0
 33 35  1  0  0  0  0
 33 36  1  0  0  0  0
M  CHG  1  20   1
M  END
$$$$

  -OEChem-04042215563D

 36 35  0     1  0  0  0  0  0999 V2000
   -1.6135   -6.0699    1.9806 H   0  0  0  0  0  0  0  0  0  0  0  0
   -2.0992   -5.1111    1.7746 C   0  0  0  0  0  0  0  0  0  0  0  0
   -2.4015   -4.6622    2.7237 H   0  0  0  0  0  0  0  0  0  0  0  0
   -2.9850   -5.2941    1.1622 H   0  0  0  0  0  0  0  0  0  0  0  0
   -1.1383   -4.1920    1.0449 C   0  0  0  0  0  0  0  0  0  0  0  0
    0.0044   -4.5526    0.8392 O   0  0  0  0  0  0  0  0  0  0  0  0
   -1.5599   -2.9439    0.6173 N   0  0  0  0  0  0  0  0  0  0  0  0
   -2.4583   -2.6512    0.9811 H   0  0  0  0  0  0  0  0  0  0  0  0
   -0.6049   -1.8910    0.2125 C   0  0  1  0  0  0  0  0  0  0  0  0
    0.0474   -2.3653   -0.5320 H   0  0  0  0  0  0  0  0  0  0  0  0
   -1.1724   -0.6266   -0.5056 C   0  0  0  0  0  0  0  0  0  0  0  0
   -0.6249    0.2547   -0.1508 H   0  0  0  0  0  0  0  0  0  0  0  0
   -0.8884   -0.7468   -1.5567 H   0  0  0  0  0  0  0  0  0  0  0  0
   -2.6754   -0.2537   -0.5239 C   0  0  0  0  0  0  0  0  0  0  0  0
   -2.8721    0.3958    0.3362 H   0  0  0  0  0  0  0  0  0  0  0  0
   -2.8506    0.3487   -1.4221 H   0  0  0  0  0  0  0  0  0  0  0  0
   -3.6838   -1.4025   -0.4698 C   0  0  0  0  0  0  0  0  0  0  0  0
   -3.3045   -2.2526   -1.0475 H   0  0  0  0  0  0  0  0  0  0  0  0
   -3.8059   -1.7331    0.5664 H   0  0  0  0  0  0  0  0  0  0  0  0
   -4.9870   -0.9690   -1.0104 N   0  3  0  0  0  0  0  0  0  0  0  0
   -5.6231   -0.4956   -0.3691 H   0  0  0  0  0  0  0  0  0  0  0  0
   -5.3538   -1.1495   -2.2486 C   0  0  0  0  0  0  0  0  0  0  0  0
   -4.5236   -1.7411   -3.1747 N   0  0  0  0  0  0  0  0  0  0  0  0
   -3.5469   -1.8801   -2.9219 H   0  0  0  0  0  0  0  0  0  0  0  0
   -4.7533   -1.6569   -4.1632 H   0  0  0  0  0  0  0  0  0  0  0  0
   -6.5986   -0.7318   -2.6554 N   0  0  0  0  0  0  0  0  0  0  0  0
   -7.2816   -0.4587   -1.9514 H   0  0  0  0  0  0  0  0  0  0  0  0
   -6.9463   -1.0462   -3.5599 H   0  0  0  0  0  0  0  0  0  0  0  0
    0.3716   -1.4751    1.3382 C   0  0  0  0  0  0  0  0  0  0  0  0
    1.4896   -1.0854    1.0371 O   0  0  0  0  0  0  0  0  0  0  0  0
   -0.0878   -1.2535    2.6255 N   0  0  0  0  0  0  0  0  0  0  0  0
   -0.9888   -1.6461    2.8705 H   0  0  0  0  0  0  0  0  0  0  0  0
    0.7861   -0.7933    3.7009 C   0  0  0  0  0  0  0  0  0  0  0  0
    1.2225    0.1803    3.4524 H   0  0  0  0  0  0  0  0  0  0  0  0
    0.2210   -0.6880    4.6321 H   0  0  0  0  0  0  0  0  0  0  0  0
    1.5990   -1.5087    3.8667 H   0  0  0  0  0  0  0  0  0  0  0  0
  1  2  1  0  0  0  0
  2  3  1  0  0  0  0
  2  4  1  0  0  0  0
  2  5  1  0  0  0  0
  5  6  2  0  0  0  0
  5  7  1  0  0  0  0
  7  8  1  0  0  0  0
  7  9  1  0  0  0  0
  9 10  1  0  0  0  0
  9 11  1  0  0  0  0
  9 29  1  0  0  0  0
 11 12  1  0  0  0  0
 11 13  1  0  0  0  0
 11 14  1  0  0  0  0
 14 15  1  0  0  0  0
 14 16  1  0  0  0  0
 14 17  1  0  0  0  0
 17 18  1  0  0  0  0
 17 19  1  0  0  0  0
 17 20  1  0  0  0  0
 20 21  1  0  0  0  0
 20 22  2  0  0  0  0
 22 23  1  0  0  0  0
 22 26  1  0  0  0  0
 23 24  1  0  0  0  0
 23 25  1  0  0  0  0
 26 27  1  0  0  0  0
 26 28  1  0  0  0  0
 29 30  2  0  0  0  0
 29 31  1  0  0  0  0
 31 32  1  0  0  0  0
 31 33  1  0  0  0  0
 33 34  1  0  0  0  0
 33 35  1  0  0  0  0
 33 36  1  0  0  0  0
M  CHG  1  20   1
M  END
$$$$

  -OEChem-04042215563D

 36 35  0     1  0  0  0  0  0999 V2000
   -0.8209   -6.3646    0.7557 H   0  0  0  0  0  0  0  0  0  0  0  0
   -1.2670   -5.5142    0.2311 C   0  0  0  0  0  0  0  0  0  0  0  0
   -2.3451   -5.5222    0.4061 H   0  0  0  0  0  0  0  0  0  0  0  0
   -1.0734   -5.6259   -0.8384 H   0  0  0  0  0  0  0  0  0  0  0  0
   -0.6619   -4.2188    0.7379 C   0  0  0  0  0  0  0  0  0  0  0  0
    0.1710   -4.2530    1.6221 O   0  0  0  0  0  0  0  0  0  0  0  0
   -1.0875   -3.0081    0.2145 N   0  0  0  0  0  0  0  0  0  0  0  0
   -1.6312   -3.1161   -0.6334 H   0  0  0  0  0  0  0  0  0  0  0  0
   -0.2749   -1.7745    0.3069 C   0  0  1  0  0  0  0  0  0  0  0  0
    0.7027   -2.0019   -0.1363 H   0  0  0  0  0  0  0  0  0  0  0  0
   -0.8307   -0.5057   -0.4221 C   0  0  0  0  0  0  0  0  0  0  0  0
   -0.5976    0.3846    0.1743 H   0  0  0  0  0  0  0  0  0  0  0  0
   -0.2091   -0.4189   -1.3201 H   0  0  0  0  0  0  0  0  0  0  0  0
   -2.2903   -0.3463   -0.9293 C   0  0  0  0  0  0  0  0  0  0  0  0
   -2.7809    0.3570   -0.2482 H   0  0  0  0  0  0  0  0  0  0  0  0
   -2.2484    0.1432   -1.9088 H   0  0  0  0  0  0  0  0  0  0  0  0
   -3.1901   -1.5765   -1.0436 C   0  0  0  0  0  0  0  0  0  0  0  0
   -2.7323   -2.2919   -1.7352 H   0  0  0  0  0  0  0  0  0  0  0  0
   -3.2871   -2.0648   -0.0679 H   0  0  0  0  0  0  0  0  0  0  0  0
   -4.5212   -1.1886   -1.5527 N   0  3  0  0  0  0  0  0  0  0  0  0
   -4.6499   -1.2053   -2.5646 H   0  0  0  0  0  0  0  0  0  0  0  0
   -5.5216   -0.8304   -0.7972 C   0  0  0  0  0  0  0  0  0  0  0  0
   -5.4083   -0.7482    0.5724 N   0  0  0  0  0  0  0  0  0  0  0  0
   -4.4727   -0.7779    0.9722 H   0  0  0  0  0  0  0  0  0  0  0  0
   -6.1294   -0.2474    1.0889 H   0  0  0  0  0  0  0  0  0  0  0  0
   -6.7285   -0.5141   -1.3748 N   0  0  0  0  0  0  0  0  0  0  0  0
   -6.8777   -0.7309   -2.3587 H   0  0  0  0  0  0  0  0  0  0  0  0
   -7.5478   -0.4216   -0.7764 H   0  0  0  0  0  0  0  0  0  0  0  0
    0.0269   -1.3552    1.7688 C   0  0  0  0  0  0  0  0  0  0  0  0
    1.0402   -0.7104    1.9981 O   0  0  0  0  0  0  0  0  0  0  0  0
   -0.9822   -1.3783    2.7169 N   0  0  0  0  0  0  0  0  0  0  0  0
   -1.6637   -2.1157    2.5730 H   0  0  0  0  0  0  0  0  0  0  0  0
   -0.7328   -0.9588    4.0933 C   0  0  0  0  0  0  0  0  0  0  0  0
   -0.4215    0.0910    4.1270 H   0  0  0  0  0  0  0  0  0  0  0  0
   -1.6402   -1.0666    4.6949 H   0  0  0  0  0  0  0  0  0  0  0  0
    0.0564   -1.5717    4.5427 H   0  0  0  0  0  0  0  0  0  0  0  0
  1  2  1  0  0  0  0
  2  3  1  0  0  0  0
  2  4  1  0  0  0  0
  2  5  1  0  0  0  0
  5  6  2  0  0  0  0
  5  7  1  0  0  0  0
  7  8  1  0  0  0  0
  7  9  1  0  0  0  0
  9 10  1  0  0  0  0
  9 11  1  0  0  0  0
  9 29  1  0  0  0  0
 11 12  1  0  0  0  0
 11 13  1  0  0  0  0
 11 14  1  0  0  0  0
 14 15  1  0  0  0  0
 14 16  1  0  0  0  0
 14 17  1  0  0  0  0
 17 18  1  0  0  0  0
 17 19  1  0  0  0  0
 17 20  1  0  0  0  0
 20 21  1  0  0  0  0
 20 22  2  0  0  0  0
 22 23  1  0  0  0  0
 22 26  1  0  0  0  0
 23 24  1  0  0  0  0
 23 25  1  0  0  0  0
 26 27  1  0  0  0  0
 26 28  1  0  0  0  0
 29 30  2  0  0  0  0
 29 31  1  0  0  0  0
 31 32  1  0  0  0  0
 31 33  1  0  0  0  0
 33 34  1  0  0  0  0
 33 35  1  0  0  0  0
 33 36  1  0  0  0  0
M  CHG  1  20   1
M  END
$$$$

  -OEChem-04042215563D

 36 35  0     1  0  0  0  0  0999 V2000
   -0.5793   -6.3370    0.7253 H   0  0  0  0  0  0  0  0  0  0  0  0
   -1.1390   -5.5064    0.2849 C   0  0  0  0  0  0  0  0  0  0  0  0
   -2.1914   -5.6085    0.5590 H   0  0  0  0  0  0  0  0  0  0  0  0
   -1.0416   -5.5617   -0.8019 H   0  0  0  0  0  0  0  0  0  0  0  0
   -0.5919   -4.1862    0.7936 C   0  0  0  0  0  0  0  0  0  0  0  0
    0.2217   -4.1829    1.6963 O   0  0  0  0  0  0  0  0  0  0  0  0
   -1.0597   -2.9948    0.2623 N   0  0  0  0  0  0  0  0  0  0  0  0
   -1.5912   -3.1278   -0.5907 H   0  0  0  0  0  0  0  0  0  0  0  0
   -0.2949   -1.7303    0.3480 C   0  0  1  0  0  0  0  0  0  0  0  0
    0.6920   -1.9223   -0.0906 H   0  0  0  0  0  0  0  0  0  0  0  0
   -0.8989   -0.4921   -0.3956 C   0  0  0  0  0  0  0  0  0  0  0  0
   -0.7181    0.4033    0.2109 H   0  0  0  0  0  0  0  0  0  0  0  0
   -0.2707   -0.3640   -1.2842 H   0  0  0  0  0  0  0  0  0  0  0  0
   -2.3636   -0.3985   -0.9074 C   0  0  0  0  0  0  0  0  0  0  0  0
   -2.8038    0.4862   -0.4347 H   0  0  0  0  0  0  0  0  0  0  0  0
   -2.3311   -0.1926   -1.9831 H   0  0  0  0  0  0  0  0  0  0  0  0
   -3.3109   -1.5780   -0.6837 C   0  0  0  0  0  0  0  0  0  0  0  0
   -2.9854   -2.4242   -1.2977 H   0  0  0  0  0  0  0  0  0  0  0  0
   -3.2736   -1.8923    0.3648 H   0  0  0  0  0  0  0  0  0  0  0  0
   -4.6925   -1.2079   -1.0526 N   0  3  0  0  0  0  0  0  0  0  0  0
   -5.0013   -1.4559   -1.9924 H   0  0  0  0  0  0  0  0  0  0  0  0
   -5.5327   -0.6161   -0.2497 C   0  0  0  0  0  0  0  0  0  0  0  0
   -5.1867   -0.2518    1.0328 N   0  0  0  0  0  0  0  0  0  0  0  0
   -4.2800   -0.5365    1.3979 H   0  0  0  0  0  0  0  0  0  0  0  0
   -5.9149    0.0212    1.6904 H   0  0  0  0  0  0  0  0  0  0  0  0
   -6.8053   -0.3376   -0.6886 N   0  0  0  0  0  0  0  0  0  0  0  0
   -7.0211   -0.4453   -1.6780 H   0  0  0  0  0  0  0  0  0  0  0  0
   -7.3820    0.2991   -0.1411 H   0  0  0  0  0  0  0  0  0  0  0  0
   -0.0147   -1.2938    1.8092 C   0  0  0  0  0  0  0  0  0  0  0  0
    0.9647   -0.5984    2.0373 O   0  0  0  0  0  0  0  0  0  0  0  0
   -1.0278   -1.3535    2.7520 N   0  0  0  0  0  0  0  0  0  0  0  0
   -1.6566   -2.1381    2.6160 H   0  0  0  0  0  0  0  0  0  0  0  0
   -0.7911   -0.9272    4.1291 C   0  0  0  0  0  0  0  0  0  0  0  0
   -0.5316    0.1365    4.1654 H   0  0  0  0  0  0  0  0  0  0  0  0
   -1.6877   -1.0826    4.7363 H   0  0  0  0  0  0  0  0  0  0  0  0
    0.0306   -1.5016    4.5708 H   0  0  0  0  0  0  0  0  0  0  0  0
  1  2  1  0  0  0  0
  2  3  1  0  0  0  0
  2  4  1  0  0  0  0
  2  5  1  0  0  0  0
  5  6  2  0  0  0  0
  5  7  1  0  0  0  0
  7  8  1  0  0  0  0
  7  9  1  0  0  0  0
  9 10  1  0  0  0  0
  9 11  1  0  0  0  0
  9 29  1  0  0  0  0
 11 12  1  0  0  0  0
 11 13  1  0  0  0  0
 11 14  1  0  0  0  0
 14 15  1  0  0  0  0
 14 16  1  0  0  0  0
 14 17  1  0  0  0  0
 17 18  1  0  0  0  0
 17 19  1  0  0  0  0
 17 20  1  0  0  0  0
 20 21  1  0  0  0  0
 20 22  2  0  0  0  0
 22 23  1  0  0  0  0
 22 26  1  0  0  0  0
 23 24  1  0  0  0  0
 23 25  1  0  0  0  0
 26 27  1  0  0  0  0
 26 28  1  0  0  0  0
 29 30  2  0  0  0  0
 29 31  1  0  0  0  0
 31 32  1  0  0  0  0
 31 33  1  0  0  0  0
 33 34  1  0  0  0  0
 33 35  1  0  0  0  0
 33 36  1  0  0  0  0
M  CHG  1  20   1
M  END
$$$$

  -OEChem-04042215563D

 36 35  0     1  0  0  0  0  0999 V2000
   -0.8068   -6.2776    0.5420 H   0  0  0  0  0  0  0  0  0  0  0  0
   -1.2979   -5.4312    0.0525 C   0  0  0  0  0  0  0  0  0  0  0  0
   -2.3753   -5.5087    0.2157 H   0  0  0  0  0  0  0  0  0  0  0  0
   -1.0911   -5.4835   -1.0191 H   0  0  0  0  0  0  0  0  0  0  0  0
   -0.7745   -4.1267    0.6225 C   0  0  0  0  0  0  0  0  0  0  0  0
   -0.0186   -4.1430    1.5749 O   0  0  0  0  0  0  0  0  0  0  0  0
   -1.2132   -2.9193    0.1040 N   0  0  0  0  0  0  0  0  0  0  0  0
   -1.7183   -3.0184   -0.7720 H   0  0  0  0  0  0  0  0  0  0  0  0
   -0.4697   -1.6499    0.2791 C   0  0  1  0  0  0  0  0  0  0  0  0
    0.5452   -1.8054   -0.1073 H   0  0  0  0  0  0  0  0  0  0  0  0
   -1.0717   -0.4153   -0.4643 C   0  0  0  0  0  0  0  0  0  0  0  0
   -0.9883    0.4591    0.1911 H   0  0  0  0  0  0  0  0  0  0  0  0
   -0.4111   -0.2070   -1.3132 H   0  0  0  0  0  0  0  0  0  0  0  0
   -2.5148   -0.4191   -1.0192 C   0  0  0  0  0  0  0  0  0  0  0  0
   -2.8576    0.6197   -1.0868 H   0  0  0  0  0  0  0  0  0  0  0  0
   -2.4821   -0.8021   -2.0449 H   0  0  0  0  0  0  0  0  0  0  0  0
   -3.5262   -1.2780   -0.2461 C   0  0  0  0  0  0  0  0  0  0  0  0
   -3.8047   -2.1483   -0.8499 H   0  0  0  0  0  0  0  0  0  0  0  0
   -3.0794   -1.6502    0.6803 H   0  0  0  0  0  0  0  0  0  0  0  0
   -4.7266   -0.4852    0.0838 N   0  3  0  0  0  0  0  0  0  0  0  0
   -5.5093   -0.5380   -0.5676 H   0  0  0  0  0  0  0  0  0  0  0  0
   -4.8186    0.2966    1.1242 C   0  0  0  0  0  0  0  0  0  0  0  0
   -3.7897    0.4497    2.0273 N   0  0  0  0  0  0  0  0  0  0  0  0
   -2.8863    0.0195    1.8229 H   0  0  0  0  0  0  0  0  0  0  0  0
   -3.8049    1.2453    2.6621 H   0  0  0  0  0  0  0  0  0  0  0  0
   -5.9753    1.0095    1.3321 N   0  0  0  0  0  0  0  0  0  0  0  0
   -6.8025    0.7752    0.7867 H   0  0  0  0  0  0  0  0  0  0  0  0
   -6.1109    1.4607    2.2353 H   0  0  0  0  0  0  0  0  0  0  0  0
   -0.2962   -1.2699    1.7712 C   0  0  0  0  0  0  0  0  0  0  0  0
    0.6002   -0.5006    2.0831 O   0  0  0  0  0  0  0  0  0  0  0  0
   -1.3834   -1.3850    2.6242 N   0  0  0  0  0  0  0  0  0  0  0  0
   -1.9229   -2.2279    2.4401 H   0  0  0  0  0  0  0  0  0  0  0  0
   -1.2596   -1.0006    4.0292 C   0  0  0  0  0  0  0  0  0  0  0  0
   -1.0389    0.0682    4.1224 H   0  0  0  0  0  0  0  0  0  0  0  0
   -2.1915   -1.2075    4.5643 H   0  0  0  0  0  0  0  0  0  0  0  0
   -0.4525   -1.5651    4.5100 H   0  0  0  0  0  0  0  0  0  0  0  0
  1  2  1  0  0  0  0
  2  3  1  0  0  0  0
  2  4  1  0  0  0  0
  2  5  1  0  0  0  0
  5  6  2  0  0  0  0
  5  7  1  0  0  0  0
  7  8  1  0  0  0  0
  7  9  1  0  0  0  0
  9 10  1  0  0  0  0
  9 11  1  0  0  0  0
  9 29  1  0  0  0  0
 11 12  1  0  0  0  0
 11 13  1  0  0  0  0
 11 14  1  0  0  0  0
 14 15  1  0  0  0  0
 14 16  1  0  0  0  0
 14 17  1  0  0  0  0
 17 18  1  0  0  0  0
 17 19  1  0  0  0  0
 17 20  1  0  0  0  0
 20 21  1  0  0  0  0
 20 22  2  0  0  0  0
 22 23  1  0  0  0  0
 22 26  1  0  0  0  0
 23 24  1  0  0  0  0
 23 25  1  0  0  0  0
 26 27  1  0  0  0  0
 26 28  1  0  0  0  0
 29 30  2  0  0  0  0
 29 31  1  0  0  0  0
 31 32  1  0  0  0  0
 31 33  1  0  0  0  0
 33 34  1  0  0  0  0
 33 35  1  0  0  0  0
 33 36  1  0  0  0  0
M  CHG  1  20   1
M  END
$$$$

  -OEChem-04042215563D

 36 35  0     1  0  0  0  0  0999 V2000
   -0.7631   -6.1894    0.4827 H   0  0  0  0  0  0  0  0  0  0  0  0
   -1.2988   -5.3539    0.0219 C   0  0  0  0  0  0  0  0  0  0  0  0
   -2.3669   -5.4706    0.2201 H   0  0  0  0  0  0  0  0  0  0  0  0
   -1.1274   -5.3846   -1.0569 H   0  0  0  0  0  0  0  0  0  0  0  0
   -0.8003   -4.0399    0.5931 C   0  0  0  0  0  0  0  0  0  0  0  0
    0.0027   -4.0427    1.5067 O   0  0  0  0  0  0  0  0  0  0  0  0
   -1.3029   -2.8392    0.1193 N   0  0  0  0  0  0  0  0  0  0  0  0
   -1.8546   -2.9370   -0.7282 H   0  0  0  0  0  0  0  0  0  0  0  0
   -0.5964   -1.5488    0.2949 C   0  0  1  0  0  0  0  0  0  0  0  0
    0.4097   -1.6768   -0.1230 H   0  0  0  0  0  0  0  0  0  0  0  0
   -1.2472   -0.3461   -0.4524 C   0  0  0  0  0  0  0  0  0  0  0  0
   -1.2032    0.5391    0.1911 H   0  0  0  0  0  0  0  0  0  0  0  0
   -0.6100   -0.1205   -1.3146 H   0  0  0  0  0  0  0  0  0  0  0  0
   -2.6897   -0.4690   -0.9816 C   0  0  0  0  0  0  0  0  0  0  0  0
   -3.0350    0.5154   -1.3173 H   0  0  0  0  0  0  0  0  0  0  0  0
   -2.6706   -1.1131   -1.8674 H   0  0  0  0  0  0  0  0  0  0  0  0
   -3.6759   -1.0850    0.0239 C   0  0  0  0  0  0  0  0  0  0  0  0
   -4.1919   -1.9275   -0.4500 H   0  0  0  0  0  0  0  0  0  0  0  0
   -3.1459   -1.4766    0.8966 H   0  0  0  0  0  0  0  0  0  0  0  0
   -4.6734   -0.0777    0.4423 N   0  3  0  0  0  0  0  0  0  0  0  0
   -5.5437   -0.0526   -0.0881 H   0  0  0  0  0  0  0  0  0  0  0  0
   -4.4891    0.8140    1.3765 C   0  0  0  0  0  0  0  0  0  0  0  0
   -3.3375    0.8854    2.1252 N   0  0  0  0  0  0  0  0  0  0  0  0
   -2.5678    0.2454    1.9228 H   0  0  0  0  0  0  0  0  0  0  0  0
   -3.1339    1.7305    2.6546 H   0  0  0  0  0  0  0  0  0  0  0  0
   -5.4760    1.7382    1.6246 N   0  0  0  0  0  0  0  0  0  0  0  0
   -6.3986    1.5969    1.2178 H   0  0  0  0  0  0  0  0  0  0  0  0
   -5.4065    2.3096    2.4650 H   0  0  0  0  0  0  0  0  0  0  0  0
   -0.3681   -1.1799    1.7817 C   0  0  0  0  0  0  0  0  0  0  0  0
    0.4825   -0.3450    2.0502 O   0  0  0  0  0  0  0  0  0  0  0  0
   -1.4070   -1.3420    2.6845 N   0  0  0  0  0  0  0  0  0  0  0  0
   -1.9299   -2.1990    2.5156 H   0  0  0  0  0  0  0  0  0  0  0  0
   -1.2312   -0.9710    4.0883 C   0  0  0  0  0  0  0  0  0  0  0  0
   -1.0328    0.1018    4.1877 H   0  0  0  0  0  0  0  0  0  0  0  0
   -2.1336   -1.2078    4.6603 H   0  0  0  0  0  0  0  0  0  0  0  0
   -0.3910   -1.5214    4.5266 H   0  0  0  0  0  0  0  0  0  0  0  0
  1  2  1  0  0  0  0
  2  3  1  0  0  0  0
  2  4  1  0  0  0  0
  2  5  1  0  0  0  0
  5  6  2  0  0  0  0
  5  7  1  0  0  0  0
  7  8  1  0  0  0  0
  7  9  1  0  0  0  0
  9 10  1  0  0  0  0
  9 11  1  0  0  0  0
  9 29  1  0  0  0  0
 11 12  1  0  0  0  0
 11 13  1  0  0  0  0
 11 14  1  0  0  0  0
 14 15  1  0  0  0  0
 14 16  1  0  0  0  0
 14 17  1  0  0  0  0
 17 18  1  0  0  0  0
 17 19  1  0  0  0  0
 17 20  1  0  0  0  0
 20 21  1  0  0  0  0
 20 22  2  0  0  0  0
 22 23  1  0  0  0  0
 22 26  1  0  0  0  0
 23 24  1  0  0  0  0
 23 25  1  0  0  0  0
 26 27  1  0  0  0  0
 26 28  1  0  0  0  0
 29 30  2  0  0  0  0
 29 31  1  0  0  0  0
 31 32  1  0  0  0  0
 31 33  1  0  0  0  0
 33 34  1  0  0  0  0
 33 35  1  0  0  0  0
 33 36  1  0  0  0  0
M  CHG  1  20   1
M  END
$$$$

  -OEChem-04042215563D

 36 35  0     1  0  0  0  0  0999 V2000
   -1.4449   -6.1852    0.3046 H   0  0  0  0  0  0  0  0  0  0  0  0
   -1.8213   -5.2442   -0.1082 C   0  0  0  0  0  0  0  0  0  0  0  0
   -2.8787   -5.1478    0.1479 H   0  0  0  0  0  0  0  0  0  0  0  0
   -1.7143   -5.2737   -1.1952 H   0  0  0  0  0  0  0  0  0  0  0  0
   -1.0355   -4.0781    0.4603 C   0  0  0  0  0  0  0  0  0  0  0  0
   -0.1363   -4.2857    1.2522 O   0  0  0  0  0  0  0  0  0  0  0  0
   -1.3729   -2.7805    0.1136 N   0  0  0  0  0  0  0  0  0  0  0  0
   -2.0240   -2.7196   -0.6626 H   0  0  0  0  0  0  0  0  0  0  0  0
   -0.4451   -1.6391    0.2884 C   0  0  1  0  0  0  0  0  0  0  0  0
    0.4761   -1.8779   -0.2568 H   0  0  0  0  0  0  0  0  0  0  0  0
   -0.9909   -0.2977   -0.2767 C   0  0  0  0  0  0  0  0  0  0  0  0
   -0.7323    0.5226    0.4028 H   0  0  0  0  0  0  0  0  0  0  0  0
   -0.4520   -0.1002   -1.2098 H   0  0  0  0  0  0  0  0  0  0  0  0
   -2.4920   -0.2133   -0.5970 C   0  0  0  0  0  0  0  0  0  0  0  0
   -2.6956    0.7891   -0.9898 H   0  0  0  0  0  0  0  0  0  0  0  0
   -2.7641   -0.9289   -1.3794 H   0  0  0  0  0  0  0  0  0  0  0  0
   -3.3261   -0.4645    0.6644 C   0  0  0  0  0  0  0  0  0  0  0  0
   -3.5396   -1.5351    0.7543 H   0  0  0  0  0  0  0  0  0  0  0  0
   -2.7466   -0.1774    1.5479 H   0  0  0  0  0  0  0  0  0  0  0  0
   -4.5847    0.3041    0.6232 N   0  3  0  0  0  0  0  0  0  0  0  0
   -5.3595   -0.0970    0.0957 H   0  0  0  0  0  0  0  0  0  0  0  0
   -4.7497    1.4473    1.2280 C   0  0  0  0  0  0  0  0  0  0  0  0
   -3.7350    2.0516    1.9370 N   0  0  0  0  0  0  0  0  0  0  0  0
   -2.7968    1.6613    1.8618 H   0  0  0  0  0  0  0  0  0  0  0  0
   -3.8265    3.0343    2.1880 H   0  0  0  0  0  0  0  0  0  0  0  0
   -5.9658    2.0836    1.1559 N   0  0  0  0  0  0  0  0  0  0  0  0
   -6.7687    1.5703    0.7970 H   0  0  0  0  0  0  0  0  0  0  0  0
   -6.1422    2.8641    1.7864 H   0  0  0  0  0  0  0  0  0  0  0  0
   -0.0078   -1.4133    1.7575 C   0  0  0  0  0  0  0  0  0  0  0  0
    1.0395   -0.8194    1.9706 O   0  0  0  0  0  0  0  0  0  0  0  0
   -0.9533   -1.4613    2.7690 N   0  0  0  0  0  0  0  0  0  0  0  0
   -1.6802   -2.1519    2.6052 H   0  0  0  0  0  0  0  0  0  0  0  0
   -0.5755   -1.2221    4.1596 C   0  0  0  0  0  0  0  0  0  0  0  0
   -0.1848   -0.2065    4.2859 H   0  0  0  0  0  0  0  0  0  0  0  0
   -1.4429   -1.3405    4.8160 H   0  0  0  0  0  0  0  0  0  0  0  0
    0.1956   -1.9346    4.4734 H   0  0  0  0  0  0  0  0  0  0  0  0
  1  2  1  0  0  0  0
  2  3  1  0  0  0  0
  2  4  1  0  0  0  0
  2  5  1  0  0  0  0
  5  6  2  0  0  0  0
  5  7  1  0  0  0  0
  7  8  1  0  0  0  0
  7  9  1  0  0  0  0
  9 10  1  0  0  0  0
  9 11  1  0  0  0  0
  9 29  1  0  0  0  0
 11 12  1  0  0  0  0
 11 13  1  0  0  0  0
 11 14  1  0  0  0  0
 14 15  1  0  0  0  0
 14 16  1  0  0  0  0
 14 17  1  0  0  0  0
 17 18  1  0  0  0  0
 17 19  1  0  0  0  0
 17 20  1  0  0  0  0
 20 21  1  0  0  0  0
 20 22  2  0  0  0  0
 22 23  1  0  0  0  0
 22 26  1  0  0  0  0
 23 24  1  0  0  0  0
 23 25  1  0  0  0  0
 26 27  1  0  0  0  0
 26 28  1  0  0  0  0
 29 30  2  0  0  0  0
 29 31  1  0  0  0  0
 31 32  1  0  0  0  0
 31 33  1  0  0  0  0
 33 34  1  0  0  0  0
 33 35  1  0  0  0  0
 33 36  1  0  0  0  0
M  CHG  1  20   1
M  END
$$$$

  -OEChem-04042215563D

 36 35  0     1  0  0  0  0  0999 V2000
   -2.1920   -5.9996    0.6769 H   0  0  0  0  0  0  0  0  0  0  0  0
   -2.4008   -5.0486    0.1774 C   0  0  0  0  0  0  0  0  0  0  0  0
   -3.4200   -4.7412    0.4217 H   0  0  0  0  0  0  0  0  0  0  0  0
   -2.3179   -5.1976   -0.9018 H   0  0  0  0  0  0  0  0  0  0  0  0
   -1.4105   -3.9941    0.6338 C   0  0  0  0  0  0  0  0  0  0  0  0
   -0.5501   -4.2868    1.4419 O   0  0  0  0  0  0  0  0  0  0  0  0
   -1.5162   -2.6952    0.1649 N   0  0  0  0  0  0  0  0  0  0  0  0
   -2.1657   -2.5940   -0.6081 H   0  0  0  0  0  0  0  0  0  0  0  0
   -0.3851   -1.7384    0.2010 C   0  0  1  0  0  0  0  0  0  0  0  0
    0.4521   -2.1928   -0.3428 H   0  0  0  0  0  0  0  0  0  0  0  0
   -0.6991   -0.3699   -0.4658 C   0  0  0  0  0  0  0  0  0  0  0  0
   -0.2436    0.4480    0.1054 H   0  0  0  0  0  0  0  0  0  0  0  0
   -0.1936   -0.3759   -1.4376 H   0  0  0  0  0  0  0  0  0  0  0  0
   -2.1757   -0.0398   -0.7367 C   0  0  0  0  0  0  0  0  0  0  0  0
   -2.2119    0.8257   -1.4078 H   0  0  0  0  0  0  0  0  0  0  0  0
   -2.6959   -0.8618   -1.2369 H   0  0  0  0  0  0  0  0  0  0  0  0
   -2.8438    0.3257    0.5888 C   0  0  0  0  0  0  0  0  0  0  0  0
   -2.9726   -0.5816    1.1891 H   0  0  0  0  0  0  0  0  0  0  0  0
   -2.1785    1.0038    1.1344 H   0  0  0  0  0  0  0  0  0  0  0  0
   -4.1464    0.9786    0.3654 N   0  3  0  0  0  0  0  0  0  0  0  0
   -4.5985    0.8274   -0.5352 H   0  0  0  0  0  0  0  0  0  0  0  0
   -4.7155    1.7536    1.2447 C   0  0  0  0  0  0  0  0  0  0  0  0
   -4.1392    2.0103    2.4687 N   0  0  0  0  0  0  0  0  0  0  0  0
   -3.1763    1.7123    2.6145 H   0  0  0  0  0  0  0  0  0  0  0  0
   -4.4832    2.7977    3.0150 H   0  0  0  0  0  0  0  0  0  0  0  0
   -5.9238    2.3404    0.9531 N   0  0  0  0  0  0  0  0  0  0  0  0
   -6.4386    2.0316    0.1307 H   0  0  0  0  0  0  0  0  0  0  0  0
   -6.4462    2.7834    1.7073 H   0  0  0  0  0  0  0  0  0  0  0  0
    0.1449   -1.4640    1.6304 C   0  0  0  0  0  0  0  0  0  0  0  0
    1.2992   -1.0847    1.7659 O   0  0  0  0  0  0  0  0  0  0  0  0
   -0.7522   -1.2373    2.6620 N   0  0  0  0  0  0  0  0  0  0  0  0
   -1.5987   -1.7924    2.5815 H   0  0  0  0  0  0  0  0  0  0  0  0
   -0.2783   -0.9489    4.0132 C   0  0  0  0  0  0  0  0  0  0  0  0
    0.2938   -0.0150    4.0308 H   0  0  0  0  0  0  0  0  0  0  0  0
   -1.1235   -0.8475    4.7006 H   0  0  0  0  0  0  0  0  0  0  0  0
    0.3655   -1.7591    4.3732 H   0  0  0  0  0  0  0  0  0  0  0  0
  1  2  1  0  0  0  0
  2  3  1  0  0  0  0
  2  4  1  0  0  0  0
  2  5  1  0  0  0  0
  5  6  2  0  0  0  0
  5  7  1  0  0  0  0
  7  8  1  0  0  0  0
  7  9  1  0  0  0  0
  9 10  1  0  0  0  0
  9 11  1  0  0  0  0
  9 29  1  0  0  0  0
 11 12  1  0  0  0  0
 11 13  1  0  0  0  0
 11 14  1  0  0  0  0
 14 15  1  0  0  0  0
 14 16  1  0  0  0  0
 14 17  1  0  0  0  0
 17 18  1  0  0  0  0
 17 19  1  0  0  0  0
 17 20  1  0  0  0  0
 20 21  1  0  0  0  0
 20 22  2  0  0  0  0
 22 23  1  0  0  0  0
 22 26  1  0  0  0  0
 23 24  1  0  0  0  0
 23 25  1  0  0  0  0
 26 27  1  0  0  0  0
 26 28  1  0  0  0  0
 29 30  2  0  0  0  0
 29 31  1  0  0  0  0
 31 32  1  0  0  0  0
 31 33  1  0  0  0  0
 33 34  1  0  0  0  0
 33 35  1  0  0  0  0
 33 36  1  0  0  0  0
M  CHG  1  20   1
M  END
$$$$

  -OEChem-04042215563D

 36 35  0     1  0  0  0  0  0999 V2000
   -2.5678   -5.8036    0.9220 H   0  0  0  0  0  0  0  0  0  0  0  0
   -2.6925   -4.8696    0.3658 C   0  0  0  0  0  0  0  0  0  0  0  0
   -3.6697   -4.4460    0.6080 H   0  0  0  0  0  0  0  0  0  0  0  0
   -2.6511   -5.0925   -0.7030 H   0  0  0  0  0  0  0  0  0  0  0  0
   -1.5911   -3.8946    0.7362 C   0  0  0  0  0  0  0  0  0  0  0  0
   -0.7390   -4.2260    1.5379 O   0  0  0  0  0  0  0  0  0  0  0  0
   -1.5896   -2.6185    0.1984 N   0  0  0  0  0  0  0  0  0  0  0  0
   -2.2436   -2.4993   -0.5682 H   0  0  0  0  0  0  0  0  0  0  0  0
   -0.3858   -1.7554    0.1782 C   0  0  1  0  0  0  0  0  0  0  0  0
    0.4098   -2.2998   -0.3446 H   0  0  0  0  0  0  0  0  0  0  0  0
   -0.5891   -0.3924   -0.5426 C   0  0  0  0  0  0  0  0  0  0  0  0
   -0.0357    0.4039   -0.0299 H   0  0  0  0  0  0  0  0  0  0  0  0
   -0.1091   -0.5008   -1.5213 H   0  0  0  0  0  0  0  0  0  0  0  0
   -2.0334    0.0667   -0.8199 C   0  0  0  0  0  0  0  0  0  0  0  0
   -2.0207    0.7180   -1.7008 H   0  0  0  0  0  0  0  0  0  0  0  0
   -2.7100   -0.7616   -1.0441 H   0  0  0  0  0  0  0  0  0  0  0  0
   -2.5146    0.8798    0.3818 C   0  0  0  0  0  0  0  0  0  0  0  0
   -2.5571    0.2231    1.2578 H   0  0  0  0  0  0  0  0  0  0  0  0
   -1.7871    1.6742    0.5847 H   0  0  0  0  0  0  0  0  0  0  0  0
   -3.8394    1.4743    0.1291 N   0  3  0  0  0  0  0  0  0  0  0  0
   -4.1975    1.4356   -0.8242 H   0  0  0  0  0  0  0  0  0  0  0  0
   -4.5198    2.1053    1.0431 C   0  0  0  0  0  0  0  0  0  0  0  0
   -4.0532    2.2358    2.3321 N   0  0  0  0  0  0  0  0  0  0  0  0
   -3.0809    1.9909    2.5113 H   0  0  0  0  0  0  0  0  0  0  0  0
   -4.4902    2.9257    2.9401 H   0  0  0  0  0  0  0  0  0  0  0  0
   -5.7355    2.6625    0.7250 N   0  0  0  0  0  0  0  0  0  0  0  0
   -6.1621    2.4416   -0.1726 H   0  0  0  0  0  0  0  0  0  0  0  0
   -6.3416    2.9783    1.4804 H   0  0  0  0  0  0  0  0  0  0  0  0
    0.1656   -1.4537    1.5937 C   0  0  0  0  0  0  0  0  0  0  0  0
    1.3488   -1.1723    1.7203 O   0  0  0  0  0  0  0  0  0  0  0  0
   -0.7129   -1.1042    2.6065 N   0  0  0  0  0  0  0  0  0  0  0  0
   -1.6093   -1.5764    2.5377 H   0  0  0  0  0  0  0  0  0  0  0  0
   -0.2243   -0.8006    3.9486 C   0  0  0  0  0  0  0  0  0  0  0  0
    0.4265    0.0803    3.9325 H   0  0  0  0  0  0  0  0  0  0  0  0
   -1.0623   -0.5974    4.6220 H   0  0  0  0  0  0  0  0  0  0  0  0
    0.3447   -1.6473    4.3487 H   0  0  0  0  0  0  0  0  0  0  0  0
  1  2  1  0  0  0  0
  2  3  1  0  0  0  0
  2  4  1  0  0  0  0
  2  5  1  0  0  0  0
  5  6  2  0  0  0  0
  5  7  1  0  0  0  0
  7  8  1  0  0  0  0
  7  9  1  0  0  0  0
  9 10  1  0  0  0  0
  9 11  1  0  0  0  0
  9 29  1  0  0  0  0
 11 12  1  0  0  0  0
 11 13  1  0  0  0  0
 11 14  1  0  0  0  0
 14 15  1  0  0  0  0
 14 16  1  0  0  0  0
 14 17  1  0  0  0  0
 17 18  1  0  0  0  0
 17 19  1  0  0  0  0
 17 20  1  0  0  0  0
 20 21  1  0  0  0  0
 20 22  2  0  0  0  0
 22 23  1  0  0  0  0
 22 26  1  0  0  0  0
 23 24  1  0  0  0  0
 23 25  1  0  0  0  0
 26 27  1  0  0  0  0
 26 28  1  0  0  0  0
 29 30  2  0  0  0  0
 29 31  1  0  0  0  0
 31 32  1  0  0  0  0
 31 33  1  0  0  0  0
 33 34  1  0  0  0  0
 33 35  1  0  0  0  0
 33 36  1  0  0  0  0
M  CHG  1  20   1
M  END
$$$$

  -OEChem-04042215563D

 36 35  0     1  0  0  0  0  0999 V2000
   -2.5702   -5.8045    0.9414 H   0  0  0  0  0  0  0  0  0  0  0  0
   -2.7189   -4.8606    0.4079 C   0  0  0  0  0  0  0  0  0  0  0  0
   -3.6878   -4.4455    0.6941 H   0  0  0  0  0  0  0  0  0  0  0  0
   -2.7166   -5.0645   -0.6657 H   0  0  0  0  0  0  0  0  0  0  0  0
   -1.6091   -3.8864    0.7565 C   0  0  0  0  0  0  0  0  0  0  0  0
   -0.7477   -4.2159    1.5492 O   0  0  0  0  0  0  0  0  0  0  0  0
   -1.6021   -2.6187    0.1980 N   0  0  0  0  0  0  0  0  0  0  0  0
   -2.2590   -2.5048   -0.5669 H   0  0  0  0  0  0  0  0  0  0  0  0
   -0.3975   -1.7568    0.1719 C   0  0  1  0  0  0  0  0  0  0  0  0
    0.4015   -2.3091   -0.3374 H   0  0  0  0  0  0  0  0  0  0  0  0
   -0.5876   -0.3964   -0.5597 C   0  0  0  0  0  0  0  0  0  0  0  0
   -0.0194    0.3937   -0.0537 H   0  0  0  0  0  0  0  0  0  0  0  0
   -0.1036   -0.5206   -1.5346 H   0  0  0  0  0  0  0  0  0  0  0  0
   -2.0240    0.0888   -0.8551 C   0  0  0  0  0  0  0  0  0  0  0  0
   -2.0525    0.4947   -1.8725 H   0  0  0  0  0  0  0  0  0  0  0  0
   -2.7684   -0.7080   -0.8043 H   0  0  0  0  0  0  0  0  0  0  0  0
   -2.3607    1.2073    0.1326 C   0  0  0  0  0  0  0  0  0  0  0  0
   -2.3135    0.8021    1.1497 H   0  0  0  0  0  0  0  0  0  0  0  0
   -1.6061    1.9973    0.0444 H   0  0  0  0  0  0  0  0  0  0  0  0
   -3.6989    1.7694   -0.1264 N   0  3  0  0  0  0  0  0  0  0  0  0
   -4.1360    1.5497   -1.0205 H   0  0  0  0  0  0  0  0  0  0  0  0
   -4.2969    2.5853    0.6947 C   0  0  0  0  0  0  0  0  0  0  0  0
   -3.7211    2.9635    1.8871 N   0  0  0  0  0  0  0  0  0  0  0  0
   -2.7397    2.7340    2.0344 H   0  0  0  0  0  0  0  0  0  0  0  0
   -4.1005    3.7711    2.3777 H   0  0  0  0  0  0  0  0  0  0  0  0
   -5.5333    3.0921    0.3727 N   0  0  0  0  0  0  0  0  0  0  0  0
   -6.0385    2.6989   -0.4191 H   0  0  0  0  0  0  0  0  0  0  0  0
   -6.0705    3.5662    1.0968 H   0  0  0  0  0  0  0  0  0  0  0  0
    0.1406   -1.4347    1.5881 C   0  0  0  0  0  0  0  0  0  0  0  0
    1.3243   -1.1592    1.7241 O   0  0  0  0  0  0  0  0  0  0  0  0
   -0.7469   -1.0688    2.5870 N   0  0  0  0  0  0  0  0  0  0  0  0
   -1.6577   -1.5101    2.5045 H   0  0  0  0  0  0  0  0  0  0  0  0
   -0.2773   -0.7492    3.9320 C   0  0  0  0  0  0  0  0  0  0  0  0
    0.3926    0.1173    3.9109 H   0  0  0  0  0  0  0  0  0  0  0  0
   -1.1226   -0.5142    4.5856 H   0  0  0  0  0  0  0  0  0  0  0  0
    0.2654   -1.5997    4.3593 H   0  0  0  0  0  0  0  0  0  0  0  0
  1  2  1  0  0  0  0
  2  3  1  0  0  0  0
  2  4  1  0  0  0  0
  2  5  1  0  0  0  0
  5  6  2  0  0  0  0
  5  7  1  0  0  0  0
  7  8  1  0  0  0  0
  7  9  1  0  0  0  0
  9 10  1  0  0  0  0
  9 11  1  0  0  0  0
  9 29  1  0  0  0  0
 11 12  1  0  0  0  0
 11 13  1  0  0  0  0
 11 14  1  0  0  0  0
 14 15  1  0  0  0  0
 14 16  1  0  0  0  0
 14 17  1  0  0  0  0
 17 18  1  0  0  0  0
 17 19  1  0  0  0  0
 17 20  1  0  0  0  0
 20 21  1  0  0  0  0
 20 22  2  0  0  0  0
 22 23  1  0  0  0  0
 22 26  1  0  0  0  0
 23 24  1  0  0  0  0
 23 25  1  0  0  0  0
 26 27  1  0  0  0  0
 26 28  1  0  0  0  0
 29 30  2  0  0  0  0
 29 31  1  0  0  0  0
 31 32  1  0  0  0  0
 31 33  1  0  0  0  0
 33 34  1  0  0  0  0
 33 35  1  0  0  0  0
 33 36  1  0  0  0  0
M  CHG  1  20   1
M  END
$$$$

  -OEChem-04042215563D

 36 35  0     1  0  0  0  0  0999 V2000
   -2.5526   -5.8149    0.9255 H   0  0  0  0  0  0  0  0  0  0  0  0
   -2.7254   -4.8594    0.4218 C   0  0  0  0  0  0  0  0  0  0  0  0
   -3.6888   -4.4607    0.7471 H   0  0  0  0  0  0  0  0  0  0  0  0
   -2.7531   -5.0347   -0.6562 H   0  0  0  0  0  0  0  0  0  0  0  0
   -1.6142   -3.8851    0.7630 C   0  0  0  0  0  0  0  0  0  0  0  0
   -0.7399   -4.2178    1.5401 O   0  0  0  0  0  0  0  0  0  0  0  0
   -1.6110   -2.6183    0.2033 N   0  0  0  0  0  0  0  0  0  0  0  0
   -2.2777   -2.4988   -0.5525 H   0  0  0  0  0  0  0  0  0  0  0  0
   -0.4084   -1.7541    0.1741 C   0  0  1  0  0  0  0  0  0  0  0  0
    0.3892   -2.3074   -0.3358 H   0  0  0  0  0  0  0  0  0  0  0  0
   -0.6040   -0.3991   -0.5659 C   0  0  0  0  0  0  0  0  0  0  0  0
   -0.0480    0.3894   -0.0443 H   0  0  0  0  0  0  0  0  0  0  0  0
   -0.1054   -0.5086   -1.5351 H   0  0  0  0  0  0  0  0  0  0  0  0
   -2.0433    0.0817   -0.8664 C   0  0  0  0  0  0  0  0  0  0  0  0
   -2.1647    0.1997   -1.9488 H   0  0  0  0  0  0  0  0  0  0  0  0
   -2.8056   -0.6190   -0.5204 H   0  0  0  0  0  0  0  0  0  0  0  0
   -2.2554    1.4280   -0.1705 C   0  0  0  0  0  0  0  0  0  0  0  0
   -2.1197    1.2890    0.9082 H   0  0  0  0  0  0  0  0  0  0  0  0
   -1.4943    2.1330   -0.5243 H   0  0  0  0  0  0  0  0  0  0  0  0
   -3.5993    1.9690   -0.4449 N   0  3  0  0  0  0  0  0  0  0  0  0
   -4.1220    1.5578   -1.2170 H   0  0  0  0  0  0  0  0  0  0  0  0
   -4.1027    2.9830    0.1999 C   0  0  0  0  0  0  0  0  0  0  0  0
   -3.4149    3.6113    1.2141 N   0  0  0  0  0  0  0  0  0  0  0  0
   -2.4322    3.3760    1.3421 H   0  0  0  0  0  0  0  0  0  0  0  0
   -3.7306    4.5279    1.5251 H   0  0  0  0  0  0  0  0  0  0  0  0
   -5.3513    3.4513   -0.1344 N   0  0  0  0  0  0  0  0  0  0  0  0
   -5.9350    2.9008   -0.7612 H   0  0  0  0  0  0  0  0  0  0  0  0
   -5.8102    4.1094    0.4934 H   0  0  0  0  0  0  0  0  0  0  0  0
    0.1370   -1.4251    1.5858 C   0  0  0  0  0  0  0  0  0  0  0  0
    1.3215   -1.1485    1.7134 O   0  0  0  0  0  0  0  0  0  0  0  0
   -0.7445   -1.0566    2.5883 N   0  0  0  0  0  0  0  0  0  0  0  0
   -1.6622   -1.4838    2.5100 H   0  0  0  0  0  0  0  0  0  0  0  0
   -0.2735   -0.7141    3.9269 C   0  0  0  0  0  0  0  0  0  0  0  0
    0.4020    0.1473    3.8902 H   0  0  0  0  0  0  0  0  0  0  0  0
   -1.1182   -0.4602    4.5743 H   0  0  0  0  0  0  0  0  0  0  0  0
    0.2622   -1.5603    4.3706 H   0  0  0  0  0  0  0  0  0  0  0  0
  1  2  1  0  0  0  0
  2  3  1  0  0  0  0
  2  4  1  0  0  0  0
  2  5  1  0  0  0  0
  5  6  2  0  0  0  0
  5  7  1  0  0  0  0
  7  8  1  0  0  0  0
  7  9  1  0  0  0  0
  9 10  1  0  0  0  0
  9 11  1  0  0  0  0
  9 29  1  0  0  0  0
 11 12  1  0  0  0  0
 11 13  1  0  0  0  0
 11 14  1  0  0  0  0
 14 15  1  0  0  0  0
 14 16  1  0  0  0  0
 14 17  1  0  0  0  0
 17 18  1  0  0  0  0
 17 19  1  0  0  0  0
 17 20  1  0  0  0  0
 20 21  1  0  0  0  0
 20 22  2  0  0  0  0
 22 23  1  0  0  0  0
 22 26  1  0  0  0  0
 23 24  1  0  0  0  0
 23 25  1  0  0  0  0
 26 27  1  0  0  0  0
 26 28  1  0  0  0  0
 29 30  2  0  0  0  0
 29 31  1  0  0  0  0
 31 32  1  0  0  0  0
 31 33  1  0  0  0  0
 33 34  1  0  0  0  0
 33 35  1  0  0  0  0
 33 36  1  0  0  0  0
M  CHG  1  20   1
M  END
$$$$

  -OEChem-04042215563D

 36 35  0     1  0  0  0  0  0999 V2000
   -2.5933   -5.7783    0.9212 H   0  0  0  0  0  0  0  0  0  0  0  0
   -2.7698   -4.8112    0.4408 C   0  0  0  0  0  0  0  0  0  0  0  0
   -3.7120   -4.4019    0.8123 H   0  0  0  0  0  0  0  0  0  0  0  0
   -2.8446   -4.9674   -0.6378 H   0  0  0  0  0  0  0  0  0  0  0  0
   -1.6279   -3.8626    0.7532 C   0  0  0  0  0  0  0  0  0  0  0  0
   -0.7353   -4.2219    1.4971 O   0  0  0  0  0  0  0  0  0  0  0  0
   -1.6159   -2.5900    0.2069 N   0  0  0  0  0  0  0  0  0  0  0  0
   -2.3003   -2.4424   -0.5275 H   0  0  0  0  0  0  0  0  0  0  0  0
   -0.4069   -1.7350    0.1824 C   0  0  1  0  0  0  0  0  0  0  0  0
    0.3840   -2.2956   -0.3309 H   0  0  0  0  0  0  0  0  0  0  0  0
   -0.5969   -0.3868   -0.5706 C   0  0  0  0  0  0  0  0  0  0  0  0
   -0.0705    0.4008   -0.0185 H   0  0  0  0  0  0  0  0  0  0  0  0
   -0.0739   -0.4726   -1.5294 H   0  0  0  0  0  0  0  0  0  0  0  0
   -2.0398    0.0761   -0.8754 C   0  0  0  0  0  0  0  0  0  0  0  0
   -2.2727   -0.1060   -1.9300 H   0  0  0  0  0  0  0  0  0  0  0  0
   -2.7700   -0.4609   -0.2642 H   0  0  0  0  0  0  0  0  0  0  0  0
   -2.1625    1.5634   -0.5354 C   0  0  0  0  0  0  0  0  0  0  0  0
   -1.9222    1.7020    0.5250 H   0  0  0  0  0  0  0  0  0  0  0  0
   -1.4317    2.1233   -1.1301 H   0  0  0  0  0  0  0  0  0  0  0  0
   -3.5212    2.0645   -0.8139 N   0  3  0  0  0  0  0  0  0  0  0  0
   -4.1270    1.4820   -1.3898 H   0  0  0  0  0  0  0  0  0  0  0  0
   -3.9488    3.2276   -0.4114 C   0  0  0  0  0  0  0  0  0  0  0  0
   -3.1536    4.0792    0.3221 N   0  0  0  0  0  0  0  0  0  0  0  0
   -2.1636    3.8558    0.4059 H   0  0  0  0  0  0  0  0  0  0  0  0
   -3.4337    5.0536    0.4158 H   0  0  0  0  0  0  0  0  0  0  0  0
   -5.2256    3.6300   -0.7242 N   0  0  0  0  0  0  0  0  0  0  0  0
   -5.8772    2.9492   -1.1097 H   0  0  0  0  0  0  0  0  0  0  0  0
   -5.6107    4.4431   -0.2460 H   0  0  0  0  0  0  0  0  0  0  0  0
    0.1505   -1.4213    1.5927 C   0  0  0  0  0  0  0  0  0  0  0  0
    1.3401   -1.1639    1.7138 O   0  0  0  0  0  0  0  0  0  0  0  0
   -0.7181   -1.0539    2.6061 N   0  0  0  0  0  0  0  0  0  0  0  0
   -1.6494   -1.4495    2.5245 H   0  0  0  0  0  0  0  0  0  0  0  0
   -0.2349   -0.7347    3.9460 C   0  0  0  0  0  0  0  0  0  0  0  0
    0.4522    0.1179    3.9158 H   0  0  0  0  0  0  0  0  0  0  0  0
   -1.0724   -0.4770    4.6012 H   0  0  0  0  0  0  0  0  0  0  0  0
    0.2919   -1.5935    4.3767 H   0  0  0  0  0  0  0  0  0  0  0  0
  1  2  1  0  0  0  0
  2  3  1  0  0  0  0
  2  4  1  0  0  0  0
  2  5  1  0  0  0  0
  5  6  2  0  0  0  0
  5  7  1  0  0  0  0
  7  8  1  0  0  0  0
  7  9  1  0  0  0  0
  9 10  1  0  0  0  0
  9 11  1  0  0  0  0
  9 29  1  0  0  0  0
 11 12  1  0  0  0  0
 11 13  1  0  0  0  0
 11 14  1  0  0  0  0
 14 15  1  0  0  0  0
 14 16  1  0  0  0  0
 14 17  1  0  0  0  0
 17 18  1  0  0  0  0
 17 19  1  0  0  0  0
 17 20  1  0  0  0  0
 20 21  1  0  0  0  0
 20 22  2  0  0  0  0
 22 23  1  0  0  0  0
 22 26  1  0  0  0  0
 23 24  1  0  0  0  0
 23 25  1  0  0  0  0
 26 27  1  0  0  0  0
 26 28  1  0  0  0  0
 29 30  2  0  0  0  0
 29 31  1  0  0  0  0
 31 32  1  0  0  0  0
 31 33  1  0  0  0  0
 33 34  1  0  0  0  0
 33 35  1  0  0  0  0
 33 36  1  0  0  0  0
M  CHG  1  20   1
M  END
$$$$

  -OEChem-04042215563D

 36 35  0     1  0  0  0  0  0999 V2000
   -2.6425   -5.7403    0.9233 H   0  0  0  0  0  0  0  0  0  0  0  0
   -2.8065   -4.7690    0.4470 C   0  0  0  0  0  0  0  0  0  0  0  0
   -3.7336   -4.3413    0.8349 H   0  0  0  0  0  0  0  0  0  0  0  0
   -2.9027   -4.9217   -0.6304 H   0  0  0  0  0  0  0  0  0  0  0  0
   -1.6413   -3.8430    0.7407 C   0  0  0  0  0  0  0  0  0  0  0  0
   -0.7377   -4.2230    1.4604 O   0  0  0  0  0  0  0  0  0  0  0  0
   -1.6188   -2.5671    0.2026 N   0  0  0  0  0  0  0  0  0  0  0  0
   -2.3170   -2.3961   -0.5130 H   0  0  0  0  0  0  0  0  0  0  0  0
   -0.4027   -1.7223    0.1819 C   0  0  1  0  0  0  0  0  0  0  0  0
    0.3820   -2.2864   -0.3364 H   0  0  0  0  0  0  0  0  0  0  0  0
   -0.5933   -0.3776   -0.5727 C   0  0  0  0  0  0  0  0  0  0  0  0
   -0.0878    0.4140   -0.0068 H   0  0  0  0  0  0  0  0  0  0  0  0
   -0.0664   -0.4486   -1.5306 H   0  0  0  0  0  0  0  0  0  0  0  0
   -2.0423    0.0583   -0.8632 C   0  0  0  0  0  0  0  0  0  0  0  0
   -2.3809   -0.3708   -1.8122 H   0  0  0  0  0  0  0  0  0  0  0  0
   -2.7093   -0.2841   -0.0653 H   0  0  0  0  0  0  0  0  0  0  0  0
   -2.0997    1.5873   -0.8918 C   0  0  0  0  0  0  0  0  0  0  0  0
   -1.7638    1.9705    0.0786 H   0  0  0  0  0  0  0  0  0  0  0  0
   -1.4121    1.9530   -1.6631 H   0  0  0  0  0  0  0  0  0  0  0  0
   -3.4667    2.0628   -1.1739 N   0  3  0  0  0  0  0  0  0  0  0  0
   -4.1426    1.3763   -1.5053 H   0  0  0  0  0  0  0  0  0  0  0  0
   -3.8241    3.3113   -1.0699 C   0  0  0  0  0  0  0  0  0  0  0  0
   -2.9401    4.2898   -0.6736 N   0  0  0  0  0  0  0  0  0  0  0  0
   -1.9533    4.0470   -0.6089 H   0  0  0  0  0  0  0  0  0  0  0  0
   -3.1845    5.2660   -0.8288 H   0  0  0  0  0  0  0  0  0  0  0  0
   -5.1161    3.6755   -1.3659 N   0  0  0  0  0  0  0  0  0  0  0  0
   -5.8177    2.9475   -1.4848 H   0  0  0  0  0  0  0  0  0  0  0  0
   -5.4336    4.6043   -1.0933 H   0  0  0  0  0  0  0  0  0  0  0  0
    0.1650   -1.4182    1.5899 C   0  0  0  0  0  0  0  0  0  0  0  0
    1.3581   -1.1744    1.7049 O   0  0  0  0  0  0  0  0  0  0  0  0
   -0.6936   -1.0470    2.6105 N   0  0  0  0  0  0  0  0  0  0  0  0
   -1.6339   -1.4208    2.5310 H   0  0  0  0  0  0  0  0  0  0  0  0
   -0.2009   -0.7304    3.9475 C   0  0  0  0  0  0  0  0  0  0  0  0
    0.4883    0.1202    3.9137 H   0  0  0  0  0  0  0  0  0  0  0  0
   -1.0335   -0.4709    4.6081 H   0  0  0  0  0  0  0  0  0  0  0  0
    0.3263   -1.5906    4.3744 H   0  0  0  0  0  0  0  0  0  0  0  0
  1  2  1  0  0  0  0
  2  3  1  0  0  0  0
  2  4  1  0  0  0  0
  2  5  1  0  0  0  0
  5  6  2  0  0  0  0
  5  7  1  0  0  0  0
  7  8  1  0  0  0  0
  7  9  1  0  0  0  0
  9 10  1  0  0  0  0
  9 11  1  0  0  0  0
  9 29  1  0  0  0  0
 11 12  1  0  0  0  0
 11 13  1  0  0  0  0
 11 14  1  0  0  0  0
 14 15  1  0  0  0  0
 14 16  1  0  0  0  0
 14 17  1  0  0  0  0
 17 18  1  0  0  0  0
 17 19  1  0  0  0  0
 17 20  1  0  0  0  0
 20 21  1  0  0  0  0
 20 22  2  0  0  0  0
 22 23  1  0  0  0  0
 22 26  1  0  0  0  0
 23 24  1  0  0  0  0
 23 25  1  0  0  0  0
 26 27  1  0  0  0  0
 26 28  1  0  0  0  0
 29 30  2  0  0  0  0
 29 31  1  0  0  0  0
 31 32  1  0  0  0  0
 31 33  1  0  0  0  0
 33 34  1  0  0  0  0
 33 35  1  0  0  0  0
 33 36  1  0  0  0  0
M  CHG  1  20   1
M  END
$$$$

  -OEChem-04042215563D

 36 35  0     1  0  0  0  0  0999 V2000
   -2.6633   -5.7171    0.9271 H   0  0  0  0  0  0  0  0  0  0  0  0
   -2.8273   -4.7416    0.4594 C   0  0  0  0  0  0  0  0  0  0  0  0
   -3.7407   -4.3055    0.8702 H   0  0  0  0  0  0  0  0  0  0  0  0
   -2.9482   -4.8867   -0.6167 H   0  0  0  0  0  0  0  0  0  0  0  0
   -1.6455   -3.8314    0.7329 C   0  0  0  0  0  0  0  0  0  0  0  0
   -0.7303   -4.2254    1.4303 O   0  0  0  0  0  0  0  0  0  0  0  0
   -1.6213   -2.5527    0.2032 N   0  0  0  0  0  0  0  0  0  0  0  0
   -2.3380   -2.3612   -0.4876 H   0  0  0  0  0  0  0  0  0  0  0  0
   -0.4051   -1.7091    0.1840 C   0  0  1  0  0  0  0  0  0  0  0  0
    0.3769   -2.2737   -0.3382 H   0  0  0  0  0  0  0  0  0  0  0  0
   -0.5989   -0.3683   -0.5731 C   0  0  0  0  0  0  0  0  0  0  0  0
   -0.1055    0.4324   -0.0092 H   0  0  0  0  0  0  0  0  0  0  0  0
   -0.0724   -0.4418   -1.5311 H   0  0  0  0  0  0  0  0  0  0  0  0
   -2.0510    0.0464   -0.8584 C   0  0  0  0  0  0  0  0  0  0  0  0
   -2.4701   -0.5733   -1.6581 H   0  0  0  0  0  0  0  0  0  0  0  0
   -2.6582   -0.0845    0.0441 H   0  0  0  0  0  0  0  0  0  0  0  0
   -2.0636    1.5228   -1.2571 C   0  0  0  0  0  0  0  0  0  0  0  0
   -1.6313    2.1124   -0.4405 H   0  0  0  0  0  0  0  0  0  0  0  0
   -1.4370    1.6549   -2.1464 H   0  0  0  0  0  0  0  0  0  0  0  0
   -3.4354    1.9852   -1.5372 N   0  3  0  0  0  0  0  0  0  0  0  0
   -4.1663    1.2783   -1.5979 H   0  0  0  0  0  0  0  0  0  0  0  0
   -3.7391    3.2352   -1.7425 C   0  0  0  0  0  0  0  0  0  0  0  0
   -2.7869    4.2290   -1.7092 N   0  0  0  0  0  0  0  0  0  0  0  0
   -1.8072    3.9539   -1.6717 H   0  0  0  0  0  0  0  0  0  0  0  0
   -3.0144    5.1412   -2.1003 H   0  0  0  0  0  0  0  0  0  0  0  0
   -5.0425    3.5837   -2.0048 N   0  0  0  0  0  0  0  0  0  0  0  0
   -5.7756    2.8946   -1.8495 H   0  0  0  0  0  0  0  0  0  0  0  0
   -5.2984    4.5689   -1.9639 H   0  0  0  0  0  0  0  0  0  0  0  0
    0.1718   -1.4098    1.5888 C   0  0  0  0  0  0  0  0  0  0  0  0
    1.3674   -1.1752    1.6951 O   0  0  0  0  0  0  0  0  0  0  0  0
   -0.6757   -1.0413    2.6190 N   0  0  0  0  0  0  0  0  0  0  0  0
   -1.6208   -1.4031    2.5439 H   0  0  0  0  0  0  0  0  0  0  0  0
   -0.1700   -0.7346    3.9534 C   0  0  0  0  0  0  0  0  0  0  0  0
    0.5254    0.1111    3.9179 H   0  0  0  0  0  0  0  0  0  0  0  0
   -0.9951   -0.4719    4.6225 H   0  0  0  0  0  0  0  0  0  0  0  0
    0.3543   -1.6011    4.3712 H   0  0  0  0  0  0  0  0  0  0  0  0
  1  2  1  0  0  0  0
  2  3  1  0  0  0  0
  2  4  1  0  0  0  0
  2  5  1  0  0  0  0
  5  6  2  0  0  0  0
  5  7  1  0  0  0  0
  7  8  1  0  0  0  0
  7  9  1  0  0  0  0
  9 10  1  0  0  0  0
  9 11  1  0  0  0  0
  9 29  1  0  0  0  0
 11 12  1  0  0  0  0
 11 13  1  0  0  0  0
 11 14  1  0  0  0  0
 14 15  1  0  0  0  0
 14 16  1  0  0  0  0
 14 17  1  0  0  0  0
 17 18  1  0  0  0  0
 17 19  1  0  0  0  0
 17 20  1  0  0  0  0
 20 21  1  0  0  0  0
 20 22  2  0  0  0  0
 22 23  1  0  0  0  0
 22 26  1  0  0  0  0
 23 24  1  0  0  0  0
 23 25  1  0  0  0  0
 26 27  1  0  0  0  0
 26 28  1  0  0  0  0
 29 30  2  0  0  0  0
 29 31  1  0  0  0  0
 31 32  1  0  0  0  0
 31 33  1  0  0  0  0
 33 34  1  0  0  0  0
 33 35  1  0  0  0  0
 33 36  1  0  0  0  0
M  CHG  1  20   1
M  END
$$$$

  -OEChem-04042215563D

 36 35  0     1  0  0  0  0  0999 V2000
   -2.6884   -5.7061    0.8486 H   0  0  0  0  0  0  0  0  0  0  0  0
   -2.8473   -4.7191    0.4038 C   0  0  0  0  0  0  0  0  0  0  0  0
   -3.7643   -4.2921    0.8162 H   0  0  0  0  0  0  0  0  0  0  0  0
   -2.9587   -4.8380   -0.6766 H   0  0  0  0  0  0  0  0  0  0  0  0
   -1.6679   -3.8156    0.7102 C   0  0  0  0  0  0  0  0  0  0  0  0
   -0.7685   -4.2188    1.4226 O   0  0  0  0  0  0  0  0  0  0  0  0
   -1.6284   -2.5326    0.1913 N   0  0  0  0  0  0  0  0  0  0  0  0
   -2.3284   -2.3403   -0.5169 H   0  0  0  0  0  0  0  0  0  0  0  0
   -0.4007   -1.7065    0.1774 C   0  0  1  0  0  0  0  0  0  0  0  0
    0.3746   -2.2674   -0.3579 H   0  0  0  0  0  0  0  0  0  0  0  0
   -0.5945   -0.3528   -0.5498 C   0  0  0  0  0  0  0  0  0  0  0  0
    0.1265    0.3767   -0.1621 H   0  0  0  0  0  0  0  0  0  0  0  0
   -0.3444   -0.5119   -1.6041 H   0  0  0  0  0  0  0  0  0  0  0  0
   -2.0094    0.2446   -0.4875 C   0  0  0  0  0  0  0  0  0  0  0  0
   -2.7375   -0.4361   -0.9392 H   0  0  0  0  0  0  0  0  0  0  0  0
   -2.2881    0.4096    0.5594 H   0  0  0  0  0  0  0  0  0  0  0  0
   -2.0127    1.5693   -1.2507 C   0  0  0  0  0  0  0  0  0  0  0  0
   -1.2360    2.2188   -0.8317 H   0  0  0  0  0  0  0  0  0  0  0  0
   -1.7710    1.3755   -2.3017 H   0  0  0  0  0  0  0  0  0  0  0  0
   -3.3255    2.2334   -1.1486 N   0  3  0  0  0  0  0  0  0  0  0  0
   -4.0308    1.7889   -0.5628 H   0  0  0  0  0  0  0  0  0  0  0  0
   -3.5965    3.3717   -1.7214 C   0  0  0  0  0  0  0  0  0  0  0  0
   -2.6643    4.0397   -2.4829 N   0  0  0  0  0  0  0  0  0  0  0  0
   -1.7016    3.7092   -2.4556 H   0  0  0  0  0  0  0  0  0  0  0  0
   -2.8264    5.0201   -2.7045 H   0  0  0  0  0  0  0  0  0  0  0  0
   -4.8409    3.9348   -1.5667 N   0  0  0  0  0  0  0  0  0  0  0  0
   -5.5891    3.3742   -1.1635 H   0  0  0  0  0  0  0  0  0  0  0  0
   -5.0999    4.7137   -2.1701 H   0  0  0  0  0  0  0  0  0  0  0  0
    0.1848   -1.4269    1.5827 C   0  0  0  0  0  0  0  0  0  0  0  0
    1.3841   -1.2099    1.6867 O   0  0  0  0  0  0  0  0  0  0  0  0
   -0.6538   -1.0548    2.6193 N   0  0  0  0  0  0  0  0  0  0  0  0
   -1.5993   -1.4176    2.5509 H   0  0  0  0  0  0  0  0  0  0  0  0
   -0.1373   -0.7573    3.9520 C   0  0  0  0  0  0  0  0  0  0  0  0
    0.5772    0.0719    3.9136 H   0  0  0  0  0  0  0  0  0  0  0  0
   -0.9543   -0.4739    4.6223 H   0  0  0  0  0  0  0  0  0  0  0  0
    0.3677   -1.6347    4.3708 H   0  0  0  0  0  0  0  0  0  0  0  0
  1  2  1  0  0  0  0
  2  3  1  0  0  0  0
  2  4  1  0  0  0  0
  2  5  1  0  0  0  0
  5  6  2  0  0  0  0
  5  7  1  0  0  0  0
  7  8  1  0  0  0  0
  7  9  1  0  0  0  0
  9 10  1  0  0  0  0
  9 11  1  0  0  0  0
  9 29  1  0  0  0  0
 11 12  1  0  0  0  0
 11 13  1  0  0  0  0
 11 14  1  0  0  0  0
 14 15  1  0  0  0  0
 14 16  1  0  0  0  0
 14 17  1  0  0  0  0
 17 18  1  0  0  0  0
 17 19  1  0  0  0  0
 17 20  1  0  0  0  0
 20 21  1  0  0  0  0
 20 22  2  0  0  0  0
 22 23  1  0  0  0  0
 22 26  1  0  0  0  0
 23 24  1  0  0  0  0
 23 25  1  0  0  0  0
 26 27  1  0  0  0  0
 26 28  1  0  0  0  0
 29 30  2  0  0  0  0
 29 31  1  0  0  0  0
 31 32  1  0  0  0  0
 31 33  1  0  0  0  0
 33 34  1  0  0  0  0
 33 35  1  0  0  0  0
 33 36  1  0  0  0  0
M  CHG  1  20   1
M  END
$$$$

  -OEChem-04042215563D

 36 35  0     1  0  0  0  0  0999 V2000
   -2.6775   -5.7209    0.9291 H   0  0  0  0  0  0  0  0  0  0  0  0
   -2.8340   -4.7479    0.4535 C   0  0  0  0  0  0  0  0  0  0  0  0
   -3.7487   -4.3053    0.8543 H   0  0  0  0  0  0  0  0  0  0  0  0
   -2.9489   -4.9007   -0.6222 H   0  0  0  0  0  0  0  0  0  0  0  0
   -1.6511   -3.8391    0.7275 C   0  0  0  0  0  0  0  0  0  0  0  0
   -0.7335   -4.2366    1.4196 O   0  0  0  0  0  0  0  0  0  0  0  0
   -1.6291   -2.5575    0.2037 N   0  0  0  0  0  0  0  0  0  0  0  0
   -2.3450   -2.3687   -0.4891 H   0  0  0  0  0  0  0  0  0  0  0  0
   -0.4108   -1.7175    0.1750 C   0  0  1  0  0  0  0  0  0  0  0  0
    0.3662   -2.2752   -0.3619 H   0  0  0  0  0  0  0  0  0  0  0  0
   -0.6086   -0.3624   -0.5520 C   0  0  0  0  0  0  0  0  0  0  0  0
    0.1209    0.3693   -0.1847 H   0  0  0  0  0  0  0  0  0  0  0  0
   -0.3667   -0.5422   -1.6051 H   0  0  0  0  0  0  0  0  0  0  0  0
   -2.0183    0.2542   -0.4967 C   0  0  0  0  0  0  0  0  0  0  0  0
   -2.7876   -0.4932   -0.7087 H   0  0  0  0  0  0  0  0  0  0  0  0
   -2.1970    0.6559    0.5067 H   0  0  0  0  0  0  0  0  0  0  0  0
   -2.1161    1.3594   -1.5493 C   0  0  0  0  0  0  0  0  0  0  0  0
   -1.2984    2.0716   -1.3889 H   0  0  0  0  0  0  0  0  0  0  0  0
   -1.9991    0.9174   -2.5451 H   0  0  0  0  0  0  0  0  0  0  0  0
   -3.4114    2.0579   -1.4512 N   0  3  0  0  0  0  0  0  0  0  0  0
   -4.0266    1.7946   -0.6828 H   0  0  0  0  0  0  0  0  0  0  0  0
   -3.7728    3.0170   -2.2553 C   0  0  0  0  0  0  0  0  0  0  0  0
   -2.9601    3.4519   -3.2779 N   0  0  0  0  0  0  0  0  0  0  0  0
   -1.9928    3.1341   -3.2855 H   0  0  0  0  0  0  0  0  0  0  0  0
   -3.1739    4.3404   -3.7271 H   0  0  0  0  0  0  0  0  0  0  0  0
   -4.9957    3.6218   -2.0865 N   0  0  0  0  0  0  0  0  0  0  0  0
   -5.6685    3.2054   -1.4456 H   0  0  0  0  0  0  0  0  0  0  0  0
   -5.3513    4.2185   -2.8318 H   0  0  0  0  0  0  0  0  0  0  0  0
    0.1797   -1.4292    1.5765 C   0  0  0  0  0  0  0  0  0  0  0  0
    1.3785   -1.2067    1.6741 O   0  0  0  0  0  0  0  0  0  0  0  0
   -0.6552   -1.0646    2.6186 N   0  0  0  0  0  0  0  0  0  0  0  0
   -1.6010   -1.4264    2.5533 H   0  0  0  0  0  0  0  0  0  0  0  0
   -0.1329   -0.7669    3.9487 C   0  0  0  0  0  0  0  0  0  0  0  0
    0.5580    0.0821    3.9103 H   0  0  0  0  0  0  0  0  0  0  0  0
   -0.9499   -0.5137    4.6311 H   0  0  0  0  0  0  0  0  0  0  0  0
    0.4004   -1.6344    4.3525 H   0  0  0  0  0  0  0  0  0  0  0  0
  1  2  1  0  0  0  0
  2  3  1  0  0  0  0
  2  4  1  0  0  0  0
  2  5  1  0  0  0  0
  5  6  2  0  0  0  0
  5  7  1  0  0  0  0
  7  8  1  0  0  0  0
  7  9  1  0  0  0  0
  9 10  1  0  0  0  0
  9 11  1  0  0  0  0
  9 29  1  0  0  0  0
 11 12  1  0  0  0  0
 11 13  1  0  0  0  0
 11 14  1  0  0  0  0
 14 15  1  0  0  0  0
 14 16  1  0  0  0  0
 14 17  1  0  0  0  0
 17 18  1  0  0  0  0
 17 19  1  0  0  0  0
 17 20  1  0  0  0  0
 20 21  1  0  0  0  0
 20 22  2  0  0  0  0
 22 23  1  0  0  0  0
 22 26  1  0  0  0  0
 23 24  1  0  0  0  0
 23 25  1  0  0  0  0
 26 27  1  0  0  0  0
 26 28  1  0  0  0  0
 29 30  2  0  0  0  0
 29 31  1  0  0  0  0
 31 32  1  0  0  0  0
 31 33  1  0  0  0  0
 33 34  1  0  0  0  0
 33 35  1  0  0  0  0
 33 36  1  0  0  0  0
M  CHG  1  20   1
M  END
$$$$

  -OEChem-04042215563D

 36 35  0     1  0  0  0  0  0999 V2000
   -2.6547   -5.7364    1.0009 H   0  0  0  0  0  0  0  0  0  0  0  0
   -2.8095   -4.7789    0.4945 C   0  0  0  0  0  0  0  0  0  0  0  0
   -3.7292   -4.3277    0.8741 H   0  0  0  0  0  0  0  0  0  0  0  0
   -2.9139   -4.9642   -0.5772 H   0  0  0  0  0  0  0  0  0  0  0  0
   -1.6303   -3.8597    0.7521 C   0  0  0  0  0  0  0  0  0  0  0  0
   -0.7012   -4.2492    1.4332 O   0  0  0  0  0  0  0  0  0  0  0  0
   -1.6215   -2.5820    0.2186 N   0  0  0  0  0  0  0  0  0  0  0  0
   -2.3440   -2.4036   -0.4700 H   0  0  0  0  0  0  0  0  0  0  0  0
   -0.4114   -1.7309    0.1780 C   0  0  1  0  0  0  0  0  0  0  0  0
    0.3686   -2.2862   -0.3564 H   0  0  0  0  0  0  0  0  0  0  0  0
   -0.6162   -0.3792   -0.5560 C   0  0  0  0  0  0  0  0  0  0  0  0
    0.1182    0.3569   -0.2076 H   0  0  0  0  0  0  0  0  0  0  0  0
   -0.3755   -0.5779   -1.6061 H   0  0  0  0  0  0  0  0  0  0  0  0
   -2.0247    0.2496   -0.5104 C   0  0  0  0  0  0  0  0  0  0  0  0
   -2.8087   -0.5083   -0.4475 H   0  0  0  0  0  0  0  0  0  0  0  0
   -2.0998    0.8817    0.3815 H   0  0  0  0  0  0  0  0  0  0  0  0
   -2.2574    1.0690   -1.7808 C   0  0  0  0  0  0  0  0  0  0  0  0
   -1.4278    1.7751   -1.9010 H   0  0  0  0  0  0  0  0  0  0  0  0
   -2.2671    0.3958   -2.6453 H   0  0  0  0  0  0  0  0  0  0  0  0
   -3.5313    1.8078   -1.6965 N   0  3  0  0  0  0  0  0  0  0  0  0
   -4.0362    1.7689   -0.8120 H   0  0  0  0  0  0  0  0  0  0  0  0
   -3.9939    2.5503   -2.6617 C   0  0  0  0  0  0  0  0  0  0  0  0
   -3.3246    2.6834   -3.8573 N   0  0  0  0  0  0  0  0  0  0  0  0
   -2.3702    2.3327   -3.9102 H   0  0  0  0  0  0  0  0  0  0  0  0
   -3.5902    3.4408   -4.4840 H   0  0  0  0  0  0  0  0  0  0  0  0
   -5.1788    3.2268   -2.4926 N   0  0  0  0  0  0  0  0  0  0  0  0
   -5.7652    3.0053   -1.6900 H   0  0  0  0  0  0  0  0  0  0  0  0
   -5.6207    3.6501   -3.3071 H   0  0  0  0  0  0  0  0  0  0  0  0
    0.1794   -1.4286    1.5759 C   0  0  0  0  0  0  0  0  0  0  0  0
    1.3778   -1.2039    1.6728 O   0  0  0  0  0  0  0  0  0  0  0  0
   -0.6567   -1.0651    2.6174 N   0  0  0  0  0  0  0  0  0  0  0  0
   -1.6048   -1.4202    2.5494 H   0  0  0  0  0  0  0  0  0  0  0  0
   -0.1358   -0.7665    3.9479 C   0  0  0  0  0  0  0  0  0  0  0  0
    0.5356    0.0982    3.9135 H   0  0  0  0  0  0  0  0  0  0  0  0
   -0.9557   -0.5376    4.6355 H   0  0  0  0  0  0  0  0  0  0  0  0
    0.4192   -1.6247    4.3430 H   0  0  0  0  0  0  0  0  0  0  0  0
  1  2  1  0  0  0  0
  2  3  1  0  0  0  0
  2  4  1  0  0  0  0
  2  5  1  0  0  0  0
  5  6  2  0  0  0  0
  5  7  1  0  0  0  0
  7  8  1  0  0  0  0
  7  9  1  0  0  0  0
  9 10  1  0  0  0  0
  9 11  1  0  0  0  0
  9 29  1  0  0  0  0
 11 12  1  0  0  0  0
 11 13  1  0  0  0  0
 11 14  1  0  0  0  0
 14 15  1  0  0  0  0
 14 16  1  0  0  0  0
 14 17  1  0  0  0  0
 17 18  1  0  0  0  0
 17 19  1  0  0  0  0
 17 20  1  0  0  0  0
 20 21  1  0  0  0  0
 20 22  2  0  0  0  0
 22 23  1  0  0  0  0
 22 26  1  0  0  0  0
 23 24  1  0  0  0  0
 23 25  1  0  0  0  0
 26 27  1  0  0  0  0
 26 28  1  0  0  0  0
 29 30  2  0  0  0  0
 29 31  1  0  0  0  0
 31 32  1  0  0  0  0
 31 33  1  0  0  0  0
 33 34  1  0  0  0  0
 33 35  1  0  0  0  0
 33 36  1  0  0  0  0
M  CHG  1  20   1
M  END
$$$$

  -OEChem-04042215563D

 36 35  0     1  0  0  0  0  0999 V2000
   -2.6501   -5.7408    1.0503 H   0  0  0  0  0  0  0  0  0  0  0  0
   -2.8037   -4.7898    0.5312 C   0  0  0  0  0  0  0  0  0  0  0  0
   -3.7162   -4.3263    0.9129 H   0  0  0  0  0  0  0  0  0  0  0  0
   -2.9198   -4.9901   -0.5365 H   0  0  0  0  0  0  0  0  0  0  0  0
   -1.6161   -3.8752    0.7638 C   0  0  0  0  0  0  0  0  0  0  0  0
   -0.6794   -4.2652    1.4339 O   0  0  0  0  0  0  0  0  0  0  0  0
   -1.6082   -2.6002    0.2234 N   0  0  0  0  0  0  0  0  0  0  0  0
   -2.3425   -2.4139   -0.4507 H   0  0  0  0  0  0  0  0  0  0  0  0
   -0.3991   -1.7475    0.1812 C   0  0  1  0  0  0  0  0  0  0  0  0
    0.3831   -2.3050   -0.3479 H   0  0  0  0  0  0  0  0  0  0  0  0
   -0.6016   -0.3991   -0.5591 C   0  0  0  0  0  0  0  0  0  0  0  0
    0.1309    0.3361   -0.2045 H   0  0  0  0  0  0  0  0  0  0  0  0
   -0.3457   -0.5975   -1.6053 H   0  0  0  0  0  0  0  0  0  0  0  0
   -2.0096    0.2377   -0.5245 C   0  0  0  0  0  0  0  0  0  0  0  0
   -2.7715   -0.4616   -0.1731 H   0  0  0  0  0  0  0  0  0  0  0  0
   -1.9910    1.0744    0.1826 H   0  0  0  0  0  0  0  0  0  0  0  0
   -2.3970    0.7327   -1.9192 C   0  0  0  0  0  0  0  0  0  0  0  0
   -1.5957    1.3770   -2.2986 H   0  0  0  0  0  0  0  0  0  0  0  0
   -2.4970   -0.1273   -2.5910 H   0  0  0  0  0  0  0  0  0  0  0  0
   -3.6611    1.4906   -1.8654 N   0  3  0  0  0  0  0  0  0  0  0  0
   -4.0584    1.6699   -0.9439 H   0  0  0  0  0  0  0  0  0  0  0  0
   -4.2441    1.9912   -2.9173 C   0  0  0  0  0  0  0  0  0  0  0  0
   -3.7241    1.8307   -4.1819 N   0  0  0  0  0  0  0  0  0  0  0  0
   -2.7768    1.4673   -4.2647 H   0  0  0  0  0  0  0  0  0  0  0  0
   -4.0749    2.4231   -4.9323 H   0  0  0  0  0  0  0  0  0  0  0  0
   -5.4111    2.7030   -2.7726 N   0  0  0  0  0  0  0  0  0  0  0  0
   -5.8885    2.6943   -1.8732 H   0  0  0  0  0  0  0  0  0  0  0  0
   -5.9579    2.9210   -3.6041 H   0  0  0  0  0  0  0  0  0  0  0  0
    0.1861   -1.4380    1.5800 C   0  0  0  0  0  0  0  0  0  0  0  0
    1.3845   -1.2161    1.6818 O   0  0  0  0  0  0  0  0  0  0  0  0
   -0.6551   -1.0708    2.6160 N   0  0  0  0  0  0  0  0  0  0  0  0
   -1.6035   -1.4241    2.5452 H   0  0  0  0  0  0  0  0  0  0  0  0
   -0.1423   -0.7576    3.9459 C   0  0  0  0  0  0  0  0  0  0  0  0
    0.5345    0.1026    3.9056 H   0  0  0  0  0  0  0  0  0  0  0  0
   -0.9661   -0.5151    4.6239 H   0  0  0  0  0  0  0  0  0  0  0  0
    0.4043   -1.6141    4.3555 H   0  0  0  0  0  0  0  0  0  0  0  0
  1  2  1  0  0  0  0
  2  3  1  0  0  0  0
  2  4  1  0  0  0  0
  2  5  1  0  0  0  0
  5  6  2  0  0  0  0
  5  7  1  0  0  0  0
  7  8  1  0  0  0  0
  7  9  1  0  0  0  0
  9 10  1  0  0  0  0
  9 11  1  0  0  0  0
  9 29  1  0  0  0  0
 11 12  1  0  0  0  0
 11 13  1  0  0  0  0
 11 14  1  0  0  0  0
 14 15  1  0  0  0  0
 14 16  1  0  0  0  0
 14 17  1  0  0  0  0
 17 18  1  0  0  0  0
 17 19  1  0  0  0  0
 17 20  1  0  0  0  0
 20 21  1  0  0  0  0
 20 22  2  0  0  0  0
 22 23  1  0  0  0  0
 22 26  1  0  0  0  0
 23 24  1  0  0  0  0
 23 25  1  0  0  0  0
 26 27  1  0  0  0  0
 26 28  1  0  0  0  0
 29 30  2  0  0  0  0
 29 31  1  0  0  0  0
 31 32  1  0  0  0  0
 31 33  1  0  0  0  0
 33 34  1  0  0  0  0
 33 35  1  0  0  0  0
 33 36  1  0  0  0  0
M  CHG  1  20   1
M  END
$$$$

  -OEChem-04042215563D

 36 35  0     1  0  0  0  0  0999 V2000
   -2.6764   -5.7246    1.0648 H   0  0  0  0  0  0  0  0  0  0  0  0
   -2.8149   -4.7736    0.5417 C   0  0  0  0  0  0  0  0  0  0  0  0
   -3.7189   -4.2933    0.9231 H   0  0  0  0  0  0  0  0  0  0  0  0
   -2.9358   -4.9763   -0.5250 H   0  0  0  0  0  0  0  0  0  0  0  0
   -1.6122   -3.8780    0.7694 C   0  0  0  0  0  0  0  0  0  0  0  0
   -0.6796   -4.2797    1.4378 O   0  0  0  0  0  0  0  0  0  0  0  0
   -1.5880   -2.6045    0.2276 N   0  0  0  0  0  0  0  0  0  0  0  0
   -2.3263   -2.4003   -0.4360 H   0  0  0  0  0  0  0  0  0  0  0  0
   -0.3742   -1.7586    0.1945 C   0  0  1  0  0  0  0  0  0  0  0  0
    0.4104   -2.3197   -0.3273 H   0  0  0  0  0  0  0  0  0  0  0  0
   -0.5781   -0.4199   -0.5623 C   0  0  0  0  0  0  0  0  0  0  0  0
    0.1347    0.3222   -0.1828 H   0  0  0  0  0  0  0  0  0  0  0  0
   -0.2932   -0.6006   -1.6041 H   0  0  0  0  0  0  0  0  0  0  0  0
   -1.9944    0.1985   -0.5379 C   0  0  0  0  0  0  0  0  0  0  0  0
   -2.6833   -0.3764    0.0867 H   0  0  0  0  0  0  0  0  0  0  0  0
   -1.9167    1.1934   -0.0850 H   0  0  0  0  0  0  0  0  0  0  0  0
   -2.5518    0.3370   -1.9563 C   0  0  0  0  0  0  0  0  0  0  0  0
   -1.8196    0.8709   -2.5725 H   0  0  0  0  0  0  0  0  0  0  0  0
   -2.7045   -0.6597   -2.3847 H   0  0  0  0  0  0  0  0  0  0  0  0
   -3.8227    1.0844   -1.9333 N   0  3  0  0  0  0  0  0  0  0  0  0
   -4.1375    1.4407   -1.0315 H   0  0  0  0  0  0  0  0  0  0  0  0
   -4.5087    1.3718   -3.0026 C   0  0  0  0  0  0  0  0  0  0  0  0
   -4.1085    0.9652   -4.2556 N   0  0  0  0  0  0  0  0  0  0  0  0
   -3.1697    0.5851   -4.3570 H   0  0  0  0  0  0  0  0  0  0  0  0
   -4.5363    1.4029   -5.0695 H   0  0  0  0  0  0  0  0  0  0  0  0
   -5.6660    2.1047   -2.8888 N   0  0  0  0  0  0  0  0  0  0  0  0
   -6.0567    2.2757   -1.9641 H   0  0  0  0  0  0  0  0  0  0  0  0
   -6.2883    2.1680   -3.6929 H   0  0  0  0  0  0  0  0  0  0  0  0
    0.2042   -1.4457    1.5955 C   0  0  0  0  0  0  0  0  0  0  0  0
    1.4035   -1.2325    1.7030 O   0  0  0  0  0  0  0  0  0  0  0  0
   -0.6391   -1.0689    2.6265 N   0  0  0  0  0  0  0  0  0  0  0  0
   -1.5896   -1.4166    2.5574 H   0  0  0  0  0  0  0  0  0  0  0  0
   -0.1298   -0.7322    3.9525 C   0  0  0  0  0  0  0  0  0  0  0  0
    0.5549    0.1210    3.8967 H   0  0  0  0  0  0  0  0  0  0  0  0
   -0.9543   -0.4665    4.6210 H   0  0  0  0  0  0  0  0  0  0  0  0
    0.4066   -1.5842    4.3844 H   0  0  0  0  0  0  0  0  0  0  0  0
  1  2  1  0  0  0  0
  2  3  1  0  0  0  0
  2  4  1  0  0  0  0
  2  5  1  0  0  0  0
  5  6  2  0  0  0  0
  5  7  1  0  0  0  0
  7  8  1  0  0  0  0
  7  9  1  0  0  0  0
  9 10  1  0  0  0  0
  9 11  1  0  0  0  0
  9 29  1  0  0  0  0
 11 12  1  0  0  0  0
 11 13  1  0  0  0  0
 11 14  1  0  0  0  0
 14 15  1  0  0  0  0
 14 16  1  0  0  0  0
 14 17  1  0  0  0  0
 17 18  1  0  0  0  0
 17 19  1  0  0  0  0
 17 20  1  0  0  0  0
 20 21  1  0  0  0  0
 20 22  2  0  0  0  0
 22 23  1  0  0  0  0
 22 26  1  0  0  0  0
 23 24  1  0  0  0  0
 23 25  1  0  0  0  0
 26 27  1  0  0  0  0
 26 28  1  0  0  0  0
 29 30  2  0  0  0  0
 29 31  1  0  0  0  0
 31 32  1  0  0  0  0
 31 33  1  0  0  0  0
 33 34  1  0  0  0  0
 33 35  1  0  0  0  0
 33 36  1  0  0  0  0
M  CHG  1  20   1
M  END
$$$$

  -OEChem-04042215563D

 36 35  0     1  0  0  0  0  0999 V2000
   -2.7112   -5.6875    1.0764 H   0  0  0  0  0  0  0  0  0  0  0  0
   -2.8449   -4.7302    0.5633 C   0  0  0  0  0  0  0  0  0  0  0  0
   -3.7289   -4.2354    0.9723 H   0  0  0  0  0  0  0  0  0  0  0  0
   -2.9974   -4.9233   -0.5011 H   0  0  0  0  0  0  0  0  0  0  0  0
   -1.6189   -3.8602    0.7645 C   0  0  0  0  0  0  0  0  0  0  0  0
   -0.6797   -4.2845    1.4091 O   0  0  0  0  0  0  0  0  0  0  0  0
   -1.5776   -2.5855    0.2257 N   0  0  0  0  0  0  0  0  0  0  0  0
   -2.3335   -2.3471   -0.4047 H   0  0  0  0  0  0  0  0  0  0  0  0
   -0.3546   -1.7524    0.2004 C   0  0  1  0  0  0  0  0  0  0  0  0
    0.4267   -2.3229   -0.3161 H   0  0  0  0  0  0  0  0  0  0  0  0
   -0.5422   -0.4184   -0.5663 C   0  0  0  0  0  0  0  0  0  0  0  0
    0.1593    0.3215   -0.1620 H   0  0  0  0  0  0  0  0  0  0  0  0
   -0.2383   -0.5813   -1.6057 H   0  0  0  0  0  0  0  0  0  0  0  0
   -1.9586    0.1908   -0.5464 C   0  0  0  0  0  0  0  0  0  0  0  0
   -2.5537   -0.2114    0.2796 H   0  0  0  0  0  0  0  0  0  0  0  0
   -1.8563    1.2672   -0.3689 H   0  0  0  0  0  0  0  0  0  0  0  0
   -2.6632   -0.0134   -1.8889 C   0  0  0  0  0  0  0  0  0  0  0  0
   -2.0231    0.3774   -2.6880 H   0  0  0  0  0  0  0  0  0  0  0  0
   -2.8155   -1.0842   -2.0613 H   0  0  0  0  0  0  0  0  0  0  0  0
   -3.9564    0.6951   -1.8904 N   0  3  0  0  0  0  0  0  0  0  0  0
   -4.1965    1.2260   -1.0537 H   0  0  0  0  0  0  0  0  0  0  0  0
   -4.7609    0.7283   -2.9142 C   0  0  0  0  0  0  0  0  0  0  0  0
   -4.4680    0.0760   -4.0909 N   0  0  0  0  0  0  0  0  0  0  0  0
   -3.5205   -0.2739   -4.2184 H   0  0  0  0  0  0  0  0  0  0  0  0
   -5.0034    0.3125   -4.9244 H   0  0  0  0  0  0  0  0  0  0  0  0
   -5.9386    1.4323   -2.8281 N   0  0  0  0  0  0  0  0  0  0  0  0
   -6.2402    1.7870   -1.9223 H   0  0  0  0  0  0  0  0  0  0  0  0
   -6.6441    1.3007   -3.5512 H   0  0  0  0  0  0  0  0  0  0  0  0
    0.2195   -1.4488    1.6052 C   0  0  0  0  0  0  0  0  0  0  0  0
    1.4209   -1.2541    1.7216 O   0  0  0  0  0  0  0  0  0  0  0  0
   -0.6259   -1.0656    2.6322 N   0  0  0  0  0  0  0  0  0  0  0  0
   -1.5823   -1.3932    2.5520 H   0  0  0  0  0  0  0  0  0  0  0  0
   -0.1219   -0.7494    3.9649 C   0  0  0  0  0  0  0  0  0  0  0  0
    0.5715    0.0973    3.9227 H   0  0  0  0  0  0  0  0  0  0  0  0
   -0.9479   -0.4834    4.6314 H   0  0  0  0  0  0  0  0  0  0  0  0
    0.4038   -1.6117    4.3897 H   0  0  0  0  0  0  0  0  0  0  0  0
  1  2  1  0  0  0  0
  2  3  1  0  0  0  0
  2  4  1  0  0  0  0
  2  5  1  0  0  0  0
  5  6  2  0  0  0  0
  5  7  1  0  0  0  0
  7  8  1  0  0  0  0
  7  9  1  0  0  0  0
  9 10  1  0  0  0  0
  9 11  1  0  0  0  0
  9 29  1  0  0  0  0
 11 12  1  0  0  0  0
 11 13  1  0  0  0  0
 11 14  1  0  0  0  0
 14 15  1  0  0  0  0
 14 16  1  0  0  0  0
 14 17  1  0  0  0  0
 17 18  1  0  0  0  0
 17 19  1  0  0  0  0
 17 20  1  0  0  0  0
 20 21  1  0  0  0  0
 20 22  2  0  0  0  0
 22 23  1  0  0  0  0
 22 26  1  0  0  0  0
 23 24  1  0  0  0  0
 23 25  1  0  0  0  0
 26 27  1  0  0  0  0
 26 28  1  0  0  0  0
 29 30  2  0  0  0  0
 29 31  1  0  0  0  0
 31 32  1  0  0  0  0
 31 33  1  0  0  0  0
 33 34  1  0  0  0  0
 33 35  1  0  0  0  0
 33 36  1  0  0  0  0
M  CHG  1  20   1
M  END
$$$$

  -OEChem-04042215563D

 36 35  0     1  0  0  0  0  0999 V2000
   -2.5920   -5.7201    1.2235 H   0  0  0  0  0  0  0  0  0  0  0  0
   -2.8043   -4.7331    0.8012 C   0  0  0  0  0  0  0  0  0  0  0  0
   -3.5472   -4.2367    1.4294 H   0  0  0  0  0  0  0  0  0  0  0  0
   -3.2099   -4.8653   -0.2043 H   0  0  0  0  0  0  0  0  0  0  0  0
   -1.5312   -3.9100    0.7470 C   0  0  0  0  0  0  0  0  0  0  0  0
   -0.4876   -4.3854    1.1502 O   0  0  0  0  0  0  0  0  0  0  0  0
   -1.5562   -2.6201    0.2459 N   0  0  0  0  0  0  0  0  0  0  0  0
   -2.4566   -2.2524   -0.0336 H   0  0  0  0  0  0  0  0  0  0  0  0
   -0.3692   -1.7391    0.1999 C   0  0  1  0  0  0  0  0  0  0  0  0
    0.4132   -2.2813   -0.3452 H   0  0  0  0  0  0  0  0  0  0  0  0
   -0.6068   -0.4121   -0.5636 C   0  0  0  0  0  0  0  0  0  0  0  0
    0.0707    0.3481   -0.1564 H   0  0  0  0  0  0  0  0  0  0  0  0
   -0.3073   -0.5574   -1.6072 H   0  0  0  0  0  0  0  0  0  0  0  0
   -2.0382    0.1507   -0.5318 C   0  0  0  0  0  0  0  0  0  0  0  0
   -2.5167   -0.0680    0.4286 H   0  0  0  0  0  0  0  0  0  0  0  0
   -1.9725    1.2409   -0.6229 H   0  0  0  0  0  0  0  0  0  0  0  0
   -2.8632   -0.3877   -1.7042 C   0  0  0  0  0  0  0  0  0  0  0  0
   -2.3072   -0.2123   -2.6320 H   0  0  0  0  0  0  0  0  0  0  0  0
   -3.0077   -1.4669   -1.5901 H   0  0  0  0  0  0  0  0  0  0  0  0
   -4.1672    0.2988   -1.7674 N   0  3  0  0  0  0  0  0  0  0  0  0
   -4.4035    0.9235   -0.9968 H   0  0  0  0  0  0  0  0  0  0  0  0
   -4.9831    0.2039   -2.7791 C   0  0  0  0  0  0  0  0  0  0  0  0
   -4.6962   -0.5817   -3.8728 N   0  0  0  0  0  0  0  0  0  0  0  0
   -3.7524   -0.9530   -3.9596 H   0  0  0  0  0  0  0  0  0  0  0  0
   -5.2342   -0.4439   -4.7265 H   0  0  0  0  0  0  0  0  0  0  0  0
   -6.1660    0.9044   -2.7670 N   0  0  0  0  0  0  0  0  0  0  0  0
   -6.4672    1.3565   -1.9055 H   0  0  0  0  0  0  0  0  0  0  0  0
   -6.8733    0.6849   -3.4666 H   0  0  0  0  0  0  0  0  0  0  0  0
    0.2462   -1.4500    1.5900 C   0  0  0  0  0  0  0  0  0  0  0  0
    1.4432   -1.2165    1.6711 O   0  0  0  0  0  0  0  0  0  0  0  0
   -0.5712   -1.1275    2.6599 N   0  0  0  0  0  0  0  0  0  0  0  0
   -1.5262   -1.4620    2.6053 H   0  0  0  0  0  0  0  0  0  0  0  0
   -0.0298   -0.8094    3.9779 C   0  0  0  0  0  0  0  0  0  0  0  0
    0.6158    0.0739    3.9267 H   0  0  0  0  0  0  0  0  0  0  0  0
   -0.8402   -0.6007    4.6830 H   0  0  0  0  0  0  0  0  0  0  0  0
    0.5582   -1.6496    4.3632 H   0  0  0  0  0  0  0  0  0  0  0  0
  1  2  1  0  0  0  0
  2  3  1  0  0  0  0
  2  4  1  0  0  0  0
  2  5  1  0  0  0  0
  5  6  2  0  0  0  0
  5  7  1  0  0  0  0
  7  8  1  0  0  0  0
  7  9  1  0  0  0  0
  9 10  1  0  0  0  0
  9 11  1  0  0  0  0
  9 29  1  0  0  0  0
 11 12  1  0  0  0  0
 11 13  1  0  0  0  0
 11 14  1  0  0  0  0
 14 15  1  0  0  0  0
 14 16  1  0  0  0  0
 14 17  1  0  0  0  0
 17 18  1  0  0  0  0
 17 19  1  0  0  0  0
 17 20  1  0  0  0  0
 20 21  1  0  0  0  0
 20 22  2  0  0  0  0
 22 23  1  0  0  0  0
 22 26  1  0  0  0  0
 23 24  1  0  0  0  0
 23 25  1  0  0  0  0
 26 27  1  0  0  0  0
 26 28  1  0  0  0  0
 29 30  2  0  0  0  0
 29 31  1  0  0  0  0
 31 32  1  0  0  0  0
 31 33  1  0  0  0  0
 33 34  1  0  0  0  0
 33 35  1  0  0  0  0
 33 36  1  0  0  0  0
M  CHG  1  20   1
M  END
$$$$

  -OEChem-04042215563D

 36 35  0     1  0  0  0  0  0999 V2000
   -2.3360   -5.8151    1.4450 H   0  0  0  0  0  0  0  0  0  0  0  0
   -2.6383   -4.8240    1.0926 C   0  0  0  0  0  0  0  0  0  0  0  0
   -3.2431   -4.3477    1.8674 H   0  0  0  0  0  0  0  0  0  0  0  0
   -3.2380   -4.9437    0.1875 H   0  0  0  0  0  0  0  0  0  0  0  0
   -1.4106   -3.9834    0.7980 C   0  0  0  0  0  0  0  0  0  0  0  0
   -0.3020   -4.4440    0.9889 O   0  0  0  0  0  0  0  0  0  0  0  0
   -1.5531   -2.6909    0.3237 N   0  0  0  0  0  0  0  0  0  0  0  0
   -2.4926   -2.3150    0.3414 H   0  0  0  0  0  0  0  0  0  0  0  0
   -0.4201   -1.7480    0.2206 C   0  0  1  0  0  0  0  0  0  0  0  0
    0.3535   -2.2564   -0.3686 H   0  0  0  0  0  0  0  0  0  0  0  0
   -0.7344   -0.4336   -0.5403 C   0  0  0  0  0  0  0  0  0  0  0  0
   -0.0650    0.3506   -0.1675 H   0  0  0  0  0  0  0  0  0  0  0  0
   -0.4690   -0.5852   -1.5919 H   0  0  0  0  0  0  0  0  0  0  0  0
   -2.1753    0.1048   -0.4889 C   0  0  0  0  0  0  0  0  0  0  0  0
   -2.5347    0.1113    0.5457 H   0  0  0  0  0  0  0  0  0  0  0  0
   -2.1562    1.1432   -0.8390 H   0  0  0  0  0  0  0  0  0  0  0  0
   -3.1198   -0.7034   -1.3866 C   0  0  0  0  0  0  0  0  0  0  0  0
   -2.6368   -0.8393   -2.3604 H   0  0  0  0  0  0  0  0  0  0  0  0
   -3.3009   -1.6920   -0.9562 H   0  0  0  0  0  0  0  0  0  0  0  0
   -4.3988    0.0120   -1.5560 N   0  3  0  0  0  0  0  0  0  0  0  0
   -4.6438    0.7042   -0.8487 H   0  0  0  0  0  0  0  0  0  0  0  0
   -5.1981   -0.1670   -2.5698 C   0  0  0  0  0  0  0  0  0  0  0  0
   -4.9140   -1.0639   -3.5756 N   0  0  0  0  0  0  0  0  0  0  0  0
   -3.9782   -1.4633   -3.6120 H   0  0  0  0  0  0  0  0  0  0  0  0
   -5.4407   -1.0047   -4.4453 H   0  0  0  0  0  0  0  0  0  0  0  0
   -6.3640    0.5568   -2.6501 N   0  0  0  0  0  0  0  0  0  0  0  0
   -6.6647    1.1078   -1.8482 H   0  0  0  0  0  0  0  0  0  0  0  0
   -7.0665    0.2821   -3.3350 H   0  0  0  0  0  0  0  0  0  0  0  0
    0.2698   -1.4474    1.5722 C   0  0  0  0  0  0  0  0  0  0  0  0
    1.4591   -1.1669    1.5805 O   0  0  0  0  0  0  0  0  0  0  0  0
   -0.4845   -1.1843    2.7034 N   0  0  0  0  0  0  0  0  0  0  0  0
   -1.4348   -1.5352    2.7043 H   0  0  0  0  0  0  0  0  0  0  0  0
    0.1336   -0.8638    3.9870 C   0  0  0  0  0  0  0  0  0  0  0  0
    0.7167    0.0604    3.9124 H   0  0  0  0  0  0  0  0  0  0  0  0
   -0.6328   -0.7253    4.7556 H   0  0  0  0  0  0  0  0  0  0  0  0
    0.8007   -1.6733    4.3040 H   0  0  0  0  0  0  0  0  0  0  0  0
  1  2  1  0  0  0  0
  2  3  1  0  0  0  0
  2  4  1  0  0  0  0
  2  5  1  0  0  0  0
  5  6  2  0  0  0  0
  5  7  1  0  0  0  0
  7  8  1  0  0  0  0
  7  9  1  0  0  0  0
  9 10  1  0  0  0  0
  9 11  1  0  0  0  0
  9 29  1  0  0  0  0
 11 12  1  0  0  0  0
 11 13  1  0  0  0  0
 11 14  1  0  0  0  0
 14 15  1  0  0  0  0
 14 16  1  0  0  0  0
 14 17  1  0  0  0  0
 17 18  1  0  0  0  0
 17 19  1  0  0  0  0
 17 20  1  0  0  0  0
 20 21  1  0  0  0  0
 20 22  2  0  0  0  0
 22 23  1  0  0  0  0
 22 26  1  0  0  0  0
 23 24  1  0  0  0  0
 23 25  1  0  0  0  0
 26 27  1  0  0  0  0
 26 28  1  0  0  0  0
 29 30  2  0  0  0  0
 29 31  1  0  0  0  0
 31 32  1  0  0  0  0
 31 33  1  0  0  0  0
 33 34  1  0  0  0  0
 33 35  1  0  0  0  0
 33 36  1  0  0  0  0
M  CHG  1  20   1
M  END
$$$$

  -OEChem-04042215563D

 36 35  0     1  0  0  0  0  0999 V2000
   -1.8345   -6.0698    1.8723 H   0  0  0  0  0  0  0  0  0  0  0  0
   -2.2850   -5.1511    1.4845 C   0  0  0  0  0  0  0  0  0  0  0  0
   -2.9076   -4.7115    2.2670 H   0  0  0  0  0  0  0  0  0  0  0  0
   -2.9090   -5.4052    0.6248 H   0  0  0  0  0  0  0  0  0  0  0  0
   -1.1980   -4.1770    1.0716 C   0  0  0  0  0  0  0  0  0  0  0  0
   -0.0300   -4.4686    1.2399 O   0  0  0  0  0  0  0  0  0  0  0  0
   -1.5336   -2.9529    0.5184 N   0  0  0  0  0  0  0  0  0  0  0  0
   -2.5185   -2.7432    0.4413 H   0  0  0  0  0  0  0  0  0  0  0  0
   -0.5385   -1.9206    0.1617 C   0  0  1  0  0  0  0  0  0  0  0  0
    0.1897   -2.4050   -0.5008 H   0  0  0  0  0  0  0  0  0  0  0  0
   -1.0758   -0.6846   -0.6132 C   0  0  0  0  0  0  0  0  0  0  0  0
   -0.4049    0.1629   -0.4290 H   0  0  0  0  0  0  0  0  0  0  0  0
   -0.9793   -0.9217   -1.6778 H   0  0  0  0  0  0  0  0  0  0  0  0
   -2.5229   -0.1976   -0.3971 C   0  0  0  0  0  0  0  0  0  0  0  0
   -2.6418    0.1131    0.6468 H   0  0  0  0  0  0  0  0  0  0  0  0
   -2.6597    0.6954   -1.0166 H   0  0  0  0  0  0  0  0  0  0  0  0
   -3.6076   -1.2231   -0.7422 C   0  0  0  0  0  0  0  0  0  0  0  0
   -3.3108   -1.7929   -1.6296 H   0  0  0  0  0  0  0  0  0  0  0  0
   -3.7228   -1.9311    0.0831 H   0  0  0  0  0  0  0  0  0  0  0  0
   -4.8971   -0.5428   -0.9782 N   0  3  0  0  0  0  0  0  0  0  0  0
   -5.4779   -0.3549   -0.1611 H   0  0  0  0  0  0  0  0  0  0  0  0
   -5.3268   -0.1752   -2.1533 C   0  0  0  0  0  0  0  0  0  0  0  0
   -4.5807   -0.3609   -3.2957 N   0  0  0  0  0  0  0  0  0  0  0  0
   -3.6047   -0.6307   -3.1911 H   0  0  0  0  0  0  0  0  0  0  0  0
   -4.8495    0.1391   -4.1414 H   0  0  0  0  0  0  0  0  0  0  0  0
   -6.5576    0.4264   -2.2664 N   0  0  0  0  0  0  0  0  0  0  0  0
   -7.1881    0.4149   -1.4668 H   0  0  0  0  0  0  0  0  0  0  0  0
   -6.9662    0.5292   -3.1940 H   0  0  0  0  0  0  0  0  0  0  0  0
    0.2950   -1.4358    1.3725 C   0  0  0  0  0  0  0  0  0  0  0  0
    1.4312   -1.0273    1.1826 O   0  0  0  0  0  0  0  0  0  0  0  0
   -0.3257   -1.1466    2.5760 N   0  0  0  0  0  0  0  0  0  0  0  0
   -1.2092   -1.6132    2.7455 H   0  0  0  0  0  0  0  0  0  0  0  0
    0.4149   -0.6375    3.7267 C   0  0  0  0  0  0  0  0  0  0  0  0
    0.8713    0.3303    3.4928 H   0  0  0  0  0  0  0  0  0  0  0  0
   -0.2546   -0.5033    4.5817 H   0  0  0  0  0  0  0  0  0  0  0  0
    1.2073   -1.3377    4.0127 H   0  0  0  0  0  0  0  0  0  0  0  0
  1  2  1  0  0  0  0
  2  3  1  0  0  0  0
  2  4  1  0  0  0  0
  2  5  1  0  0  0  0
  5  6  2  0  0  0  0
  5  7  1  0  0  0  0
  7  8  1  0  0  0  0
  7  9  1  0  0  0  0
  9 10  1  0  0  0  0
  9 11  1  0  0  0  0
  9 29  1  0  0  0  0
 11 12  1  0  0  0  0
 11 13  1  0  0  0  0
 11 14  1  0  0  0  0
 14 15  1  0  0  0  0
 14 16  1  0  0  0  0
 14 17  1  0  0  0  0
 17 18  1  0  0  0  0
 17 19  1  0  0  0  0
 17 20  1  0  0  0  0
 20 21  1  0  0  0  0
 20 22  2  0  0  0  0
 22 23  1  0  0  0  0
 22 26  1  0  0  0  0
 23 24  1  0  0  0  0
 23 25  1  0  0  0  0
 26 27  1  0  0  0  0
 26 28  1  0  0  0  0
 29 30  2  0  0  0  0
 29 31  1  0  0  0  0
 31 32  1  0  0  0  0
 31 33  1  0  0  0  0
 33 34  1  0  0  0  0
 33 35  1  0  0  0  0
 33 36  1  0  0  0  0
M  CHG  1  20   1
M  END
$$$$

  -OEChem-04042215563D

 36 35  0     1  0  0  0  0  0999 V2000
   -1.5451   -6.1686    1.7603 H   0  0  0  0  0  0  0  0  0  0  0  0
   -1.9768   -5.3516    1.1739 C   0  0  0  0  0  0  0  0  0  0  0  0
   -2.9269   -5.0608    1.6277 H   0  0  0  0  0  0  0  0  0  0  0  0
   -2.1551   -5.7090    0.1570 H   0  0  0  0  0  0  0  0  0  0  0  0
   -1.0242   -4.1715    1.1515 C   0  0  0  0  0  0  0  0  0  0  0  0
    0.0680   -4.2745    1.6743 O   0  0  0  0  0  0  0  0  0  0  0  0
   -1.4097   -2.9846    0.5487 N   0  0  0  0  0  0  0  0  0  0  0  0
   -2.2403   -3.0649   -0.0242 H   0  0  0  0  0  0  0  0  0  0  0  0
   -0.4468   -1.9190    0.1939 C   0  0  1  0  0  0  0  0  0  0  0  0
    0.3164   -2.3693   -0.4523 H   0  0  0  0  0  0  0  0  0  0  0  0
   -1.0340   -0.6909   -0.5656 C   0  0  0  0  0  0  0  0  0  0  0  0
   -0.3752    0.1725   -0.4137 H   0  0  0  0  0  0  0  0  0  0  0  0
   -0.9555   -0.9443   -1.6280 H   0  0  0  0  0  0  0  0  0  0  0  0
   -2.4917   -0.2176   -0.3539 C   0  0  0  0  0  0  0  0  0  0  0  0
   -2.5297    0.3126    0.6043 H   0  0  0  0  0  0  0  0  0  0  0  0
   -2.7130    0.5175   -1.1349 H   0  0  0  0  0  0  0  0  0  0  0  0
   -3.5874   -1.2846   -0.3388 C   0  0  0  0  0  0  0  0  0  0  0  0
   -3.4749   -1.9506   -1.2010 H   0  0  0  0  0  0  0  0  0  0  0  0
   -3.4920   -1.8882    0.5697 H   0  0  0  0  0  0  0  0  0  0  0  0
   -4.9188   -0.6458   -0.3530 N   0  3  0  0  0  0  0  0  0  0  0  0
   -5.3212   -0.4004    0.5518 H   0  0  0  0  0  0  0  0  0  0  0  0
   -5.5988   -0.3855   -1.4343 C   0  0  0  0  0  0  0  0  0  0  0  0
   -5.1020   -0.6492   -2.6909 N   0  0  0  0  0  0  0  0  0  0  0  0
   -4.1099   -0.8607   -2.7744 H   0  0  0  0  0  0  0  0  0  0  0  0
   -5.5674   -0.2302   -3.4942 H   0  0  0  0  0  0  0  0  0  0  0  0
   -6.8485    0.1774   -1.3292 N   0  0  0  0  0  0  0  0  0  0  0  0
   -7.2956    0.2192   -0.4150 H   0  0  0  0  0  0  0  0  0  0  0  0
   -7.4457    0.1991   -2.1544 H   0  0  0  0  0  0  0  0  0  0  0  0
    0.3241   -1.3642    1.4180 C   0  0  0  0  0  0  0  0  0  0  0  0
    1.4502   -0.9177    1.2514 O   0  0  0  0  0  0  0  0  0  0  0  0
   -0.3502   -1.0696    2.5903 N   0  0  0  0  0  0  0  0  0  0  0  0
   -1.1929   -1.6117    2.7467 H   0  0  0  0  0  0  0  0  0  0  0  0
    0.3459   -0.5439    3.7609 C   0  0  0  0  0  0  0  0  0  0  0  0
    0.8446    0.4019    3.5220 H   0  0  0  0  0  0  0  0  0  0  0  0
   -0.3622   -0.3611    4.5749 H   0  0  0  0  0  0  0  0  0  0  0  0
    1.1000   -1.2584    4.1094 H   0  0  0  0  0  0  0  0  0  0  0  0
  1  2  1  0  0  0  0
  2  3  1  0  0  0  0
  2  4  1  0  0  0  0
  2  5  1  0  0  0  0
  5  6  2  0  0  0  0
  5  7  1  0  0  0  0
  7  8  1  0  0  0  0
  7  9  1  0  0  0  0
  9 10  1  0  0  0  0
  9 11  1  0  0  0  0
  9 29  1  0  0  0  0
 11 12  1  0  0  0  0
 11 13  1  0  0  0  0
 11 14  1  0  0  0  0
 14 15  1  0  0  0  0
 14 16  1  0  0  0  0
 14 17  1  0  0  0  0
 17 18  1  0  0  0  0
 17 19  1  0  0  0  0
 17 20  1  0  0  0  0
 20 21  1  0  0  0  0
 20 22  2  0  0  0  0
 22 23  1  0  0  0  0
 22 26  1  0  0  0  0
 23 24  1  0  0  0  0
 23 25  1  0  0  0  0
 26 27  1  0  0  0  0
 26 28  1  0  0  0  0
 29 30  2  0  0  0  0
 29 31  1  0  0  0  0
 31 32  1  0  0  0  0
 31 33  1  0  0  0  0
 33 34  1  0  0  0  0
 33 35  1  0  0  0  0
 33 36  1  0  0  0  0
M  CHG  1  20   1
M  END
$$$$

  -OEChem-04042215563D

 36 35  0     1  0  0  0  0  0999 V2000
   -1.6111   -6.1958    0.9486 H   0  0  0  0  0  0  0  0  0  0  0  0
   -1.9736   -5.2765    0.4780 C   0  0  0  0  0  0  0  0  0  0  0  0
   -2.9974   -5.0946    0.8108 H   0  0  0  0  0  0  0  0  0  0  0  0
   -1.9627   -5.4152   -0.6057 H   0  0  0  0  0  0  0  0  0  0  0  0
   -1.0815   -4.1121    0.8649 C   0  0  0  0  0  0  0  0  0  0  0  0
   -0.1999   -4.2848    1.6827 O   0  0  0  0  0  0  0  0  0  0  0  0
   -1.3027   -2.8605    0.3121 N   0  0  0  0  0  0  0  0  0  0  0  0
   -1.9250   -2.8855   -0.4870 H   0  0  0  0  0  0  0  0  0  0  0  0
   -0.2427   -1.8303    0.2520 C   0  0  1  0  0  0  0  0  0  0  0  0
    0.6097   -2.2594   -0.2889 H   0  0  0  0  0  0  0  0  0  0  0  0
   -0.6405   -0.5031   -0.4615 C   0  0  0  0  0  0  0  0  0  0  0  0
    0.0293    0.3011   -0.1330 H   0  0  0  0  0  0  0  0  0  0  0  0
   -0.3976   -0.6761   -1.5151 H   0  0  0  0  0  0  0  0  0  0  0  0
   -2.0889    0.0531   -0.4669 C   0  0  0  0  0  0  0  0  0  0  0  0
   -2.1682    0.7102    0.4067 H   0  0  0  0  0  0  0  0  0  0  0  0
   -2.1934    0.6853   -1.3558 H   0  0  0  0  0  0  0  0  0  0  0  0
   -3.2746   -0.9114   -0.4047 C   0  0  0  0  0  0  0  0  0  0  0  0
   -3.2284   -1.6019   -1.2538 H   0  0  0  0  0  0  0  0  0  0  0  0
   -3.2305   -1.4837    0.5279 H   0  0  0  0  0  0  0  0  0  0  0  0
   -4.5213   -0.1220   -0.4534 N   0  3  0  0  0  0  0  0  0  0  0  0
   -4.4201    0.8927   -0.4586 H   0  0  0  0  0  0  0  0  0  0  0  0
   -5.7193   -0.6306   -0.4897 C   0  0  0  0  0  0  0  0  0  0  0  0
   -5.9387   -1.9884   -0.4560 N   0  0  0  0  0  0  0  0  0  0  0  0
   -5.1619   -2.5876   -0.1902 H   0  0  0  0  0  0  0  0  0  0  0  0
   -6.8830   -2.3205   -0.2684 H   0  0  0  0  0  0  0  0  0  0  0  0
   -6.8067    0.2076   -0.5618 N   0  0  0  0  0  0  0  0  0  0  0  0
   -6.6558    1.1975   -0.7484 H   0  0  0  0  0  0  0  0  0  0  0  0
   -7.7154   -0.1887   -0.7960 H   0  0  0  0  0  0  0  0  0  0  0  0
    0.3058   -1.4215    1.6432 C   0  0  0  0  0  0  0  0  0  0  0  0
    1.4607   -1.0292    1.7290 O   0  0  0  0  0  0  0  0  0  0  0  0
   -0.5644   -1.1806    2.6925 N   0  0  0  0  0  0  0  0  0  0  0  0
   -1.4294   -1.7080    2.6561 H   0  0  0  0  0  0  0  0  0  0  0  0
   -0.0815   -0.7581    4.0041 C   0  0  0  0  0  0  0  0  0  0  0  0
    0.4522    0.1955    3.9288 H   0  0  0  0  0  0  0  0  0  0  0  0
   -0.9196   -0.6278    4.6952 H   0  0  0  0  0  0  0  0  0  0  0  0
    0.6001   -1.5074    4.4213 H   0  0  0  0  0  0  0  0  0  0  0  0
  1  2  1  0  0  0  0
  2  3  1  0  0  0  0
  2  4  1  0  0  0  0
  2  5  1  0  0  0  0
  5  6  2  0  0  0  0
  5  7  1  0  0  0  0
  7  8  1  0  0  0  0
  7  9  1  0  0  0  0
  9 10  1  0  0  0  0
  9 11  1  0  0  0  0
  9 29  1  0  0  0  0
 11 12  1  0  0  0  0
 11 13  1  0  0  0  0
 11 14  1  0  0  0  0
 14 15  1  0  0  0  0
 14 16  1  0  0  0  0
 14 17  1  0  0  0  0
 17 18  1  0  0  0  0
 17 19  1  0  0  0  0
 17 20  1  0  0  0  0
 20 21  1  0  0  0  0
 20 22  2  0  0  0  0
 22 23  1  0  0  0  0
 22 26  1  0  0  0  0
 23 24  1  0  0  0  0
 23 25  1  0  0  0  0
 26 27  1  0  0  0  0
 26 28  1  0  0  0  0
 29 30  2  0  0  0  0
 29 31  1  0  0  0  0
 31 32  1  0  0  0  0
 31 33  1  0  0  0  0
 33 34  1  0  0  0  0
 33 35  1  0  0  0  0
 33 36  1  0  0  0  0
M  CHG  1  20   1
M  END
$$$$

  -OEChem-04042215563D

 36 35  0     1  0  0  0  0  0999 V2000
   -1.1360   -6.3445    0.4317 H   0  0  0  0  0  0  0  0  0  0  0  0
   -1.4815   -5.4448   -0.0866 C   0  0  0  0  0  0  0  0  0  0  0  0
   -2.5708   -5.3987   -0.0207 H   0  0  0  0  0  0  0  0  0  0  0  0
   -1.1867   -5.5140   -1.1366 H   0  0  0  0  0  0  0  0  0  0  0  0
   -0.8663   -4.2121    0.5474 C   0  0  0  0  0  0  0  0  0  0  0  0
   -0.1747   -4.3273    1.5403 O   0  0  0  0  0  0  0  0  0  0  0  0
   -1.1588   -2.9571    0.0390 N   0  0  0  0  0  0  0  0  0  0  0  0
   -1.6242   -2.9955   -0.8628 H   0  0  0  0  0  0  0  0  0  0  0  0
   -0.2893   -1.7775    0.2540 C   0  0  1  0  0  0  0  0  0  0  0  0
    0.7129   -2.0180   -0.1211 H   0  0  0  0  0  0  0  0  0  0  0  0
   -0.7535   -0.4485   -0.4175 C   0  0  0  0  0  0  0  0  0  0  0  0
   -0.2783    0.4005    0.0887 H   0  0  0  0  0  0  0  0  0  0  0  0
   -0.3054   -0.4783   -1.4165 H   0  0  0  0  0  0  0  0  0  0  0  0
   -2.2441   -0.0925   -0.6555 C   0  0  0  0  0  0  0  0  0  0  0  0
   -2.4875    0.6813    0.0799 H   0  0  0  0  0  0  0  0  0  0  0  0
   -2.3340    0.3763   -1.6421 H   0  0  0  0  0  0  0  0  0  0  0  0
   -3.2993   -1.1942   -0.5430 C   0  0  0  0  0  0  0  0  0  0  0  0
   -3.2278   -1.8621   -1.4084 H   0  0  0  0  0  0  0  0  0  0  0  0
   -3.1219   -1.7910    0.3570 H   0  0  0  0  0  0  0  0  0  0  0  0
   -4.6480   -0.6004   -0.4649 N   0  3  0  0  0  0  0  0  0  0  0  0
   -5.1699   -0.5127   -1.3370 H   0  0  0  0  0  0  0  0  0  0  0  0
   -5.1930   -0.1967    0.6492 C   0  0  0  0  0  0  0  0  0  0  0  0
   -4.5203   -0.2523    1.8516 N   0  0  0  0  0  0  0  0  0  0  0  0
   -3.5132   -0.4123    1.8247 H   0  0  0  0  0  0  0  0  0  0  0  0
   -4.8913    0.2799    2.6363 H   0  0  0  0  0  0  0  0  0  0  0  0
   -6.4702    0.3111    0.6340 N   0  0  0  0  0  0  0  0  0  0  0  0
   -7.0347    0.2032   -0.2067 H   0  0  0  0  0  0  0  0  0  0  0  0
   -6.9533    0.4458    1.5205 H   0  0  0  0  0  0  0  0  0  0  0  0
   -0.1254   -1.4514    1.7605 C   0  0  0  0  0  0  0  0  0  0  0  0
    0.8627   -0.8337    2.1298 O   0  0  0  0  0  0  0  0  0  0  0  0
   -1.2468   -1.4681    2.5775 N   0  0  0  0  0  0  0  0  0  0  0  0
   -1.8538   -2.2551    2.3657 H   0  0  0  0  0  0  0  0  0  0  0  0
   -1.1330   -1.1014    3.9876 C   0  0  0  0  0  0  0  0  0  0  0  0
   -0.8240   -0.0554    4.0915 H   0  0  0  0  0  0  0  0  0  0  0  0
   -2.0943   -1.2285    4.4943 H   0  0  0  0  0  0  0  0  0  0  0  0
   -0.3916   -1.7343    4.4888 H   0  0  0  0  0  0  0  0  0  0  0  0
  1  2  1  0  0  0  0
  2  3  1  0  0  0  0
  2  4  1  0  0  0  0
  2  5  1  0  0  0  0
  5  6  2  0  0  0  0
  5  7  1  0  0  0  0
  7  8  1  0  0  0  0
  7  9  1  0  0  0  0
  9 10  1  0  0  0  0
  9 11  1  0  0  0  0
  9 29  1  0  0  0  0
 11 12  1  0  0  0  0
 11 13  1  0  0  0  0
 11 14  1  0  0  0  0
 14 15  1  0  0  0  0
 14 16  1  0  0  0  0
 14 17  1  0  0  0  0
 17 18  1  0  0  0  0
 17 19  1  0  0  0  0
 17 20  1  0  0  0  0
 20 21  1  0  0  0  0
 20 22  2  0  0  0  0
 22 23  1  0  0  0  0
 22 26  1  0  0  0  0
 23 24  1  0  0  0  0
 23 25  1  0  0  0  0
 26 27  1  0  0  0  0
 26 28  1  0  0  0  0
 29 30  2  0  0  0  0
 29 31  1  0  0  0  0
 31 32  1  0  0  0  0
 31 33  1  0  0  0  0
 33 34  1  0  0  0  0
 33 35  1  0  0  0  0
 33 36  1  0  0  0  0
M  CHG  1  20   1
M  END
$$$$

  -OEChem-04042215563D

 36 35  0     1  0  0  0  0  0999 V2000
   -2.6329   -5.6457    0.7913 H   0  0  0  0  0  0  0  0  0  0  0  0
   -2.8516   -4.6256    0.4600 C   0  0  0  0  0  0  0  0  0  0  0  0
   -3.6899   -4.2412    1.0440 H   0  0  0  0  0  0  0  0  0  0  0  0
   -3.1274   -4.6551   -0.5967 H   0  0  0  0  0  0  0  0  0  0  0  0
   -1.6304   -3.7472    0.6542 C   0  0  0  0  0  0  0  0  0  0  0  0
   -0.6154   -4.2282    1.1161 O   0  0  0  0  0  0  0  0  0  0  0  0
   -1.6952   -2.3986    0.3472 N   0  0  0  0  0  0  0  0  0  0  0  0
   -2.5231   -2.1164   -0.1632 H   0  0  0  0  0  0  0  0  0  0  0  0
   -0.4959   -1.5529    0.1749 C   0  0  1  0  0  0  0  0  0  0  0  0
    0.1258   -2.0234   -0.5968 H   0  0  0  0  0  0  0  0  0  0  0  0
   -0.7731   -0.0904   -0.2860 C   0  0  0  0  0  0  0  0  0  0  0  0
    0.0820    0.5326    0.0029 H   0  0  0  0  0  0  0  0  0  0  0  0
   -0.7479   -0.1271   -1.3801 H   0  0  0  0  0  0  0  0  0  0  0  0
   -2.0665    0.6947    0.0731 C   0  0  0  0  0  0  0  0  0  0  0  0
   -1.7343    1.5691    0.6446 H   0  0  0  0  0  0  0  0  0  0  0  0
   -2.5098    1.0901   -0.8472 H   0  0  0  0  0  0  0  0  0  0  0  0
   -3.1523    0.0301    0.9243 C   0  0  0  0  0  0  0  0  0  0  0  0
   -3.6311    0.8060    1.5324 H   0  0  0  0  0  0  0  0  0  0  0  0
   -2.6965   -0.6950    1.6060 H   0  0  0  0  0  0  0  0  0  0  0  0
   -4.1759   -0.5991    0.0643 N   0  3  0  0  0  0  0  0  0  0  0  0
   -4.1176   -0.4102   -0.9367 H   0  0  0  0  0  0  0  0  0  0  0  0
   -5.2110   -1.2383    0.5304 C   0  0  0  0  0  0  0  0  0  0  0  0
   -5.3744   -1.4665    1.8787 N   0  0  0  0  0  0  0  0  0  0  0  0
   -4.7776   -0.9595    2.5300 H   0  0  0  0  0  0  0  0  0  0  0  0
   -6.2697   -1.8141    2.2184 H   0  0  0  0  0  0  0  0  0  0  0  0
   -6.1585   -1.7181   -0.3431 N   0  0  0  0  0  0  0  0  0  0  0  0
   -6.1500   -1.4027   -1.3120 H   0  0  0  0  0  0  0  0  0  0  0  0
   -7.0262   -2.1013    0.0292 H   0  0  0  0  0  0  0  0  0  0  0  0
    0.4041   -1.4851    1.4341 C   0  0  0  0  0  0  0  0  0  0  0  0
    1.6030   -1.2968    1.2892 O   0  0  0  0  0  0  0  0  0  0  0  0
   -0.1584   -1.3000    2.6855 N   0  0  0  0  0  0  0  0  0  0  0  0
   -1.0889   -1.6852    2.7935 H   0  0  0  0  0  0  0  0  0  0  0  0
    0.6680   -1.1833    3.8837 C   0  0  0  0  0  0  0  0  0  0  0  0
    1.3647   -0.3426    3.7920 H   0  0  0  0  0  0  0  0  0  0  0  0
    0.0406   -1.0125    4.7635 H   0  0  0  0  0  0  0  0  0  0  0  0
    1.2461   -2.1005    4.0408 H   0  0  0  0  0  0  0  0  0  0  0  0
  1  2  1  0  0  0  0
  2  3  1  0  0  0  0
  2  4  1  0  0  0  0
  2  5  1  0  0  0  0
  5  6  2  0  0  0  0
  5  7  1  0  0  0  0
  7  8  1  0  0  0  0
  7  9  1  0  0  0  0
  9 10  1  0  0  0  0
  9 11  1  0  0  0  0
  9 29  1  0  0  0  0
 11 12  1  0  0  0  0
 11 13  1  0  0  0  0
 11 14  1  0  0  0  0
 14 15  1  0  0  0  0
 14 16  1  0  0  0  0
 14 17  1  0  0  0  0
 17 18  1  0  0  0  0
 17 19  1  0  0  0  0
 17 20  1  0  0  0  0
 20 21  1  0  0  0  0
 20 22  2  0  0  0  0
 22 23  1  0  0  0  0
 22 26  1  0  0  0  0
 23 24  1  0  0  0  0
 23 25  1  0  0  0  0
 26 27  1  0  0  0  0
 26 28  1  0  0  0  0
 29 30  2  0  0  0  0
 29 31  1  0  0  0  0
 31 32  1  0  0  0  0
 31 33  1  0  0  0  0
 33 34  1  0  0  0  0
 33 35  1  0  0  0  0
 33 36  1  0  0  0  0
M  CHG  1  20   1
M  END
$$$$

  -OEChem-04042215563D

 36 35  0     1  0  0  0  0  0999 V2000
   -1.2035   -6.2866    0.2612 H   0  0  0  0  0  0  0  0  0  0  0  0
   -1.5232   -5.3683   -0.2408 C   0  0  0  0  0  0  0  0  0  0  0  0
   -2.6144   -5.3237   -0.2276 H   0  0  0  0  0  0  0  0  0  0  0  0
   -1.1773   -5.3993   -1.2769 H   0  0  0  0  0  0  0  0  0  0  0  0
   -0.9384   -4.1605    0.4657 C   0  0  0  0  0  0  0  0  0  0  0  0
   -0.2150   -4.3153    1.4311 O   0  0  0  0  0  0  0  0  0  0  0  0
   -1.2801   -2.8830    0.0551 N   0  0  0  0  0  0  0  0  0  0  0  0
   -1.7826   -2.8684   -0.8282 H   0  0  0  0  0  0  0  0  0  0  0  0
   -0.4256   -1.7040    0.3242 C   0  0  1  0  0  0  0  0  0  0  0  0
    0.5670   -1.9182   -0.0904 H   0  0  0  0  0  0  0  0  0  0  0  0
   -0.9238   -0.3820   -0.3303 C   0  0  0  0  0  0  0  0  0  0  0  0
   -0.5209    0.4578    0.2477 H   0  0  0  0  0  0  0  0  0  0  0  0
   -0.4380   -0.3211   -1.3104 H   0  0  0  0  0  0  0  0  0  0  0  0
   -2.4280   -0.0996   -0.5724 C   0  0  0  0  0  0  0  0  0  0  0  0
   -2.6039    0.9521   -0.3199 H   0  0  0  0  0  0  0  0  0  0  0  0
   -2.6318   -0.1985   -1.6443 H   0  0  0  0  0  0  0  0  0  0  0  0
   -3.4314   -0.9902    0.1712 C   0  0  0  0  0  0  0  0  0  0  0  0
   -3.7484   -1.8100   -0.4823 H   0  0  0  0  0  0  0  0  0  0  0  0
   -2.9593   -1.4383    1.0484 H   0  0  0  0  0  0  0  0  0  0  0  0
   -4.5999   -0.1992    0.6029 N   0  3  0  0  0  0  0  0  0  0  0  0
   -5.3974   -0.1632   -0.0313 H   0  0  0  0  0  0  0  0  0  0  0  0
   -4.6407    0.4771    1.7176 C   0  0  0  0  0  0  0  0  0  0  0  0
   -3.5839    0.5021    2.6011 N   0  0  0  0  0  0  0  0  0  0  0  0
   -2.7027    0.0636    2.3265 H   0  0  0  0  0  0  0  0  0  0  0  0
   -3.5545    1.2250    3.3170 H   0  0  0  0  0  0  0  0  0  0  0  0
   -5.7644    1.2058    2.0264 N   0  0  0  0  0  0  0  0  0  0  0  0
   -6.6145    1.0538    1.4870 H   0  0  0  0  0  0  0  0  0  0  0  0
   -5.8565    1.5824    2.9684 H   0  0  0  0  0  0  0  0  0  0  0  0
   -0.1898   -1.4488    1.8356 C   0  0  0  0  0  0  0  0  0  0  0  0
    0.7850   -0.7938    2.1729 O   0  0  0  0  0  0  0  0  0  0  0  0
   -1.2549   -1.5263    2.7207 N   0  0  0  0  0  0  0  0  0  0  0  0
   -1.8681   -2.3084    2.5010 H   0  0  0  0  0  0  0  0  0  0  0  0
   -1.0453   -1.2642    4.1443 C   0  0  0  0  0  0  0  0  0  0  0  0
   -0.7242   -0.2297    4.3073 H   0  0  0  0  0  0  0  0  0  0  0  0
   -1.9718   -1.4286    4.7028 H   0  0  0  0  0  0  0  0  0  0  0  0
   -0.2768   -1.9337    4.5475 H   0  0  0  0  0  0  0  0  0  0  0  0
  1  2  1  0  0  0  0
  2  3  1  0  0  0  0
  2  4  1  0  0  0  0
  2  5  1  0  0  0  0
  5  6  2  0  0  0  0
  5  7  1  0  0  0  0
  7  8  1  0  0  0  0
  7  9  1  0  0  0  0
  9 10  1  0  0  0  0
  9 11  1  0  0  0  0
  9 29  1  0  0  0  0
 11 12  1  0  0  0  0
 11 13  1  0  0  0  0
 11 14  1  0  0  0  0
 14 15  1  0  0  0  0
 14 16  1  0  0  0  0
 14 17  1  0  0  0  0
 17 18  1  0  0  0  0
 17 19  1  0  0  0  0
 17 20  1  0  0  0  0
 20 21  1  0  0  0  0
 20 22  2  0  0  0  0
 22 23  1  0  0  0  0
 22 26  1  0  0  0  0
 23 24  1  0  0  0  0
 23 25  1  0  0  0  0
 26 27  1  0  0  0  0
 26 28  1  0  0  0  0
 29 30  2  0  0  0  0
 29 31  1  0  0  0  0
 31 32  1  0  0  0  0
 31 33  1  0  0  0  0
 33 34  1  0  0  0  0
 33 35  1  0  0  0  0
 33 36  1  0  0  0  0
M  CHG  1  20   1
M  END
$$$$

  -OEChem-04042215563D

 36 35  0     1  0  0  0  0  0999 V2000
   -1.0042   -6.2006    0.1751 H   0  0  0  0  0  0  0  0  0  0  0  0
   -1.4729   -5.2937   -0.2184 C   0  0  0  0  0  0  0  0  0  0  0  0
   -2.5487   -5.3476   -0.0359 H   0  0  0  0  0  0  0  0  0  0  0  0
   -1.2930   -5.2485   -1.2955 H   0  0  0  0  0  0  0  0  0  0  0  0
   -0.8880   -4.0697    0.4599 C   0  0  0  0  0  0  0  0  0  0  0  0
   -0.0850   -4.2005    1.3644 O   0  0  0  0  0  0  0  0  0  0  0  0
   -1.3216   -2.8044    0.1025 N   0  0  0  0  0  0  0  0  0  0  0  0
   -1.8879   -2.7913   -0.7413 H   0  0  0  0  0  0  0  0  0  0  0  0
   -0.5335   -1.5824    0.3784 C   0  0  1  0  0  0  0  0  0  0  0  0
    0.4597   -1.7438   -0.0596 H   0  0  0  0  0  0  0  0  0  0  0  0
   -1.1060   -0.3057   -0.2987 C   0  0  0  0  0  0  0  0  0  0  0  0
   -0.7849    0.5618    0.2886 H   0  0  0  0  0  0  0  0  0  0  0  0
   -0.6134   -0.2074   -1.2724 H   0  0  0  0  0  0  0  0  0  0  0  0
   -2.6239   -0.1604   -0.5491 C   0  0  0  0  0  0  0  0  0  0  0  0
   -2.8624    0.9074   -0.6110 H   0  0  0  0  0  0  0  0  0  0  0  0
   -2.8428   -0.5840   -1.5352 H   0  0  0  0  0  0  0  0  0  0  0  0
   -3.5421   -0.8678    0.4575 C   0  0  0  0  0  0  0  0  0  0  0  0
   -4.0813   -1.6739   -0.0520 H   0  0  0  0  0  0  0  0  0  0  0  0
   -2.9585   -1.3268    1.2569 H   0  0  0  0  0  0  0  0  0  0  0  0
   -4.5085    0.0909    1.0310 N   0  3  0  0  0  0  0  0  0  0  0  0
   -5.4224    0.1444    0.5824 H   0  0  0  0  0  0  0  0  0  0  0  0
   -4.2407    0.9128    2.0082 C   0  0  0  0  0  0  0  0  0  0  0  0
   -3.0207    0.9391    2.6452 N   0  0  0  0  0  0  0  0  0  0  0  0
   -2.2777    0.3082    2.3389 H   0  0  0  0  0  0  0  0  0  0  0  0
   -2.7743    1.7279    3.2393 H   0  0  0  0  0  0  0  0  0  0  0  0
   -5.2029    1.8057    2.4157 N   0  0  0  0  0  0  0  0  0  0  0  0
   -6.1581    1.6889    2.0832 H   0  0  0  0  0  0  0  0  0  0  0  0
   -5.0577    2.3133    3.2867 H   0  0  0  0  0  0  0  0  0  0  0  0
   -0.2493   -1.3405    1.8830 C   0  0  0  0  0  0  0  0  0  0  0  0
    0.6636   -0.5862    2.1837 O   0  0  0  0  0  0  0  0  0  0  0  0
   -1.2613   -1.5014    2.8158 N   0  0  0  0  0  0  0  0  0  0  0  0
   -1.8529   -2.3015    2.6005 H   0  0  0  0  0  0  0  0  0  0  0  0
   -0.9980   -1.2737    4.2367 C   0  0  0  0  0  0  0  0  0  0  0  0
   -0.7127   -0.2325    4.4213 H   0  0  0  0  0  0  0  0  0  0  0  0
   -1.8909   -1.4950    4.8294 H   0  0  0  0  0  0  0  0  0  0  0  0
   -0.1851   -1.9226    4.5820 H   0  0  0  0  0  0  0  0  0  0  0  0
  1  2  1  0  0  0  0
  2  3  1  0  0  0  0
  2  4  1  0  0  0  0
  2  5  1  0  0  0  0
  5  6  2  0  0  0  0
  5  7  1  0  0  0  0
  7  8  1  0  0  0  0
  7  9  1  0  0  0  0
  9 10  1  0  0  0  0
  9 11  1  0  0  0  0
  9 29  1  0  0  0  0
 11 12  1  0  0  0  0
 11 13  1  0  0  0  0
 11 14  1  0  0  0  0
 14 15  1  0  0  0  0
 14 16  1  0  0  0  0
 14 17  1  0  0  0  0
 17 18  1  0  0  0  0
 17 19  1  0  0  0  0
 17 20  1  0  0  0  0
 20 21  1  0  0  0  0
 20 22  2  0  0  0  0
 22 23  1  0  0  0  0
 22 26  1  0  0  0  0
 23 24  1  0  0  0  0
 23 25  1  0  0  0  0
 26 27  1  0  0  0  0
 26 28  1  0  0  0  0
 29 30  2  0  0  0  0
 29 31  1  0  0  0  0
 31 32  1  0  0  0  0
 31 33  1  0  0  0  0
 33 34  1  0  0  0  0
 33 35  1  0  0  0  0
 33 36  1  0  0  0  0
M  CHG  1  20   1
M  END
$$$$

  -OEChem-04042215563D

 36 35  0     1  0  0  0  0  0999 V2000
   -1.6490   -6.1421    0.0448 H   0  0  0  0  0  0  0  0  0  0  0  0
   -1.9977   -5.1554   -0.2745 C   0  0  0  0  0  0  0  0  0  0  0  0
   -3.0404   -5.0378    0.0288 H   0  0  0  0  0  0  0  0  0  0  0  0
   -1.9306   -5.0991   -1.3637 H   0  0  0  0  0  0  0  0  0  0  0  0
   -1.1427   -4.0733    0.3574 C   0  0  0  0  0  0  0  0  0  0  0  0
   -0.2505   -4.3786    1.1257 O   0  0  0  0  0  0  0  0  0  0  0  0
   -1.4141   -2.7392    0.1057 N   0  0  0  0  0  0  0  0  0  0  0  0
   -2.0755   -2.5917   -0.6508 H   0  0  0  0  0  0  0  0  0  0  0  0
   -0.4136   -1.6694    0.3182 C   0  0  1  0  0  0  0  0  0  0  0  0
    0.4756   -1.9445   -0.2627 H   0  0  0  0  0  0  0  0  0  0  0  0
   -0.8836   -0.2883   -0.2125 C   0  0  0  0  0  0  0  0  0  0  0  0
   -0.3643    0.4957    0.3505 H   0  0  0  0  0  0  0  0  0  0  0  0
   -0.5380   -0.2004   -1.2482 H   0  0  0  0  0  0  0  0  0  0  0  0
   -2.3910    0.0345   -0.2097 C   0  0  0  0  0  0  0  0  0  0  0  0
   -2.5035    1.1090   -0.3912 H   0  0  0  0  0  0  0  0  0  0  0  0
   -2.8803   -0.4876   -1.0384 H   0  0  0  0  0  0  0  0  0  0  0  0
   -3.0840   -0.3506    1.0993 C   0  0  0  0  0  0  0  0  0  0  0  0
   -3.3091   -1.4224    1.0981 H   0  0  0  0  0  0  0  0  0  0  0  0
   -2.4061   -0.1600    1.9356 H   0  0  0  0  0  0  0  0  0  0  0  0
   -4.3213    0.4326    1.2784 N   0  3  0  0  0  0  0  0  0  0  0  0
   -5.1379    0.1454    0.7400 H   0  0  0  0  0  0  0  0  0  0  0  0
   -4.4101    1.4638    2.0715 C   0  0  0  0  0  0  0  0  0  0  0  0
   -3.3359    1.9135    2.8072 N   0  0  0  0  0  0  0  0  0  0  0  0
   -2.4181    1.5155    2.6127 H   0  0  0  0  0  0  0  0  0  0  0  0
   -3.3781    2.8409    3.2253 H   0  0  0  0  0  0  0  0  0  0  0  0
   -5.6033    2.1377    2.1792 N   0  0  0  0  0  0  0  0  0  0  0  0
   -6.4441    1.7181    1.7869 H   0  0  0  0  0  0  0  0  0  0  0  0
   -5.7139    2.8125    2.9344 H   0  0  0  0  0  0  0  0  0  0  0  0
    0.1016   -1.5469    1.7754 C   0  0  0  0  0  0  0  0  0  0  0  0
    1.1886   -1.0191    1.9613 O   0  0  0  0  0  0  0  0  0  0  0  0
   -0.7857   -1.5951    2.8380 N   0  0  0  0  0  0  0  0  0  0  0  0
   -1.5493   -2.2485    2.6874 H   0  0  0  0  0  0  0  0  0  0  0  0
   -0.3179   -1.4410    4.2134 C   0  0  0  0  0  0  0  0  0  0  0  0
    0.1369   -0.4557    4.3607 H   0  0  0  0  0  0  0  0  0  0  0  0
   -1.1535   -1.5409    4.9126 H   0  0  0  0  0  0  0  0  0  0  0  0
    0.4276   -2.2079    4.4517 H   0  0  0  0  0  0  0  0  0  0  0  0
  1  2  1  0  0  0  0
  2  3  1  0  0  0  0
  2  4  1  0  0  0  0
  2  5  1  0  0  0  0
  5  6  2  0  0  0  0
  5  7  1  0  0  0  0
  7  8  1  0  0  0  0
  7  9  1  0  0  0  0
  9 10  1  0  0  0  0
  9 11  1  0  0  0  0
  9 29  1  0  0  0  0
 11 12  1  0  0  0  0
 11 13  1  0  0  0  0
 11 14  1  0  0  0  0
 14 15  1  0  0  0  0
 14 16  1  0  0  0  0
 14 17  1  0  0  0  0
 17 18  1  0  0  0  0
 17 19  1  0  0  0  0
 17 20  1  0  0  0  0
 20 21  1  0  0  0  0
 20 22  2  0  0  0  0
 22 23  1  0  0  0  0
 22 26  1  0  0  0  0
 23 24  1  0  0  0  0
 23 25  1  0  0  0  0
 26 27  1  0  0  0  0
 26 28  1  0  0  0  0
 29 30  2  0  0  0  0
 29 31  1  0  0  0  0
 31 32  1  0  0  0  0
 31 33  1  0  0  0  0
 33 34  1  0  0  0  0
 33 35  1  0  0  0  0
 33 36  1  0  0  0  0
M  CHG  1  20   1
M  END
$$$$

  -OEChem-04042215563D

 36 35  0     1  0  0  0  0  0999 V2000
   -2.1147   -6.0196    0.4057 H   0  0  0  0  0  0  0  0  0  0  0  0
   -2.3395   -5.0389   -0.0241 C   0  0  0  0  0  0  0  0  0  0  0  0
   -3.3687   -4.7734    0.2272 H   0  0  0  0  0  0  0  0  0  0  0  0
   -2.2394   -5.1036   -1.1102 H   0  0  0  0  0  0  0  0  0  0  0  0
   -1.3811   -3.9990    0.5236 C   0  0  0  0  0  0  0  0  0  0  0  0
   -0.5295   -4.3242    1.3291 O   0  0  0  0  0  0  0  0  0  0  0  0
   -1.5131   -2.6727    0.1506 N   0  0  0  0  0  0  0  0  0  0  0  0
   -2.1632   -2.5286   -0.6161 H   0  0  0  0  0  0  0  0  0  0  0  0
   -0.4014   -1.7014    0.2541 C   0  0  1  0  0  0  0  0  0  0  0  0
    0.4435   -2.1168   -0.3084 H   0  0  0  0  0  0  0  0  0  0  0  0
   -0.7413   -0.3311   -0.3893 C   0  0  0  0  0  0  0  0  0  0  0  0
   -0.1288    0.4491    0.0770 H   0  0  0  0  0  0  0  0  0  0  0  0
   -0.4315   -0.3799   -1.4387 H   0  0  0  0  0  0  0  0  0  0  0  0
   -2.2150    0.1123   -0.3746 C   0  0  0  0  0  0  0  0  0  0  0  0
   -2.2797    1.0915   -0.8620 H   0  0  0  0  0  0  0  0  0  0  0  0
   -2.8387   -0.5822   -0.9459 H   0  0  0  0  0  0  0  0  0  0  0  0
   -2.7178    0.2174    1.0631 C   0  0  0  0  0  0  0  0  0  0  0  0
   -2.9425   -0.7856    1.4426 H   0  0  0  0  0  0  0  0  0  0  0  0
   -1.9125    0.6391    1.6739 H   0  0  0  0  0  0  0  0  0  0  0  0
   -3.9126    1.0758    1.1538 N   0  3  0  0  0  0  0  0  0  0  0  0
   -4.5536    1.0733    0.3616 H   0  0  0  0  0  0  0  0  0  0  0  0
   -4.1699    1.8309    2.1839 C   0  0  0  0  0  0  0  0  0  0  0  0
   -3.3310    1.8838    3.2752 N   0  0  0  0  0  0  0  0  0  0  0  0
   -2.4162    1.4423    3.1954 H   0  0  0  0  0  0  0  0  0  0  0  0
   -3.4344    2.6523    3.9350 H   0  0  0  0  0  0  0  0  0  0  0  0
   -5.3065    2.6037    2.1923 N   0  0  0  0  0  0  0  0  0  0  0  0
   -6.0169    2.4451    1.4803 H   0  0  0  0  0  0  0  0  0  0  0  0
   -5.5947    3.0368    3.0681 H   0  0  0  0  0  0  0  0  0  0  0  0
    0.1457   -1.5052    1.6921 C   0  0  0  0  0  0  0  0  0  0  0  0
    1.2887   -1.0926    1.8261 O   0  0  0  0  0  0  0  0  0  0  0  0
   -0.7251   -1.3623    2.7613 N   0  0  0  0  0  0  0  0  0  0  0  0
   -1.5541   -1.9433    2.6696 H   0  0  0  0  0  0  0  0  0  0  0  0
   -0.2113   -1.1680    4.1153 C   0  0  0  0  0  0  0  0  0  0  0  0
    0.3454   -0.2276    4.1869 H   0  0  0  0  0  0  0  0  0  0  0  0
   -1.0343   -1.1369    4.8353 H   0  0  0  0  0  0  0  0  0  0  0  0
    0.4581   -1.9904    4.3920 H   0  0  0  0  0  0  0  0  0  0  0  0
  1  2  1  0  0  0  0
  2  3  1  0  0  0  0
  2  4  1  0  0  0  0
  2  5  1  0  0  0  0
  5  6  2  0  0  0  0
  5  7  1  0  0  0  0
  7  8  1  0  0  0  0
  7  9  1  0  0  0  0
  9 10  1  0  0  0  0
  9 11  1  0  0  0  0
  9 29  1  0  0  0  0
 11 12  1  0  0  0  0
 11 13  1  0  0  0  0
 11 14  1  0  0  0  0
 14 15  1  0  0  0  0
 14 16  1  0  0  0  0
 14 17  1  0  0  0  0
 17 18  1  0  0  0  0
 17 19  1  0  0  0  0
 17 20  1  0  0  0  0
 20 21  1  0  0  0  0
 20 22  2  0  0  0  0
 22 23  1  0  0  0  0
 22 26  1  0  0  0  0
 23 24  1  0  0  0  0
 23 25  1  0  0  0  0
 26 27  1  0  0  0  0
 26 28  1  0  0  0  0
 29 30  2  0  0  0  0
 29 31  1  0  0  0  0
 31 32  1  0  0  0  0
 31 33  1  0  0  0  0
 33 34  1  0  0  0  0
 33 35  1  0  0  0  0
 33 36  1  0  0  0  0
M  CHG  1  20   1
M  END
$$$$

  -OEChem-04042215563D

 36 35  0     1  0  0  0  0  0999 V2000
   -2.2525   -5.9669    0.5306 H   0  0  0  0  0  0  0  0  0  0  0  0
   -2.4629   -4.9896    0.0860 C   0  0  0  0  0  0  0  0  0  0  0  0
   -3.4739   -4.6869    0.3677 H   0  0  0  0  0  0  0  0  0  0  0  0
   -2.4040   -5.0816   -1.0012 H   0  0  0  0  0  0  0  0  0  0  0  0
   -1.4538   -3.9686    0.5760 C   0  0  0  0  0  0  0  0  0  0  0  0
   -0.5839   -4.3051    1.3570 O   0  0  0  0  0  0  0  0  0  0  0  0
   -1.5515   -2.6486    0.1703 N   0  0  0  0  0  0  0  0  0  0  0  0
   -2.2165   -2.5011   -0.5827 H   0  0  0  0  0  0  0  0  0  0  0  0
   -0.4108   -1.7077    0.2302 C   0  0  1  0  0  0  0  0  0  0  0  0
    0.4124   -2.1562   -0.3395 H   0  0  0  0  0  0  0  0  0  0  0  0
   -0.7199   -0.3321   -0.4156 C   0  0  0  0  0  0  0  0  0  0  0  0
   -0.0560    0.4342    0.0014 H   0  0  0  0  0  0  0  0  0  0  0  0
   -0.4556   -0.4209   -1.4747 H   0  0  0  0  0  0  0  0  0  0  0  0
   -2.1765    0.1629   -0.3653 C   0  0  0  0  0  0  0  0  0  0  0  0
   -2.2666    1.0065   -1.0584 H   0  0  0  0  0  0  0  0  0  0  0  0
   -2.8844   -0.6047   -0.6913 H   0  0  0  0  0  0  0  0  0  0  0  0
   -2.4965    0.6408    1.0502 C   0  0  0  0  0  0  0  0  0  0  0  0
   -2.6699   -0.2294    1.6921 H   0  0  0  0  0  0  0  0  0  0  0  0
   -1.6257    1.1821    1.4362 H   0  0  0  0  0  0  0  0  0  0  0  0
   -3.6757    1.5250    1.0691 N   0  3  0  0  0  0  0  0  0  0  0  0
   -4.2970    1.4985    0.2619 H   0  0  0  0  0  0  0  0  0  0  0  0
   -3.9271    2.3493    2.0460 C   0  0  0  0  0  0  0  0  0  0  0  0
   -3.1083    2.4352    3.1501 N   0  0  0  0  0  0  0  0  0  0  0  0
   -2.2148    1.9466    3.1203 H   0  0  0  0  0  0  0  0  0  0  0  0
   -3.1888    3.2483    3.7574 H   0  0  0  0  0  0  0  0  0  0  0  0
   -5.0336    3.1625    1.9832 N   0  0  0  0  0  0  0  0  0  0  0  0
   -5.7337    2.9903    1.2645 H   0  0  0  0  0  0  0  0  0  0  0  0
   -5.3227    3.6586    2.8244 H   0  0  0  0  0  0  0  0  0  0  0  0
    0.1593   -1.4949    1.6558 C   0  0  0  0  0  0  0  0  0  0  0  0
    1.3161   -1.1155    1.7702 O   0  0  0  0  0  0  0  0  0  0  0  0
   -0.6975   -1.3012    2.7277 N   0  0  0  0  0  0  0  0  0  0  0  0
   -1.5511   -1.8480    2.6532 H   0  0  0  0  0  0  0  0  0  0  0  0
   -0.1711   -1.0856    4.0735 C   0  0  0  0  0  0  0  0  0  0  0  0
    0.4268   -0.1687    4.1136 H   0  0  0  0  0  0  0  0  0  0  0  0
   -0.9899   -0.9942    4.7932 H   0  0  0  0  0  0  0  0  0  0  0  0
    0.4620   -1.9277    4.3747 H   0  0  0  0  0  0  0  0  0  0  0  0
  1  2  1  0  0  0  0
  2  3  1  0  0  0  0
  2  4  1  0  0  0  0
  2  5  1  0  0  0  0
  5  6  2  0  0  0  0
  5  7  1  0  0  0  0
  7  8  1  0  0  0  0
  7  9  1  0  0  0  0
  9 10  1  0  0  0  0
  9 11  1  0  0  0  0
  9 29  1  0  0  0  0
 11 12  1  0  0  0  0
 11 13  1  0  0  0  0
 11 14  1  0  0  0  0
 14 15  1  0  0  0  0
 14 16  1  0  0  0  0
 14 17  1  0  0  0  0
 17 18  1  0  0  0  0
 17 19  1  0  0  0  0
 17 20  1  0  0  0  0
 20 21  1  0  0  0  0
 20 22  2  0  0  0  0
 22 23  1  0  0  0  0
 22 26  1  0  0  0  0
 23 24  1  0  0  0  0
 23 25  1  0  0  0  0
 26 27  1  0  0  0  0
 26 28  1  0  0  0  0
 29 30  2  0  0  0  0
 29 31  1  0  0  0  0
 31 32  1  0  0  0  0
 31 33  1  0  0  0  0
 33 34  1  0  0  0  0
 33 35  1  0  0  0  0
 33 36  1  0  0  0  0
M  CHG  1  20   1
M  END
$$$$

  -OEChem-04042215563D

 36 35  0     1  0  0  0  0  0999 V2000
   -2.6519   -5.7423    0.8542 H   0  0  0  0  0  0  0  0  0  0  0  0
   -2.7666   -4.7894    0.3286 C   0  0  0  0  0  0  0  0  0  0  0  0
   -3.7336   -4.3570    0.5950 H   0  0  0  0  0  0  0  0  0  0  0  0
   -2.7411   -4.9794   -0.7472 H   0  0  0  0  0  0  0  0  0  0  0  0
   -1.6455   -3.8442    0.7167 C   0  0  0  0  0  0  0  0  0  0  0  0
   -0.7972   -4.2082    1.5090 O   0  0  0  0  0  0  0  0  0  0  0  0
   -1.6201   -2.5560    0.2093 N   0  0  0  0  0  0  0  0  0  0  0  0
   -2.2822   -2.3994   -0.5445 H   0  0  0  0  0  0  0  0  0  0  0  0
   -0.3976   -1.7210    0.1948 C   0  0  1  0  0  0  0  0  0  0  0  0
    0.3797   -2.2786   -0.3418 H   0  0  0  0  0  0  0  0  0  0  0  0
   -0.5792   -0.3599   -0.5280 C   0  0  0  0  0  0  0  0  0  0  0  0
    0.1770    0.3554   -0.1836 H   0  0  0  0  0  0  0  0  0  0  0  0
   -0.3538   -0.5499   -1.5829 H   0  0  0  0  0  0  0  0  0  0  0  0
   -1.9779    0.2881   -0.4948 C   0  0  0  0  0  0  0  0  0  0  0  0
   -2.0916    0.9077   -1.3911 H   0  0  0  0  0  0  0  0  0  0  0  0
   -2.7837   -0.4500   -0.5043 H   0  0  0  0  0  0  0  0  0  0  0  0
   -2.0706    1.1867    0.7383 C   0  0  0  0  0  0  0  0  0  0  0  0
   -1.9960    0.5651    1.6354 H   0  0  0  0  0  0  0  0  0  0  0  0
   -1.2241    1.8830    0.7330 H   0  0  0  0  0  0  0  0  0  0  0  0
   -3.3347    1.9434    0.7603 N   0  3  0  0  0  0  0  0  0  0  0  0
   -3.8681    1.9933   -0.1065 H   0  0  0  0  0  0  0  0  0  0  0  0
   -3.7432    2.6046    1.8052 C   0  0  0  0  0  0  0  0  0  0  0  0
   -3.0225    2.6169    2.9786 N   0  0  0  0  0  0  0  0  0  0  0  0
   -2.0754    2.2418    2.9557 H   0  0  0  0  0  0  0  0  0  0  0  0
   -3.2360    3.3290    3.6741 H   0  0  0  0  0  0  0  0  0  0  0  0
   -4.9191    3.3141    1.7470 N   0  0  0  0  0  0  0  0  0  0  0  0
   -5.5373    3.1815    0.9489 H   0  0  0  0  0  0  0  0  0  0  0  0
   -5.3246    3.6590    2.6155 H   0  0  0  0  0  0  0  0  0  0  0  0
    0.1827   -1.4620    1.6073 C   0  0  0  0  0  0  0  0  0  0  0  0
    1.3708   -1.1952    1.7175 O   0  0  0  0  0  0  0  0  0  0  0  0
   -0.6650   -1.1152    2.6469 N   0  0  0  0  0  0  0  0  0  0  0  0
   -1.5758   -1.5609    2.5797 H   0  0  0  0  0  0  0  0  0  0  0  0
   -0.1415   -0.8814    3.9902 C   0  0  0  0  0  0  0  0  0  0  0  0
    0.5382   -0.0227    3.9964 H   0  0  0  0  0  0  0  0  0  0  0  0
   -0.9592   -0.6788    4.6882 H   0  0  0  0  0  0  0  0  0  0  0  0
    0.4060   -1.7618    4.3452 H   0  0  0  0  0  0  0  0  0  0  0  0
  1  2  1  0  0  0  0
  2  3  1  0  0  0  0
  2  4  1  0  0  0  0
  2  5  1  0  0  0  0
  5  6  2  0  0  0  0
  5  7  1  0  0  0  0
  7  8  1  0  0  0  0
  7  9  1  0  0  0  0
  9 10  1  0  0  0  0
  9 11  1  0  0  0  0
  9 29  1  0  0  0  0
 11 12  1  0  0  0  0
 11 13  1  0  0  0  0
 11 14  1  0  0  0  0
 14 15  1  0  0  0  0
 14 16  1  0  0  0  0
 14 17  1  0  0  0  0
 17 18  1  0  0  0  0
 17 19  1  0  0  0  0
 17 20  1  0  0  0  0
 20 21  1  0  0  0  0
 20 22  2  0  0  0  0
 22 23  1  0  0  0  0
 22 26  1  0  0  0  0
 23 24  1  0  0  0  0
 23 25  1  0  0  0  0
 26 27  1  0  0  0  0
 26 28  1  0  0  0  0
 29 30  2  0  0  0  0
 29 31  1  0  0  0  0
 31 32  1  0  0  0  0
 31 33  1  0  0  0  0
 33 34  1  0  0  0  0
 33 35  1  0  0  0  0
 33 36  1  0  0  0  0
M  CHG  1  20   1
M  END
$$$$

  -OEChem-04042215563D

 36 35  0     1  0  0  0  0  0999 V2000
   -2.6402   -5.7401    0.8495 H   0  0  0  0  0  0  0  0  0  0  0  0
   -2.7839   -4.7746    0.3553 C   0  0  0  0  0  0  0  0  0  0  0  0
   -3.7456   -4.3610    0.6674 H   0  0  0  0  0  0  0  0  0  0  0  0
   -2.7944   -4.9357   -0.7256 H   0  0  0  0  0  0  0  0  0  0  0  0
   -1.6599   -3.8275    0.7308 C   0  0  0  0  0  0  0  0  0  0  0  0
   -0.8218   -4.1771    1.5400 O   0  0  0  0  0  0  0  0  0  0  0  0
   -1.6108   -2.5592    0.1773 N   0  0  0  0  0  0  0  0  0  0  0  0
   -2.2571   -2.4181   -0.5933 H   0  0  0  0  0  0  0  0  0  0  0  0
   -0.3869   -1.7253    0.1766 C   0  0  1  0  0  0  0  0  0  0  0  0
    0.4099   -2.2885   -0.3241 H   0  0  0  0  0  0  0  0  0  0  0  0
   -0.5517   -0.3677   -0.5548 C   0  0  0  0  0  0  0  0  0  0  0  0
    0.2090    0.3433   -0.2102 H   0  0  0  0  0  0  0  0  0  0  0  0
   -0.3146   -0.5666   -1.6055 H   0  0  0  0  0  0  0  0  0  0  0  0
   -1.9513    0.2835   -0.5433 C   0  0  0  0  0  0  0  0  0  0  0  0
   -2.1722    0.6699   -1.5444 H   0  0  0  0  0  0  0  0  0  0  0  0
   -2.7447   -0.4186   -0.2774 H   0  0  0  0  0  0  0  0  0  0  0  0
   -1.9189    1.4480    0.4478 C   0  0  0  0  0  0  0  0  0  0  0  0
   -1.6493    1.0586    1.4360 H   0  0  0  0  0  0  0  0  0  0  0  0
   -1.1431    2.1567    0.1365 H   0  0  0  0  0  0  0  0  0  0  0  0
   -3.2201    2.1360    0.5187 N   0  3  0  0  0  0  0  0  0  0  0  0
   -3.8894    1.9555   -0.2281 H   0  0  0  0  0  0  0  0  0  0  0  0
   -3.5105    3.0041    1.4453 C   0  0  0  0  0  0  0  0  0  0  0  0
   -2.6155    3.3241    2.4418 N   0  0  0  0  0  0  0  0  0  0  0  0
   -1.6583    2.9885    2.3469 H   0  0  0  0  0  0  0  0  0  0  0  0
   -2.7733    4.1680    2.9889 H   0  0  0  0  0  0  0  0  0  0  0  0
   -4.7358    3.6269    1.4364 N   0  0  0  0  0  0  0  0  0  0  0  0
   -5.4620    3.2794    0.8132 H   0  0  0  0  0  0  0  0  0  0  0  0
   -5.0228    4.1505    2.2616 H   0  0  0  0  0  0  0  0  0  0  0  0
    0.1344   -1.4169    1.6018 C   0  0  0  0  0  0  0  0  0  0  0  0
    1.3174   -1.1476    1.7556 O   0  0  0  0  0  0  0  0  0  0  0  0
   -0.7620   -1.0325    2.5857 N   0  0  0  0  0  0  0  0  0  0  0  0
   -1.6766   -1.4642    2.4882 H   0  0  0  0  0  0  0  0  0  0  0  0
   -0.3090   -0.7311    3.9406 C   0  0  0  0  0  0  0  0  0  0  0  0
    0.3937    0.1091    3.9360 H   0  0  0  0  0  0  0  0  0  0  0  0
   -1.1588   -0.4646    4.5758 H   0  0  0  0  0  0  0  0  0  0  0  0
    0.1911   -1.6021    4.3784 H   0  0  0  0  0  0  0  0  0  0  0  0
  1  2  1  0  0  0  0
  2  3  1  0  0  0  0
  2  4  1  0  0  0  0
  2  5  1  0  0  0  0
  5  6  2  0  0  0  0
  5  7  1  0  0  0  0
  7  8  1  0  0  0  0
  7  9  1  0  0  0  0
  9 10  1  0  0  0  0
  9 11  1  0  0  0  0
  9 29  1  0  0  0  0
 11 12  1  0  0  0  0
 11 13  1  0  0  0  0
 11 14  1  0  0  0  0
 14 15  1  0  0  0  0
 14 16  1  0  0  0  0
 14 17  1  0  0  0  0
 17 18  1  0  0  0  0
 17 19  1  0  0  0  0
 17 20  1  0  0  0  0
 20 21  1  0  0  0  0
 20 22  2  0  0  0  0
 22 23  1  0  0  0  0
 22 26  1  0  0  0  0
 23 24  1  0  0  0  0
 23 25  1  0  0  0  0
 26 27  1  0  0  0  0
 26 28  1  0  0  0  0
 29 30  2  0  0  0  0
 29 31  1  0  0  0  0
 31 32  1  0  0  0  0
 31 33  1  0  0  0  0
 33 34  1  0  0  0  0
 33 35  1  0  0  0  0
 33 36  1  0  0  0  0
M  CHG  1  20   1
M  END
$$$$

  -OEChem-04042215563D

 36 35  0     1  0  0  0  0  0999 V2000
   -2.6427   -5.7348    0.8697 H   0  0  0  0  0  0  0  0  0  0  0  0
   -2.7871   -4.7705    0.3734 C   0  0  0  0  0  0  0  0  0  0  0  0
   -3.7404   -4.3481    0.6984 H   0  0  0  0  0  0  0  0  0  0  0  0
   -2.8150   -4.9356   -0.7063 H   0  0  0  0  0  0  0  0  0  0  0  0
   -1.6514   -3.8293    0.7266 C   0  0  0  0  0  0  0  0  0  0  0  0
   -0.7970   -4.1850    1.5159 O   0  0  0  0  0  0  0  0  0  0  0  0
   -1.6063   -2.5617    0.1708 N   0  0  0  0  0  0  0  0  0  0  0  0
   -2.2638   -2.4145   -0.5890 H   0  0  0  0  0  0  0  0  0  0  0  0
   -0.3844   -1.7251    0.1679 C   0  0  1  0  0  0  0  0  0  0  0  0
    0.4135   -2.2843   -0.3354 H   0  0  0  0  0  0  0  0  0  0  0  0
   -0.5636   -0.3685   -0.5615 C   0  0  0  0  0  0  0  0  0  0  0  0
    0.1885    0.3434   -0.2009 H   0  0  0  0  0  0  0  0  0  0  0  0
   -0.3178   -0.5474   -1.6139 H   0  0  0  0  0  0  0  0  0  0  0  0
   -1.9724    0.2673   -0.5369 C   0  0  0  0  0  0  0  0  0  0  0  0
   -2.3388    0.3842   -1.5627 H   0  0  0  0  0  0  0  0  0  0  0  0
   -2.6928   -0.3453    0.0116 H   0  0  0  0  0  0  0  0  0  0  0  0
   -1.8681    1.6347    0.1419 C   0  0  0  0  0  0  0  0  0  0  0  0
   -1.4851    1.4891    1.1587 H   0  0  0  0  0  0  0  0  0  0  0  0
   -1.1498    2.2511   -0.4104 H   0  0  0  0  0  0  0  0  0  0  0  0
   -3.1759    2.3143    0.1891 N   0  3  0  0  0  0  0  0  0  0  0  0
   -3.9163    1.9483   -0.4074 H   0  0  0  0  0  0  0  0  0  0  0  0
   -3.3970    3.3827    0.9014 C   0  0  0  0  0  0  0  0  0  0  0  0
   -2.4134    3.9522    1.6785 N   0  0  0  0  0  0  0  0  0  0  0  0
   -1.4596    3.6143    1.5628 H   0  0  0  0  0  0  0  0  0  0  0  0
   -2.5454    4.9039    2.0154 H   0  0  0  0  0  0  0  0  0  0  0  0
   -4.6393    3.9708    0.8824 N   0  0  0  0  0  0  0  0  0  0  0  0
   -5.4171    3.4631    0.4659 H   0  0  0  0  0  0  0  0  0  0  0  0
   -4.8524    4.6764    1.5854 H   0  0  0  0  0  0  0  0  0  0  0  0
    0.1404   -1.4106    1.5908 C   0  0  0  0  0  0  0  0  0  0  0  0
    1.3255   -1.1486    1.7419 O   0  0  0  0  0  0  0  0  0  0  0  0
   -0.7518   -1.0242    2.5773 N   0  0  0  0  0  0  0  0  0  0  0  0
   -1.6743   -1.4372    2.4794 H   0  0  0  0  0  0  0  0  0  0  0  0
   -0.2978   -0.7144    3.9300 C   0  0  0  0  0  0  0  0  0  0  0  0
    0.3986    0.1311    3.9211 H   0  0  0  0  0  0  0  0  0  0  0  0
   -1.1488   -0.4514    4.5654 H   0  0  0  0  0  0  0  0  0  0  0  0
    0.2098   -1.5798    4.3705 H   0  0  0  0  0  0  0  0  0  0  0  0
  1  2  1  0  0  0  0
  2  3  1  0  0  0  0
  2  4  1  0  0  0  0
  2  5  1  0  0  0  0
  5  6  2  0  0  0  0
  5  7  1  0  0  0  0
  7  8  1  0  0  0  0
  7  9  1  0  0  0  0
  9 10  1  0  0  0  0
  9 11  1  0  0  0  0
  9 29  1  0  0  0  0
 11 12  1  0  0  0  0
 11 13  1  0  0  0  0
 11 14  1  0  0  0  0
 14 15  1  0  0  0  0
 14 16  1  0  0  0  0
 14 17  1  0  0  0  0
 17 18  1  0  0  0  0
 17 19  1  0  0  0  0
 17 20  1  0  0  0  0
 20 21  1  0  0  0  0
 20 22  2  0  0  0  0
 22 23  1  0  0  0  0
 22 26  1  0  0  0  0
 23 24  1  0  0  0  0
 23 25  1  0  0  0  0
 26 27  1  0  0  0  0
 26 28  1  0  0  0  0
 29 30  2  0  0  0  0
 29 31  1  0  0  0  0
 31 32  1  0  0  0  0
 31 33  1  0  0  0  0
 33 34  1  0  0  0  0
 33 35  1  0  0  0  0
 33 36  1  0  0  0  0
M  CHG  1  20   1
M  END
$$$$

  -OEChem-04042215563D

 36 35  0     1  0  0  0  0  0999 V2000
   -2.6837   -5.7053    0.8577 H   0  0  0  0  0  0  0  0  0  0  0  0
   -2.8228   -4.7330    0.3752 C   0  0  0  0  0  0  0  0  0  0  0  0
   -3.7624   -4.2992    0.7251 H   0  0  0  0  0  0  0  0  0  0  0  0
   -2.8767   -4.8854   -0.7055 H   0  0  0  0  0  0  0  0  0  0  0  0
   -1.6649   -3.8140    0.7161 C   0  0  0  0  0  0  0  0  0  0  0  0
   -0.8031   -4.1910    1.4873 O   0  0  0  0  0  0  0  0  0  0  0  0
   -1.6100   -2.5411    0.1739 N   0  0  0  0  0  0  0  0  0  0  0  0
   -2.2777   -2.3721   -0.5719 H   0  0  0  0  0  0  0  0  0  0  0  0
   -0.3805   -1.7160    0.1754 C   0  0  1  0  0  0  0  0  0  0  0  0
    0.4093   -2.2801   -0.3345 H   0  0  0  0  0  0  0  0  0  0  0  0
   -0.5586   -0.3644   -0.5611 C   0  0  0  0  0  0  0  0  0  0  0  0
    0.1757    0.3492   -0.1685 H   0  0  0  0  0  0  0  0  0  0  0  0
   -0.2926   -0.5218   -1.6118 H   0  0  0  0  0  0  0  0  0  0  0  0
   -1.9728    0.2530   -0.5307 C   0  0  0  0  0  0  0  0  0  0  0  0
   -2.4692    0.0957   -1.4942 H   0  0  0  0  0  0  0  0  0  0  0  0
   -2.5837   -0.2083    0.2513 H   0  0  0  0  0  0  0  0  0  0  0  0
   -1.8503    1.7456   -0.2162 C   0  0  0  0  0  0  0  0  0  0  0  0
   -1.3503    1.8590    0.7528 H   0  0  0  0  0  0  0  0  0  0  0  0
   -1.2268    2.2199   -0.9827 H   0  0  0  0  0  0  0  0  0  0  0  0
   -3.1742    2.3939   -0.1765 N   0  3  0  0  0  0  0  0  0  0  0  0
   -3.9650    1.8688   -0.5464 H   0  0  0  0  0  0  0  0  0  0  0  0
   -3.3610    3.6073    0.2593 C   0  0  0  0  0  0  0  0  0  0  0  0
   -2.3216    4.3806    0.7250 N   0  0  0  0  0  0  0  0  0  0  0  0
   -1.3714    4.0429    0.5820 H   0  0  0  0  0  0  0  0  0  0  0  0
   -2.4634    5.3837    0.8269 H   0  0  0  0  0  0  0  0  0  0  0  0
   -4.6256    4.1455    0.2558 N   0  0  0  0  0  0  0  0  0  0  0  0
   -5.4202    3.5312    0.0894 H   0  0  0  0  0  0  0  0  0  0  0  0
   -4.7878    5.0028    0.7816 H   0  0  0  0  0  0  0  0  0  0  0  0
    0.1604   -1.4163    1.5948 C   0  0  0  0  0  0  0  0  0  0  0  0
    1.3517   -1.1765    1.7344 O   0  0  0  0  0  0  0  0  0  0  0  0
   -0.7164   -1.0286    2.5938 N   0  0  0  0  0  0  0  0  0  0  0  0
   -1.6479   -1.4220    2.5029 H   0  0  0  0  0  0  0  0  0  0  0  0
   -0.2448   -0.7238    3.9412 C   0  0  0  0  0  0  0  0  0  0  0  0
    0.4566    0.1171    3.9235 H   0  0  0  0  0  0  0  0  0  0  0  0
   -1.0860   -0.4556    4.5872 H   0  0  0  0  0  0  0  0  0  0  0  0
    0.2622   -1.5933    4.3737 H   0  0  0  0  0  0  0  0  0  0  0  0
  1  2  1  0  0  0  0
  2  3  1  0  0  0  0
  2  4  1  0  0  0  0
  2  5  1  0  0  0  0
  5  6  2  0  0  0  0
  5  7  1  0  0  0  0
  7  8  1  0  0  0  0
  7  9  1  0  0  0  0
  9 10  1  0  0  0  0
  9 11  1  0  0  0  0
  9 29  1  0  0  0  0
 11 12  1  0  0  0  0
 11 13  1  0  0  0  0
 11 14  1  0  0  0  0
 14 15  1  0  0  0  0
 14 16  1  0  0  0  0
 14 17  1  0  0  0  0
 17 18  1  0  0  0  0
 17 19  1  0  0  0  0
 17 20  1  0  0  0  0
 20 21  1  0  0  0  0
 20 22  2  0  0  0  0
 22 23  1  0  0  0  0
 22 26  1  0  0  0  0
 23 24  1  0  0  0  0
 23 25  1  0  0  0  0
 26 27  1  0  0  0  0
 26 28  1  0  0  0  0
 29 30  2  0  0  0  0
 29 31  1  0  0  0  0
 31 32  1  0  0  0  0
 31 33  1  0  0  0  0
 33 34  1  0  0  0  0
 33 35  1  0  0  0  0
 33 36  1  0  0  0  0
M  CHG  1  20   1
M  END
$$$$

  -OEChem-04042215563D

 36 35  0     1  0  0  0  0  0999 V2000
   -2.7130   -5.6820    0.8570 H   0  0  0  0  0  0  0  0  0  0  0  0
   -2.8432   -4.7082    0.3751 C   0  0  0  0  0  0  0  0  0  0  0  0
   -3.7751   -4.2629    0.7307 H   0  0  0  0  0  0  0  0  0  0  0  0
   -2.9053   -4.8603   -0.7049 H   0  0  0  0  0  0  0  0  0  0  0  0
   -1.6724   -3.8029    0.7080 C   0  0  0  0  0  0  0  0  0  0  0  0
   -0.8018   -4.1955    1.4614 O   0  0  0  0  0  0  0  0  0  0  0  0
   -1.6133   -2.5262    0.1757 N   0  0  0  0  0  0  0  0  0  0  0  0
   -2.2880   -2.3433   -0.5599 H   0  0  0  0  0  0  0  0  0  0  0  0
   -0.3805   -1.7069    0.1805 C   0  0  1  0  0  0  0  0  0  0  0  0
    0.4052   -2.2733   -0.3337 H   0  0  0  0  0  0  0  0  0  0  0  0
   -0.5611   -0.3598   -0.5610 C   0  0  0  0  0  0  0  0  0  0  0  0
    0.1565    0.3618   -0.1521 H   0  0  0  0  0  0  0  0  0  0  0  0
   -0.2858   -0.5071   -1.6108 H   0  0  0  0  0  0  0  0  0  0  0  0
   -1.9801    0.2367   -0.5241 C   0  0  0  0  0  0  0  0  0  0  0  0
   -2.5756   -0.1528   -1.3565 H   0  0  0  0  0  0  0  0  0  0  0  0
   -2.4760   -0.0343    0.4142 H   0  0  0  0  0  0  0  0  0  0  0  0
   -1.8731    1.7615   -0.5891 C   0  0  0  0  0  0  0  0  0  0  0  0
   -1.2687    2.1068    0.2576 H   0  0  0  0  0  0  0  0  0  0  0  0
   -1.3606    2.0415   -1.5164 H   0  0  0  0  0  0  0  0  0  0  0  0
   -3.2050    2.3924   -0.5428 N   0  3  0  0  0  0  0  0  0  0  0  0
   -4.0155    1.7844   -0.6481 H   0  0  0  0  0  0  0  0  0  0  0  0
   -3.3821    3.6768   -0.4155 C   0  0  0  0  0  0  0  0  0  0  0  0
   -2.3222    4.5488   -0.3075 N   0  0  0  0  0  0  0  0  0  0  0  0
   -1.3843    4.1883   -0.4729 H   0  0  0  0  0  0  0  0  0  0  0  0
   -2.4864    5.5438   -0.4475 H   0  0  0  0  0  0  0  0  0  0  0  0
   -4.6570    4.1903   -0.3928 N   0  0  0  0  0  0  0  0  0  0  0  0
   -5.4423    3.5520   -0.2817 H   0  0  0  0  0  0  0  0  0  0  0  0
   -4.7848    5.1583   -0.1025 H   0  0  0  0  0  0  0  0  0  0  0  0
    0.1719   -1.4165    1.5973 C   0  0  0  0  0  0  0  0  0  0  0  0
    1.3663   -1.1878    1.7278 O   0  0  0  0  0  0  0  0  0  0  0  0
   -0.6921   -1.0297    2.6075 N   0  0  0  0  0  0  0  0  0  0  0  0
   -1.6303   -1.4082    2.5232 H   0  0  0  0  0  0  0  0  0  0  0  0
   -0.2059   -0.7266    3.9505 C   0  0  0  0  0  0  0  0  0  0  0  0
    0.4937    0.1156    3.9270 H   0  0  0  0  0  0  0  0  0  0  0  0
   -1.0405   -0.4614    4.6064 H   0  0  0  0  0  0  0  0  0  0  0  0
    0.3081   -1.5952    4.3766 H   0  0  0  0  0  0  0  0  0  0  0  0
  1  2  1  0  0  0  0
  2  3  1  0  0  0  0
  2  4  1  0  0  0  0
  2  5  1  0  0  0  0
  5  6  2  0  0  0  0
  5  7  1  0  0  0  0
  7  8  1  0  0  0  0
  7  9  1  0  0  0  0
  9 10  1  0  0  0  0
  9 11  1  0  0  0  0
  9 29  1  0  0  0  0
 11 12  1  0  0  0  0
 11 13  1  0  0  0  0
 11 14  1  0  0  0  0
 14 15  1  0  0  0  0
 14 16  1  0  0  0  0
 14 17  1  0  0  0  0
 17 18  1  0  0  0  0
 17 19  1  0  0  0  0
 17 20  1  0  0  0  0
 20 21  1  0  0  0  0
 20 22  2  0  0  0  0
 22 23  1  0  0  0  0
 22 26  1  0  0  0  0
 23 24  1  0  0  0  0
 23 25  1  0  0  0  0
 26 27  1  0  0  0  0
 26 28  1  0  0  0  0
 29 30  2  0  0  0  0
 29 31  1  0  0  0  0
 31 32  1  0  0  0  0
 31 33  1  0  0  0  0
 33 34  1  0  0  0  0
 33 35  1  0  0  0  0
 33 36  1  0  0  0  0
M  CHG  1  20   1
M  END
$$$$

  -OEChem-04042215563D

 36 35  0     1  0  0  0  0  0999 V2000
   -2.7107   -5.6842    0.8439 H   0  0  0  0  0  0  0  0  0  0  0  0
   -2.8544   -4.7025    0.3824 C   0  0  0  0  0  0  0  0  0  0  0  0
   -3.7778   -4.2658    0.7691 H   0  0  0  0  0  0  0  0  0  0  0  0
   -2.9438   -4.8360   -0.6983 H   0  0  0  0  0  0  0  0  0  0  0  0
   -1.6762   -3.8019    0.7010 C   0  0  0  0  0  0  0  0  0  0  0  0
   -0.7904   -4.2048    1.4306 O   0  0  0  0  0  0  0  0  0  0  0  0
   -1.6226   -2.5215    0.1775 N   0  0  0  0  0  0  0  0  0  0  0  0
   -2.3112   -2.3284   -0.5422 H   0  0  0  0  0  0  0  0  0  0  0  0
   -0.3885   -1.7042    0.1736 C   0  0  1  0  0  0  0  0  0  0  0  0
    0.3898   -2.2687   -0.3537 H   0  0  0  0  0  0  0  0  0  0  0  0
   -0.5748   -0.3530   -0.5579 C   0  0  0  0  0  0  0  0  0  0  0  0
    0.1431    0.3718   -0.1551 H   0  0  0  0  0  0  0  0  0  0  0  0
   -0.3145   -0.4989   -1.6115 H   0  0  0  0  0  0  0  0  0  0  0  0
   -1.9927    0.2362   -0.4978 C   0  0  0  0  0  0  0  0  0  0  0  0
   -2.6682   -0.3228   -1.1536 H   0  0  0  0  0  0  0  0  0  0  0  0
   -2.3719    0.1732    0.5283 H   0  0  0  0  0  0  0  0  0  0  0  0
   -1.9277    1.7032   -0.9229 C   0  0  0  0  0  0  0  0  0  0  0  0
   -1.2062    2.2227   -0.2821 H   0  0  0  0  0  0  0  0  0  0  0  0
   -1.5724    1.7590   -1.9582 H   0  0  0  0  0  0  0  0  0  0  0  0
   -3.2501    2.3448   -0.8073 N   0  3  0  0  0  0  0  0  0  0  0  0
   -4.0203    1.7728   -0.4644 H   0  0  0  0  0  0  0  0  0  0  0  0
   -3.4622    3.5988   -1.0896 C   0  0  0  0  0  0  0  0  0  0  0  0
   -2.4489    4.4252   -1.5214 N   0  0  0  0  0  0  0  0  0  0  0  0
   -1.4927    4.0811   -1.4570 H   0  0  0  0  0  0  0  0  0  0  0  0
   -2.5966    5.4324   -1.5027 H   0  0  0  0  0  0  0  0  0  0  0  0
   -4.7262    4.1229   -0.9542 N   0  0  0  0  0  0  0  0  0  0  0  0
   -5.5097    3.4893   -0.8086 H   0  0  0  0  0  0  0  0  0  0  0  0
   -4.9203    5.0370   -1.3597 H   0  0  0  0  0  0  0  0  0  0  0  0
    0.1830   -1.4241    1.5853 C   0  0  0  0  0  0  0  0  0  0  0  0
    1.3801   -1.2010    1.7009 O   0  0  0  0  0  0  0  0  0  0  0  0
   -0.6664   -1.0428    2.6100 N   0  0  0  0  0  0  0  0  0  0  0  0
   -1.6086   -1.4128    2.5355 H   0  0  0  0  0  0  0  0  0  0  0  0
   -0.1633   -0.7434    3.9475 C   0  0  0  0  0  0  0  0  0  0  0  0
    0.5442    0.0923    3.9161 H   0  0  0  0  0  0  0  0  0  0  0  0
   -0.9884   -0.4689    4.6119 H   0  0  0  0  0  0  0  0  0  0  0  0
    0.3462   -1.6169    4.3693 H   0  0  0  0  0  0  0  0  0  0  0  0
  1  2  1  0  0  0  0
  2  3  1  0  0  0  0
  2  4  1  0  0  0  0
  2  5  1  0  0  0  0
  5  6  2  0  0  0  0
  5  7  1  0  0  0  0
  7  8  1  0  0  0  0
  7  9  1  0  0  0  0
  9 10  1  0  0  0  0
  9 11  1  0  0  0  0
  9 29  1  0  0  0  0
 11 12  1  0  0  0  0
 11 13  1  0  0  0  0
 11 14  1  0  0  0  0
 14 15  1  0  0  0  0
 14 16  1  0  0  0  0
 14 17  1  0  0  0  0
 17 18  1  0  0  0  0
 17 19  1  0  0  0  0
 17 20  1  0  0  0  0
 20 21  1  0  0  0  0
 20 22  2  0  0  0  0
 22 23  1  0  0  0  0
 22 26  1  0  0  0  0
 23 24  1  0  0  0  0
 23 25  1  0  0  0  0
 26 27  1  0  0  0  0
 26 28  1  0  0  0  0
 29 30  2  0  0  0  0
 29 31  1  0  0  0  0
 31 32  1  0  0  0  0
 31 33  1  0  0  0  0
 33 34  1  0  0  0  0
 33 35  1  0  0  0  0
 33 36  1  0  0  0  0
M  CHG  1  20   1
M  END
$$$$

  -OEChem-04042215563D

 36 35  0     1  0  0  0  0  0999 V2000
   -2.7646   -5.6526    0.7968 H   0  0  0  0  0  0  0  0  0  0  0  0
   -2.8884   -4.6661    0.3399 C   0  0  0  0  0  0  0  0  0  0  0  0
   -3.8084   -4.2167    0.7204 H   0  0  0  0  0  0  0  0  0  0  0  0
   -2.9693   -4.7909   -0.7426 H   0  0  0  0  0  0  0  0  0  0  0  0
   -1.6997   -3.7859    0.6762 C   0  0  0  0  0  0  0  0  0  0  0  0
   -0.8177   -4.2119    1.3976 O   0  0  0  0  0  0  0  0  0  0  0  0
   -1.6356   -2.4937    0.1844 N   0  0  0  0  0  0  0  0  0  0  0  0
   -2.3257   -2.2754   -0.5270 H   0  0  0  0  0  0  0  0  0  0  0  0
   -0.3958   -1.6877    0.1980 C   0  0  1  0  0  0  0  0  0  0  0  0
    0.3723   -2.2558   -0.3407 H   0  0  0  0  0  0  0  0  0  0  0  0
   -0.5708   -0.3367   -0.5306 C   0  0  0  0  0  0  0  0  0  0  0  0
    0.2975    0.2980   -0.3182 H   0  0  0  0  0  0  0  0  0  0  0  0
   -0.5644   -0.5365   -1.6074 H   0  0  0  0  0  0  0  0  0  0  0  0
   -1.8602    0.4283   -0.1902 C   0  0  0  0  0  0  0  0  0  0  0  0
   -2.7425   -0.1690   -0.4399 H   0  0  0  0  0  0  0  0  0  0  0  0
   -1.8841    0.6463    0.8826 H   0  0  0  0  0  0  0  0  0  0  0  0
   -1.8810    1.7331   -0.9859 C   0  0  0  0  0  0  0  0  0  0  0  0
   -0.9564    2.2846   -0.7803 H   0  0  0  0  0  0  0  0  0  0  0  0
   -1.9150    1.4999   -2.0562 H   0  0  0  0  0  0  0  0  0  0  0  0
   -3.0457    2.5546   -0.6080 N   0  3  0  0  0  0  0  0  0  0  0  0
   -3.6474    2.1988    0.1333 H   0  0  0  0  0  0  0  0  0  0  0  0
   -3.3031    3.7179   -1.1344 C   0  0  0  0  0  0  0  0  0  0  0  0
   -2.4982    4.2701   -2.1052 N   0  0  0  0  0  0  0  0  0  0  0  0
   -1.5987    3.8289   -2.2867 H   0  0  0  0  0  0  0  0  0  0  0  0
   -2.5942    5.2622   -2.3128 H   0  0  0  0  0  0  0  0  0  0  0  0
   -4.4048    4.4248   -0.7149 N   0  0  0  0  0  0  0  0  0  0  0  0
   -5.0951    3.9606   -0.1279 H   0  0  0  0  0  0  0  0  0  0  0  0
   -4.7052    5.2297   -1.2622 H   0  0  0  0  0  0  0  0  0  0  0  0
    0.1933   -1.4384    1.6075 C   0  0  0  0  0  0  0  0  0  0  0  0
    1.3926   -1.2206    1.7083 O   0  0  0  0  0  0  0  0  0  0  0  0
   -0.6371   -1.0704    2.6524 N   0  0  0  0  0  0  0  0  0  0  0  0
   -1.5795   -1.4430    2.5905 H   0  0  0  0  0  0  0  0  0  0  0  0
   -0.1081   -0.7914    3.9843 C   0  0  0  0  0  0  0  0  0  0  0  0
    0.5944    0.0484    3.9519 H   0  0  0  0  0  0  0  0  0  0  0  0
   -0.9202   -0.5328    4.6705 H   0  0  0  0  0  0  0  0  0  0  0  0
    0.4148   -1.6692    4.3800 H   0  0  0  0  0  0  0  0  0  0  0  0
  1  2  1  0  0  0  0
  2  3  1  0  0  0  0
  2  4  1  0  0  0  0
  2  5  1  0  0  0  0
  5  6  2  0  0  0  0
  5  7  1  0  0  0  0
  7  8  1  0  0  0  0
  7  9  1  0  0  0  0
  9 10  1  0  0  0  0
  9 11  1  0  0  0  0
  9 29  1  0  0  0  0
 11 12  1  0  0  0  0
 11 13  1  0  0  0  0
 11 14  1  0  0  0  0
 14 15  1  0  0  0  0
 14 16  1  0  0  0  0
 14 17  1  0  0  0  0
 17 18  1  0  0  0  0
 17 19  1  0  0  0  0
 17 20  1  0  0  0  0
 20 21  1  0  0  0  0
 20 22  2  0  0  0  0
 22 23  1  0  0  0  0
 22 26  1  0  0  0  0
 23 24  1  0  0  0  0
 23 25  1  0  0  0  0
 26 27  1  0  0  0  0
 26 28  1  0  0  0  0
 29 30  2  0  0  0  0
 29 31  1  0  0  0  0
 31 32  1  0  0  0  0
 31 33  1  0  0  0  0
 33 34  1  0  0  0  0
 33 35  1  0  0  0  0
 33 36  1  0  0  0  0
M  CHG  1  20   1
M  END
$$$$

  -OEChem-04042215563D

 36 35  0     1  0  0  0  0  0999 V2000
   -2.7373   -5.6713    0.8987 H   0  0  0  0  0  0  0  0  0  0  0  0
   -2.8507   -4.7124    0.3841 C   0  0  0  0  0  0  0  0  0  0  0  0
   -3.7817   -4.2461    0.7143 H   0  0  0  0  0  0  0  0  0  0  0  0
   -2.9020   -4.8977   -0.6914 H   0  0  0  0  0  0  0  0  0  0  0  0
   -1.6730   -3.8110    0.7015 C   0  0  0  0  0  0  0  0  0  0  0  0
   -0.7801   -4.2164    1.4211 O   0  0  0  0  0  0  0  0  0  0  0  0
   -1.6285   -2.5255    0.1895 N   0  0  0  0  0  0  0  0  0  0  0  0
   -2.3245   -2.3274   -0.5220 H   0  0  0  0  0  0  0  0  0  0  0  0
   -0.3990   -1.7027    0.1862 C   0  0  1  0  0  0  0  0  0  0  0  0
    0.3749   -2.2656   -0.3491 H   0  0  0  0  0  0  0  0  0  0  0  0
   -0.5857   -0.3535   -0.5442 C   0  0  0  0  0  0  0  0  0  0  0  0
    0.2833    0.2888   -0.3580 H   0  0  0  0  0  0  0  0  0  0  0  0
   -0.5940   -0.5743   -1.6170 H   0  0  0  0  0  0  0  0  0  0  0  0
   -1.8742    0.4159   -0.2033 C   0  0  0  0  0  0  0  0  0  0  0  0
   -2.7423   -0.2491   -0.1982 H   0  0  0  0  0  0  0  0  0  0  0  0
   -1.7760    0.8542    0.7963 H   0  0  0  0  0  0  0  0  0  0  0  0
   -2.0938    1.5094   -1.2491 C   0  0  0  0  0  0  0  0  0  0  0  0
   -1.1816    2.1126   -1.3236 H   0  0  0  0  0  0  0  0  0  0  0  0
   -2.2816    1.0439   -2.2234 H   0  0  0  0  0  0  0  0  0  0  0  0
   -3.2293    2.3693   -0.8665 N   0  3  0  0  0  0  0  0  0  0  0  0
   -3.6789    2.1771    0.0275 H   0  0  0  0  0  0  0  0  0  0  0  0
   -3.6310    3.3858   -1.5750 C   0  0  0  0  0  0  0  0  0  0  0  0
   -3.0278    3.7237   -2.7655 N   0  0  0  0  0  0  0  0  0  0  0  0
   -2.1481    3.2682   -3.0003 H   0  0  0  0  0  0  0  0  0  0  0  0
   -3.2102    4.6436   -3.1619 H   0  0  0  0  0  0  0  0  0  0  0  0
   -4.6823    4.1519   -1.1301 N   0  0  0  0  0  0  0  0  0  0  0  0
   -5.2429    3.8170   -0.3489 H   0  0  0  0  0  0  0  0  0  0  0  0
   -5.1044    4.8226   -1.7700 H   0  0  0  0  0  0  0  0  0  0  0  0
    0.1849   -1.4291    1.5933 C   0  0  0  0  0  0  0  0  0  0  0  0
    1.3824   -1.2033    1.6973 O   0  0  0  0  0  0  0  0  0  0  0  0
   -0.6539   -1.0593    2.6308 N   0  0  0  0  0  0  0  0  0  0  0  0
   -1.5954   -1.4327    2.5630 H   0  0  0  0  0  0  0  0  0  0  0  0
   -0.1352   -0.7763    3.9658 C   0  0  0  0  0  0  0  0  0  0  0  0
    0.5429    0.0835    3.9419 H   0  0  0  0  0  0  0  0  0  0  0  0
   -0.9559   -0.5478    4.6524 H   0  0  0  0  0  0  0  0  0  0  0  0
    0.4116   -1.6420    4.3553 H   0  0  0  0  0  0  0  0  0  0  0  0
  1  2  1  0  0  0  0
  2  3  1  0  0  0  0
  2  4  1  0  0  0  0
  2  5  1  0  0  0  0
  5  6  2  0  0  0  0
  5  7  1  0  0  0  0
  7  8  1  0  0  0  0
  7  9  1  0  0  0  0
  9 10  1  0  0  0  0
  9 11  1  0  0  0  0
  9 29  1  0  0  0  0
 11 12  1  0  0  0  0
 11 13  1  0  0  0  0
 11 14  1  0  0  0  0
 14 15  1  0  0  0  0
 14 16  1  0  0  0  0
 14 17  1  0  0  0  0
 17 18  1  0  0  0  0
 17 19  1  0  0  0  0
 17 20  1  0  0  0  0
 20 21  1  0  0  0  0
 20 22  2  0  0  0  0
 22 23  1  0  0  0  0
 22 26  1  0  0  0  0
 23 24  1  0  0  0  0
 23 25  1  0  0  0  0
 26 27  1  0  0  0  0
 26 28  1  0  0  0  0
 29 30  2  0  0  0  0
 29 31  1  0  0  0  0
 31 32  1  0  0  0  0
 31 33  1  0  0  0  0
 33 34  1  0  0  0  0
 33 35  1  0  0  0  0
 33 36  1  0  0  0  0
M  CHG  1  20   1
M  END
$$$$

  -OEChem-04042215563D

 36 35  0     1  0  0  0  0  0999 V2000
   -2.7468   -5.6757    0.9077 H   0  0  0  0  0  0  0  0  0  0  0  0
   -2.8703   -4.7063    0.4155 C   0  0  0  0  0  0  0  0  0  0  0  0
   -3.7848   -4.2390    0.7880 H   0  0  0  0  0  0  0  0  0  0  0  0
   -2.9620   -4.8710   -0.6606 H   0  0  0  0  0  0  0  0  0  0  0  0
   -1.6745   -3.8201    0.7080 C   0  0  0  0  0  0  0  0  0  0  0  0
   -0.7798   -4.2326    1.4209 O   0  0  0  0  0  0  0  0  0  0  0  0
   -1.6190   -2.5384    0.1875 N   0  0  0  0  0  0  0  0  0  0  0  0
   -2.3141   -2.3371   -0.5238 H   0  0  0  0  0  0  0  0  0  0  0  0
   -0.3839   -1.7233    0.1824 C   0  0  1  0  0  0  0  0  0  0  0  0
    0.3888   -2.2915   -0.3495 H   0  0  0  0  0  0  0  0  0  0  0  0
   -0.5601   -0.3693   -0.5439 C   0  0  0  0  0  0  0  0  0  0  0  0
    0.3164    0.2649   -0.3666 H   0  0  0  0  0  0  0  0  0  0  0  0
   -0.5712   -0.5971   -1.6151 H   0  0  0  0  0  0  0  0  0  0  0  0
   -1.8407    0.4203   -0.2042 C   0  0  0  0  0  0  0  0  0  0  0  0
   -2.6632   -0.2481    0.0638 H   0  0  0  0  0  0  0  0  0  0  0  0
   -1.6394    1.0612    0.6616 H   0  0  0  0  0  0  0  0  0  0  0  0
   -2.2692    1.2604   -1.4082 C   0  0  0  0  0  0  0  0  0  0  0  0
   -1.4217    1.8781   -1.7268 H   0  0  0  0  0  0  0  0  0  0  0  0
   -2.5420    0.5938   -2.2339 H   0  0  0  0  0  0  0  0  0  0  0  0
   -3.4104    2.1243   -1.0506 N   0  3  0  0  0  0  0  0  0  0  0  0
   -3.7070    2.1245   -0.0753 H   0  0  0  0  0  0  0  0  0  0  0  0
   -4.0055    2.9171   -1.8956 C   0  0  0  0  0  0  0  0  0  0  0  0
   -3.6089    3.0052   -3.2107 N   0  0  0  0  0  0  0  0  0  0  0  0
   -2.7194    2.5822   -3.4680 H   0  0  0  0  0  0  0  0  0  0  0  0
   -3.9446    3.7870   -3.7699 H   0  0  0  0  0  0  0  0  0  0  0  0
   -5.0581    3.6943   -1.4735 N   0  0  0  0  0  0  0  0  0  0  0  0
   -5.4696    3.5164   -0.5593 H   0  0  0  0  0  0  0  0  0  0  0  0
   -5.6290    4.1669   -2.1724 H   0  0  0  0  0  0  0  0  0  0  0  0
    0.1945   -1.4454    1.5906 C   0  0  0  0  0  0  0  0  0  0  0  0
    1.3943   -1.2364    1.7027 O   0  0  0  0  0  0  0  0  0  0  0  0
   -0.6485   -1.0638    2.6204 N   0  0  0  0  0  0  0  0  0  0  0  0
   -1.5947   -1.4228    2.5462 H   0  0  0  0  0  0  0  0  0  0  0  0
   -0.1385   -0.7740    3.9571 C   0  0  0  0  0  0  0  0  0  0  0  0
    0.5607    0.0688    3.9294 H   0  0  0  0  0  0  0  0  0  0  0  0
   -0.9612   -0.5153    4.6303 H   0  0  0  0  0  0  0  0  0  0  0  0
    0.3823   -1.6472    4.3652 H   0  0  0  0  0  0  0  0  0  0  0  0
  1  2  1  0  0  0  0
  2  3  1  0  0  0  0
  2  4  1  0  0  0  0
  2  5  1  0  0  0  0
  5  6  2  0  0  0  0
  5  7  1  0  0  0  0
  7  8  1  0  0  0  0
  7  9  1  0  0  0  0
  9 10  1  0  0  0  0
  9 11  1  0  0  0  0
  9 29  1  0  0  0  0
 11 12  1  0  0  0  0
 11 13  1  0  0  0  0
 11 14  1  0  0  0  0
 14 15  1  0  0  0  0
 14 16  1  0  0  0  0
 14 17  1  0  0  0  0
 17 18  1  0  0  0  0
 17 19  1  0  0  0  0
 17 20  1  0  0  0  0
 20 21  1  0  0  0  0
 20 22  2  0  0  0  0
 22 23  1  0  0  0  0
 22 26  1  0  0  0  0
 23 24  1  0  0  0  0
 23 25  1  0  0  0  0
 26 27  1  0  0  0  0
 26 28  1  0  0  0  0
 29 30  2  0  0  0  0
 29 31  1  0  0  0  0
 31 32  1  0  0  0  0
 31 33  1  0  0  0  0
 33 34  1  0  0  0  0
 33 35  1  0  0  0  0
 33 36  1  0  0  0  0
M  CHG  1  20   1
M  END
$$$$

  -OEChem-04042215563D

 36 35  0     1  0  0  0  0  0999 V2000
   -2.7177   -5.6995    0.9551 H   0  0  0  0  0  0  0  0  0  0  0  0
   -2.8244   -4.7522    0.4182 C   0  0  0  0  0  0  0  0  0  0  0  0
   -3.7608   -4.2801    0.7237 H   0  0  0  0  0  0  0  0  0  0  0  0
   -2.8587   -4.9611   -0.6536 H   0  0  0  0  0  0  0  0  0  0  0  0
   -1.6522   -3.8427    0.7331 C   0  0  0  0  0  0  0  0  0  0  0  0
   -0.7620   -4.2369    1.4617 O   0  0  0  0  0  0  0  0  0  0  0  0
   -1.6085   -2.5642    0.2041 N   0  0  0  0  0  0  0  0  0  0  0  0
   -2.3045   -2.3737   -0.5088 H   0  0  0  0  0  0  0  0  0  0  0  0
   -0.3809   -1.7377    0.1948 C   0  0  1  0  0  0  0  0  0  0  0  0
    0.3974   -2.3021   -0.3328 H   0  0  0  0  0  0  0  0  0  0  0  0
   -0.5733   -0.3949   -0.5469 C   0  0  0  0  0  0  0  0  0  0  0  0
    0.2929    0.2530   -0.3679 H   0  0  0  0  0  0  0  0  0  0  0  0
   -0.5679   -0.6289   -1.6168 H   0  0  0  0  0  0  0  0  0  0  0  0
   -1.8657    0.3826   -0.2175 C   0  0  0  0  0  0  0  0  0  0  0  0
   -2.5831   -0.2415    0.3226 H   0  0  0  0  0  0  0  0  0  0  0  0
   -1.6052    1.2181    0.4425 H   0  0  0  0  0  0  0  0  0  0  0  0
   -2.5210    0.9036   -1.4974 C   0  0  0  0  0  0  0  0  0  0  0  0
   -1.7702    1.4490   -2.0804 H   0  0  0  0  0  0  0  0  0  0  0  0
   -2.8761    0.0566   -2.0947 H   0  0  0  0  0  0  0  0  0  0  0  0
   -3.6425    1.8017   -1.1642 N   0  3  0  0  0  0  0  0  0  0  0  0
   -3.8094    1.9900   -0.1764 H   0  0  0  0  0  0  0  0  0  0  0  0
   -4.3674    2.4113   -2.0582 C   0  0  0  0  0  0  0  0  0  0  0  0
   -4.1546    2.2366   -3.4069 N   0  0  0  0  0  0  0  0  0  0  0  0
   -3.3032    1.7596   -3.6968 H   0  0  0  0  0  0  0  0  0  0  0  0
   -4.5767    2.8975   -4.0568 H   0  0  0  0  0  0  0  0  0  0  0  0
   -5.3726    3.2583   -1.6567 N   0  0  0  0  0  0  0  0  0  0  0  0
   -5.6456    3.2733   -0.6760 H   0  0  0  0  0  0  0  0  0  0  0  0
   -6.0471    3.5817   -2.3482 H   0  0  0  0  0  0  0  0  0  0  0  0
    0.1976   -1.4423    1.5995 C   0  0  0  0  0  0  0  0  0  0  0  0
    1.3962   -1.2241    1.7062 O   0  0  0  0  0  0  0  0  0  0  0  0
   -0.6448   -1.0598    2.6293 N   0  0  0  0  0  0  0  0  0  0  0  0
   -1.5863   -1.4328    2.5660 H   0  0  0  0  0  0  0  0  0  0  0  0
   -0.1306   -0.7456    3.9588 C   0  0  0  0  0  0  0  0  0  0  0  0
    0.5549    0.1077    3.9149 H   0  0  0  0  0  0  0  0  0  0  0  0
   -0.9524   -0.4908    4.6345 H   0  0  0  0  0  0  0  0  0  0  0  0
    0.4061   -1.6055    4.3746 H   0  0  0  0  0  0  0  0  0  0  0  0
  1  2  1  0  0  0  0
  2  3  1  0  0  0  0
  2  4  1  0  0  0  0
  2  5  1  0  0  0  0
  5  6  2  0  0  0  0
  5  7  1  0  0  0  0
  7  8  1  0  0  0  0
  7  9  1  0  0  0  0
  9 10  1  0  0  0  0
  9 11  1  0  0  0  0
  9 29  1  0  0  0  0
 11 12  1  0  0  0  0
 11 13  1  0  0  0  0
 11 14  1  0  0  0  0
 14 15  1  0  0  0  0
 14 16  1  0  0  0  0
 14 17  1  0  0  0  0
 17 18  1  0  0  0  0
 17 19  1  0  0  0  0
 17 20  1  0  0  0  0
 20 21  1  0  0  0  0
 20 22  2  0  0  0  0
 22 23  1  0  0  0  0
 22 26  1  0  0  0  0
 23 24  1  0  0  0  0
 23 25  1  0  0  0  0
 26 27  1  0  0  0  0
 26 28  1  0  0  0  0
 29 30  2  0  0  0  0
 29 31  1  0  0  0  0
 31 32  1  0  0  0  0
 31 33  1  0  0  0  0
 33 34  1  0  0  0  0
 33 35  1  0  0  0  0
 33 36  1  0  0  0  0
M  CHG  1  20   1
M  END
$$$$

  -OEChem-04042215563D

 36 35  0     1  0  0  0  0  0999 V2000
   -2.7396   -5.6897    0.9485 H   0  0  0  0  0  0  0  0  0  0  0  0
   -2.8420   -4.7358    0.4226 C   0  0  0  0  0  0  0  0  0  0  0  0
   -3.7748   -4.2617    0.7361 H   0  0  0  0  0  0  0  0  0  0  0  0
   -2.8804   -4.9325   -0.6513 H   0  0  0  0  0  0  0  0  0  0  0  0
   -1.6635   -3.8371    0.7445 C   0  0  0  0  0  0  0  0  0  0  0  0
   -0.7855   -4.2373    1.4842 O   0  0  0  0  0  0  0  0  0  0  0  0
   -1.6020   -2.5613    0.2110 N   0  0  0  0  0  0  0  0  0  0  0  0
   -2.2904   -2.3657   -0.5070 H   0  0  0  0  0  0  0  0  0  0  0  0
   -0.3647   -1.7498    0.2060 C   0  0  1  0  0  0  0  0  0  0  0  0
    0.4098   -2.3249   -0.3155 H   0  0  0  0  0  0  0  0  0  0  0  0
   -0.5486   -0.4136   -0.5490 C   0  0  0  0  0  0  0  0  0  0  0  0
    0.3142    0.2323   -0.3469 H   0  0  0  0  0  0  0  0  0  0  0  0
   -0.5207   -0.6358   -1.6211 H   0  0  0  0  0  0  0  0  0  0  0  0
   -1.8426    0.3636   -0.2256 C   0  0  0  0  0  0  0  0  0  0  0  0
   -2.4268   -0.1438    0.5483 H   0  0  0  0  0  0  0  0  0  0  0  0
   -1.5599    1.3424    0.1785 H   0  0  0  0  0  0  0  0  0  0  0  0
   -2.6968    0.5591   -1.4785 C   0  0  0  0  0  0  0  0  0  0  0  0
   -2.0800    1.0192   -2.2584 H   0  0  0  0  0  0  0  0  0  0  0  0
   -3.0429   -0.4158   -1.8381 H   0  0  0  0  0  0  0  0  0  0  0  0
   -3.8462    1.4304   -1.1697 N   0  3  0  0  0  0  0  0  0  0  0  0
   -3.9209    1.7791   -0.2144 H   0  0  0  0  0  0  0  0  0  0  0  0
   -4.7171    1.8202   -2.0563 C   0  0  0  0  0  0  0  0  0  0  0  0
   -4.6431    1.4226   -3.3722 N   0  0  0  0  0  0  0  0  0  0  0  0
   -3.7897    0.9643   -3.6847 H   0  0  0  0  0  0  0  0  0  0  0  0
   -5.1952    1.9256   -4.0644 H   0  0  0  0  0  0  0  0  0  0  0  0
   -5.7429    2.6545   -1.6799 N   0  0  0  0  0  0  0  0  0  0  0  0
   -5.9021    2.8304   -0.6896 H   0  0  0  0  0  0  0  0  0  0  0  0
   -6.5178    2.8013   -2.3245 H   0  0  0  0  0  0  0  0  0  0  0  0
    0.2139   -1.4530    1.6106 C   0  0  0  0  0  0  0  0  0  0  0  0
    1.4156   -1.2551    1.7197 O   0  0  0  0  0  0  0  0  0  0  0  0
   -0.6248   -1.0542    2.6373 N   0  0  0  0  0  0  0  0  0  0  0  0
   -1.5707   -1.4160    2.5766 H   0  0  0  0  0  0  0  0  0  0  0  0
   -0.1089   -0.7289    3.9636 C   0  0  0  0  0  0  0  0  0  0  0  0
    0.5908    0.1122    3.9096 H   0  0  0  0  0  0  0  0  0  0  0  0
   -0.9284   -0.4509    4.6333 H   0  0  0  0  0  0  0  0  0  0  0  0
    0.4133   -1.5913    4.3926 H   0  0  0  0  0  0  0  0  0  0  0  0
  1  2  1  0  0  0  0
  2  3  1  0  0  0  0
  2  4  1  0  0  0  0
  2  5  1  0  0  0  0
  5  6  2  0  0  0  0
  5  7  1  0  0  0  0
  7  8  1  0  0  0  0
  7  9  1  0  0  0  0
  9 10  1  0  0  0  0
  9 11  1  0  0  0  0
  9 29  1  0  0  0  0
 11 12  1  0  0  0  0
 11 13  1  0  0  0  0
 11 14  1  0  0  0  0
 14 15  1  0  0  0  0
 14 16  1  0  0  0  0
 14 17  1  0  0  0  0
 17 18  1  0  0  0  0
 17 19  1  0  0  0  0
 17 20  1  0  0  0  0
 20 21  1  0  0  0  0
 20 22  2  0  0  0  0
 22 23  1  0  0  0  0
 22 26  1  0  0  0  0
 23 24  1  0  0  0  0
 23 25  1  0  0  0  0
 26 27  1  0  0  0  0
 26 28  1  0  0  0  0
 29 30  2  0  0  0  0
 29 31  1  0  0  0  0
 31 32  1  0  0  0  0
 31 33  1  0  0  0  0
 33 34  1  0  0  0  0
 33 35  1  0  0  0  0
 33 36  1  0  0  0  0
M  CHG  1  20   1
M  END
$$$$

  -OEChem-04042215563D

 36 35  0     1  0  0  0  0  0999 V2000
   -2.6157   -5.7608    1.0989 H   0  0  0  0  0  0  0  0  0  0  0  0
   -2.7664   -4.8178    0.5646 C   0  0  0  0  0  0  0  0  0  0  0  0
   -3.6917   -4.3589    0.9208 H   0  0  0  0  0  0  0  0  0  0  0  0
   -2.8559   -5.0329   -0.5029 H   0  0  0  0  0  0  0  0  0  0  0  0
   -1.5925   -3.8892    0.8121 C   0  0  0  0  0  0  0  0  0  0  0  0
   -0.6673   -4.2610    1.5079 O   0  0  0  0  0  0  0  0  0  0  0  0
   -1.5902   -2.6164    0.2669 N   0  0  0  0  0  0  0  0  0  0  0  0
   -2.3132   -2.4446   -0.4217 H   0  0  0  0  0  0  0  0  0  0  0  0
   -0.3799   -1.7674    0.2140 C   0  0  1  0  0  0  0  0  0  0  0  0
    0.3948   -2.3296   -0.3215 H   0  0  0  0  0  0  0  0  0  0  0  0
   -0.6219   -0.4553   -0.5669 C   0  0  0  0  0  0  0  0  0  0  0  0
    0.2217    0.2192   -0.3771 H   0  0  0  0  0  0  0  0  0  0  0  0
   -0.5975   -0.6822   -1.6379 H   0  0  0  0  0  0  0  0  0  0  0  0
   -1.9314    0.2864   -0.2310 C   0  0  0  0  0  0  0  0  0  0  0  0
   -2.3301   -0.0485    0.7317 H   0  0  0  0  0  0  0  0  0  0  0  0
   -1.6994    1.3529   -0.1314 H   0  0  0  0  0  0  0  0  0  0  0  0
   -2.9748    0.1127   -1.3362 C   0  0  0  0  0  0  0  0  0  0  0  0
   -2.5265    0.4056   -2.2919 H   0  0  0  0  0  0  0  0  0  0  0  0
   -3.2690   -0.9401   -1.3999 H   0  0  0  0  0  0  0  0  0  0  0  0
   -4.1526    0.9544   -1.0496 N   0  3  0  0  0  0  0  0  0  0  0  0
   -4.2730    1.2711   -0.0879 H   0  0  0  0  0  0  0  0  0  0  0  0
   -5.0134    1.3334   -1.9515 C   0  0  0  0  0  0  0  0  0  0  0  0
   -4.8944    0.9687   -3.2736 N   0  0  0  0  0  0  0  0  0  0  0  0
   -4.0208    0.5429   -3.5755 H   0  0  0  0  0  0  0  0  0  0  0  0
   -5.4460    1.4691   -3.9682 H   0  0  0  0  0  0  0  0  0  0  0  0
   -6.0772    2.1233   -1.5849 N   0  0  0  0  0  0  0  0  0  0  0  0
   -6.2716    2.2661   -0.5954 H   0  0  0  0  0  0  0  0  0  0  0  0
   -6.8398    2.2561   -2.2471 H   0  0  0  0  0  0  0  0  0  0  0  0
    0.2382   -1.4394    1.5954 C   0  0  0  0  0  0  0  0  0  0  0  0
    1.4361   -1.2023    1.6583 O   0  0  0  0  0  0  0  0  0  0  0  0
   -0.5729   -1.0572    2.6503 N   0  0  0  0  0  0  0  0  0  0  0  0
   -1.5078   -1.4507    2.6306 H   0  0  0  0  0  0  0  0  0  0  0  0
   -0.0158   -0.7034    3.9528 C   0  0  0  0  0  0  0  0  0  0  0  0
    0.6551    0.1578    3.8636 H   0  0  0  0  0  0  0  0  0  0  0  0
   -0.8165   -0.4430    4.6515 H   0  0  0  0  0  0  0  0  0  0  0  0
    0.5490   -1.5449    4.3691 H   0  0  0  0  0  0  0  0  0  0  0  0
  1  2  1  0  0  0  0
  2  3  1  0  0  0  0
  2  4  1  0  0  0  0
  2  5  1  0  0  0  0
  5  6  2  0  0  0  0
  5  7  1  0  0  0  0
  7  8  1  0  0  0  0
  7  9  1  0  0  0  0
  9 10  1  0  0  0  0
  9 11  1  0  0  0  0
  9 29  1  0  0  0  0
 11 12  1  0  0  0  0
 11 13  1  0  0  0  0
 11 14  1  0  0  0  0
 14 15  1  0  0  0  0
 14 16  1  0  0  0  0
 14 17  1  0  0  0  0
 17 18  1  0  0  0  0
 17 19  1  0  0  0  0
 17 20  1  0  0  0  0
 20 21  1  0  0  0  0
 20 22  2  0  0  0  0
 22 23  1  0  0  0  0
 22 26  1  0  0  0  0
 23 24  1  0  0  0  0
 23 25  1  0  0  0  0
 26 27  1  0  0  0  0
 26 28  1  0  0  0  0
 29 30  2  0  0  0  0
 29 31  1  0  0  0  0
 31 32  1  0  0  0  0
 31 33  1  0  0  0  0
 33 34  1  0  0  0  0
 33 35  1  0  0  0  0
 33 36  1  0  0  0  0
M  CHG  1  20   1
M  END
$$$$

  -OEChem-04042215563D

 36 35  0     1  0  0  0  0  0999 V2000
   -2.1917   -5.9651    1.5641 H   0  0  0  0  0  0  0  0  0  0  0  0
   -2.4446   -5.1299    0.9036 C   0  0  0  0  0  0  0  0  0  0  0  0
   -3.4314   -4.7524    1.1807 H   0  0  0  0  0  0  0  0  0  0  0  0
   -2.4735   -5.4961   -0.1254 H   0  0  0  0  0  0  0  0  0  0  0  0
   -1.4064   -4.0320    1.0356 C   0  0  0  0  0  0  0  0  0  0  0  0
   -0.4313   -4.2086    1.7398 O   0  0  0  0  0  0  0  0  0  0  0  0
   -1.5862   -2.8275    0.3765 N   0  0  0  0  0  0  0  0  0  0  0  0
   -2.3246   -2.8429   -0.3172 H   0  0  0  0  0  0  0  0  0  0  0  0
   -0.4797   -1.8718    0.1522 C   0  0  1  0  0  0  0  0  0  0  0  0
    0.3105   -2.4022   -0.3923 H   0  0  0  0  0  0  0  0  0  0  0  0
   -0.9114   -0.6632   -0.7127 C   0  0  0  0  0  0  0  0  0  0  0  0
   -0.1287    0.1020   -0.6458 H   0  0  0  0  0  0  0  0  0  0  0  0
   -0.9451   -0.9793   -1.7605 H   0  0  0  0  0  0  0  0  0  0  0  0
   -2.2594   -0.0162   -0.3407 C   0  0  0  0  0  0  0  0  0  0  0  0
   -2.4225   -0.0728    0.7402 H   0  0  0  0  0  0  0  0  0  0  0  0
   -2.2032    1.0461   -0.6010 H   0  0  0  0  0  0  0  0  0  0  0  0
   -3.4376   -0.6431   -1.0881 C   0  0  0  0  0  0  0  0  0  0  0  0
   -3.2267   -0.6693   -2.1626 H   0  0  0  0  0  0  0  0  0  0  0  0
   -3.5744   -1.6769   -0.7562 H   0  0  0  0  0  0  0  0  0  0  0  0
   -4.6672    0.1290   -0.8202 N   0  3  0  0  0  0  0  0  0  0  0  0
   -5.1715   -0.0897    0.0386 H   0  0  0  0  0  0  0  0  0  0  0  0
   -5.1246    1.0723   -1.5946 C   0  0  0  0  0  0  0  0  0  0  0  0
   -4.4736    1.4538   -2.7462 N   0  0  0  0  0  0  0  0  0  0  0  0
   -3.5258    1.1132   -2.8943 H   0  0  0  0  0  0  0  0  0  0  0  0
   -4.7397    2.3314   -3.1892 H   0  0  0  0  0  0  0  0  0  0  0  0
   -6.2878    1.7203   -1.2538 N   0  0  0  0  0  0  0  0  0  0  0  0
   -6.8662    1.3367   -0.5087 H   0  0  0  0  0  0  0  0  0  0  0  0
   -6.7378    2.3124   -1.9498 H   0  0  0  0  0  0  0  0  0  0  0  0
    0.1944   -1.3483    1.4451 C   0  0  0  0  0  0  0  0  0  0  0  0
    1.3589   -0.9802    1.3855 O   0  0  0  0  0  0  0  0  0  0  0  0
   -0.5770   -0.9455    2.5219 N   0  0  0  0  0  0  0  0  0  0  0  0
   -1.4581   -1.4391    2.6188 H   0  0  0  0  0  0  0  0  0  0  0  0
    0.0257   -0.3946    3.7319 C   0  0  0  0  0  0  0  0  0  0  0  0
    0.5876    0.5169    3.5014 H   0  0  0  0  0  0  0  0  0  0  0  0
   -0.7487   -0.1438    4.4629 H   0  0  0  0  0  0  0  0  0  0  0  0
    0.7088   -1.1217    4.1843 H   0  0  0  0  0  0  0  0  0  0  0  0
  1  2  1  0  0  0  0
  2  3  1  0  0  0  0
  2  4  1  0  0  0  0
  2  5  1  0  0  0  0
  5  6  2  0  0  0  0
  5  7  1  0  0  0  0
  7  8  1  0  0  0  0
  7  9  1  0  0  0  0
  9 10  1  0  0  0  0
  9 11  1  0  0  0  0
  9 29  1  0  0  0  0
 11 12  1  0  0  0  0
 11 13  1  0  0  0  0
 11 14  1  0  0  0  0
 14 15  1  0  0  0  0
 14 16  1  0  0  0  0
 14 17  1  0  0  0  0
 17 18  1  0  0  0  0
 17 19  1  0  0  0  0
 17 20  1  0  0  0  0
 20 21  1  0  0  0  0
 20 22  2  0  0  0  0
 22 23  1  0  0  0  0
 22 26  1  0  0  0  0
 23 24  1  0  0  0  0
 23 25  1  0  0  0  0
 26 27  1  0  0  0  0
 26 28  1  0  0  0  0
 29 30  2  0  0  0  0
 29 31  1  0  0  0  0
 31 32  1  0  0  0  0
 31 33  1  0  0  0  0
 33 34  1  0  0  0  0
 33 35  1  0  0  0  0
 33 36  1  0  0  0  0
M  CHG  1  20   1
M  END
$$$$

  -OEChem-04042215563D

 36 35  0     1  0  0  0  0  0999 V2000
   -1.8626   -6.1392    1.4392 H   0  0  0  0  0  0  0  0  0  0  0  0
   -2.2800   -5.2410    0.9738 C   0  0  0  0  0  0  0  0  0  0  0  0
   -3.1952   -4.9663    1.5028 H   0  0  0  0  0  0  0  0  0  0  0  0
   -2.5184   -5.4681   -0.0678 H   0  0  0  0  0  0  0  0  0  0  0  0
   -1.2752   -4.1070    1.0453 C   0  0  0  0  0  0  0  0  0  0  0  0
   -0.2341   -4.2671    1.6520 O   0  0  0  0  0  0  0  0  0  0  0  0
   -1.5553   -2.8931    0.4388 N   0  0  0  0  0  0  0  0  0  0  0  0
   -2.3437   -2.9223   -0.1969 H   0  0  0  0  0  0  0  0  0  0  0  0
   -0.5087   -1.8853    0.1608 C   0  0  1  0  0  0  0  0  0  0  0  0
    0.2598   -2.3728   -0.4513 H   0  0  0  0  0  0  0  0  0  0  0  0
   -1.0209   -0.6572   -0.6337 C   0  0  0  0  0  0  0  0  0  0  0  0
   -0.2452    0.1172   -0.6048 H   0  0  0  0  0  0  0  0  0  0  0  0
   -1.1211   -0.9546   -1.6824 H   0  0  0  0  0  0  0  0  0  0  0  0
   -2.3521   -0.0215   -0.1873 C   0  0  0  0  0  0  0  0  0  0  0  0
   -2.3398    0.1347    0.8966 H   0  0  0  0  0  0  0  0  0  0  0  0
   -2.4122    0.9681   -0.6525 H   0  0  0  0  0  0  0  0  0  0  0  0
   -3.5920   -0.8290   -0.5792 C   0  0  0  0  0  0  0  0  0  0  0  0
   -3.5189   -1.1445   -1.6255 H   0  0  0  0  0  0  0  0  0  0  0  0
   -3.6509   -1.7323    0.0358 H   0  0  0  0  0  0  0  0  0  0  0  0
   -4.8087   -0.0174   -0.3730 N   0  3  0  0  0  0  0  0  0  0  0  0
   -5.2350   -0.0520    0.5530 H   0  0  0  0  0  0  0  0  0  0  0  0
   -5.3507    0.7367   -1.2884 C   0  0  0  0  0  0  0  0  0  0  0  0
   -4.8075    0.8592   -2.5476 N   0  0  0  0  0  0  0  0  0  0  0  0
   -3.8689    0.4955   -2.6991 H   0  0  0  0  0  0  0  0  0  0  0  0
   -5.1253    1.6213   -3.1438 H   0  0  0  0  0  0  0  0  0  0  0  0
   -6.4928    1.4440   -0.9965 N   0  0  0  0  0  0  0  0  0  0  0  0
   -6.9927    1.2442   -0.1321 H   0  0  0  0  0  0  0  0  0  0  0  0
   -7.0103    1.8761   -1.7602 H   0  0  0  0  0  0  0  0  0  0  0  0
    0.2347   -1.3759    1.4210 C   0  0  0  0  0  0  0  0  0  0  0  0
    1.3773   -0.9588    1.2954 O   0  0  0  0  0  0  0  0  0  0  0  0
   -0.4756   -1.0416    2.5616 N   0  0  0  0  0  0  0  0  0  0  0  0
   -1.3305   -1.5707    2.6990 H   0  0  0  0  0  0  0  0  0  0  0  0
    0.1885   -0.5095    3.7479 C   0  0  0  0  0  0  0  0  0  0  0  0
    0.6821    0.4409    3.5191 H   0  0  0  0  0  0  0  0  0  0  0  0
   -0.5395   -0.3343    4.5455 H   0  0  0  0  0  0  0  0  0  0  0  0
    0.9416   -1.2157    4.1142 H   0  0  0  0  0  0  0  0  0  0  0  0
  1  2  1  0  0  0  0
  2  3  1  0  0  0  0
  2  4  1  0  0  0  0
  2  5  1  0  0  0  0
  5  6  2  0  0  0  0
  5  7  1  0  0  0  0
  7  8  1  0  0  0  0
  7  9  1  0  0  0  0
  9 10  1  0  0  0  0
  9 11  1  0  0  0  0
  9 29  1  0  0  0  0
 11 12  1  0  0  0  0
 11 13  1  0  0  0  0
 11 14  1  0  0  0  0
 14 15  1  0  0  0  0
 14 16  1  0  0  0  0
 14 17  1  0  0  0  0
 17 18  1  0  0  0  0
 17 19  1  0  0  0  0
 17 20  1  0  0  0  0
 20 21  1  0  0  0  0
 20 22  2  0  0  0  0
 22 23  1  0  0  0  0
 22 26  1  0  0  0  0
 23 24  1  0  0  0  0
 23 25  1  0  0  0  0
 26 27  1  0  0  0  0
 26 28  1  0  0  0  0
 29 30  2  0  0  0  0
 29 31  1  0  0  0  0
 31 32  1  0  0  0  0
 31 33  1  0  0  0  0
 33 34  1  0  0  0  0
 33 35  1  0  0  0  0
 33 36  1  0  0  0  0
M  CHG  1  20   1
M  END
$$$$

  -OEChem-04042215563D

 36 35  0     1  0  0  0  0  0999 V2000
   -1.7010   -6.1946    1.3580 H   0  0  0  0  0  0  0  0  0  0  0  0
   -2.1394   -5.2961    0.9128 C   0  0  0  0  0  0  0  0  0  0  0  0
   -3.0660   -5.0601    1.4410 H   0  0  0  0  0  0  0  0  0  0  0  0
   -2.3637   -5.5023   -0.1364 H   0  0  0  0  0  0  0  0  0  0  0  0
   -1.1662   -4.1375    1.0206 C   0  0  0  0  0  0  0  0  0  0  0  0
   -0.1217   -4.2847    1.6246 O   0  0  0  0  0  0  0  0  0  0  0  0
   -1.4834   -2.9151    0.4514 N   0  0  0  0  0  0  0  0  0  0  0  0
   -2.2737   -2.9534   -0.1817 H   0  0  0  0  0  0  0  0  0  0  0  0
   -0.4655   -1.8770    0.1785 C   0  0  1  0  0  0  0  0  0  0  0  0
    0.3001   -2.3296   -0.4628 H   0  0  0  0  0  0  0  0  0  0  0  0
   -1.0093   -0.6243   -0.5598 C   0  0  0  0  0  0  0  0  0  0  0  0
   -0.2344    0.1515   -0.5444 H   0  0  0  0  0  0  0  0  0  0  0  0
   -1.1418   -0.9061   -1.6092 H   0  0  0  0  0  0  0  0  0  0  0  0
   -2.3346    0.0113   -0.0867 C   0  0  0  0  0  0  0  0  0  0  0  0
   -2.2025    0.3637    0.9421 H   0  0  0  0  0  0  0  0  0  0  0  0
   -2.5140    0.8952   -0.7074 H   0  0  0  0  0  0  0  0  0  0  0  0
   -3.5660   -0.8942   -0.1416 C   0  0  0  0  0  0  0  0  0  0  0  0
   -3.6338   -1.3780   -1.1215 H   0  0  0  0  0  0  0  0  0  0  0  0
   -3.4748   -1.6806    0.6141 H   0  0  0  0  0  0  0  0  0  0  0  0
   -4.7830   -0.1044    0.1321 N   0  3  0  0  0  0  0  0  0  0  0  0
   -5.0278    0.0366    1.1122 H   0  0  0  0  0  0  0  0  0  0  0  0
   -5.5461    0.4161   -0.7875 C   0  0  0  0  0  0  0  0  0  0  0  0
   -5.2531    0.3068   -2.1280 N   0  0  0  0  0  0  0  0  0  0  0  0
   -4.3227   -0.0152   -2.3858 H   0  0  0  0  0  0  0  0  0  0  0  0
   -5.7449    0.9123   -2.7827 H   0  0  0  0  0  0  0  0  0  0  0  0
   -6.6768    1.1049   -0.4168 N   0  0  0  0  0  0  0  0  0  0  0  0
   -6.9939    1.0499    0.5495 H   0  0  0  0  0  0  0  0  0  0  0  0
   -7.3633    1.3393   -1.1321 H   0  0  0  0  0  0  0  0  0  0  0  0
    0.2883   -1.3869    1.4395 C   0  0  0  0  0  0  0  0  0  0  0  0
    1.4235   -0.9509    1.3112 O   0  0  0  0  0  0  0  0  0  0  0  0
   -0.4109   -1.1010    2.5995 N   0  0  0  0  0  0  0  0  0  0  0  0
   -1.2520   -1.6524    2.7323 H   0  0  0  0  0  0  0  0  0  0  0  0
    0.2644   -0.5995    3.7928 C   0  0  0  0  0  0  0  0  0  0  0  0
    0.7437    0.3639    3.5881 H   0  0  0  0  0  0  0  0  0  0  0  0
   -0.4540   -0.4593    4.6060 H   0  0  0  0  0  0  0  0  0  0  0  0
    1.0314   -1.3078    4.1250 H   0  0  0  0  0  0  0  0  0  0  0  0
  1  2  1  0  0  0  0
  2  3  1  0  0  0  0
  2  4  1  0  0  0  0
  2  5  1  0  0  0  0
  5  6  2  0  0  0  0
  5  7  1  0  0  0  0
  7  8  1  0  0  0  0
  7  9  1  0  0  0  0
  9 10  1  0  0  0  0
  9 11  1  0  0  0  0
  9 29  1  0  0  0  0
 11 12  1  0  0  0  0
 11 13  1  0  0  0  0
 11 14  1  0  0  0  0
 14 15  1  0  0  0  0
 14 16  1  0  0  0  0
 14 17  1  0  0  0  0
 17 18  1  0  0  0  0
 17 19  1  0  0  0  0
 17 20  1  0  0  0  0
 20 21  1  0  0  0  0
 20 22  2  0  0  0  0
 22 23  1  0  0  0  0
 22 26  1  0  0  0  0
 23 24  1  0  0  0  0
 23 25  1  0  0  0  0
 26 27  1  0  0  0  0
 26 28  1  0  0  0  0
 29 30  2  0  0  0  0
 29 31  1  0  0  0  0
 31 32  1  0  0  0  0
 31 33  1  0  0  0  0
 33 34  1  0  0  0  0
 33 35  1  0  0  0  0
 33 36  1  0  0  0  0
M  CHG  1  20   1
M  END
$$$$

  -OEChem-04042215563D

 36 35  0     1  0  0  0  0  0999 V2000
   -1.9112   -6.1041    0.7507 H   0  0  0  0  0  0  0  0  0  0  0  0
   -2.2169   -5.1496    0.3112 C   0  0  0  0  0  0  0  0  0  0  0  0
   -3.2356   -4.9256    0.6351 H   0  0  0  0  0  0  0  0  0  0  0  0
   -2.1951   -5.2469   -0.7770 H   0  0  0  0  0  0  0  0  0  0  0  0
   -1.2712   -4.0505    0.7574 C   0  0  0  0  0  0  0  0  0  0  0  0
   -0.4432   -4.2876    1.6146 O   0  0  0  0  0  0  0  0  0  0  0  0
   -1.3886   -2.7786    0.2204 N   0  0  0  0  0  0  0  0  0  0  0  0
   -1.9790   -2.7481   -0.6034 H   0  0  0  0  0  0  0  0  0  0  0  0
   -0.2654   -1.8160    0.2264 C   0  0  1  0  0  0  0  0  0  0  0  0
    0.5791   -2.2848   -0.2931 H   0  0  0  0  0  0  0  0  0  0  0  0
   -0.5733   -0.4715   -0.4867 C   0  0  0  0  0  0  0  0  0  0  0  0
    0.2494    0.2267   -0.2922 H   0  0  0  0  0  0  0  0  0  0  0  0
   -0.5447   -0.6861   -1.5600 H   0  0  0  0  0  0  0  0  0  0  0  0
   -1.9069    0.2691   -0.2256 C   0  0  0  0  0  0  0  0  0  0  0  0
   -1.8173    0.7552    0.7527 H   0  0  0  0  0  0  0  0  0  0  0  0
   -1.9916    1.0626   -0.9760 H   0  0  0  0  0  0  0  0  0  0  0  0
   -3.2008   -0.5455   -0.2233 C   0  0  0  0  0  0  0  0  0  0  0  0
   -3.3080   -1.0603   -1.1839 H   0  0  0  0  0  0  0  0  0  0  0  0
   -3.1650   -1.2879    0.5805 H   0  0  0  0  0  0  0  0  0  0  0  0
   -4.3328    0.3755   -0.0025 N   0  3  0  0  0  0  0  0  0  0  0  0
   -4.1092    1.3678    0.0704 H   0  0  0  0  0  0  0  0  0  0  0  0
   -5.5725    0.0006    0.1306 C   0  0  0  0  0  0  0  0  0  0  0  0
   -5.9504   -1.3186    0.0295 N   0  0  0  0  0  0  0  0  0  0  0  0
   -5.2758   -1.9769   -0.3514 H   0  0  0  0  0  0  0  0  0  0  0  0
   -6.9404   -1.5324   -0.0792 H   0  0  0  0  0  0  0  0  0  0  0  0
   -6.5409    0.9446    0.3771 N   0  0  0  0  0  0  0  0  0  0  0  0
   -6.2555    1.8918    0.6202 H   0  0  0  0  0  0  0  0  0  0  0  0
   -7.4639    0.6330    0.6754 H   0  0  0  0  0  0  0  0  0  0  0  0
    0.2524   -1.4591    1.6426 C   0  0  0  0  0  0  0  0  0  0  0  0
    1.4191   -1.1177    1.7722 O   0  0  0  0  0  0  0  0  0  0  0  0
   -0.6442   -1.1784    2.6599 N   0  0  0  0  0  0  0  0  0  0  0  0
   -1.5238   -1.6784    2.5910 H   0  0  0  0  0  0  0  0  0  0  0  0
   -0.1874   -0.7983    3.9937 C   0  0  0  0  0  0  0  0  0  0  0  0
    0.4056    0.1219    3.9512 H   0  0  0  0  0  0  0  0  0  0  0  0
   -1.0425   -0.6243    4.6536 H   0  0  0  0  0  0  0  0  0  0  0  0
    0.4296   -1.5930    4.4274 H   0  0  0  0  0  0  0  0  0  0  0  0
  1  2  1  0  0  0  0
  2  3  1  0  0  0  0
  2  4  1  0  0  0  0
  2  5  1  0  0  0  0
  5  6  2  0  0  0  0
  5  7  1  0  0  0  0
  7  8  1  0  0  0  0
  7  9  1  0  0  0  0
  9 10  1  0  0  0  0
  9 11  1  0  0  0  0
  9 29  1  0  0  0  0
 11 12  1  0  0  0  0
 11 13  1  0  0  0  0
 11 14  1  0  0  0  0
 14 15  1  0  0  0  0
 14 16  1  0  0  0  0
 14 17  1  0  0  0  0
 17 18  1  0  0  0  0
 17 19  1  0  0  0  0
 17 20  1  0  0  0  0
 20 21  1  0  0  0  0
 20 22  2  0  0  0  0
 22 23  1  0  0  0  0
 22 26  1  0  0  0  0
 23 24  1  0  0  0  0
 23 25  1  0  0  0  0
 26 27  1  0  0  0  0
 26 28  1  0  0  0  0
 29 30  2  0  0  0  0
 29 31  1  0  0  0  0
 31 32  1  0  0  0  0
 31 33  1  0  0  0  0
 33 34  1  0  0  0  0
 33 35  1  0  0  0  0
 33 36  1  0  0  0  0
M  CHG  1  20   1
M  END
$$$$

  -OEChem-04042215563D

 36 35  0     1  0  0  0  0  0999 V2000
   -1.5528   -6.2562    0.2521 H   0  0  0  0  0  0  0  0  0  0  0  0
   -1.7865   -5.3169   -0.2585 C   0  0  0  0  0  0  0  0  0  0  0  0
   -2.8704   -5.1816   -0.2649 H   0  0  0  0  0  0  0  0  0  0  0  0
   -1.4257   -5.3825   -1.2878 H   0  0  0  0  0  0  0  0  0  0  0  0
   -1.1170   -4.1578    0.4548 C   0  0  0  0  0  0  0  0  0  0  0  0
   -0.4988   -4.3574    1.4828 O   0  0  0  0  0  0  0  0  0  0  0  0
   -1.2853   -2.8659   -0.0150 N   0  0  0  0  0  0  0  0  0  0  0  0
   -1.7180   -2.8334   -0.9340 H   0  0  0  0  0  0  0  0  0  0  0  0
   -0.3232   -1.7756    0.2682 C   0  0  1  0  0  0  0  0  0  0  0  0
    0.6627   -2.0913   -0.0938 H   0  0  0  0  0  0  0  0  0  0  0  0
   -0.6603   -0.4098   -0.3916 C   0  0  0  0  0  0  0  0  0  0  0  0
    0.0304    0.3517   -0.0107 H   0  0  0  0  0  0  0  0  0  0  0  0
   -0.4182   -0.5333   -1.4525 H   0  0  0  0  0  0  0  0  0  0  0  0
   -2.0949    0.1686   -0.3468 C   0  0  0  0  0  0  0  0  0  0  0  0
   -2.1421    0.7969    0.5484 H   0  0  0  0  0  0  0  0  0  0  0  0
   -2.2228    0.8350   -1.2072 H   0  0  0  0  0  0  0  0  0  0  0  0
   -3.2699   -0.8091   -0.3029 C   0  0  0  0  0  0  0  0  0  0  0  0
   -3.3371   -1.3429   -1.2569 H   0  0  0  0  0  0  0  0  0  0  0  0
   -3.1131   -1.5511    0.4857 H   0  0  0  0  0  0  0  0  0  0  0  0
   -4.5254   -0.0817   -0.0363 N   0  3  0  0  0  0  0  0  0  0  0  0
   -5.1015    0.1606   -0.8421 H   0  0  0  0  0  0  0  0  0  0  0  0
   -4.9324    0.2464    1.1585 C   0  0  0  0  0  0  0  0  0  0  0  0
   -4.1857   -0.0188    2.2867 N   0  0  0  0  0  0  0  0  0  0  0  0
   -3.2071   -0.2808    2.1574 H   0  0  0  0  0  0  0  0  0  0  0  0
   -4.4319    0.4631    3.1491 H   0  0  0  0  0  0  0  0  0  0  0  0
   -6.1395    0.8868    1.3082 N   0  0  0  0  0  0  0  0  0  0  0  0
   -6.7705    0.9436    0.5110 H   0  0  0  0  0  0  0  0  0  0  0  0
   -6.5409    0.9604    2.2415 H   0  0  0  0  0  0  0  0  0  0  0  0
   -0.1669   -1.5070    1.7859 C   0  0  0  0  0  0  0  0  0  0  0  0
    0.8525   -0.9651    2.1865 O   0  0  0  0  0  0  0  0  0  0  0  0
   -1.3040   -1.4482    2.5803 N   0  0  0  0  0  0  0  0  0  0  0  0
   -1.9493   -2.1992    2.3468 H   0  0  0  0  0  0  0  0  0  0  0  0
   -1.1822   -1.1267    4.0013 C   0  0  0  0  0  0  0  0  0  0  0  0
   -0.7931   -0.1115    4.1364 H   0  0  0  0  0  0  0  0  0  0  0  0
   -2.1571   -1.1907    4.4934 H   0  0  0  0  0  0  0  0  0  0  0  0
   -0.5003   -1.8283    4.4956 H   0  0  0  0  0  0  0  0  0  0  0  0
  1  2  1  0  0  0  0
  2  3  1  0  0  0  0
  2  4  1  0  0  0  0
  2  5  1  0  0  0  0
  5  6  2  0  0  0  0
  5  7  1  0  0  0  0
  7  8  1  0  0  0  0
  7  9  1  0  0  0  0
  9 10  1  0  0  0  0
  9 11  1  0  0  0  0
  9 29  1  0  0  0  0
 11 12  1  0  0  0  0
 11 13  1  0  0  0  0
 11 14  1  0  0  0  0
 14 15  1  0  0  0  0
 14 16  1  0  0  0  0
 14 17  1  0  0  0  0
 17 18  1  0  0  0  0
 17 19  1  0  0  0  0
 17 20  1  0  0  0  0
 20 21  1  0  0  0  0
 20 22  2  0  0  0  0
 22 23  1  0  0  0  0
 22 26  1  0  0  0  0
 23 24  1  0  0  0  0
 23 25  1  0  0  0  0
 26 27  1  0  0  0  0
 26 28  1  0  0  0  0
 29 30  2  0  0  0  0
 29 31  1  0  0  0  0
 31 32  1  0  0  0  0
 31 33  1  0  0  0  0
 33 34  1  0  0  0  0
 33 35  1  0  0  0  0
 33 36  1  0  0  0  0
M  CHG  1  20   1
M  END
$$$$

  -OEChem-04042215563D

 36 35  0     1  0  0  0  0  0999 V2000
   -1.4467   -6.2595    0.0713 H   0  0  0  0  0  0  0  0  0  0  0  0
   -1.7806   -5.3014   -0.3383 C   0  0  0  0  0  0  0  0  0  0  0  0
   -2.8640   -5.2271   -0.2189 H   0  0  0  0  0  0  0  0  0  0  0  0
   -1.5324   -5.2736   -1.4023 H   0  0  0  0  0  0  0  0  0  0  0  0
   -1.0945   -4.1598    0.3875 C   0  0  0  0  0  0  0  0  0  0  0  0
   -0.4113   -4.3908    1.3667 O   0  0  0  0  0  0  0  0  0  0  0  0
   -1.3138   -2.8512   -0.0095 N   0  0  0  0  0  0  0  0  0  0  0  0
   -1.7982   -2.7801   -0.9002 H   0  0  0  0  0  0  0  0  0  0  0  0
   -0.3617   -1.7562    0.2876 C   0  0  1  0  0  0  0  0  0  0  0  0
    0.6123   -2.0470   -0.1244 H   0  0  0  0  0  0  0  0  0  0  0  0
   -0.7348   -0.3831   -0.3337 C   0  0  0  0  0  0  0  0  0  0  0  0
   -0.0501    0.3792    0.0568 H   0  0  0  0  0  0  0  0  0  0  0  0
   -0.5025   -0.4758   -1.4001 H   0  0  0  0  0  0  0  0  0  0  0  0
   -2.1768    0.1773   -0.2595 C   0  0  0  0  0  0  0  0  0  0  0  0
   -2.1511    0.9820    0.4830 H   0  0  0  0  0  0  0  0  0  0  0  0
   -2.4220    0.6447   -1.2196 H   0  0  0  0  0  0  0  0  0  0  0  0
   -3.3032   -0.7839    0.1254 C   0  0  0  0  0  0  0  0  0  0  0  0
   -3.5314   -1.4376   -0.7231 H   0  0  0  0  0  0  0  0  0  0  0  0
   -2.9880   -1.4207    0.9566 H   0  0  0  0  0  0  0  0  0  0  0  0
   -4.5048   -0.0234    0.5192 N   0  3  0  0  0  0  0  0  0  0  0  0
   -5.1937    0.1666   -0.2085 H   0  0  0  0  0  0  0  0  0  0  0  0
   -4.7147    0.4222    1.7266 C   0  0  0  0  0  0  0  0  0  0  0  0
   -3.8047    0.2380    2.7452 N   0  0  0  0  0  0  0  0  0  0  0  0
   -2.8717   -0.1010    2.5026 H   0  0  0  0  0  0  0  0  0  0  0  0
   -3.8963    0.8047    3.5858 H   0  0  0  0  0  0  0  0  0  0  0  0
   -5.8731    1.1092    2.0009 N   0  0  0  0  0  0  0  0  0  0  0  0
   -6.6233    1.1066    1.3122 H   0  0  0  0  0  0  0  0  0  0  0  0
   -6.1180    1.2835    2.9741 H   0  0  0  0  0  0  0  0  0  0  0  0
   -0.1282   -1.5441    1.8045 C   0  0  0  0  0  0  0  0  0  0  0  0
    0.9014   -0.9953    2.1676 O   0  0  0  0  0  0  0  0  0  0  0  0
   -1.2117   -1.5391    2.6716 N   0  0  0  0  0  0  0  0  0  0  0  0
   -1.8768   -2.2711    2.4315 H   0  0  0  0  0  0  0  0  0  0  0  0
   -0.9936   -1.3210    4.1014 C   0  0  0  0  0  0  0  0  0  0  0  0
   -0.5929   -0.3179    4.2843 H   0  0  0  0  0  0  0  0  0  0  0  0
   -1.9333   -1.4227    4.6523 H   0  0  0  0  0  0  0  0  0  0  0  0
   -0.2823   -2.0559    4.4959 H   0  0  0  0  0  0  0  0  0  0  0  0
  1  2  1  0  0  0  0
  2  3  1  0  0  0  0
  2  4  1  0  0  0  0
  2  5  1  0  0  0  0
  5  6  2  0  0  0  0
  5  7  1  0  0  0  0
  7  8  1  0  0  0  0
  7  9  1  0  0  0  0
  9 10  1  0  0  0  0
  9 11  1  0  0  0  0
  9 29  1  0  0  0  0
 11 12  1  0  0  0  0
 11 13  1  0  0  0  0
 11 14  1  0  0  0  0
 14 15  1  0  0  0  0
 14 16  1  0  0  0  0
 14 17  1  0  0  0  0
 17 18  1  0  0  0  0
 17 19  1  0  0  0  0
 17 20  1  0  0  0  0
 20 21  1  0  0  0  0
 20 22  2  0  0  0  0
 22 23  1  0  0  0  0
 22 26  1  0  0  0  0
 23 24  1  0  0  0  0
 23 25  1  0  0  0  0
 26 27  1  0  0  0  0
 26 28  1  0  0  0  0
 29 30  2  0  0  0  0
 29 31  1  0  0  0  0
 31 32  1  0  0  0  0
 31 33  1  0  0  0  0
 33 34  1  0  0  0  0
 33 35  1  0  0  0  0
 33 36  1  0  0  0  0
M  CHG  1  20   1
M  END
$$$$

  -OEChem-04042215563D

 36 35  0     1  0  0  0  0  0999 V2000
   -1.4420   -6.1787   -0.1669 H   0  0  0  0  0  0  0  0  0  0  0  0
   -1.7722   -5.1986   -0.5247 C   0  0  0  0  0  0  0  0  0  0  0  0
   -2.8549   -5.1263   -0.3986 H   0  0  0  0  0  0  0  0  0  0  0  0
   -1.5274   -5.1156   -1.5866 H   0  0  0  0  0  0  0  0  0  0  0  0
   -1.0787   -4.0999    0.2576 C   0  0  0  0  0  0  0  0  0  0  0  0
   -0.3393   -4.3852    1.1805 O   0  0  0  0  0  0  0  0  0  0  0  0
   -1.3488   -2.7713   -0.0212 N   0  0  0  0  0  0  0  0  0  0  0  0
   -1.8813   -2.6382   -0.8766 H   0  0  0  0  0  0  0  0  0  0  0  0
   -0.4138   -1.6806    0.3323 C   0  0  1  0  0  0  0  0  0  0  0  0
    0.5503   -1.9341   -0.1255 H   0  0  0  0  0  0  0  0  0  0  0  0
   -0.8208   -0.2980   -0.2420 C   0  0  0  0  0  0  0  0  0  0  0  0
   -0.1680    0.4615    0.2036 H   0  0  0  0  0  0  0  0  0  0  0  0
   -0.5639   -0.3240   -1.3064 H   0  0  0  0  0  0  0  0  0  0  0  0
   -2.2803    0.2162   -0.1579 C   0  0  0  0  0  0  0  0  0  0  0  0
   -2.2437    1.1696    0.3805 H   0  0  0  0  0  0  0  0  0  0  0  0
   -2.6332    0.4439   -1.1697 H   0  0  0  0  0  0  0  0  0  0  0  0
   -3.3137   -0.6916    0.5173 C   0  0  0  0  0  0  0  0  0  0  0  0
   -2.8501   -1.2636    1.3220 H   0  0  0  0  0  0  0  0  0  0  0  0
   -3.6961   -1.4131   -0.2129 H   0  0  0  0  0  0  0  0  0  0  0  0
   -4.4210    0.1147    1.0665 N   0  3  0  0  0  0  0  0  0  0  0  0
   -5.2242    0.2762    0.4595 H   0  0  0  0  0  0  0  0  0  0  0  0
   -4.4022    0.6515    2.2552 C   0  0  0  0  0  0  0  0  0  0  0  0
   -3.3297    0.5093    3.1082 N   0  0  0  0  0  0  0  0  0  0  0  0
   -2.4788    0.0680    2.7534 H   0  0  0  0  0  0  0  0  0  0  0  0
   -3.2426    1.1436    3.8996 H   0  0  0  0  0  0  0  0  0  0  0  0
   -5.4751    1.3988    2.6785 N   0  0  0  0  0  0  0  0  0  0  0  0
   -6.3433    1.3591    2.1480 H   0  0  0  0  0  0  0  0  0  0  0  0
   -5.5282    1.6566    3.6624 H   0  0  0  0  0  0  0  0  0  0  0  0
   -0.1036   -1.5596    1.8470 C   0  0  0  0  0  0  0  0  0  0  0  0
    0.9244   -0.9912    2.1832 O   0  0  0  0  0  0  0  0  0  0  0  0
   -1.1240   -1.6402    2.7828 N   0  0  0  0  0  0  0  0  0  0  0  0
   -1.7989   -2.3613    2.5362 H   0  0  0  0  0  0  0  0  0  0  0  0
   -0.8198   -1.5181    4.2087 C   0  0  0  0  0  0  0  0  0  0  0  0
   -0.4295   -0.5209    4.4395 H   0  0  0  0  0  0  0  0  0  0  0  0
   -1.7216   -1.6820    4.8067 H   0  0  0  0  0  0  0  0  0  0  0  0
   -0.0703   -2.2610    4.5050 H   0  0  0  0  0  0  0  0  0  0  0  0
  1  2  1  0  0  0  0
  2  3  1  0  0  0  0
  2  4  1  0  0  0  0
  2  5  1  0  0  0  0
  5  6  2  0  0  0  0
  5  7  1  0  0  0  0
  7  8  1  0  0  0  0
  7  9  1  0  0  0  0
  9 10  1  0  0  0  0
  9 11  1  0  0  0  0
  9 29  1  0  0  0  0
 11 12  1  0  0  0  0
 11 13  1  0  0  0  0
 11 14  1  0  0  0  0
 14 15  1  0  0  0  0
 14 16  1  0  0  0  0
 14 17  1  0  0  0  0
 17 18  1  0  0  0  0
 17 19  1  0  0  0  0
 17 20  1  0  0  0  0
 20 21  1  0  0  0  0
 20 22  2  0  0  0  0
 22 23  1  0  0  0  0
 22 26  1  0  0  0  0
 23 24  1  0  0  0  0
 23 25  1  0  0  0  0
 26 27  1  0  0  0  0
 26 28  1  0  0  0  0
 29 30  2  0  0  0  0
 29 31  1  0  0  0  0
 31 32  1  0  0  0  0
 31 33  1  0  0  0  0
 33 34  1  0  0  0  0
 33 35  1  0  0  0  0
 33 36  1  0  0  0  0
M  CHG  1  20   1
M  END
$$$$

  -OEChem-04042215563D

 36 35  0     1  0  0  0  0  0999 V2000
   -1.2695   -6.1672   -0.0530 H   0  0  0  0  0  0  0  0  0  0  0  0
   -1.6784   -5.2093   -0.3883 C   0  0  0  0  0  0  0  0  0  0  0  0
   -2.7528   -5.1984   -0.1910 H   0  0  0  0  0  0  0  0  0  0  0  0
   -1.5094   -5.1164   -1.4638 H   0  0  0  0  0  0  0  0  0  0  0  0
   -0.9990   -4.0689    0.3452 C   0  0  0  0  0  0  0  0  0  0  0  0
   -0.1750   -4.3045    1.2090 O   0  0  0  0  0  0  0  0  0  0  0  0
   -1.3676   -2.7596    0.0901 N   0  0  0  0  0  0  0  0  0  0  0  0
   -1.9706   -2.6538   -0.7212 H   0  0  0  0  0  0  0  0  0  0  0  0
   -0.4911   -1.6122    0.4071 C   0  0  1  0  0  0  0  0  0  0  0  0
    0.4691   -1.8307   -0.0766 H   0  0  0  0  0  0  0  0  0  0  0  0
   -0.9759   -0.2852   -0.2314 C   0  0  0  0  0  0  0  0  0  0  0  0
   -0.3871    0.5267    0.2102 H   0  0  0  0  0  0  0  0  0  0  0  0
   -0.6953   -0.3165   -1.2897 H   0  0  0  0  0  0  0  0  0  0  0  0
   -2.4658    0.1303   -0.1745 C   0  0  0  0  0  0  0  0  0  0  0  0
   -2.4942    1.2060    0.0328 H   0  0  0  0  0  0  0  0  0  0  0  0
   -2.9020   -0.0048   -1.1703 H   0  0  0  0  0  0  0  0  0  0  0  0
   -3.3578   -0.6176    0.8227 C   0  0  0  0  0  0  0  0  0  0  0  0
   -3.9080   -1.4050    0.2960 H   0  0  0  0  0  0  0  0  0  0  0  0
   -2.7547   -1.1076    1.5835 H   0  0  0  0  0  0  0  0  0  0  0  0
   -4.3003    0.3155    1.4702 N   0  3  0  0  0  0  0  0  0  0  0  0
   -5.2074    0.4440    1.0226 H   0  0  0  0  0  0  0  0  0  0  0  0
   -4.0112    1.0142    2.5329 C   0  0  0  0  0  0  0  0  0  0  0  0
   -2.7928    0.9200    3.1684 N   0  0  0  0  0  0  0  0  0  0  0  0
   -2.0656    0.3277    2.7621 H   0  0  0  0  0  0  0  0  0  0  0  0
   -2.5093    1.6528    3.8155 H   0  0  0  0  0  0  0  0  0  0  0  0
   -4.9417    1.8908    3.0374 N   0  0  0  0  0  0  0  0  0  0  0  0
   -5.9004    1.8405    2.6980 H   0  0  0  0  0  0  0  0  0  0  0  0
   -4.7826    2.2879    3.9619 H   0  0  0  0  0  0  0  0  0  0  0  0
   -0.1032   -1.4561    1.9017 C   0  0  0  0  0  0  0  0  0  0  0  0
    0.8827   -0.7850    2.1679 O   0  0  0  0  0  0  0  0  0  0  0  0
   -1.0484   -1.5952    2.9056 N   0  0  0  0  0  0  0  0  0  0  0  0
   -1.7153   -2.3366    2.6992 H   0  0  0  0  0  0  0  0  0  0  0  0
   -0.6557   -1.4706    4.3097 C   0  0  0  0  0  0  0  0  0  0  0  0
   -0.2864   -0.4623    4.5255 H   0  0  0  0  0  0  0  0  0  0  0  0
   -1.5105   -1.6707    4.9631 H   0  0  0  0  0  0  0  0  0  0  0  0
    0.1366   -2.1890    4.5494 H   0  0  0  0  0  0  0  0  0  0  0  0
  1  2  1  0  0  0  0
  2  3  1  0  0  0  0
  2  4  1  0  0  0  0
  2  5  1  0  0  0  0
  5  6  2  0  0  0  0
  5  7  1  0  0  0  0
  7  8  1  0  0  0  0
  7  9  1  0  0  0  0
  9 10  1  0  0  0  0
  9 11  1  0  0  0  0
  9 29  1  0  0  0  0
 11 12  1  0  0  0  0
 11 13  1  0  0  0  0
 11 14  1  0  0  0  0
 14 15  1  0  0  0  0
 14 16  1  0  0  0  0
 14 17  1  0  0  0  0
 17 18  1  0  0  0  0
 17 19  1  0  0  0  0
 17 20  1  0  0  0  0
 20 21  1  0  0  0  0
 20 22  2  0  0  0  0
 22 23  1  0  0  0  0
 22 26  1  0  0  0  0
 23 24  1  0  0  0  0
 23 25  1  0  0  0  0
 26 27  1  0  0  0  0
 26 28  1  0  0  0  0
 29 30  2  0  0  0  0
 29 31  1  0  0  0  0
 31 32  1  0  0  0  0
 31 33  1  0  0  0  0
 33 34  1  0  0  0  0
 33 35  1  0  0  0  0
 33 36  1  0  0  0  0
M  CHG  1  20   1
M  END
$$$$

  -OEChem-04042215563D

 36 35  0     1  0  0  0  0  0999 V2000
   -1.7798   -6.1020   -0.1199 H   0  0  0  0  0  0  0  0  0  0  0  0
   -2.0961   -5.0910   -0.3939 C   0  0  0  0  0  0  0  0  0  0  0  0
   -3.1321   -4.9510   -0.0779 H   0  0  0  0  0  0  0  0  0  0  0  0
   -2.0339   -4.9890   -1.4803 H   0  0  0  0  0  0  0  0  0  0  0  0
   -1.2005   -4.0674    0.2777 C   0  0  0  0  0  0  0  0  0  0  0  0
   -0.2963   -4.4364    1.0033 O   0  0  0  0  0  0  0  0  0  0  0  0
   -1.4459   -2.7147    0.1158 N   0  0  0  0  0  0  0  0  0  0  0  0
   -2.1286   -2.5023   -0.6059 H   0  0  0  0  0  0  0  0  0  0  0  0
   -0.4156   -1.6852    0.3703 C   0  0  1  0  0  0  0  0  0  0  0  0
    0.4551   -1.9799   -0.2285 H   0  0  0  0  0  0  0  0  0  0  0  0
   -0.8264   -0.2902   -0.1684 C   0  0  0  0  0  0  0  0  0  0  0  0
   -0.1180    0.4389    0.2414 H   0  0  0  0  0  0  0  0  0  0  0  0
   -0.6691   -0.2932   -1.2525 H   0  0  0  0  0  0  0  0  0  0  0  0
   -2.2524    0.2470    0.0853 C   0  0  0  0  0  0  0  0  0  0  0  0
   -2.2039    1.3416    0.0808 H   0  0  0  0  0  0  0  0  0  0  0  0
   -2.8956   -0.0516   -0.7492 H   0  0  0  0  0  0  0  0  0  0  0  0
   -2.9005   -0.2390    1.3795 C   0  0  0  0  0  0  0  0  0  0  0  0
   -3.2458   -1.2715    1.2592 H   0  0  0  0  0  0  0  0  0  0  0  0
   -2.1552   -0.2268    2.1751 H   0  0  0  0  0  0  0  0  0  0  0  0
   -4.0204    0.6418    1.7609 N   0  3  0  0  0  0  0  0  0  0  0  0
   -4.8969    0.5330    1.2516 H   0  0  0  0  0  0  0  0  0  0  0  0
   -3.9317    1.5429    2.6996 C   0  0  0  0  0  0  0  0  0  0  0  0
   -2.7661    1.7515    3.4047 N   0  0  0  0  0  0  0  0  0  0  0  0
   -1.9189    1.2848    3.0831 H   0  0  0  0  0  0  0  0  0  0  0  0
   -2.6644    2.6075    3.9466 H   0  0  0  0  0  0  0  0  0  0  0  0
   -5.0240    2.3212    2.9991 N   0  0  0  0  0  0  0  0  0  0  0  0
   -5.9320    2.0615    2.6190 H   0  0  0  0  0  0  0  0  0  0  0  0
   -5.0046    2.8770    3.8526 H   0  0  0  0  0  0  0  0  0  0  0  0
    0.1498   -1.6491    1.8155 C   0  0  0  0  0  0  0  0  0  0  0  0
    1.2444   -1.1326    1.9887 O   0  0  0  0  0  0  0  0  0  0  0  0
   -0.6911   -1.7363    2.9132 N   0  0  0  0  0  0  0  0  0  0  0  0
   -1.4752   -2.3655    2.7611 H   0  0  0  0  0  0  0  0  0  0  0  0
   -0.1641   -1.6691    4.2745 C   0  0  0  0  0  0  0  0  0  0  0  0
    0.3063   -0.6981    4.4617 H   0  0  0  0  0  0  0  0  0  0  0  0
   -0.9702   -1.8057    5.0018 H   0  0  0  0  0  0  0  0  0  0  0  0
    0.5827   -2.4549    4.4344 H   0  0  0  0  0  0  0  0  0  0  0  0
  1  2  1  0  0  0  0
  2  3  1  0  0  0  0
  2  4  1  0  0  0  0
  2  5  1  0  0  0  0
  5  6  2  0  0  0  0
  5  7  1  0  0  0  0
  7  8  1  0  0  0  0
  7  9  1  0  0  0  0
  9 10  1  0  0  0  0
  9 11  1  0  0  0  0
  9 29  1  0  0  0  0
 11 12  1  0  0  0  0
 11 13  1  0  0  0  0
 11 14  1  0  0  0  0
 14 15  1  0  0  0  0
 14 16  1  0  0  0  0
 14 17  1  0  0  0  0
 17 18  1  0  0  0  0
 17 19  1  0  0  0  0
 17 20  1  0  0  0  0
 20 21  1  0  0  0  0
 20 22  2  0  0  0  0
 22 23  1  0  0  0  0
 22 26  1  0  0  0  0
 23 24  1  0  0  0  0
 23 25  1  0  0  0  0
 26 27  1  0  0  0  0
 26 28  1  0  0  0  0
 29 30  2  0  0  0  0
 29 31  1  0  0  0  0
 31 32  1  0  0  0  0
 31 33  1  0  0  0  0
 33 34  1  0  0  0  0
 33 35  1  0  0  0  0
 33 36  1  0  0  0  0
M  CHG  1  20   1
M  END
$$$$

  -OEChem-04042215563D

 36 35  0     1  0  0  0  0  0999 V2000
   -2.1573   -5.9911    0.2176 H   0  0  0  0  0  0  0  0  0  0  0  0
   -2.3970   -4.9776   -0.1176 C   0  0  0  0  0  0  0  0  0  0  0  0
   -3.3981   -4.7200    0.2354 H   0  0  0  0  0  0  0  0  0  0  0  0
   -2.3854   -4.9597   -1.2102 H   0  0  0  0  0  0  0  0  0  0  0  0
   -1.3794   -3.9949    0.4292 C   0  0  0  0  0  0  0  0  0  0  0  0
   -0.4785   -4.3889    1.1460 O   0  0  0  0  0  0  0  0  0  0  0  0
   -1.5134   -2.6422    0.1698 N   0  0  0  0  0  0  0  0  0  0  0  0
   -2.2077   -2.4237   -0.5388 H   0  0  0  0  0  0  0  0  0  0  0  0
   -0.3920   -1.6892    0.3094 C   0  0  1  0  0  0  0  0  0  0  0  0
    0.4281   -2.0982   -0.2937 H   0  0  0  0  0  0  0  0  0  0  0  0
   -0.7175   -0.3114   -0.3215 C   0  0  0  0  0  0  0  0  0  0  0  0
    0.0577    0.3945   -0.0019 H   0  0  0  0  0  0  0  0  0  0  0  0
   -0.6196   -0.4098   -1.4078 H   0  0  0  0  0  0  0  0  0  0  0  0
   -2.0933    0.3241   -0.0386 C   0  0  0  0  0  0  0  0  0  0  0  0
   -2.0547    1.3723   -0.3556 H   0  0  0  0  0  0  0  0  0  0  0  0
   -2.8587   -0.1754   -0.6413 H   0  0  0  0  0  0  0  0  0  0  0  0
   -2.4857    0.2416    1.4314 C   0  0  0  0  0  0  0  0  0  0  0  0
   -2.7815   -0.7849    1.6736 H   0  0  0  0  0  0  0  0  0  0  0  0
   -1.6045    0.4931    2.0297 H   0  0  0  0  0  0  0  0  0  0  0  0
   -3.5812    1.1769    1.7452 N   0  3  0  0  0  0  0  0  0  0  0  0
   -4.3147    1.2915    1.0471 H   0  0  0  0  0  0  0  0  0  0  0  0
   -3.6417    1.8567    2.8552 C   0  0  0  0  0  0  0  0  0  0  0  0
   -2.6748    1.7456    3.8300 N   0  0  0  0  0  0  0  0  0  0  0  0
   -1.8216    1.2374    3.6003 H   0  0  0  0  0  0  0  0  0  0  0  0
   -2.6246    2.4607    4.5530 H   0  0  0  0  0  0  0  0  0  0  0  0
   -4.6945    2.7141    3.0701 N   0  0  0  0  0  0  0  0  0  0  0  0
   -5.4961    2.6794    2.4432 H   0  0  0  0  0  0  0  0  0  0  0  0
   -4.8334    3.0917    4.0060 H   0  0  0  0  0  0  0  0  0  0  0  0
    0.2264   -1.5953    1.7298 C   0  0  0  0  0  0  0  0  0  0  0  0
    1.3721   -1.1814    1.8311 O   0  0  0  0  0  0  0  0  0  0  0  0
   -0.5782   -1.5274    2.8569 N   0  0  0  0  0  0  0  0  0  0  0  0
   -1.4185   -2.0931    2.7699 H   0  0  0  0  0  0  0  0  0  0  0  0
    0.0142   -1.4455    4.1905 C   0  0  0  0  0  0  0  0  0  0  0  0
    0.6149   -0.5354    4.2944 H   0  0  0  0  0  0  0  0  0  0  0  0
   -0.7686   -1.4304    4.9549 H   0  0  0  0  0  0  0  0  0  0  0  0
    0.6605   -2.3112    4.3744 H   0  0  0  0  0  0  0  0  0  0  0  0
  1  2  1  0  0  0  0
  2  3  1  0  0  0  0
  2  4  1  0  0  0  0
  2  5  1  0  0  0  0
  5  6  2  0  0  0  0
  5  7  1  0  0  0  0
  7  8  1  0  0  0  0
  7  9  1  0  0  0  0
  9 10  1  0  0  0  0
  9 11  1  0  0  0  0
  9 29  1  0  0  0  0
 11 12  1  0  0  0  0
 11 13  1  0  0  0  0
 11 14  1  0  0  0  0
 14 15  1  0  0  0  0
 14 16  1  0  0  0  0
 14 17  1  0  0  0  0
 17 18  1  0  0  0  0
 17 19  1  0  0  0  0
 17 20  1  0  0  0  0
 20 21  1  0  0  0  0
 20 22  2  0  0  0  0
 22 23  1  0  0  0  0
 22 26  1  0  0  0  0
 23 24  1  0  0  0  0
 23 25  1  0  0  0  0
 26 27  1  0  0  0  0
 26 28  1  0  0  0  0
 29 30  2  0  0  0  0
 29 31  1  0  0  0  0
 31 32  1  0  0  0  0
 31 33  1  0  0  0  0
 33 34  1  0  0  0  0
 33 35  1  0  0  0  0
 33 36  1  0  0  0  0
M  CHG  1  20   1
M  END
$$$$

  -OEChem-04042215563D

 36 35  0     1  0  0  0  0  0999 V2000
   -2.0812   -6.0054    0.2828 H   0  0  0  0  0  0  0  0  0  0  0  0
   -2.3464   -5.0044   -0.0703 C   0  0  0  0  0  0  0  0  0  0  0  0
   -3.3514   -4.7631    0.2835 H   0  0  0  0  0  0  0  0  0  0  0  0
   -2.3408   -5.0072   -1.1629 H   0  0  0  0  0  0  0  0  0  0  0  0
   -1.3485   -3.9886    0.4521 C   0  0  0  0  0  0  0  0  0  0  0  0
   -0.4233   -4.3533    1.1534 O   0  0  0  0  0  0  0  0  0  0  0  0
   -1.5200   -2.6423    0.1805 N   0  0  0  0  0  0  0  0  0  0  0  0
   -2.2324   -2.4444   -0.5160 H   0  0  0  0  0  0  0  0  0  0  0  0
   -0.4294   -1.6540    0.3173 C   0  0  1  0  0  0  0  0  0  0  0  0
    0.4067   -2.0365   -0.2809 H   0  0  0  0  0  0  0  0  0  0  0  0
   -0.7934   -0.2826   -0.3041 C   0  0  0  0  0  0  0  0  0  0  0  0
   -0.0335    0.4490   -0.0058 H   0  0  0  0  0  0  0  0  0  0  0  0
   -0.7159   -0.3871   -1.3917 H   0  0  0  0  0  0  0  0  0  0  0  0
   -2.1871    0.2975   -0.0015 C   0  0  0  0  0  0  0  0  0  0  0  0
   -2.2680    1.2591   -0.5206 H   0  0  0  0  0  0  0  0  0  0  0  0
   -2.9725   -0.3566   -0.3930 H   0  0  0  0  0  0  0  0  0  0  0  0
   -2.3796    0.5049    1.4972 C   0  0  0  0  0  0  0  0  0  0  0  0
   -1.4051    0.7487    1.9328 H   0  0  0  0  0  0  0  0  0  0  0  0
   -2.7280   -0.4298    1.9497 H   0  0  0  0  0  0  0  0  0  0  0  0
   -3.3349    1.5912    1.7804 N   0  3  0  0  0  0  0  0  0  0  0  0
   -4.1479    1.6717    1.1714 H   0  0  0  0  0  0  0  0  0  0  0  0
   -3.1838    2.4316    2.7648 C   0  0  0  0  0  0  0  0  0  0  0  0
   -2.1014    2.3695    3.6147 N   0  0  0  0  0  0  0  0  0  0  0  0
   -1.3349    1.7450    3.3667 H   0  0  0  0  0  0  0  0  0  0  0  0
   -1.8884    3.1782    4.1951 H   0  0  0  0  0  0  0  0  0  0  0  0
   -4.1238    3.4132    2.9709 N   0  0  0  0  0  0  0  0  0  0  0  0
   -5.0087    3.3599    2.4704 H   0  0  0  0  0  0  0  0  0  0  0  0
   -4.1031    3.9275    3.8498 H   0  0  0  0  0  0  0  0  0  0  0  0
    0.1685   -1.5381    1.7439 C   0  0  0  0  0  0  0  0  0  0  0  0
    1.2914   -1.0687    1.8617 O   0  0  0  0  0  0  0  0  0  0  0  0
   -0.6565   -1.4906    2.8565 N   0  0  0  0  0  0  0  0  0  0  0  0
   -1.4883   -2.0668    2.7551 H   0  0  0  0  0  0  0  0  0  0  0  0
   -0.0958   -1.3873    4.2020 C   0  0  0  0  0  0  0  0  0  0  0  0
    0.4810   -0.4632    4.3139 H   0  0  0  0  0  0  0  0  0  0  0  0
   -0.8961   -1.3856    4.9483 H   0  0  0  0  0  0  0  0  0  0  0  0
    0.5656   -2.2372    4.4052 H   0  0  0  0  0  0  0  0  0  0  0  0
  1  2  1  0  0  0  0
  2  3  1  0  0  0  0
  2  4  1  0  0  0  0
  2  5  1  0  0  0  0
  5  6  2  0  0  0  0
  5  7  1  0  0  0  0
  7  8  1  0  0  0  0
  7  9  1  0  0  0  0
  9 10  1  0  0  0  0
  9 11  1  0  0  0  0
  9 29  1  0  0  0  0
 11 12  1  0  0  0  0
 11 13  1  0  0  0  0
 11 14  1  0  0  0  0
 14 15  1  0  0  0  0
 14 16  1  0  0  0  0
 14 17  1  0  0  0  0
 17 18  1  0  0  0  0
 17 19  1  0  0  0  0
 17 20  1  0  0  0  0
 20 21  1  0  0  0  0
 20 22  2  0  0  0  0
 22 23  1  0  0  0  0
 22 26  1  0  0  0  0
 23 24  1  0  0  0  0
 23 25  1  0  0  0  0
 26 27  1  0  0  0  0
 26 28  1  0  0  0  0
 29 30  2  0  0  0  0
 29 31  1  0  0  0  0
 31 32  1  0  0  0  0
 31 33  1  0  0  0  0
 33 34  1  0  0  0  0
 33 35  1  0  0  0  0
 33 36  1  0  0  0  0
M  CHG  1  20   1
M  END
$$$$

  -OEChem-04042215563D

 36 35  0     1  0  0  0  0  0999 V2000
   -2.1939   -5.9569    0.2949 H   0  0  0  0  0  0  0  0  0  0  0  0
   -2.4578   -4.9464   -0.0315 C   0  0  0  0  0  0  0  0  0  0  0  0
   -3.4439   -4.6963    0.3663 H   0  0  0  0  0  0  0  0  0  0  0  0
   -2.4955   -4.9314   -1.1234 H   0  0  0  0  0  0  0  0  0  0  0  0
   -1.4252   -3.9532    0.4663 C   0  0  0  0  0  0  0  0  0  0  0  0
   -0.4992   -4.3369    1.1561 O   0  0  0  0  0  0  0  0  0  0  0  0
   -1.5574   -2.6075    0.1702 N   0  0  0  0  0  0  0  0  0  0  0  0
   -2.2724   -2.3988   -0.5206 H   0  0  0  0  0  0  0  0  0  0  0  0
   -0.4381   -1.6481    0.2836 C   0  0  1  0  0  0  0  0  0  0  0  0
    0.3834   -2.0508   -0.3215 H   0  0  0  0  0  0  0  0  0  0  0  0
   -0.7756   -0.2610   -0.3137 C   0  0  0  0  0  0  0  0  0  0  0  0
    0.0199    0.4479   -0.0568 H   0  0  0  0  0  0  0  0  0  0  0  0
   -0.7493   -0.3734   -1.4031 H   0  0  0  0  0  0  0  0  0  0  0  0
   -2.1436    0.3502    0.0392 C   0  0  0  0  0  0  0  0  0  0  0  0
   -2.3204    1.1852   -0.6477 H   0  0  0  0  0  0  0  0  0  0  0  0
   -2.9568   -0.3688   -0.0995 H   0  0  0  0  0  0  0  0  0  0  0  0
   -2.1250    0.8722    1.4760 C   0  0  0  0  0  0  0  0  0  0  0  0
   -2.4063    0.0626    2.1569 H   0  0  0  0  0  0  0  0  0  0  0  0
   -1.1014    1.1781    1.7173 H   0  0  0  0  0  0  0  0  0  0  0  0
   -3.0372    2.0160    1.6560 N   0  3  0  0  0  0  0  0  0  0  0  0
   -3.8402    2.0802    1.0322 H   0  0  0  0  0  0  0  0  0  0  0  0
   -2.8552    2.9303    2.5662 C   0  0  0  0  0  0  0  0  0  0  0  0
   -1.7849    2.8907    3.4326 N   0  0  0  0  0  0  0  0  0  0  0  0
   -1.0478    2.2104    3.2520 H   0  0  0  0  0  0  0  0  0  0  0  0
   -1.5426    3.7316    3.9528 H   0  0  0  0  0  0  0  0  0  0  0  0
   -3.7478    3.9702    2.6734 N   0  0  0  0  0  0  0  0  0  0  0  0
   -4.6277    3.9192    2.1641 H   0  0  0  0  0  0  0  0  0  0  0  0
   -3.7078    4.5623    3.5012 H   0  0  0  0  0  0  0  0  0  0  0  0
    0.1591   -1.5318    1.7093 C   0  0  0  0  0  0  0  0  0  0  0  0
    1.2963   -1.0977    1.8297 O   0  0  0  0  0  0  0  0  0  0  0  0
   -0.6752   -1.4442    2.8118 N   0  0  0  0  0  0  0  0  0  0  0  0
   -1.5348   -1.9762    2.7035 H   0  0  0  0  0  0  0  0  0  0  0  0
   -0.1279   -1.3526    4.1632 C   0  0  0  0  0  0  0  0  0  0  0  0
    0.4579   -0.4352    4.2843 H   0  0  0  0  0  0  0  0  0  0  0  0
   -0.9358   -1.3463    4.9014 H   0  0  0  0  0  0  0  0  0  0  0  0
    0.5215   -2.2105    4.3701 H   0  0  0  0  0  0  0  0  0  0  0  0
  1  2  1  0  0  0  0
  2  3  1  0  0  0  0
  2  4  1  0  0  0  0
  2  5  1  0  0  0  0
  5  6  2  0  0  0  0
  5  7  1  0  0  0  0
  7  8  1  0  0  0  0
  7  9  1  0  0  0  0
  9 10  1  0  0  0  0
  9 11  1  0  0  0  0
  9 29  1  0  0  0  0
 11 12  1  0  0  0  0
 11 13  1  0  0  0  0
 11 14  1  0  0  0  0
 14 15  1  0  0  0  0
 14 16  1  0  0  0  0
 14 17  1  0  0  0  0
 17 18  1  0  0  0  0
 17 19  1  0  0  0  0
 17 20  1  0  0  0  0
 20 21  1  0  0  0  0
 20 22  2  0  0  0  0
 22 23  1  0  0  0  0
 22 26  1  0  0  0  0
 23 24  1  0  0  0  0
 23 25  1  0  0  0  0
 26 27  1  0  0  0  0
 26 28  1  0  0  0  0
 29 30  2  0  0  0  0
 29 31  1  0  0  0  0
 31 32  1  0  0  0  0
 31 33  1  0  0  0  0
 33 34  1  0  0  0  0
 33 35  1  0  0  0  0
 33 36  1  0  0  0  0
M  CHG  1  20   1
M  END
$$$$

  -OEChem-04042215563D

 36 35  0     1  0  0  0  0  0999 V2000
   -2.8220   -5.6059    0.8486 H   0  0  0  0  0  0  0  0  0  0  0  0
   -2.8936   -4.6429    0.3338 C   0  0  0  0  0  0  0  0  0  0  0  0
   -3.8354   -4.1652    0.6136 H   0  0  0  0  0  0  0  0  0  0  0  0
   -2.8878   -4.8229   -0.7439 H   0  0  0  0  0  0  0  0  0  0  0  0
   -1.7224   -3.7591    0.7188 C   0  0  0  0  0  0  0  0  0  0  0  0
   -0.8751   -4.1771    1.4857 O   0  0  0  0  0  0  0  0  0  0  0  0
   -1.6417   -2.4658    0.2314 N   0  0  0  0  0  0  0  0  0  0  0  0
   -2.3116   -2.2556   -0.5030 H   0  0  0  0  0  0  0  0  0  0  0  0
   -0.3878   -1.6802    0.2284 C   0  0  1  0  0  0  0  0  0  0  0  0
    0.3645   -2.2751   -0.3039 H   0  0  0  0  0  0  0  0  0  0  0  0
   -0.5204   -0.3409   -0.5375 C   0  0  0  0  0  0  0  0  0  0  0  0
    0.3819    0.2618   -0.3813 H   0  0  0  0  0  0  0  0  0  0  0  0
   -0.5388   -0.5958   -1.6026 H   0  0  0  0  0  0  0  0  0  0  0  0
   -1.7772    0.5070   -0.2601 C   0  0  0  0  0  0  0  0  0  0  0  0
   -2.0109    1.0958   -1.1541 H   0  0  0  0  0  0  0  0  0  0  0  0
   -2.6457   -0.1193   -0.0371 H   0  0  0  0  0  0  0  0  0  0  0  0
   -1.4839    1.4608    0.8991 C   0  0  0  0  0  0  0  0  0  0  0  0
   -1.2024    0.8801    1.7792 H   0  0  0  0  0  0  0  0  0  0  0  0
   -0.6314    2.0935    0.6268 H   0  0  0  0  0  0  0  0  0  0  0  0
   -2.6459    2.3067    1.2210 N   0  3  0  0  0  0  0  0  0  0  0  0
   -3.3353    2.4603    0.4862 H   0  0  0  0  0  0  0  0  0  0  0  0
   -2.7647    2.9325    2.3572 C   0  0  0  0  0  0  0  0  0  0  0  0
   -1.8229    2.8058    3.3544 N   0  0  0  0  0  0  0  0  0  0  0  0
   -0.9504    2.3315    3.1245 H   0  0  0  0  0  0  0  0  0  0  0  0
   -1.8051    3.4995    4.0992 H   0  0  0  0  0  0  0  0  0  0  0  0
   -3.8490    3.7481    2.5773 N   0  0  0  0  0  0  0  0  0  0  0  0
   -4.6285    3.7201    1.9231 H   0  0  0  0  0  0  0  0  0  0  0  0
   -4.0318    4.0691    3.5266 H   0  0  0  0  0  0  0  0  0  0  0  0
    0.2068   -1.4614    1.6422 C   0  0  0  0  0  0  0  0  0  0  0  0
    1.3978   -1.2031    1.7430 O   0  0  0  0  0  0  0  0  0  0  0  0
   -0.6198   -1.0962    2.6930 N   0  0  0  0  0  0  0  0  0  0  0  0
   -1.5491   -1.5029    2.6248 H   0  0  0  0  0  0  0  0  0  0  0  0
   -0.0822   -0.9039    4.0375 C   0  0  0  0  0  0  0  0  0  0  0  0
    0.6513   -0.0906    4.0500 H   0  0  0  0  0  0  0  0  0  0  0  0
   -0.8856   -0.6543    4.7371 H   0  0  0  0  0  0  0  0  0  0  0  0
    0.4079   -1.8196    4.3865 H   0  0  0  0  0  0  0  0  0  0  0  0
  1  2  1  0  0  0  0
  2  3  1  0  0  0  0
  2  4  1  0  0  0  0
  2  5  1  0  0  0  0
  5  6  2  0  0  0  0
  5  7  1  0  0  0  0
  7  8  1  0  0  0  0
  7  9  1  0  0  0  0
  9 10  1  0  0  0  0
  9 11  1  0  0  0  0
  9 29  1  0  0  0  0
 11 12  1  0  0  0  0
 11 13  1  0  0  0  0
 11 14  1  0  0  0  0
 14 15  1  0  0  0  0
 14 16  1  0  0  0  0
 14 17  1  0  0  0  0
 17 18  1  0  0  0  0
 17 19  1  0  0  0  0
 17 20  1  0  0  0  0
 20 21  1  0  0  0  0
 20 22  2  0  0  0  0
 22 23  1  0  0  0  0
 22 26  1  0  0  0  0
 23 24  1  0  0  0  0
 23 25  1  0  0  0  0
 26 27  1  0  0  0  0
 26 28  1  0  0  0  0
 29 30  2  0  0  0  0
 29 31  1  0  0  0  0
 31 32  1  0  0  0  0
 31 33  1  0  0  0  0
 33 34  1  0  0  0  0
 33 35  1  0  0  0  0
 33 36  1  0  0  0  0
M  CHG  1  20   1
M  END
$$$$

  -OEChem-04042215563D

 36 35  0     1  0  0  0  0  0999 V2000
   -2.9964   -5.2784    1.3553 H   0  0  0  0  0  0  0  0  0  0  0  0
   -2.9849   -4.4343    0.6595 C   0  0  0  0  0  0  0  0  0  0  0  0
   -3.9219   -3.8823    0.7637 H   0  0  0  0  0  0  0  0  0  0  0  0
   -2.9081   -4.8232   -0.3589 H   0  0  0  0  0  0  0  0  0  0  0  0
   -1.8041   -3.5301    0.9576 C   0  0  0  0  0  0  0  0  0  0  0  0
   -1.0061   -3.8412    1.8220 O   0  0  0  0  0  0  0  0  0  0  0  0
   -1.6658   -2.3278    0.2854 N   0  0  0  0  0  0  0  0  0  0  0  0
   -2.3044   -2.2167   -0.4977 H   0  0  0  0  0  0  0  0  0  0  0  0
   -0.3810   -1.5988    0.1928 C   0  0  1  0  0  0  0  0  0  0  0  0
    0.3568   -2.2748   -0.2556 H   0  0  0  0  0  0  0  0  0  0  0  0
   -0.4714   -0.3414   -0.7006 C   0  0  0  0  0  0  0  0  0  0  0  0
    0.4570    0.2369   -0.6203 H   0  0  0  0  0  0  0  0  0  0  0  0
   -0.5190   -0.6953   -1.7360 H   0  0  0  0  0  0  0  0  0  0  0  0
   -1.7006    0.5603   -0.4730 C   0  0  0  0  0  0  0  0  0  0  0  0
   -2.1211    0.8633   -1.4381 H   0  0  0  0  0  0  0  0  0  0  0  0
   -2.4864    0.0449    0.0862 H   0  0  0  0  0  0  0  0  0  0  0  0
   -1.2347    1.8015    0.2888 C   0  0  0  0  0  0  0  0  0  0  0  0
   -0.6303    1.4881    1.1458 H   0  0  0  0  0  0  0  0  0  0  0  0
   -0.5852    2.3969   -0.3630 H   0  0  0  0  0  0  0  0  0  0  0  0
   -2.3771    2.6215    0.7317 N   0  3  0  0  0  0  0  0  0  0  0  0
   -2.9031    3.1081    0.0065 H   0  0  0  0  0  0  0  0  0  0  0  0
   -2.6399    2.8722    1.9828 C   0  0  0  0  0  0  0  0  0  0  0  0
   -1.9291    2.2932    3.0099 N   0  0  0  0  0  0  0  0  0  0  0  0
   -1.1171    1.7226    2.7702 H   0  0  0  0  0  0  0  0  0  0  0  0
   -1.9549    2.7290    3.9294 H   0  0  0  0  0  0  0  0  0  0  0  0
   -3.6525    3.7459    2.3005 N   0  0  0  0  0  0  0  0  0  0  0  0
   -4.2869    4.0598    1.5685 H   0  0  0  0  0  0  0  0  0  0  0  0
   -3.9671    3.8015    3.2675 H   0  0  0  0  0  0  0  0  0  0  0  0
    0.1946   -1.1977    1.5734 C   0  0  0  0  0  0  0  0  0  0  0  0
    1.3958   -0.9995    1.6811 O   0  0  0  0  0  0  0  0  0  0  0  0
   -0.6375   -0.6502    2.5391 N   0  0  0  0  0  0  0  0  0  0  0  0
   -1.5841   -1.0175    2.4756 H   0  0  0  0  0  0  0  0  0  0  0  0
   -0.1194   -0.4269    3.8881 C   0  0  0  0  0  0  0  0  0  0  0  0
    0.6481    0.3544    3.8856 H   0  0  0  0  0  0  0  0  0  0  0  0
   -0.9251   -0.1198    4.5615 H   0  0  0  0  0  0  0  0  0  0  0  0
    0.3248   -1.3479    4.2835 H   0  0  0  0  0  0  0  0  0  0  0  0
  1  2  1  0  0  0  0
  2  3  1  0  0  0  0
  2  4  1  0  0  0  0
  2  5  1  0  0  0  0
  5  6  2  0  0  0  0
  5  7  1  0  0  0  0
  7  8  1  0  0  0  0
  7  9  1  0  0  0  0
  9 10  1  0  0  0  0
  9 11  1  0  0  0  0
  9 29  1  0  0  0  0
 11 12  1  0  0  0  0
 11 13  1  0  0  0  0
 11 14  1  0  0  0  0
 14 15  1  0  0  0  0
 14 16  1  0  0  0  0
 14 17  1  0  0  0  0
 17 18  1  0  0  0  0
 17 19  1  0  0  0  0
 17 20  1  0  0  0  0
 20 21  1  0  0  0  0
 20 22  2  0  0  0  0
 22 23  1  0  0  0  0
 22 26  1  0  0  0  0
 23 24  1  0  0  0  0
 23 25  1  0  0  0  0
 26 27  1  0  0  0  0
 26 28  1  0  0  0  0
 29 30  2  0  0  0  0
 29 31  1  0  0  0  0
 31 32  1  0  0  0  0
 31 33  1  0  0  0  0
 33 34  1  0  0  0  0
 33 35  1  0  0  0  0
 33 36  1  0  0  0  0
M  CHG  1  20   1
M  END
$$$$

  -OEChem-04042215563D

 36 35  0     1  0  0  0  0  0999 V2000
   -2.7831   -5.3325    1.3583 H   0  0  0  0  0  0  0  0  0  0  0  0
   -2.8620   -4.4609    0.7014 C   0  0  0  0  0  0  0  0  0  0  0  0
   -3.8270   -3.9784    0.8730 H   0  0  0  0  0  0  0  0  0  0  0  0
   -2.8094   -4.8009   -0.3358 H   0  0  0  0  0  0  0  0  0  0  0  0
   -1.7329   -3.4899    0.9892 C   0  0  0  0  0  0  0  0  0  0  0  0
   -0.9631   -3.7109    1.9054 O   0  0  0  0  0  0  0  0  0  0  0  0
   -1.6137   -2.3256    0.2496 N   0  0  0  0  0  0  0  0  0  0  0  0
   -2.2165   -2.2902   -0.5683 H   0  0  0  0  0  0  0  0  0  0  0  0
   -0.3627   -1.5370    0.1817 C   0  0  1  0  0  0  0  0  0  0  0  0
    0.4347   -2.1931   -0.1876 H   0  0  0  0  0  0  0  0  0  0  0  0
   -0.4724   -0.3347   -0.7790 C   0  0  0  0  0  0  0  0  0  0  0  0
    0.4192    0.2940   -0.6698 H   0  0  0  0  0  0  0  0  0  0  0  0
   -0.4398   -0.7285   -1.8006 H   0  0  0  0  0  0  0  0  0  0  0  0
   -1.7618    0.5009   -0.6448 C   0  0  0  0  0  0  0  0  0  0  0  0
   -2.3216    0.4962   -1.5862 H   0  0  0  0  0  0  0  0  0  0  0  0
   -2.4150    0.0960    0.1339 H   0  0  0  0  0  0  0  0  0  0  0  0
   -1.3569    1.9314   -0.2811 C   0  0  0  0  0  0  0  0  0  0  0  0
   -0.5078    1.8995    0.4101 H   0  0  0  0  0  0  0  0  0  0  0  0
   -1.0155    2.4477   -1.1855 H   0  0  0  0  0  0  0  0  0  0  0  0
   -2.4733    2.6739    0.3313 N   0  3  0  0  0  0  0  0  0  0  0  0
   -3.2218    2.9814   -0.2887 H   0  0  0  0  0  0  0  0  0  0  0  0
   -2.4739    3.0591    1.5761 C   0  0  0  0  0  0  0  0  0  0  0  0
   -1.4854    2.6815    2.4576 N   0  0  0  0  0  0  0  0  0  0  0  0
   -0.8775    1.9049    2.1897 H   0  0  0  0  0  0  0  0  0  0  0  0
   -1.6221    2.8549    3.4504 H   0  0  0  0  0  0  0  0  0  0  0  0
   -3.4860    3.8687    2.0340 N   0  0  0  0  0  0  0  0  0  0  0  0
   -4.0990    4.3116    1.3522 H   0  0  0  0  0  0  0  0  0  0  0  0
   -3.3570    4.3388    2.9283 H   0  0  0  0  0  0  0  0  0  0  0  0
    0.1066   -1.0236    1.5659 C   0  0  0  0  0  0  0  0  0  0  0  0
    1.2833   -0.7358    1.7276 O   0  0  0  0  0  0  0  0  0  0  0  0
   -0.8120   -0.4643    2.4419 N   0  0  0  0  0  0  0  0  0  0  0  0
   -1.7350   -0.8786    2.3332 H   0  0  0  0  0  0  0  0  0  0  0  0
   -0.4022   -0.1660    3.8136 C   0  0  0  0  0  0  0  0  0  0  0  0
    0.3755    0.6051    3.8312 H   0  0  0  0  0  0  0  0  0  0  0  0
   -1.2560    0.1898    4.3981 H   0  0  0  0  0  0  0  0  0  0  0  0
   -0.0066   -1.0672    4.2963 H   0  0  0  0  0  0  0  0  0  0  0  0
  1  2  1  0  0  0  0
  2  3  1  0  0  0  0
  2  4  1  0  0  0  0
  2  5  1  0  0  0  0
  5  6  2  0  0  0  0
  5  7  1  0  0  0  0
  7  8  1  0  0  0  0
  7  9  1  0  0  0  0
  9 10  1  0  0  0  0
  9 11  1  0  0  0  0
  9 29  1  0  0  0  0
 11 12  1  0  0  0  0
 11 13  1  0  0  0  0
 11 14  1  0  0  0  0
 14 15  1  0  0  0  0
 14 16  1  0  0  0  0
 14 17  1  0  0  0  0
 17 18  1  0  0  0  0
 17 19  1  0  0  0  0
 17 20  1  0  0  0  0
 20 21  1  0  0  0  0
 20 22  2  0  0  0  0
 22 23  1  0  0  0  0
 22 26  1  0  0  0  0
 23 24  1  0  0  0  0
 23 25  1  0  0  0  0
 26 27  1  0  0  0  0
 26 28  1  0  0  0  0
 29 30  2  0  0  0  0
 29 31  1  0  0  0  0
 31 32  1  0  0  0  0
 31 33  1  0  0  0  0
 33 34  1  0  0  0  0
 33 35  1  0  0  0  0
 33 36  1  0  0  0  0
M  CHG  1  20   1
M  END
$$$$

  -OEChem-04042215563D

 36 35  0     1  0  0  0  0  0999 V2000
   -2.2891   -5.3999    1.4315 H   0  0  0  0  0  0  0  0  0  0  0  0
   -2.3660   -4.6186    0.6696 C   0  0  0  0  0  0  0  0  0  0  0  0
   -3.4163   -4.3394    0.5588 H   0  0  0  0  0  0  0  0  0  0  0  0
   -1.9984   -5.0184   -0.2785 H   0  0  0  0  0  0  0  0  0  0  0  0
   -1.5445   -3.4109    1.0777 C   0  0  0  0  0  0  0  0  0  0  0  0
   -0.9442   -3.4109    2.1368 O   0  0  0  0  0  0  0  0  0  0  0  0
   -1.5098   -2.2889    0.2678 N   0  0  0  0  0  0  0  0  0  0  0  0
   -1.9214   -2.4163   -0.6532 H   0  0  0  0  0  0  0  0  0  0  0  0
   -0.5050   -1.2148    0.4172 C   0  0  1  0  0  0  0  0  0  0  0  0
    0.4862   -1.6772    0.3374 H   0  0  0  0  0  0  0  0  0  0  0  0
   -0.6048   -0.1373   -0.6786 C   0  0  0  0  0  0  0  0  0  0  0  0
    0.0625    0.6871   -0.4276 H   0  0  0  0  0  0  0  0  0  0  0  0
   -0.2013   -0.5693   -1.6011 H   0  0  0  0  0  0  0  0  0  0  0  0
   -2.0293    0.3598   -0.9926 C   0  0  0  0  0  0  0  0  0  0  0  0
   -2.3483   -0.0692   -1.9491 H   0  0  0  0  0  0  0  0  0  0  0  0
   -2.7488    0.0320   -0.2358 H   0  0  0  0  0  0  0  0  0  0  0  0
   -2.0501    1.8940   -1.0980 C   0  0  0  0  0  0  0  0  0  0  0  0
   -1.0912    2.2639   -1.4770 H   0  0  0  0  0  0  0  0  0  0  0  0
   -2.8159    2.1821   -1.8273 H   0  0  0  0  0  0  0  0  0  0  0  0
   -2.3855    2.5181    0.2020 N   0  3  0  0  0  0  0  0  0  0  0  0
   -3.3780    2.6198    0.4081 H   0  0  0  0  0  0  0  0  0  0  0  0
   -1.5309    2.9210    1.1024 C   0  0  0  0  0  0  0  0  0  0  0  0
   -0.1709    2.8112    0.9549 N   0  0  0  0  0  0  0  0  0  0  0  0
    0.1475    2.3477    0.1095 H   0  0  0  0  0  0  0  0  0  0  0  0
    0.3459    2.5661    1.8016 H   0  0  0  0  0  0  0  0  0  0  0  0
   -1.9946    3.4668    2.2745 N   0  0  0  0  0  0  0  0  0  0  0  0
   -2.9656    3.7669    2.3226 H   0  0  0  0  0  0  0  0  0  0  0  0
   -1.3193    3.9463    2.8680 H   0  0  0  0  0  0  0  0  0  0  0  0
   -0.5405   -0.5318    1.8089 C   0  0  0  0  0  0  0  0  0  0  0  0
    0.4280    0.1306    2.1683 O   0  0  0  0  0  0  0  0  0  0  0  0
   -1.7621   -0.1872    2.3627 N   0  0  0  0  0  0  0  0  0  0  0  0
   -2.5109   -0.8119    2.0724 H   0  0  0  0  0  0  0  0  0  0  0  0
   -1.8396    0.3089    3.7349 C   0  0  0  0  0  0  0  0  0  0  0  0
   -1.2477    1.2207    3.8607 H   0  0  0  0  0  0  0  0  0  0  0  0
   -2.8775    0.5355    3.9972 H   0  0  0  0  0  0  0  0  0  0  0  0
   -1.4631   -0.4475    4.4327 H   0  0  0  0  0  0  0  0  0  0  0  0
  1  2  1  0  0  0  0
  2  3  1  0  0  0  0
  2  4  1  0  0  0  0
  2  5  1  0  0  0  0
  5  6  2  0  0  0  0
  5  7  1  0  0  0  0
  7  8  1  0  0  0  0
  7  9  1  0  0  0  0
  9 10  1  0  0  0  0
  9 11  1  0  0  0  0
  9 29  1  0  0  0  0
 11 12  1  0  0  0  0
 11 13  1  0  0  0  0
 11 14  1  0  0  0  0
 14 15  1  0  0  0  0
 14 16  1  0  0  0  0
 14 17  1  0  0  0  0
 17 18  1  0  0  0  0
 17 19  1  0  0  0  0
 17 20  1  0  0  0  0
 20 21  1  0  0  0  0
 20 22  2  0  0  0  0
 22 23  1  0  0  0  0
 22 26  1  0  0  0  0
 23 24  1  0  0  0  0
 23 25  1  0  0  0  0
 26 27  1  0  0  0  0
 26 28  1  0  0  0  0
 29 30  2  0  0  0  0
 29 31  1  0  0  0  0
 31 32  1  0  0  0  0
 31 33  1  0  0  0  0
 33 34  1  0  0  0  0
 33 35  1  0  0  0  0
 33 36  1  0  0  0  0
M  CHG  1  20   1
M  END
$$$$

  -OEChem-04042215563D

 36 35  0     1  0  0  0  0  0999 V2000
   -2.7885   -5.6270    0.7961 H   0  0  0  0  0  0  0  0  0  0  0  0
   -2.8909   -4.6498    0.3145 C   0  0  0  0  0  0  0  0  0  0  0  0
   -3.8192   -4.1865    0.6567 H   0  0  0  0  0  0  0  0  0  0  0  0
   -2.9389   -4.7974   -0.7672 H   0  0  0  0  0  0  0  0  0  0  0  0
   -1.7071   -3.7699    0.6681 C   0  0  0  0  0  0  0  0  0  0  0  0
   -0.8427   -4.1908    1.4137 O   0  0  0  0  0  0  0  0  0  0  0  0
   -1.6310   -2.4797    0.1731 N   0  0  0  0  0  0  0  0  0  0  0  0
   -2.3080   -2.2618   -0.5514 H   0  0  0  0  0  0  0  0  0  0  0  0
   -0.3862   -1.6824    0.1975 C   0  0  1  0  0  0  0  0  0  0  0  0
    0.3839   -2.2554   -0.3328 H   0  0  0  0  0  0  0  0  0  0  0  0
   -0.5535   -0.3375   -0.5410 C   0  0  0  0  0  0  0  0  0  0  0  0
    0.3172    0.2865   -0.3066 H   0  0  0  0  0  0  0  0  0  0  0  0
   -0.5265   -0.5225   -1.6200 H   0  0  0  0  0  0  0  0  0  0  0  0
   -1.8489    0.4267   -0.2122 C   0  0  0  0  0  0  0  0  0  0  0  0
   -2.6547    0.1090   -0.8823 H   0  0  0  0  0  0  0  0  0  0  0  0
   -2.1588    0.2184    0.8165 H   0  0  0  0  0  0  0  0  0  0  0  0
   -1.5837    1.9259   -0.3534 C   0  0  0  0  0  0  0  0  0  0  0  0
   -0.7407    2.1929    0.2940 H   0  0  0  0  0  0  0  0  0  0  0  0
   -1.3047    2.1430   -1.3908 H   0  0  0  0  0  0  0  0  0  0  0  0
   -2.7704    2.7147    0.0258 N   0  3  0  0  0  0  0  0  0  0  0  0
   -3.6112    2.2018    0.2863 H   0  0  0  0  0  0  0  0  0  0  0  0
   -2.7763    4.0169    0.0664 C   0  0  0  0  0  0  0  0  0  0  0  0
   -1.6566    4.7560   -0.2420 N   0  0  0  0  0  0  0  0  0  0  0  0
   -0.7723    4.2608   -0.3400 H   0  0  0  0  0  0  0  0  0  0  0  0
   -1.6272    5.7363    0.0313 H   0  0  0  0  0  0  0  0  0  0  0  0
   -3.9224    4.6840    0.4276 N   0  0  0  0  0  0  0  0  0  0  0  0
   -4.7965    4.1652    0.4849 H   0  0  0  0  0  0  0  0  0  0  0  0
   -3.9727    5.6874    0.2590 H   0  0  0  0  0  0  0  0  0  0  0  0
    0.1923   -1.4321    1.6121 C   0  0  0  0  0  0  0  0  0  0  0  0
    1.3886   -1.2001    1.7199 O   0  0  0  0  0  0  0  0  0  0  0  0
   -0.6461   -1.0555    2.6478 N   0  0  0  0  0  0  0  0  0  0  0  0
   -1.5819   -1.4452    2.5852 H   0  0  0  0  0  0  0  0  0  0  0  0
   -0.1271   -0.7720    3.9828 C   0  0  0  0  0  0  0  0  0  0  0  0
    0.5700    0.0722    3.9548 H   0  0  0  0  0  0  0  0  0  0  0  0
   -0.9457   -0.5187    4.6631 H   0  0  0  0  0  0  0  0  0  0  0  0
    0.3985   -1.6465    4.3821 H   0  0  0  0  0  0  0  0  0  0  0  0
  1  2  1  0  0  0  0
  2  3  1  0  0  0  0
  2  4  1  0  0  0  0
  2  5  1  0  0  0  0
  5  6  2  0  0  0  0
  5  7  1  0  0  0  0
  7  8  1  0  0  0  0
  7  9  1  0  0  0  0
  9 10  1  0  0  0  0
  9 11  1  0  0  0  0
  9 29  1  0  0  0  0
 11 12  1  0  0  0  0
 11 13  1  0  0  0  0
 11 14  1  0  0  0  0
 14 15  1  0  0  0  0
 14 16  1  0  0  0  0
 14 17  1  0  0  0  0
 17 18  1  0  0  0  0
 17 19  1  0  0  0  0
 17 20  1  0  0  0  0
 20 21  1  0  0  0  0
 20 22  2  0  0  0  0
 22 23  1  0  0  0  0
 22 26  1  0  0  0  0
 23 24  1  0  0  0  0
 23 25  1  0  0  0  0
 26 27  1  0  0  0  0
 26 28  1  0  0  0  0
 29 30  2  0  0  0  0
 29 31  1  0  0  0  0
 31 32  1  0  0  0  0
 31 33  1  0  0  0  0
 33 34  1  0  0  0  0
 33 35  1  0  0  0  0
 33 36  1  0  0  0  0
M  CHG  1  20   1
M  END
$$$$

  -OEChem-04042215563D

 36 35  0     1  0  0  0  0  0999 V2000
   -2.7701   -5.6434    0.7437 H   0  0  0  0  0  0  0  0  0  0  0  0
   -2.8969   -4.6465    0.3111 C   0  0  0  0  0  0  0  0  0  0  0  0
   -3.8187   -4.2092    0.7013 H   0  0  0  0  0  0  0  0  0  0  0  0
   -2.9764   -4.7453   -0.7741 H   0  0  0  0  0  0  0  0  0  0  0  0
   -1.7118   -3.7706    0.6696 C   0  0  0  0  0  0  0  0  0  0  0  0
   -0.8423   -4.2006    1.4038 O   0  0  0  0  0  0  0  0  0  0  0  0
   -1.6357   -2.4776    0.1823 N   0  0  0  0  0  0  0  0  0  0  0  0
   -2.3186   -2.2526   -0.5340 H   0  0  0  0  0  0  0  0  0  0  0  0
   -0.3900   -1.6813    0.2056 C   0  0  1  0  0  0  0  0  0  0  0  0
    0.3767   -2.2541   -0.3298 H   0  0  0  0  0  0  0  0  0  0  0  0
   -0.5578   -0.3345   -0.5309 C   0  0  0  0  0  0  0  0  0  0  0  0
    0.3104    0.2948   -0.3015 H   0  0  0  0  0  0  0  0  0  0  0  0
   -0.5376   -0.5247   -1.6093 H   0  0  0  0  0  0  0  0  0  0  0  0
   -1.8506    0.4279   -0.1978 C   0  0  0  0  0  0  0  0  0  0  0  0
   -2.7111   -0.0563   -0.6704 H   0  0  0  0  0  0  0  0  0  0  0  0
   -2.0096    0.4310    0.8852 H   0  0  0  0  0  0  0  0  0  0  0  0
   -1.7115    1.8691   -0.6872 C   0  0  0  0  0  0  0  0  0  0  0  0
   -0.8093    2.3048   -0.2432 H   0  0  0  0  0  0  0  0  0  0  0  0
   -1.5940    1.8675   -1.7768 H   0  0  0  0  0  0  0  0  0  0  0  0
   -2.8908    2.6681   -0.3057 N   0  3  0  0  0  0  0  0  0  0  0  0
   -3.6232    2.1982    0.2246 H   0  0  0  0  0  0  0  0  0  0  0  0
   -3.0124    3.9366   -0.5758 C   0  0  0  0  0  0  0  0  0  0  0  0
   -2.0366    4.6300   -1.2559 N   0  0  0  0  0  0  0  0  0  0  0  0
   -1.1382    4.1722   -1.3978 H   0  0  0  0  0  0  0  0  0  0  0  0
   -2.0564    5.6478   -1.2367 H   0  0  0  0  0  0  0  0  0  0  0  0
   -4.1394    4.6135   -0.1739 N   0  0  0  0  0  0  0  0  0  0  0  0
   -4.9349    4.0839    0.1771 H   0  0  0  0  0  0  0  0  0  0  0  0
   -4.3130    5.5417   -0.5559 H   0  0  0  0  0  0  0  0  0  0  0  0
    0.1963   -1.4390    1.6182 C   0  0  0  0  0  0  0  0  0  0  0  0
    1.3955   -1.2219    1.7222 O   0  0  0  0  0  0  0  0  0  0  0  0
   -0.6352   -1.0669    2.6609 N   0  0  0  0  0  0  0  0  0  0  0  0
   -1.5764   -1.4427    2.5982 H   0  0  0  0  0  0  0  0  0  0  0  0
   -0.1099   -0.7893    3.9946 C   0  0  0  0  0  0  0  0  0  0  0  0
    0.6023    0.0423    3.9637 H   0  0  0  0  0  0  0  0  0  0  0  0
   -0.9228   -0.5186    4.6751 H   0  0  0  0  0  0  0  0  0  0  0  0
    0.3998   -1.6721    4.3964 H   0  0  0  0  0  0  0  0  0  0  0  0
  1  2  1  0  0  0  0
  2  3  1  0  0  0  0
  2  4  1  0  0  0  0
  2  5  1  0  0  0  0
  5  6  2  0  0  0  0
  5  7  1  0  0  0  0
  7  8  1  0  0  0  0
  7  9  1  0  0  0  0
  9 10  1  0  0  0  0
  9 11  1  0  0  0  0
  9 29  1  0  0  0  0
 11 12  1  0  0  0  0
 11 13  1  0  0  0  0
 11 14  1  0  0  0  0
 14 15  1  0  0  0  0
 14 16  1  0  0  0  0
 14 17  1  0  0  0  0
 17 18  1  0  0  0  0
 17 19  1  0  0  0  0
 17 20  1  0  0  0  0
 20 21  1  0  0  0  0
 20 22  2  0  0  0  0
 22 23  1  0  0  0  0
 22 26  1  0  0  0  0
 23 24  1  0  0  0  0
 23 25  1  0  0  0  0
 26 27  1  0  0  0  0
 26 28  1  0  0  0  0
 29 30  2  0  0  0  0
 29 31  1  0  0  0  0
 31 32  1  0  0  0  0
 31 33  1  0  0  0  0
 33 34  1  0  0  0  0
 33 35  1  0  0  0  0
 33 36  1  0  0  0  0
M  CHG  1  20   1
M  END
$$$$

  -OEChem-04042215563D

 36 35  0     1  0  0  0  0  0999 V2000
   -2.8292   -5.6018    0.7006 H   0  0  0  0  0  0  0  0  0  0  0  0
   -2.9399   -4.5949    0.2872 C   0  0  0  0  0  0  0  0  0  0  0  0
   -3.8459   -4.1448    0.6992 H   0  0  0  0  0  0  0  0  0  0  0  0
   -3.0385   -4.6727   -0.7982 H   0  0  0  0  0  0  0  0  0  0  0  0
   -1.7302   -3.7512    0.6420 C   0  0  0  0  0  0  0  0  0  0  0  0
   -0.8530   -4.2158    1.3453 O   0  0  0  0  0  0  0  0  0  0  0  0
   -1.6405   -2.4464    0.1899 N   0  0  0  0  0  0  0  0  0  0  0  0
   -2.3353   -2.1831   -0.5019 H   0  0  0  0  0  0  0  0  0  0  0  0
   -0.3882   -1.6628    0.2319 C   0  0  1  0  0  0  0  0  0  0  0  0
    0.3662   -2.2424   -0.3133 H   0  0  0  0  0  0  0  0  0  0  0  0
   -0.5409   -0.3192   -0.5105 C   0  0  0  0  0  0  0  0  0  0  0  0
    0.4232    0.2020   -0.4845 H   0  0  0  0  0  0  0  0  0  0  0  0
   -0.7664   -0.5307   -1.5611 H   0  0  0  0  0  0  0  0  0  0  0  0
   -1.6283    0.6074    0.0552 C   0  0  0  0  0  0  0  0  0  0  0  0
   -2.6040    0.1122    0.0274 H   0  0  0  0  0  0  0  0  0  0  0  0
   -1.3969    0.8537    1.0965 H   0  0  0  0  0  0  0  0  0  0  0  0
   -1.6696    1.8930   -0.7693 C   0  0  0  0  0  0  0  0  0  0  0  0
   -0.6654    2.3313   -0.7902 H   0  0  0  0  0  0  0  0  0  0  0  0
   -1.9650    1.6530   -1.7968 H   0  0  0  0  0  0  0  0  0  0  0  0
   -2.6204    2.8503   -0.1747 N   0  3  0  0  0  0  0  0  0  0  0  0
   -3.0774    2.5742    0.6934 H   0  0  0  0  0  0  0  0  0  0  0  0
   -2.8540    4.0323   -0.6693 C   0  0  0  0  0  0  0  0  0  0  0  0
   -2.2307    4.4771   -1.8135 N   0  0  0  0  0  0  0  0  0  0  0  0
   -1.4466    3.9339   -2.1695 H   0  0  0  0  0  0  0  0  0  0  0  0
   -2.2583    5.4720   -2.0285 H   0  0  0  0  0  0  0  0  0  0  0  0
   -3.7437    4.8691   -0.0388 N   0  0  0  0  0  0  0  0  0  0  0  0
   -4.3252    4.4994    0.7107 H   0  0  0  0  0  0  0  0  0  0  0  0
   -4.0669    5.7000   -0.5315 H   0  0  0  0  0  0  0  0  0  0  0  0
    0.2119   -1.4571    1.6440 C   0  0  0  0  0  0  0  0  0  0  0  0
    1.4122   -1.2418    1.7390 O   0  0  0  0  0  0  0  0  0  0  0  0
   -0.6063   -1.1023    2.7038 N   0  0  0  0  0  0  0  0  0  0  0  0
   -1.5517   -1.4678    2.6421 H   0  0  0  0  0  0  0  0  0  0  0  0
   -0.0657   -0.8561    4.0380 C   0  0  0  0  0  0  0  0  0  0  0  0
    0.6469   -0.0244    4.0190 H   0  0  0  0  0  0  0  0  0  0  0  0
   -0.8709   -0.6011    4.7337 H   0  0  0  0  0  0  0  0  0  0  0  0
    0.4479   -1.7484    4.4134 H   0  0  0  0  0  0  0  0  0  0  0  0
  1  2  1  0  0  0  0
  2  3  1  0  0  0  0
  2  4  1  0  0  0  0
  2  5  1  0  0  0  0
  5  6  2  0  0  0  0
  5  7  1  0  0  0  0
  7  8  1  0  0  0  0
  7  9  1  0  0  0  0
  9 10  1  0  0  0  0
  9 11  1  0  0  0  0
  9 29  1  0  0  0  0
 11 12  1  0  0  0  0
 11 13  1  0  0  0  0
 11 14  1  0  0  0  0
 14 15  1  0  0  0  0
 14 16  1  0  0  0  0
 14 17  1  0  0  0  0
 17 18  1  0  0  0  0
 17 19  1  0  0  0  0
 17 20  1  0  0  0  0
 20 21  1  0  0  0  0
 20 22  2  0  0  0  0
 22 23  1  0  0  0  0
 22 26  1  0  0  0  0
 23 24  1  0  0  0  0
 23 25  1  0  0  0  0
 26 27  1  0  0  0  0
 26 28  1  0  0  0  0
 29 30  2  0  0  0  0
 29 31  1  0  0  0  0
 31 32  1  0  0  0  0
 31 33  1  0  0  0  0
 33 34  1  0  0  0  0
 33 35  1  0  0  0  0
 33 36  1  0  0  0  0
M  CHG  1  20   1
M  END
$$$$

  -OEChem-04042215563D

 36 35  0     1  0  0  0  0  0999 V2000
   -2.8461   -5.5975    0.7310 H   0  0  0  0  0  0  0  0  0  0  0  0
   -2.9490   -4.5954    0.3040 C   0  0  0  0  0  0  0  0  0  0  0  0
   -3.8553   -4.1350    0.7043 H   0  0  0  0  0  0  0  0  0  0  0  0
   -3.0407   -4.6864   -0.7809 H   0  0  0  0  0  0  0  0  0  0  0  0
   -1.7367   -3.7540    0.6561 C   0  0  0  0  0  0  0  0  0  0  0  0
   -0.8694   -4.2116    1.3761 O   0  0  0  0  0  0  0  0  0  0  0  0
   -1.6358   -2.4572    0.1841 N   0  0  0  0  0  0  0  0  0  0  0  0
   -2.3219   -2.2037   -0.5198 H   0  0  0  0  0  0  0  0  0  0  0  0
   -0.3787   -1.6804    0.2200 C   0  0  1  0  0  0  0  0  0  0  0  0
    0.3754   -2.2647   -0.3207 H   0  0  0  0  0  0  0  0  0  0  0  0
   -0.5291   -0.3356   -0.5196 C   0  0  0  0  0  0  0  0  0  0  0  0
    0.4341    0.1874   -0.5145 H   0  0  0  0  0  0  0  0  0  0  0  0
   -0.7704   -0.5577   -1.5648 H   0  0  0  0  0  0  0  0  0  0  0  0
   -1.6099    0.5923    0.0585 C   0  0  0  0  0  0  0  0  0  0  0  0
   -2.5244    0.0315    0.2750 H   0  0  0  0  0  0  0  0  0  0  0  0
   -1.2473    1.0275    0.9966 H   0  0  0  0  0  0  0  0  0  0  0  0
   -1.9222    1.6987   -0.9469 C   0  0  0  0  0  0  0  0  0  0  0  0
   -0.9887    2.2076   -1.2128 H   0  0  0  0  0  0  0  0  0  0  0  0
   -2.3459    1.2545   -1.8545 H   0  0  0  0  0  0  0  0  0  0  0  0
   -2.8697    2.6635   -0.3594 N   0  3  0  0  0  0  0  0  0  0  0  0
   -3.1326    2.5228    0.6154 H   0  0  0  0  0  0  0  0  0  0  0  0
   -3.3305    3.6990   -1.0003 C   0  0  0  0  0  0  0  0  0  0  0  0
   -2.9699    3.9653   -2.3018 N   0  0  0  0  0  0  0  0  0  0  0  0
   -2.1922    3.4394   -2.6957 H   0  0  0  0  0  0  0  0  0  0  0  0
   -3.1573    4.8925   -2.6783 H   0  0  0  0  0  0  0  0  0  0  0  0
   -4.1980    4.5589   -0.3700 N   0  0  0  0  0  0  0  0  0  0  0  0
   -4.5933    4.2926    0.5299 H   0  0  0  0  0  0  0  0  0  0  0  0
   -4.6977    5.2478   -0.9296 H   0  0  0  0  0  0  0  0  0  0  0  0
    0.2151   -1.4563    1.6313 C   0  0  0  0  0  0  0  0  0  0  0  0
    1.4165   -1.2519    1.7310 O   0  0  0  0  0  0  0  0  0  0  0  0
   -0.6079   -1.0796    2.6793 N   0  0  0  0  0  0  0  0  0  0  0  0
   -1.5561   -1.4368    2.6158 H   0  0  0  0  0  0  0  0  0  0  0  0
   -0.0738   -0.8210    4.0135 C   0  0  0  0  0  0  0  0  0  0  0  0
    0.6440    0.0059    3.9885 H   0  0  0  0  0  0  0  0  0  0  0  0
   -0.8814   -0.5531    4.7015 H   0  0  0  0  0  0  0  0  0  0  0  0
    0.4323   -1.7116    4.4024 H   0  0  0  0  0  0  0  0  0  0  0  0
  1  2  1  0  0  0  0
  2  3  1  0  0  0  0
  2  4  1  0  0  0  0
  2  5  1  0  0  0  0
  5  6  2  0  0  0  0
  5  7  1  0  0  0  0
  7  8  1  0  0  0  0
  7  9  1  0  0  0  0
  9 10  1  0  0  0  0
  9 11  1  0  0  0  0
  9 29  1  0  0  0  0
 11 12  1  0  0  0  0
 11 13  1  0  0  0  0
 11 14  1  0  0  0  0
 14 15  1  0  0  0  0
 14 16  1  0  0  0  0
 14 17  1  0  0  0  0
 17 18  1  0  0  0  0
 17 19  1  0  0  0  0
 17 20  1  0  0  0  0
 20 21  1  0  0  0  0
 20 22  2  0  0  0  0
 22 23  1  0  0  0  0
 22 26  1  0  0  0  0
 23 24  1  0  0  0  0
 23 25  1  0  0  0  0
 26 27  1  0  0  0  0
 26 28  1  0  0  0  0
 29 30  2  0  0  0  0
 29 31  1  0  0  0  0
 31 32  1  0  0  0  0
 31 33  1  0  0  0  0
 33 34  1  0  0  0  0
 33 35  1  0  0  0  0
 33 36  1  0  0  0  0
M  CHG  1  20   1
M  END
$$$$

  -OEChem-04042215563D

 36 35  0     1  0  0  0  0  0999 V2000
   -2.8195   -5.6277    0.8048 H   0  0  0  0  0  0  0  0  0  0  0  0
   -2.9112   -4.6496    0.3226 C   0  0  0  0  0  0  0  0  0  0  0  0
   -3.8380   -4.1792    0.6585 H   0  0  0  0  0  0  0  0  0  0  0  0
   -2.9535   -4.7961   -0.7592 H   0  0  0  0  0  0  0  0  0  0  0  0
   -1.7223   -3.7791    0.6819 C   0  0  0  0  0  0  0  0  0  0  0  0
   -0.8556   -4.2129    1.4168 O   0  0  0  0  0  0  0  0  0  0  0  0
   -1.6378   -2.4874    0.1921 N   0  0  0  0  0  0  0  0  0  0  0  0
   -2.3211   -2.2557   -0.5218 H   0  0  0  0  0  0  0  0  0  0  0  0
   -0.3861   -1.7010    0.2158 C   0  0  1  0  0  0  0  0  0  0  0  0
    0.3706   -2.2846   -0.3222 H   0  0  0  0  0  0  0  0  0  0  0  0
   -0.5431   -0.3586   -0.5274 C   0  0  0  0  0  0  0  0  0  0  0  0
    0.4181    0.1680   -0.5371 H   0  0  0  0  0  0  0  0  0  0  0  0
   -0.7895   -0.5930   -1.5686 H   0  0  0  0  0  0  0  0  0  0  0  0
   -1.6243    0.5728    0.0504 C   0  0  0  0  0  0  0  0  0  0  0  0
   -2.4295   -0.0096    0.5087 H   0  0  0  0  0  0  0  0  0  0  0  0
   -1.1747    1.1952    0.8327 H   0  0  0  0  0  0  0  0  0  0  0  0
   -2.2172    1.4428   -1.0575 C   0  0  0  0  0  0  0  0  0  0  0  0
   -1.4003    1.9580   -1.5753 H   0  0  0  0  0  0  0  0  0  0  0  0
   -2.7387    0.8046   -1.7794 H   0  0  0  0  0  0  0  0  0  0  0  0
   -3.1472    2.4333   -0.4834 N   0  3  0  0  0  0  0  0  0  0  0  0
   -3.2357    2.4541    0.5320 H   0  0  0  0  0  0  0  0  0  0  0  0
   -3.7971    3.3088   -1.1958 C   0  0  0  0  0  0  0  0  0  0  0  0
   -3.6763    3.3637   -2.5663 N   0  0  0  0  0  0  0  0  0  0  0  0
   -2.9280    2.8264   -2.9997 H   0  0  0  0  0  0  0  0  0  0  0  0
   -4.0080    4.1955   -3.0509 H   0  0  0  0  0  0  0  0  0  0  0  0
   -4.6282    4.2097   -0.5730 N   0  0  0  0  0  0  0  0  0  0  0  0
   -4.8542    4.0748    0.4106 H   0  0  0  0  0  0  0  0  0  0  0  0
   -5.2746    4.7534   -1.1425 H   0  0  0  0  0  0  0  0  0  0  0  0
    0.2084   -1.4555    1.6231 C   0  0  0  0  0  0  0  0  0  0  0  0
    1.4098   -1.2490    1.7195 O   0  0  0  0  0  0  0  0  0  0  0  0
   -0.6158   -1.0717    2.6677 N   0  0  0  0  0  0  0  0  0  0  0  0
   -1.5598   -1.4412    2.6127 H   0  0  0  0  0  0  0  0  0  0  0  0
   -0.0800   -0.7903    3.9965 C   0  0  0  0  0  0  0  0  0  0  0  0
    0.6258    0.0464    3.9582 H   0  0  0  0  0  0  0  0  0  0  0  0
   -0.8885   -0.5260    4.6850 H   0  0  0  0  0  0  0  0  0  0  0  0
    0.4409   -1.6689    4.3932 H   0  0  0  0  0  0  0  0  0  0  0  0
  1  2  1  0  0  0  0
  2  3  1  0  0  0  0
  2  4  1  0  0  0  0
  2  5  1  0  0  0  0
  5  6  2  0  0  0  0
  5  7  1  0  0  0  0
  7  8  1  0  0  0  0
  7  9  1  0  0  0  0
  9 10  1  0  0  0  0
  9 11  1  0  0  0  0
  9 29  1  0  0  0  0
 11 12  1  0  0  0  0
 11 13  1  0  0  0  0
 11 14  1  0  0  0  0
 14 15  1  0  0  0  0
 14 16  1  0  0  0  0
 14 17  1  0  0  0  0
 17 18  1  0  0  0  0
 17 19  1  0  0  0  0
 17 20  1  0  0  0  0
 20 21  1  0  0  0  0
 20 22  2  0  0  0  0
 22 23  1  0  0  0  0
 22 26  1  0  0  0  0
 23 24  1  0  0  0  0
 23 25  1  0  0  0  0
 26 27  1  0  0  0  0
 26 28  1  0  0  0  0
 29 30  2  0  0  0  0
 29 31  1  0  0  0  0
 31 32  1  0  0  0  0
 31 33  1  0  0  0  0
 33 34  1  0  0  0  0
 33 35  1  0  0  0  0
 33 36  1  0  0  0  0
M  CHG  1  20   1
M  END
$$$$

  -OEChem-04042215563D

 36 35  0     1  0  0  0  0  0999 V2000
   -2.8120   -5.6342    0.8571 H   0  0  0  0  0  0  0  0  0  0  0  0
   -2.8914   -4.6711    0.3437 C   0  0  0  0  0  0  0  0  0  0  0  0
   -3.8185   -4.1839    0.6543 H   0  0  0  0  0  0  0  0  0  0  0  0
   -2.9223   -4.8512   -0.7335 H   0  0  0  0  0  0  0  0  0  0  0  0
   -1.7004   -3.7982    0.6904 C   0  0  0  0  0  0  0  0  0  0  0  0
   -0.8300   -4.2268    1.4239 O   0  0  0  0  0  0  0  0  0  0  0  0
   -1.6232   -2.5072    0.1979 N   0  0  0  0  0  0  0  0  0  0  0  0
   -2.3084   -2.2801   -0.5152 H   0  0  0  0  0  0  0  0  0  0  0  0
   -0.3770   -1.7122    0.2209 C   0  0  1  0  0  0  0  0  0  0  0  0
    0.3842   -2.2917   -0.3150 H   0  0  0  0  0  0  0  0  0  0  0  0
   -0.5464   -0.3766   -0.5312 C   0  0  0  0  0  0  0  0  0  0  0  0
    0.4099    0.1592   -0.5346 H   0  0  0  0  0  0  0  0  0  0  0  0
   -0.7768   -0.6170   -1.5745 H   0  0  0  0  0  0  0  0  0  0  0  0
   -1.6393    0.5492    0.0389 C   0  0  0  0  0  0  0  0  0  0  0  0
   -2.2891    0.0010    0.7283 H   0  0  0  0  0  0  0  0  0  0  0  0
   -1.1571    1.3507    0.6107 H   0  0  0  0  0  0  0  0  0  0  0  0
   -2.4967    1.1336   -1.0826 C   0  0  0  0  0  0  0  0  0  0  0  0
   -1.8395    1.6066   -1.8210 H   0  0  0  0  0  0  0  0  0  0  0  0
   -3.0511    0.3266   -1.5740 H   0  0  0  0  0  0  0  0  0  0  0  0
   -3.4280    2.1328   -0.5273 N   0  3  0  0  0  0  0  0  0  0  0  0
   -3.3769    2.3064    0.4762 H   0  0  0  0  0  0  0  0  0  0  0  0
   -4.2513    2.8348   -1.2519 C   0  0  0  0  0  0  0  0  0  0  0  0
   -4.3328    2.6777   -2.6173 N   0  0  0  0  0  0  0  0  0  0  0  0
   -3.6077    2.1314   -3.0779 H   0  0  0  0  0  0  0  0  0  0  0  0
   -4.8083    3.3945   -3.1622 H   0  0  0  0  0  0  0  0  0  0  0  0
   -5.0638    3.7639   -0.6465 N   0  0  0  0  0  0  0  0  0  0  0  0
   -5.1285    3.7780    0.3697 H   0  0  0  0  0  0  0  0  0  0  0  0
   -5.8311    4.1672   -1.1814 H   0  0  0  0  0  0  0  0  0  0  0  0
    0.2178   -1.4572    1.6270 C   0  0  0  0  0  0  0  0  0  0  0  0
    1.4186   -1.2472    1.7215 O   0  0  0  0  0  0  0  0  0  0  0  0
   -0.6062   -1.0754    2.6726 N   0  0  0  0  0  0  0  0  0  0  0  0
   -1.5477   -1.4515    2.6223 H   0  0  0  0  0  0  0  0  0  0  0  0
   -0.0696   -0.7804    3.9981 C   0  0  0  0  0  0  0  0  0  0  0  0
    0.6296    0.0615    3.9529 H   0  0  0  0  0  0  0  0  0  0  0  0
   -0.8785   -0.5173    4.6862 H   0  0  0  0  0  0  0  0  0  0  0  0
    0.4583   -1.6521    4.4001 H   0  0  0  0  0  0  0  0  0  0  0  0
  1  2  1  0  0  0  0
  2  3  1  0  0  0  0
  2  4  1  0  0  0  0
  2  5  1  0  0  0  0
  5  6  2  0  0  0  0
  5  7  1  0  0  0  0
  7  8  1  0  0  0  0
  7  9  1  0  0  0  0
  9 10  1  0  0  0  0
  9 11  1  0  0  0  0
  9 29  1  0  0  0  0
 11 12  1  0  0  0  0
 11 13  1  0  0  0  0
 11 14  1  0  0  0  0
 14 15  1  0  0  0  0
 14 16  1  0  0  0  0
 14 17  1  0  0  0  0
 17 18  1  0  0  0  0
 17 19  1  0  0  0  0
 17 20  1  0  0  0  0
 20 21  1  0  0  0  0
 20 22  2  0  0  0  0
 22 23  1  0  0  0  0
 22 26  1  0  0  0  0
 23 24  1  0  0  0  0
 23 25  1  0  0  0  0
 26 27  1  0  0  0  0
 26 28  1  0  0  0  0
 29 30  2  0  0  0  0
 29 31  1  0  0  0  0
 31 32  1  0  0  0  0
 31 33  1  0  0  0  0
 33 34  1  0  0  0  0
 33 35  1  0  0  0  0
 33 36  1  0  0  0  0
M  CHG  1  20   1
M  END
$$$$

  -OEChem-04042215563D

 36 35  0     1  0  0  0  0  0999 V2000
   -2.6498   -5.7465    0.9589 H   0  0  0  0  0  0  0  0  0  0  0  0
   -2.7838   -4.7935    0.4382 C   0  0  0  0  0  0  0  0  0  0  0  0
   -3.7204   -4.3415    0.7717 H   0  0  0  0  0  0  0  0  0  0  0  0
   -2.8396   -4.9870   -0.6356 H   0  0  0  0  0  0  0  0  0  0  0  0
   -1.6203   -3.8686    0.7404 C   0  0  0  0  0  0  0  0  0  0  0  0
   -0.7009   -4.2604    1.4334 O   0  0  0  0  0  0  0  0  0  0  0  0
   -1.6236   -2.5721    0.2563 N   0  0  0  0  0  0  0  0  0  0  0  0
   -2.3482   -2.3717   -0.4243 H   0  0  0  0  0  0  0  0  0  0  0  0
   -0.4137   -1.7241    0.2319 C   0  0  1  0  0  0  0  0  0  0  0  0
    0.3479   -2.2770   -0.3309 H   0  0  0  0  0  0  0  0  0  0  0  0
   -0.6626   -0.4074   -0.5317 C   0  0  0  0  0  0  0  0  0  0  0  0
    0.2725    0.1646   -0.5458 H   0  0  0  0  0  0  0  0  0  0  0  0
   -0.8915   -0.6559   -1.5735 H   0  0  0  0  0  0  0  0  0  0  0  0
   -1.7770    0.4860    0.0502 C   0  0  0  0  0  0  0  0  0  0  0  0
   -2.2028    0.0384    0.9529 H   0  0  0  0  0  0  0  0  0  0  0  0
   -1.3344    1.4460    0.3390 H   0  0  0  0  0  0  0  0  0  0  0  0
   -2.8913    0.7163   -0.9708 C   0  0  0  0  0  0  0  0  0  0  0  0
   -2.4438    1.0674   -1.9068 H   0  0  0  0  0  0  0  0  0  0  0  0
   -3.4090   -0.2289   -1.1671 H   0  0  0  0  0  0  0  0  0  0  0  0
   -3.8392    1.7218   -0.4539 N   0  3  0  0  0  0  0  0  0  0  0  0
   -3.8320    1.8919    0.5514 H   0  0  0  0  0  0  0  0  0  0  0  0
   -4.6418    2.4182   -1.2074 C   0  0  0  0  0  0  0  0  0  0  0  0
   -4.6811    2.2590   -2.5743 N   0  0  0  0  0  0  0  0  0  0  0  0
   -3.9461    1.7087   -3.0135 H   0  0  0  0  0  0  0  0  0  0  0  0
   -5.1456    2.9707   -3.1355 H   0  0  0  0  0  0  0  0  0  0  0  0
   -5.4780    3.3453   -0.6323 N   0  0  0  0  0  0  0  0  0  0  0  0
   -5.5771    3.3638    0.3810 H   0  0  0  0  0  0  0  0  0  0  0  0
   -6.2249    3.7484   -1.1956 H   0  0  0  0  0  0  0  0  0  0  0  0
    0.2392   -1.4475    1.6087 C   0  0  0  0  0  0  0  0  0  0  0  0
    1.4325   -1.1820    1.6398 O   0  0  0  0  0  0  0  0  0  0  0  0
   -0.5409   -1.1058    2.7006 N   0  0  0  0  0  0  0  0  0  0  0  0
   -1.4648   -1.5261    2.7046 H   0  0  0  0  0  0  0  0  0  0  0  0
    0.0551   -0.7778    3.9927 C   0  0  0  0  0  0  0  0  0  0  0  0
    0.7096    0.0957    3.9028 H   0  0  0  0  0  0  0  0  0  0  0  0
   -0.7249   -0.5481    4.7249 H   0  0  0  0  0  0  0  0  0  0  0  0
    0.6463   -1.6205    4.3678 H   0  0  0  0  0  0  0  0  0  0  0  0
  1  2  1  0  0  0  0
  2  3  1  0  0  0  0
  2  4  1  0  0  0  0
  2  5  1  0  0  0  0
  5  6  2  0  0  0  0
  5  7  1  0  0  0  0
  7  8  1  0  0  0  0
  7  9  1  0  0  0  0
  9 10  1  0  0  0  0
  9 11  1  0  0  0  0
  9 29  1  0  0  0  0
 11 12  1  0  0  0  0
 11 13  1  0  0  0  0
 11 14  1  0  0  0  0
 14 15  1  0  0  0  0
 14 16  1  0  0  0  0
 14 17  1  0  0  0  0
 17 18  1  0  0  0  0
 17 19  1  0  0  0  0
 17 20  1  0  0  0  0
 20 21  1  0  0  0  0
 20 22  2  0  0  0  0
 22 23  1  0  0  0  0
 22 26  1  0  0  0  0
 23 24  1  0  0  0  0
 23 25  1  0  0  0  0
 26 27  1  0  0  0  0
 26 28  1  0  0  0  0
 29 30  2  0  0  0  0
 29 31  1  0  0  0  0
 31 32  1  0  0  0  0
 31 33  1  0  0  0  0
 33 34  1  0  0  0  0
 33 35  1  0  0  0  0
 33 36  1  0  0  0  0
M  CHG  1  20   1
M  END
$$$$

  -OEChem-04042215563D

 36 35  0     1  0  0  0  0  0999 V2000
   -2.4717   -5.8482    1.0132 H   0  0  0  0  0  0  0  0  0  0  0  0
   -2.6999   -4.8772    0.5631 C   0  0  0  0  0  0  0  0  0  0  0  0
   -3.6185   -4.4914    1.0112 H   0  0  0  0  0  0  0  0  0  0  0  0
   -2.8520   -5.0175   -0.5097 H   0  0  0  0  0  0  0  0  0  0  0  0
   -1.5550   -3.9126    0.8066 C   0  0  0  0  0  0  0  0  0  0  0  0
   -0.5970   -4.2693    1.4656 O   0  0  0  0  0  0  0  0  0  0  0  0
   -1.6190   -2.6202    0.3134 N   0  0  0  0  0  0  0  0  0  0  0  0
   -2.3678   -2.4543   -0.3497 H   0  0  0  0  0  0  0  0  0  0  0  0
   -0.4351   -1.7388    0.2362 C   0  0  1  0  0  0  0  0  0  0  0  0
    0.3200   -2.2819   -0.3448 H   0  0  0  0  0  0  0  0  0  0  0  0
   -0.7356   -0.4407   -0.5446 C   0  0  0  0  0  0  0  0  0  0  0  0
    0.1885    0.1488   -0.5725 H   0  0  0  0  0  0  0  0  0  0  0  0
   -0.9707   -0.6987   -1.5826 H   0  0  0  0  0  0  0  0  0  0  0  0
   -1.8527    0.4463    0.0405 C   0  0  0  0  0  0  0  0  0  0  0  0
   -2.0515    0.1876    1.0839 H   0  0  0  0  0  0  0  0  0  0  0  0
   -1.5061    1.4859    0.0239 H   0  0  0  0  0  0  0  0  0  0  0  0
   -3.1396    0.3409   -0.7764 C   0  0  0  0  0  0  0  0  0  0  0  0
   -2.9100    0.5504   -1.8259 H   0  0  0  0  0  0  0  0  0  0  0  0
   -3.5354   -0.6779   -0.7079 H   0  0  0  0  0  0  0  0  0  0  0  0
   -4.1311    1.3047   -0.2601 N   0  3  0  0  0  0  0  0  0  0  0  0
   -4.1451    1.4544    0.7485 H   0  0  0  0  0  0  0  0  0  0  0  0
   -4.9707    1.9650   -1.0065 C   0  0  0  0  0  0  0  0  0  0  0  0
   -4.9985    1.8300   -2.3765 N   0  0  0  0  0  0  0  0  0  0  0  0
   -4.2288    1.3371   -2.8237 H   0  0  0  0  0  0  0  0  0  0  0  0
   -5.4974    2.5294   -2.9233 H   0  0  0  0  0  0  0  0  0  0  0  0
   -5.8628    2.8301   -0.4182 N   0  0  0  0  0  0  0  0  0  0  0  0
   -5.9624    2.8254    0.5953 H   0  0  0  0  0  0  0  0  0  0  0  0
   -6.6399    3.1834   -0.9740 H   0  0  0  0  0  0  0  0  0  0  0  0
    0.2597   -1.4368    1.5873 C   0  0  0  0  0  0  0  0  0  0  0  0
    1.4486   -1.1515    1.5762 O   0  0  0  0  0  0  0  0  0  0  0  0
   -0.4878   -1.1110    2.7063 N   0  0  0  0  0  0  0  0  0  0  0  0
   -1.4038   -1.5469    2.7392 H   0  0  0  0  0  0  0  0  0  0  0  0
    0.1480   -0.7871    3.9801 C   0  0  0  0  0  0  0  0  0  0  0  0
    0.7898    0.0946    3.8781 H   0  0  0  0  0  0  0  0  0  0  0  0
   -0.6094   -0.5736    4.7402 H   0  0  0  0  0  0  0  0  0  0  0  0
    0.7605   -1.6269    4.3263 H   0  0  0  0  0  0  0  0  0  0  0  0
  1  2  1  0  0  0  0
  2  3  1  0  0  0  0
  2  4  1  0  0  0  0
  2  5  1  0  0  0  0
  5  6  2  0  0  0  0
  5  7  1  0  0  0  0
  7  8  1  0  0  0  0
  7  9  1  0  0  0  0
  9 10  1  0  0  0  0
  9 11  1  0  0  0  0
  9 29  1  0  0  0  0
 11 12  1  0  0  0  0
 11 13  1  0  0  0  0
 11 14  1  0  0  0  0
 14 15  1  0  0  0  0
 14 16  1  0  0  0  0
 14 17  1  0  0  0  0
 17 18  1  0  0  0  0
 17 19  1  0  0  0  0
 17 20  1  0  0  0  0
 20 21  1  0  0  0  0
 20 22  2  0  0  0  0
 22 23  1  0  0  0  0
 22 26  1  0  0  0  0
 23 24  1  0  0  0  0
 23 25  1  0  0  0  0
 26 27  1  0  0  0  0
 26 28  1  0  0  0  0
 29 30  2  0  0  0  0
 29 31  1  0  0  0  0
 31 32  1  0  0  0  0
 31 33  1  0  0  0  0
 33 34  1  0  0  0  0
 33 35  1  0  0  0  0
 33 36  1  0  0  0  0
M  CHG  1  20   1
M  END
$$$$

  -OEChem-04042215563D

 36 35  0     1  0  0  0  0  0999 V2000
   -2.0595   -6.0521    1.1521 H   0  0  0  0  0  0  0  0  0  0  0  0
   -2.4409   -5.1033    0.7626 C   0  0  0  0  0  0  0  0  0  0  0  0
   -3.3376   -4.8294    1.3233 H   0  0  0  0  0  0  0  0  0  0  0  0
   -2.7007   -5.2389   -0.2900 H   0  0  0  0  0  0  0  0  0  0  0  0
   -1.3859   -4.0228    0.9065 C   0  0  0  0  0  0  0  0  0  0  0  0
   -0.3576   -4.2595    1.5111 O   0  0  0  0  0  0  0  0  0  0  0  0
   -1.6142   -2.7609    0.3846 N   0  0  0  0  0  0  0  0  0  0  0  0
   -2.4095   -2.7062   -0.2420 H   0  0  0  0  0  0  0  0  0  0  0  0
   -0.5308   -1.7760    0.1824 C   0  0  1  0  0  0  0  0  0  0  0  0
    0.2232   -2.2669   -0.4447 H   0  0  0  0  0  0  0  0  0  0  0  0
   -1.0184   -0.5396   -0.6060 C   0  0  0  0  0  0  0  0  0  0  0  0
   -0.1588    0.1304   -0.7255 H   0  0  0  0  0  0  0  0  0  0  0  0
   -1.3130   -0.8514   -1.6132 H   0  0  0  0  0  0  0  0  0  0  0  0
   -2.1622    0.2667    0.0383 C   0  0  0  0  0  0  0  0  0  0  0  0
   -2.0832    0.2577    1.1287 H   0  0  0  0  0  0  0  0  0  0  0  0
   -2.0542    1.3091   -0.2791 H   0  0  0  0  0  0  0  0  0  0  0  0
   -3.5377   -0.2399   -0.3974 C   0  0  0  0  0  0  0  0  0  0  0  0
   -3.5775   -0.3248   -1.4885 H   0  0  0  0  0  0  0  0  0  0  0  0
   -3.7021   -1.2405    0.0161 H   0  0  0  0  0  0  0  0  0  0  0  0
   -4.5920    0.6734    0.0871 N   0  3  0  0  0  0  0  0  0  0  0  0
   -4.9370    0.5178    1.0340 H   0  0  0  0  0  0  0  0  0  0  0  0
   -5.0951    1.6497   -0.6152 C   0  0  0  0  0  0  0  0  0  0  0  0
   -4.6489    1.9397   -1.8849 N   0  0  0  0  0  0  0  0  0  0  0  0
   -3.7892    1.4956   -2.2010 H   0  0  0  0  0  0  0  0  0  0  0  0
   -4.9018    2.8359   -2.2969 H   0  0  0  0  0  0  0  0  0  0  0  0
   -6.0962    2.4256   -0.0801 N   0  0  0  0  0  0  0  0  0  0  0  0
   -6.5497    2.1231    0.7802 H   0  0  0  0  0  0  0  0  0  0  0  0
   -6.6108    3.0521   -0.6970 H   0  0  0  0  0  0  0  0  0  0  0  0
    0.2398   -1.3626    1.4612 C   0  0  0  0  0  0  0  0  0  0  0  0
    1.3884   -0.9614    1.3387 O   0  0  0  0  0  0  0  0  0  0  0  0
   -0.4415   -1.0686    2.6302 N   0  0  0  0  0  0  0  0  0  0  0  0
   -1.3038   -1.5893    2.7551 H   0  0  0  0  0  0  0  0  0  0  0  0
    0.2594   -0.6295    3.8337 C   0  0  0  0  0  0  0  0  0  0  0  0
    0.7951    0.3077    3.6481 H   0  0  0  0  0  0  0  0  0  0  0  0
   -0.4516   -0.4624    4.6484 H   0  0  0  0  0  0  0  0  0  0  0  0
    0.9824   -1.3879    4.1539 H   0  0  0  0  0  0  0  0  0  0  0  0
  1  2  1  0  0  0  0
  2  3  1  0  0  0  0
  2  4  1  0  0  0  0
  2  5  1  0  0  0  0
  5  6  2  0  0  0  0
  5  7  1  0  0  0  0
  7  8  1  0  0  0  0
  7  9  1  0  0  0  0
  9 10  1  0  0  0  0
  9 11  1  0  0  0  0
  9 29  1  0  0  0  0
 11 12  1  0  0  0  0
 11 13  1  0  0  0  0
 11 14  1  0  0  0  0
 14 15  1  0  0  0  0
 14 16  1  0  0  0  0
 14 17  1  0  0  0  0
 17 18  1  0  0  0  0
 17 19  1  0  0  0  0
 17 20  1  0  0  0  0
 20 21  1  0  0  0  0
 20 22  2  0  0  0  0
 22 23  1  0  0  0  0
 22 26  1  0  0  0  0
 23 24  1  0  0  0  0
 23 25  1  0  0  0  0
 26 27  1  0  0  0  0
 26 28  1  0  0  0  0
 29 30  2  0  0  0  0
 29 31  1  0  0  0  0
 31 32  1  0  0  0  0
 31 33  1  0  0  0  0
 33 34  1  0  0  0  0
 33 35  1  0  0  0  0
 33 36  1  0  0  0  0
M  CHG  1  20   1
M  END
$$$$

  -OEChem-04042215563D

 36 35  0     1  0  0  0  0  0999 V2000
   -1.9079   -6.1239    1.1502 H   0  0  0  0  0  0  0  0  0  0  0  0
   -2.3066   -5.1941    0.7331 C   0  0  0  0  0  0  0  0  0  0  0  0
   -3.2340   -4.9463    1.2542 H   0  0  0  0  0  0  0  0  0  0  0  0
   -2.5190   -5.3517   -0.3269 H   0  0  0  0  0  0  0  0  0  0  0  0
   -1.2966   -4.0751    0.9033 C   0  0  0  0  0  0  0  0  0  0  0  0
   -0.2663   -4.2827    1.5147 O   0  0  0  0  0  0  0  0  0  0  0  0
   -1.5662   -2.8150    0.3959 N   0  0  0  0  0  0  0  0  0  0  0  0
   -2.3545   -2.7888   -0.2418 H   0  0  0  0  0  0  0  0  0  0  0  0
   -0.5088   -1.8027    0.1863 C   0  0  1  0  0  0  0  0  0  0  0  0
    0.2450   -2.2649   -0.4623 H   0  0  0  0  0  0  0  0  0  0  0  0
   -1.0260   -0.5483   -0.5582 C   0  0  0  0  0  0  0  0  0  0  0  0
   -0.1742    0.1288   -0.6930 H   0  0  0  0  0  0  0  0  0  0  0  0
   -1.3505   -0.8480   -1.5598 H   0  0  0  0  0  0  0  0  0  0  0  0
   -2.1612    0.2494    0.1147 C   0  0  0  0  0  0  0  0  0  0  0  0
   -1.9165    0.4389    1.1639 H   0  0  0  0  0  0  0  0  0  0  0  0
   -2.2152    1.2258   -0.3778 H   0  0  0  0  0  0  0  0  0  0  0  0
   -3.5281   -0.4292    0.0138 C   0  0  0  0  0  0  0  0  0  0  0  0
   -3.7456   -0.6834   -1.0290 H   0  0  0  0  0  0  0  0  0  0  0  0
   -3.5134   -1.3625    0.5860 H   0  0  0  0  0  0  0  0  0  0  0  0
   -4.5719    0.4613    0.5597 N   0  3  0  0  0  0  0  0  0  0  0  0
   -4.7345    0.4160    1.5656 H   0  0  0  0  0  0  0  0  0  0  0  0
   -5.2721    1.2972   -0.1544 C   0  0  0  0  0  0  0  0  0  0  0  0
   -5.0795    1.4391   -1.5100 N   0  0  0  0  0  0  0  0  0  0  0  0
   -4.2501    1.0149   -1.9196 H   0  0  0  0  0  0  0  0  0  0  0  0
   -5.4764    2.2539   -1.9744 H   0  0  0  0  0  0  0  0  0  0  0  0
   -6.2292    2.0737    0.4546 N   0  0  0  0  0  0  0  0  0  0  0  0
   -6.4963    1.8667    1.4153 H   0  0  0  0  0  0  0  0  0  0  0  0
   -6.8967    2.5748   -0.1295 H   0  0  0  0  0  0  0  0  0  0  0  0
    0.2665   -1.3882    1.4615 C   0  0  0  0  0  0  0  0  0  0  0  0
    1.4032   -0.9559    1.3346 O   0  0  0  0  0  0  0  0  0  0  0  0
   -0.4135   -1.1252    2.6387 N   0  0  0  0  0  0  0  0  0  0  0  0
   -1.2534   -1.6799    2.7687 H   0  0  0  0  0  0  0  0  0  0  0  0
    0.2844   -0.6684    3.8372 C   0  0  0  0  0  0  0  0  0  0  0  0
    0.7786    0.2916    3.6524 H   0  0  0  0  0  0  0  0  0  0  0  0
   -0.4220   -0.5371    4.6623 H   0  0  0  0  0  0  0  0  0  0  0  0
    1.0424   -1.3987    4.1411 H   0  0  0  0  0  0  0  0  0  0  0  0
  1  2  1  0  0  0  0
  2  3  1  0  0  0  0
  2  4  1  0  0  0  0
  2  5  1  0  0  0  0
  5  6  2  0  0  0  0
  5  7  1  0  0  0  0
  7  8  1  0  0  0  0
  7  9  1  0  0  0  0
  9 10  1  0  0  0  0
  9 11  1  0  0  0  0
  9 29  1  0  0  0  0
 11 12  1  0  0  0  0
 11 13  1  0  0  0  0
 11 14  1  0  0  0  0
 14 15  1  0  0  0  0
 14 16  1  0  0  0  0
 14 17  1  0  0  0  0
 17 18  1  0  0  0  0
 17 19  1  0  0  0  0
 17 20  1  0  0  0  0
 20 21  1  0  0  0  0
 20 22  2  0  0  0  0
 22 23  1  0  0  0  0
 22 26  1  0  0  0  0
 23 24  1  0  0  0  0
 23 25  1  0  0  0  0
 26 27  1  0  0  0  0
 26 28  1  0  0  0  0
 29 30  2  0  0  0  0
 29 31  1  0  0  0  0
 31 32  1  0  0  0  0
 31 33  1  0  0  0  0
 33 34  1  0  0  0  0
 33 35  1  0  0  0  0
 33 36  1  0  0  0  0
M  CHG  1  20   1
M  END
$$$$

  -OEChem-04042215563D

 36 35  0     1  0  0  0  0  0999 V2000
   -2.2656   -5.9538    0.6447 H   0  0  0  0  0  0  0  0  0  0  0  0
   -2.4920   -4.9723    0.2168 C   0  0  0  0  0  0  0  0  0  0  0  0
   -3.4997   -4.6816    0.5203 H   0  0  0  0  0  0  0  0  0  0  0  0
   -2.4503   -5.0513   -0.8722 H   0  0  0  0  0  0  0  0  0  0  0  0
   -1.4834   -3.9503    0.7056 C   0  0  0  0  0  0  0  0  0  0  0  0
   -0.6918   -4.2579    1.5752 O   0  0  0  0  0  0  0  0  0  0  0  0
   -1.5053   -2.6606    0.2010 N   0  0  0  0  0  0  0  0  0  0  0  0
   -2.0905   -2.5643   -0.6221 H   0  0  0  0  0  0  0  0  0  0  0  0
   -0.3158   -1.7819    0.2408 C   0  0  1  0  0  0  0  0  0  0  0  0
    0.4932   -2.3102   -0.2780 H   0  0  0  0  0  0  0  0  0  0  0  0
   -0.5378   -0.4406   -0.5009 C   0  0  0  0  0  0  0  0  0  0  0  0
    0.4025    0.1226   -0.4684 H   0  0  0  0  0  0  0  0  0  0  0  0
   -0.7297   -0.6693   -1.5542 H   0  0  0  0  0  0  0  0  0  0  0  0
   -1.6654    0.4879   -0.0009 C   0  0  0  0  0  0  0  0  0  0  0  0
   -1.4291    0.8026    1.0212 H   0  0  0  0  0  0  0  0  0  0  0  0
   -1.6490    1.3881   -0.6252 H   0  0  0  0  0  0  0  0  0  0  0  0
   -3.0767   -0.0983   -0.0301 C   0  0  0  0  0  0  0  0  0  0  0  0
   -3.3262   -0.3961   -1.0544 H   0  0  0  0  0  0  0  0  0  0  0  0
   -3.1218   -0.9788    0.6186 H   0  0  0  0  0  0  0  0  0  0  0  0
   -4.0181    0.9293    0.4544 N   0  3  0  0  0  0  0  0  0  0  0  0
   -3.6245    1.8433    0.6774 H   0  0  0  0  0  0  0  0  0  0  0  0
   -5.2902    0.7302    0.6445 C   0  0  0  0  0  0  0  0  0  0  0  0
   -5.8918   -0.4719    0.3509 N   0  0  0  0  0  0  0  0  0  0  0  0
   -5.3662   -1.1392   -0.2079 H   0  0  0  0  0  0  0  0  0  0  0  0
   -6.9085   -0.5050    0.3023 H   0  0  0  0  0  0  0  0  0  0  0  0
   -6.0636    1.7463    1.1530 N   0  0  0  0  0  0  0  0  0  0  0  0
   -5.6027    2.5713    1.5329 H   0  0  0  0  0  0  0  0  0  0  0  0
   -6.9983    1.5251    1.4920 H   0  0  0  0  0  0  0  0  0  0  0  0
    0.2285   -1.4875    1.6604 C   0  0  0  0  0  0  0  0  0  0  0  0
    1.4114   -1.2053    1.7839 O   0  0  0  0  0  0  0  0  0  0  0  0
   -0.6431   -1.1628    2.6864 N   0  0  0  0  0  0  0  0  0  0  0  0
   -1.5435   -1.6262    2.6238 H   0  0  0  0  0  0  0  0  0  0  0  0
   -0.1526   -0.8277    4.0201 C   0  0  0  0  0  0  0  0  0  0  0  0
    0.4979    0.0528    3.9817 H   0  0  0  0  0  0  0  0  0  0  0  0
   -0.9892   -0.6065    4.6896 H   0  0  0  0  0  0  0  0  0  0  0  0
    0.4166   -1.6646    4.4390 H   0  0  0  0  0  0  0  0  0  0  0  0
  1  2  1  0  0  0  0
  2  3  1  0  0  0  0
  2  4  1  0  0  0  0
  2  5  1  0  0  0  0
  5  6  2  0  0  0  0
  5  7  1  0  0  0  0
  7  8  1  0  0  0  0
  7  9  1  0  0  0  0
  9 10  1  0  0  0  0
  9 11  1  0  0  0  0
  9 29  1  0  0  0  0
 11 12  1  0  0  0  0
 11 13  1  0  0  0  0
 11 14  1  0  0  0  0
 14 15  1  0  0  0  0
 14 16  1  0  0  0  0
 14 17  1  0  0  0  0
 17 18  1  0  0  0  0
 17 19  1  0  0  0  0
 17 20  1  0  0  0  0
 20 21  1  0  0  0  0
 20 22  2  0  0  0  0
 22 23  1  0  0  0  0
 22 26  1  0  0  0  0
 23 24  1  0  0  0  0
 23 25  1  0  0  0  0
 26 27  1  0  0  0  0
 26 28  1  0  0  0  0
 29 30  2  0  0  0  0
 29 31  1  0  0  0  0
 31 32  1  0  0  0  0
 31 33  1  0  0  0  0
 33 34  1  0  0  0  0
 33 35  1  0  0  0  0
 33 36  1  0  0  0  0
M  CHG  1  20   1
M  END
$$$$

  -OEChem-04042215563D

 36 35  0     1  0  0  0  0  0999 V2000
   -2.0526   -6.1040    0.1228 H   0  0  0  0  0  0  0  0  0  0  0  0
   -2.1729   -5.1336   -0.3682 C   0  0  0  0  0  0  0  0  0  0  0  0
   -3.2363   -4.8860   -0.3991 H   0  0  0  0  0  0  0  0  0  0  0  0
   -1.7919   -5.2119   -1.3894 H   0  0  0  0  0  0  0  0  0  0  0  0
   -1.4071   -4.0681    0.3926 C   0  0  0  0  0  0  0  0  0  0  0  0
   -0.8175   -4.3608    1.4155 O   0  0  0  0  0  0  0  0  0  0  0  0
   -1.4521   -2.7481   -0.0234 N   0  0  0  0  0  0  0  0  0  0  0  0
   -1.8850   -2.6338   -0.9357 H   0  0  0  0  0  0  0  0  0  0  0  0
   -0.3841   -1.7742    0.2995 C   0  0  1  0  0  0  0  0  0  0  0  0
    0.5580   -2.1891   -0.0789 H   0  0  0  0  0  0  0  0  0  0  0  0
   -0.5779   -0.3923   -0.3733 C   0  0  0  0  0  0  0  0  0  0  0  0
    0.2932    0.2313   -0.1402 H   0  0  0  0  0  0  0  0  0  0  0  0
   -0.5619   -0.5593   -1.4552 H   0  0  0  0  0  0  0  0  0  0  0  0
   -1.8488    0.4198   -0.0491 C   0  0  0  0  0  0  0  0  0  0  0  0
   -1.7031    0.8717    0.9372 H   0  0  0  0  0  0  0  0  0  0  0  0
   -1.9181    1.2425   -0.7693 H   0  0  0  0  0  0  0  0  0  0  0  0
   -3.1681   -0.3517   -0.0530 C   0  0  0  0  0  0  0  0  0  0  0  0
   -3.3435   -0.7643   -1.0524 H   0  0  0  0  0  0  0  0  0  0  0  0
   -3.1165   -1.1899    0.6488 H   0  0  0  0  0  0  0  0  0  0  0  0
   -4.2811    0.5418    0.3220 N   0  3  0  0  0  0  0  0  0  0  0  0
   -4.8336    0.9347   -0.4396 H   0  0  0  0  0  0  0  0  0  0  0  0
   -4.5993    0.8365    1.5515 C   0  0  0  0  0  0  0  0  0  0  0  0
   -3.8768    0.3736    2.6291 N   0  0  0  0  0  0  0  0  0  0  0  0
   -2.9544   -0.0250    2.4447 H   0  0  0  0  0  0  0  0  0  0  0  0
   -4.0198    0.8249    3.5304 H   0  0  0  0  0  0  0  0  0  0  0  0
   -5.6861    1.6432    1.7913 N   0  0  0  0  0  0  0  0  0  0  0  0
   -6.3193    1.8596    1.0235 H   0  0  0  0  0  0  0  0  0  0  0  0
   -6.0482    1.7045    2.7415 H   0  0  0  0  0  0  0  0  0  0  0  0
   -0.1735   -1.5683    1.8195 C   0  0  0  0  0  0  0  0  0  0  0  0
    0.8988   -1.1271    2.2044 O   0  0  0  0  0  0  0  0  0  0  0  0
   -1.2783   -1.4190    2.6467 N   0  0  0  0  0  0  0  0  0  0  0  0
   -2.0013   -2.0948    2.4078 H   0  0  0  0  0  0  0  0  0  0  0  0
   -1.0833   -1.1718    4.0749 C   0  0  0  0  0  0  0  0  0  0  0  0
   -0.6024   -0.2009    4.2372 H   0  0  0  0  0  0  0  0  0  0  0  0
   -2.0433   -1.1738    4.5993 H   0  0  0  0  0  0  0  0  0  0  0  0
   -0.4503   -1.9510    4.5151 H   0  0  0  0  0  0  0  0  0  0  0  0
  1  2  1  0  0  0  0
  2  3  1  0  0  0  0
  2  4  1  0  0  0  0
  2  5  1  0  0  0  0
  5  6  2  0  0  0  0
  5  7  1  0  0  0  0
  7  8  1  0  0  0  0
  7  9  1  0  0  0  0
  9 10  1  0  0  0  0
  9 11  1  0  0  0  0
  9 29  1  0  0  0  0
 11 12  1  0  0  0  0
 11 13  1  0  0  0  0
 11 14  1  0  0  0  0
 14 15  1  0  0  0  0
 14 16  1  0  0  0  0
 14 17  1  0  0  0  0
 17 18  1  0  0  0  0
 17 19  1  0  0  0  0
 17 20  1  0  0  0  0
 20 21  1  0  0  0  0
 20 22  2  0  0  0  0
 22 23  1  0  0  0  0
 22 26  1  0  0  0  0
 23 24  1  0  0  0  0
 23 25  1  0  0  0  0
 26 27  1  0  0  0  0
 26 28  1  0  0  0  0
 29 30  2  0  0  0  0
 29 31  1  0  0  0  0
 31 32  1  0  0  0  0
 31 33  1  0  0  0  0
 33 34  1  0  0  0  0
 33 35  1  0  0  0  0
 33 36  1  0  0  0  0
M  CHG  1  20   1
M  END
$$$$

  -OEChem-04042215563D

 36 35  0     1  0  0  0  0  0999 V2000
   -2.2413   -6.0054    0.4327 H   0  0  0  0  0  0  0  0  0  0  0  0
   -2.3691   -5.0416   -0.0694 C   0  0  0  0  0  0  0  0  0  0  0  0
   -3.4128   -4.7334    0.0221 H   0  0  0  0  0  0  0  0  0  0  0  0
   -2.1223   -5.1658   -1.1267 H   0  0  0  0  0  0  0  0  0  0  0  0
   -1.4572   -4.0047    0.5579 C   0  0  0  0  0  0  0  0  0  0  0  0
   -0.7458   -4.3111    1.4954 O   0  0  0  0  0  0  0  0  0  0  0  0
   -1.5121   -2.6867    0.1407 N   0  0  0  0  0  0  0  0  0  0  0  0
   -2.0813   -2.5617   -0.6920 H   0  0  0  0  0  0  0  0  0  0  0  0
   -0.3343   -1.7941    0.2265 C   0  0  1  0  0  0  0  0  0  0  0  0
    0.4705   -2.2829   -0.3360 H   0  0  0  0  0  0  0  0  0  0  0  0
   -0.5797   -0.4210   -0.4452 C   0  0  0  0  0  0  0  0  0  0  0  0
    0.3556    0.1505   -0.4209 H   0  0  0  0  0  0  0  0  0  0  0  0
   -0.7902   -0.6246   -1.5002 H   0  0  0  0  0  0  0  0  0  0  0  0
   -1.7158    0.4920    0.0751 C   0  0  0  0  0  0  0  0  0  0  0  0
   -1.2778    1.1296    0.8519 H   0  0  0  0  0  0  0  0  0  0  0  0
   -2.0326    1.1475   -0.7436 H   0  0  0  0  0  0  0  0  0  0  0  0
   -2.9404   -0.1932    0.6835 C   0  0  0  0  0  0  0  0  0  0  0  0
   -3.4346   -0.7999   -0.0826 H   0  0  0  0  0  0  0  0  0  0  0  0
   -2.6207   -0.8505    1.4972 H   0  0  0  0  0  0  0  0  0  0  0  0
   -3.8655    0.8352    1.1967 N   0  3  0  0  0  0  0  0  0  0  0  0
   -3.6664    1.8020    0.9416 H   0  0  0  0  0  0  0  0  0  0  0  0
   -4.8866    0.5826    1.9638 C   0  0  0  0  0  0  0  0  0  0  0  0
   -5.1960   -0.6965    2.3671 N   0  0  0  0  0  0  0  0  0  0  0  0
   -4.5055   -1.4259    2.2065 H   0  0  0  0  0  0  0  0  0  0  0  0
   -5.8515   -0.8189    3.1367 H   0  0  0  0  0  0  0  0  0  0  0  0
   -5.6845    1.6179    2.3900 N   0  0  0  0  0  0  0  0  0  0  0  0
   -5.5589    2.5409    1.9785 H   0  0  0  0  0  0  0  0  0  0  0  0
   -6.5839    1.4015    2.8162 H   0  0  0  0  0  0  0  0  0  0  0  0
    0.2507   -1.5673    1.6432 C   0  0  0  0  0  0  0  0  0  0  0  0
    1.4270   -1.2470    1.7340 O   0  0  0  0  0  0  0  0  0  0  0  0
   -0.5853   -1.3150    2.7178 N   0  0  0  0  0  0  0  0  0  0  0  0
   -1.4254   -1.8830    2.7013 H   0  0  0  0  0  0  0  0  0  0  0  0
   -0.0392   -0.9888    4.0327 C   0  0  0  0  0  0  0  0  0  0  0  0
    0.5501   -0.0664    3.9874 H   0  0  0  0  0  0  0  0  0  0  0  0
   -0.8470   -0.8439    4.7561 H   0  0  0  0  0  0  0  0  0  0  0  0
    0.6064   -1.7984    4.3908 H   0  0  0  0  0  0  0  0  0  0  0  0
  1  2  1  0  0  0  0
  2  3  1  0  0  0  0
  2  4  1  0  0  0  0
  2  5  1  0  0  0  0
  5  6  2  0  0  0  0
  5  7  1  0  0  0  0
  7  8  1  0  0  0  0
  7  9  1  0  0  0  0
  9 10  1  0  0  0  0
  9 11  1  0  0  0  0
  9 29  1  0  0  0  0
 11 12  1  0  0  0  0
 11 13  1  0  0  0  0
 11 14  1  0  0  0  0
 14 15  1  0  0  0  0
 14 16  1  0  0  0  0
 14 17  1  0  0  0  0
 17 18  1  0  0  0  0
 17 19  1  0  0  0  0
 17 20  1  0  0  0  0
 20 21  1  0  0  0  0
 20 22  2  0  0  0  0
 22 23  1  0  0  0  0
 22 26  1  0  0  0  0
 23 24  1  0  0  0  0
 23 25  1  0  0  0  0
 26 27  1  0  0  0  0
 26 28  1  0  0  0  0
 29 30  2  0  0  0  0
 29 31  1  0  0  0  0
 31 32  1  0  0  0  0
 31 33  1  0  0  0  0
 33 34  1  0  0  0  0
 33 35  1  0  0  0  0
 33 36  1  0  0  0  0
M  CHG  1  20   1
M  END
$$$$

  -OEChem-04042215563D

 36 35  0     1  0  0  0  0  0999 V2000
   -1.8357   -6.1106   -0.1378 H   0  0  0  0  0  0  0  0  0  0  0  0
   -2.0275   -5.1008   -0.5134 C   0  0  0  0  0  0  0  0  0  0  0  0
   -3.0996   -4.9006   -0.4490 H   0  0  0  0  0  0  0  0  0  0  0  0
   -1.7159   -5.0530   -1.5596 H   0  0  0  0  0  0  0  0  0  0  0  0
   -1.2545   -4.0858    0.3060 C   0  0  0  0  0  0  0  0  0  0  0  0
   -0.5731   -4.4522    1.2452 O   0  0  0  0  0  0  0  0  0  0  0  0
   -1.3947   -2.7332    0.0502 N   0  0  0  0  0  0  0  0  0  0  0  0
   -1.8854   -2.5314   -0.8170 H   0  0  0  0  0  0  0  0  0  0  0  0
   -0.3821   -1.7404    0.4686 C   0  0  1  0  0  0  0  0  0  0  0  0
    0.5676   -2.0973    0.0512 H   0  0  0  0  0  0  0  0  0  0  0  0
   -0.6063   -0.3437   -0.1590 C   0  0  0  0  0  0  0  0  0  0  0  0
    0.2323    0.3004    0.1300 H   0  0  0  0  0  0  0  0  0  0  0  0
   -0.5286   -0.4781   -1.2432 H   0  0  0  0  0  0  0  0  0  0  0  0
   -1.9186    0.4313    0.1038 C   0  0  0  0  0  0  0  0  0  0  0  0
   -1.6674    1.2327    0.8071 H   0  0  0  0  0  0  0  0  0  0  0  0
   -2.2376    0.9163   -0.8255 H   0  0  0  0  0  0  0  0  0  0  0  0
   -3.0936   -0.3600    0.6858 C   0  0  0  0  0  0  0  0  0  0  0  0
   -2.7557   -1.0358    1.4714 H   0  0  0  0  0  0  0  0  0  0  0  0
   -3.5357   -0.9790   -0.1022 H   0  0  0  0  0  0  0  0  0  0  0  0
   -4.1066    0.5648    1.2289 N   0  3  0  0  0  0  0  0  0  0  0  0
   -4.8480    0.8637    0.5960 H   0  0  0  0  0  0  0  0  0  0  0  0
   -4.0812    1.0333    2.4453 C   0  0  0  0  0  0  0  0  0  0  0  0
   -3.0874    0.7014    3.3390 N   0  0  0  0  0  0  0  0  0  0  0  0
   -2.2845    0.1691    2.9965 H   0  0  0  0  0  0  0  0  0  0  0  0
   -2.9537    1.2858    4.1616 H   0  0  0  0  0  0  0  0  0  0  0  0
   -5.0664    1.8986    2.8567 N   0  0  0  0  0  0  0  0  0  0  0  0
   -5.8941    2.0142    2.2750 H   0  0  0  0  0  0  0  0  0  0  0  0
   -5.1502    2.1007    3.8514 H   0  0  0  0  0  0  0  0  0  0  0  0
   -0.1025   -1.6575    1.9916 C   0  0  0  0  0  0  0  0  0  0  0  0
    0.9611   -1.1763    2.3523 O   0  0  0  0  0  0  0  0  0  0  0  0
   -1.1403   -1.6547    2.9112 N   0  0  0  0  0  0  0  0  0  0  0  0
   -1.8809   -2.2981    2.6382 H   0  0  0  0  0  0  0  0  0  0  0  0
   -0.8434   -1.6020    4.3432 C   0  0  0  0  0  0  0  0  0  0  0  0
   -0.3600   -0.6549    4.6065 H   0  0  0  0  0  0  0  0  0  0  0  0
   -1.7637   -1.6938    4.9283 H   0  0  0  0  0  0  0  0  0  0  0  0
   -0.1739   -2.4229    4.6249 H   0  0  0  0  0  0  0  0  0  0  0  0
  1  2  1  0  0  0  0
  2  3  1  0  0  0  0
  2  4  1  0  0  0  0
  2  5  1  0  0  0  0
  5  6  2  0  0  0  0
  5  7  1  0  0  0  0
  7  8  1  0  0  0  0
  7  9  1  0  0  0  0
  9 10  1  0  0  0  0
  9 11  1  0  0  0  0
  9 29  1  0  0  0  0
 11 12  1  0  0  0  0
 11 13  1  0  0  0  0
 11 14  1  0  0  0  0
 14 15  1  0  0  0  0
 14 16  1  0  0  0  0
 14 17  1  0  0  0  0
 17 18  1  0  0  0  0
 17 19  1  0  0  0  0
 17 20  1  0  0  0  0
 20 21  1  0  0  0  0
 20 22  2  0  0  0  0
 22 23  1  0  0  0  0
 22 26  1  0  0  0  0
 23 24  1  0  0  0  0
 23 25  1  0  0  0  0
 26 27  1  0  0  0  0
 26 28  1  0  0  0  0
 29 30  2  0  0  0  0
 29 31  1  0  0  0  0
 31 32  1  0  0  0  0
 31 33  1  0  0  0  0
 33 34  1  0  0  0  0
 33 35  1  0  0  0  0
 33 36  1  0  0  0  0
M  CHG  1  20   1
M  END
$$$$

  -OEChem-04042215563D

 36 35  0     1  0  0  0  0  0999 V2000
   -1.8595   -6.0724   -0.3780 H   0  0  0  0  0  0  0  0  0  0  0  0
   -2.1504   -5.0483   -0.6304 C   0  0  0  0  0  0  0  0  0  0  0  0
   -3.2140   -4.9227   -0.4148 H   0  0  0  0  0  0  0  0  0  0  0  0
   -1.9792   -4.8913   -1.6981 H   0  0  0  0  0  0  0  0  0  0  0  0
   -1.3310   -4.0613    0.1790 C   0  0  0  0  0  0  0  0  0  0  0  0
   -0.5249   -4.4645    0.9970 O   0  0  0  0  0  0  0  0  0  0  0  0
   -1.5395   -2.7002    0.0411 N   0  0  0  0  0  0  0  0  0  0  0  0
   -2.1409   -2.4493   -0.7392 H   0  0  0  0  0  0  0  0  0  0  0  0
   -0.5266   -1.7018    0.4403 C   0  0  1  0  0  0  0  0  0  0  0  0
    0.3929   -2.0265   -0.0628 H   0  0  0  0  0  0  0  0  0  0  0  0
   -0.7962   -0.2948   -0.1457 C   0  0  0  0  0  0  0  0  0  0  0  0
    0.0447    0.3462    0.1438 H   0  0  0  0  0  0  0  0  0  0  0  0
   -0.7406   -0.3916   -1.2355 H   0  0  0  0  0  0  0  0  0  0  0  0
   -2.1021    0.4716    0.1723 C   0  0  0  0  0  0  0  0  0  0  0  0
   -1.8018    1.4230    0.6249 H   0  0  0  0  0  0  0  0  0  0  0  0
   -2.6043    0.7202   -0.7693 H   0  0  0  0  0  0  0  0  0  0  0  0
   -3.1192   -0.2162    1.0887 C   0  0  0  0  0  0  0  0  0  0  0  0
   -2.6255   -0.8983    1.7740 H   0  0  0  0  0  0  0  0  0  0  0  0
   -3.8042   -0.8174    0.4809 H   0  0  0  0  0  0  0  0  0  0  0  0
   -3.8717    0.7916    1.8611 N   0  3  0  0  0  0  0  0  0  0  0  0
   -4.7482    1.1242    1.4602 H   0  0  0  0  0  0  0  0  0  0  0  0
   -3.4447    1.3129    2.9783 C   0  0  0  0  0  0  0  0  0  0  0  0
   -2.2527    0.9387    3.5581 N   0  0  0  0  0  0  0  0  0  0  0  0
   -1.6494    0.2753    3.0666 H   0  0  0  0  0  0  0  0  0  0  0  0
   -1.8306    1.5393    4.2629 H   0  0  0  0  0  0  0  0  0  0  0  0
   -4.1919    2.2849    3.5997 N   0  0  0  0  0  0  0  0  0  0  0  0
   -5.1473    2.4473    3.2879 H   0  0  0  0  0  0  0  0  0  0  0  0
   -3.9469    2.5515    4.5517 H   0  0  0  0  0  0  0  0  0  0  0  0
   -0.1017   -1.7101    1.9332 C   0  0  0  0  0  0  0  0  0  0  0  0
    0.9529   -1.1658    2.2248 O   0  0  0  0  0  0  0  0  0  0  0  0
   -1.0365   -1.8127    2.9510 N   0  0  0  0  0  0  0  0  0  0  0  0
   -1.7981   -2.4429    2.7057 H   0  0  0  0  0  0  0  0  0  0  0  0
   -0.6063   -1.8570    4.3489 C   0  0  0  0  0  0  0  0  0  0  0  0
   -0.0892   -0.9336    4.6301 H   0  0  0  0  0  0  0  0  0  0  0  0
   -1.4705   -1.9811    5.0087 H   0  0  0  0  0  0  0  0  0  0  0  0
    0.0760   -2.6991    4.5116 H   0  0  0  0  0  0  0  0  0  0  0  0
  1  2  1  0  0  0  0
  2  3  1  0  0  0  0
  2  4  1  0  0  0  0
  2  5  1  0  0  0  0
  5  6  2  0  0  0  0
  5  7  1  0  0  0  0
  7  8  1  0  0  0  0
  7  9  1  0  0  0  0
  9 10  1  0  0  0  0
  9 11  1  0  0  0  0
  9 29  1  0  0  0  0
 11 12  1  0  0  0  0
 11 13  1  0  0  0  0
 11 14  1  0  0  0  0
 14 15  1  0  0  0  0
 14 16  1  0  0  0  0
 14 17  1  0  0  0  0
 17 18  1  0  0  0  0
 17 19  1  0  0  0  0
 17 20  1  0  0  0  0
 20 21  1  0  0  0  0
 20 22  2  0  0  0  0
 22 23  1  0  0  0  0
 22 26  1  0  0  0  0
 23 24  1  0  0  0  0
 23 25  1  0  0  0  0
 26 27  1  0  0  0  0
 26 28  1  0  0  0  0
 29 30  2  0  0  0  0
 29 31  1  0  0  0  0
 31 32  1  0  0  0  0
 31 33  1  0  0  0  0
 33 34  1  0  0  0  0
 33 35  1  0  0  0  0
 33 36  1  0  0  0  0
M  CHG  1  20   1
M  END
$$$$

  -OEChem-04042215563D

 36 35  0     1  0  0  0  0  0999 V2000
   -1.8989   -6.0490   -0.2905 H   0  0  0  0  0  0  0  0  0  0  0  0
   -2.2066   -5.0177   -0.4884 C   0  0  0  0  0  0  0  0  0  0  0  0
   -3.2221   -4.8769   -0.1116 H   0  0  0  0  0  0  0  0  0  0  0  0
   -2.1973   -4.8529   -1.5687 H   0  0  0  0  0  0  0  0  0  0  0  0
   -1.2559   -4.0521    0.1935 C   0  0  0  0  0  0  0  0  0  0  0  0
   -0.3235   -4.4783    0.8492 O   0  0  0  0  0  0  0  0  0  0  0  0
   -1.4770   -2.6876    0.1226 N   0  0  0  0  0  0  0  0  0  0  0  0
   -2.1949   -2.4154   -0.5429 H   0  0  0  0  0  0  0  0  0  0  0  0
   -0.4153   -1.6966    0.3947 C   0  0  1  0  0  0  0  0  0  0  0  0
    0.4226   -2.0080   -0.2413 H   0  0  0  0  0  0  0  0  0  0  0  0
   -0.7750   -0.2839   -0.1291 C   0  0  0  0  0  0  0  0  0  0  0  0
    0.0907    0.3557    0.0777 H   0  0  0  0  0  0  0  0  0  0  0  0
   -0.8544   -0.3461   -1.2198 H   0  0  0  0  0  0  0  0  0  0  0  0
   -2.0285    0.4618    0.3847 C   0  0  0  0  0  0  0  0  0  0  0  0
   -1.7531    1.5107    0.5410 H   0  0  0  0  0  0  0  0  0  0  0  0
   -2.7853    0.4436   -0.4069 H   0  0  0  0  0  0  0  0  0  0  0  0
   -2.6681   -0.0870    1.6559 C   0  0  0  0  0  0  0  0  0  0  0  0
   -3.1074   -1.0708    1.4584 H   0  0  0  0  0  0  0  0  0  0  0  0
   -1.9003   -0.2084    2.4193 H   0  0  0  0  0  0  0  0  0  0  0  0
   -3.6935    0.8482    2.1559 N   0  3  0  0  0  0  0  0  0  0  0  0
   -4.5953    0.8522    1.6803 H   0  0  0  0  0  0  0  0  0  0  0  0
   -3.4921    1.6627    3.1542 C   0  0  0  0  0  0  0  0  0  0  0  0
   -2.2860    1.7185    3.8184 N   0  0  0  0  0  0  0  0  0  0  0  0
   -1.4943    1.2135    3.4213 H   0  0  0  0  0  0  0  0  0  0  0  0
   -2.0914    2.5166    4.4199 H   0  0  0  0  0  0  0  0  0  0  0  0
   -4.5021    2.5025    3.5601 N   0  0  0  0  0  0  0  0  0  0  0  0
   -5.4421    2.3539    3.1983 H   0  0  0  0  0  0  0  0  0  0  0  0
   -4.4037    2.9863    4.4510 H   0  0  0  0  0  0  0  0  0  0  0  0
    0.2196   -1.7442    1.8099 C   0  0  0  0  0  0  0  0  0  0  0  0
    1.3233   -1.2380    1.9538 O   0  0  0  0  0  0  0  0  0  0  0  0
   -0.5635   -1.8757    2.9451 N   0  0  0  0  0  0  0  0  0  0  0  0
   -1.3645   -2.4860    2.8026 H   0  0  0  0  0  0  0  0  0  0  0  0
    0.0385   -1.8920    4.2766 C   0  0  0  0  0  0  0  0  0  0  0  0
    0.5314   -0.9381    4.4917 H   0  0  0  0  0  0  0  0  0  0  0  0
   -0.7278   -2.0632    5.0385 H   0  0  0  0  0  0  0  0  0  0  0  0
    0.7828   -2.6928    4.3494 H   0  0  0  0  0  0  0  0  0  0  0  0
  1  2  1  0  0  0  0
  2  3  1  0  0  0  0
  2  4  1  0  0  0  0
  2  5  1  0  0  0  0
  5  6  2  0  0  0  0
  5  7  1  0  0  0  0
  7  8  1  0  0  0  0
  7  9  1  0  0  0  0
  9 10  1  0  0  0  0
  9 11  1  0  0  0  0
  9 29  1  0  0  0  0
 11 12  1  0  0  0  0
 11 13  1  0  0  0  0
 11 14  1  0  0  0  0
 14 15  1  0  0  0  0
 14 16  1  0  0  0  0
 14 17  1  0  0  0  0
 17 18  1  0  0  0  0
 17 19  1  0  0  0  0
 17 20  1  0  0  0  0
 20 21  1  0  0  0  0
 20 22  2  0  0  0  0
 22 23  1  0  0  0  0
 22 26  1  0  0  0  0
 23 24  1  0  0  0  0
 23 25  1  0  0  0  0
 26 27  1  0  0  0  0
 26 28  1  0  0  0  0
 29 30  2  0  0  0  0
 29 31  1  0  0  0  0
 31 32  1  0  0  0  0
 31 33  1  0  0  0  0
 33 34  1  0  0  0  0
 33 35  1  0  0  0  0
 33 36  1  0  0  0  0
M  CHG  1  20   1
M  END
$$$$

  -OEChem-04042215563D

 36 35  0     1  0  0  0  0  0999 V2000
   -0.5766   -6.0345    0.0232 H   0  0  0  0  0  0  0  0  0  0  0  0
   -1.2058   -5.1627   -0.1804 C   0  0  0  0  0  0  0  0  0  0  0  0
   -2.1948   -5.3359    0.2503 H   0  0  0  0  0  0  0  0  0  0  0  0
   -1.3006   -5.0462   -1.2627 H   0  0  0  0  0  0  0  0  0  0  0  0
   -0.5822   -3.9192    0.4239 C   0  0  0  0  0  0  0  0  0  0  0  0
    0.4491   -4.0026    1.0656 O   0  0  0  0  0  0  0  0  0  0  0  0
   -1.2064   -2.6912    0.2898 N   0  0  0  0  0  0  0  0  0  0  0  0
   -1.9942   -2.6797   -0.3526 H   0  0  0  0  0  0  0  0  0  0  0  0
   -0.5291   -1.4052    0.5518 C   0  0  1  0  0  0  0  0  0  0  0  0
    0.4059   -1.4637   -0.0192 H   0  0  0  0  0  0  0  0  0  0  0  0
   -1.2601   -0.1939   -0.0883 C   0  0  0  0  0  0  0  0  0  0  0  0
   -0.6435    0.6863    0.1259 H   0  0  0  0  0  0  0  0  0  0  0  0
   -1.2313   -0.3300   -1.1747 H   0  0  0  0  0  0  0  0  0  0  0  0
   -2.7135    0.1755    0.2856 C   0  0  0  0  0  0  0  0  0  0  0  0
   -2.8737    1.2407    0.0865 H   0  0  0  0  0  0  0  0  0  0  0  0
   -3.3770   -0.3761   -0.3888 H   0  0  0  0  0  0  0  0  0  0  0  0
   -3.1488   -0.1610    1.7081 C   0  0  0  0  0  0  0  0  0  0  0  0
   -4.2200    0.0275    1.8332 H   0  0  0  0  0  0  0  0  0  0  0  0
   -2.9745   -1.2231    1.9101 H   0  0  0  0  0  0  0  0  0  0  0  0
   -2.3557    0.6773    2.6313 N   0  3  0  0  0  0  0  0  0  0  0  0
   -1.4273    0.3132    2.8693 H   0  0  0  0  0  0  0  0  0  0  0  0
   -2.6700    1.8606    3.0624 C   0  0  0  0  0  0  0  0  0  0  0  0
   -3.8849    2.4452    2.7892 N   0  0  0  0  0  0  0  0  0  0  0  0
   -4.6178    1.8531    2.4059 H   0  0  0  0  0  0  0  0  0  0  0  0
   -4.1637    3.2580    3.3353 H   0  0  0  0  0  0  0  0  0  0  0  0
   -1.7426    2.5473    3.8074 N   0  0  0  0  0  0  0  0  0  0  0  0
   -0.7835    2.1981    3.8072 H   0  0  0  0  0  0  0  0  0  0  0  0
   -1.8785    3.5469    3.9432 H   0  0  0  0  0  0  0  0  0  0  0  0
   -0.0007   -1.2608    2.0040 C   0  0  0  0  0  0  0  0  0  0  0  0
    0.7305   -0.3083    2.2446 O   0  0  0  0  0  0  0  0  0  0  0  0
   -0.7928   -1.6419    3.0754 N   0  0  0  0  0  0  0  0  0  0  0  0
   -1.3456   -2.4735    2.8749 H   0  0  0  0  0  0  0  0  0  0  0  0
   -0.3246   -1.5058    4.4547 C   0  0  0  0  0  0  0  0  0  0  0  0
   -0.2265   -0.4517    4.7343 H   0  0  0  0  0  0  0  0  0  0  0  0
    0.6501   -1.9917    4.5768 H   0  0  0  0  0  0  0  0  0  0  0  0
   -1.0326   -1.9784    5.1430 H   0  0  0  0  0  0  0  0  0  0  0  0
  1  2  1  0  0  0  0
  2  3  1  0  0  0  0
  2  4  1  0  0  0  0
  2  5  1  0  0  0  0
  5  6  2  0  0  0  0
  5  7  1  0  0  0  0
  7  8  1  0  0  0  0
  7  9  1  0  0  0  0
  9 10  1  0  0  0  0
  9 11  1  0  0  0  0
  9 29  1  0  0  0  0
 11 12  1  0  0  0  0
 11 13  1  0  0  0  0
 11 14  1  0  0  0  0
 14 15  1  0  0  0  0
 14 16  1  0  0  0  0
 14 17  1  0  0  0  0
 17 18  1  0  0  0  0
 17 19  1  0  0  0  0
 17 20  1  0  0  0  0
 20 21  1  0  0  0  0
 20 22  2  0  0  0  0
 22 23  1  0  0  0  0
 22 26  1  0  0  0  0
 23 24  1  0  0  0  0
 23 25  1  0  0  0  0
 26 27  1  0  0  0  0
 26 28  1  0  0  0  0
 29 30  2  0  0  0  0
 29 31  1  0  0  0  0
 31 32  1  0  0  0  0
 31 33  1  0  0  0  0
 33 34  1  0  0  0  0
 33 35  1  0  0  0  0
 33 36  1  0  0  0  0
M  CHG  1  20   1
M  END
$$$$

  -OEChem-04042215563D

 36 35  0     1  0  0  0  0  0999 V2000
   -1.4003   -5.9599   -0.1594 H   0  0  0  0  0  0  0  0  0  0  0  0
   -1.8714   -4.9880   -0.3337 C   0  0  0  0  0  0  0  0  0  0  0  0
   -2.8898   -5.0165    0.0609 H   0  0  0  0  0  0  0  0  0  0  0  0
   -1.9080   -4.8065   -1.4104 H   0  0  0  0  0  0  0  0  0  0  0  0
   -1.0743   -3.8947    0.3513 C   0  0  0  0  0  0  0  0  0  0  0  0
   -0.0998   -4.1802    1.0232 O   0  0  0  0  0  0  0  0  0  0  0  0
   -1.4712   -2.5722    0.2508 N   0  0  0  0  0  0  0  0  0  0  0  0
   -2.2187   -2.3954   -0.4151 H   0  0  0  0  0  0  0  0  0  0  0  0
   -0.5989   -1.4388    0.6173 C   0  0  1  0  0  0  0  0  0  0  0  0
    0.3436   -1.6412    0.0930 H   0  0  0  0  0  0  0  0  0  0  0  0
   -1.0681   -0.0996   -0.0112 C   0  0  0  0  0  0  0  0  0  0  0  0
   -0.3305    0.6592    0.2719 H   0  0  0  0  0  0  0  0  0  0  0  0
   -0.9979   -0.2084   -1.0991 H   0  0  0  0  0  0  0  0  0  0  0  0
   -2.4627    0.4871    0.2942 C   0  0  0  0  0  0  0  0  0  0  0  0
   -2.5241    1.4971   -0.1261 H   0  0  0  0  0  0  0  0  0  0  0  0
   -3.1895   -0.1214   -0.2543 H   0  0  0  0  0  0  0  0  0  0  0  0
   -2.9144    0.4936    1.7566 C   0  0  0  0  0  0  0  0  0  0  0  0
   -2.3527   -0.2180    2.3492 H   0  0  0  0  0  0  0  0  0  0  0  0
   -3.9660    0.1894    1.8012 H   0  0  0  0  0  0  0  0  0  0  0  0
   -2.7910    1.8565    2.3164 N   0  3  0  0  0  0  0  0  0  0  0  0
   -3.5485    2.5019    2.0969 H   0  0  0  0  0  0  0  0  0  0  0  0
   -1.8018    2.2970    3.0440 C   0  0  0  0  0  0  0  0  0  0  0  0
   -0.7107    1.5396    3.3954 N   0  0  0  0  0  0  0  0  0  0  0  0
   -0.5648    0.6354    2.9394 H   0  0  0  0  0  0  0  0  0  0  0  0
    0.1226    2.0131    3.7362 H   0  0  0  0  0  0  0  0  0  0  0  0
   -1.8399    3.5954    3.4927 N   0  0  0  0  0  0  0  0  0  0  0  0
   -2.7128    4.1137    3.4217 H   0  0  0  0  0  0  0  0  0  0  0  0
   -1.1767    3.8746    4.2134 H   0  0  0  0  0  0  0  0  0  0  0  0
   -0.1340   -1.4391    2.0942 C   0  0  0  0  0  0  0  0  0  0  0  0
    0.7967   -0.7019    2.3918 O   0  0  0  0  0  0  0  0  0  0  0  0
   -1.0244   -1.7104    3.1186 N   0  0  0  0  0  0  0  0  0  0  0  0
   -1.7448   -2.3777    2.8490 H   0  0  0  0  0  0  0  0  0  0  0  0
   -0.5868   -1.7747    4.5125 C   0  0  0  0  0  0  0  0  0  0  0  0
   -0.2036   -0.8080    4.8538 H   0  0  0  0  0  0  0  0  0  0  0  0
   -1.4245   -2.0569    5.1578 H   0  0  0  0  0  0  0  0  0  0  0  0
    0.2048   -2.5238    4.6286 H   0  0  0  0  0  0  0  0  0  0  0  0
  1  2  1  0  0  0  0
  2  3  1  0  0  0  0
  2  4  1  0  0  0  0
  2  5  1  0  0  0  0
  5  6  2  0  0  0  0
  5  7  1  0  0  0  0
  7  8  1  0  0  0  0
  7  9  1  0  0  0  0
  9 10  1  0  0  0  0
  9 11  1  0  0  0  0
  9 29  1  0  0  0  0
 11 12  1  0  0  0  0
 11 13  1  0  0  0  0
 11 14  1  0  0  0  0
 14 15  1  0  0  0  0
 14 16  1  0  0  0  0
 14 17  1  0  0  0  0
 17 18  1  0  0  0  0
 17 19  1  0  0  0  0
 17 20  1  0  0  0  0
 20 21  1  0  0  0  0
 20 22  2  0  0  0  0
 22 23  1  0  0  0  0
 22 26  1  0  0  0  0
 23 24  1  0  0  0  0
 23 25  1  0  0  0  0
 26 27  1  0  0  0  0
 26 28  1  0  0  0  0
 29 30  2  0  0  0  0
 29 31  1  0  0  0  0
 31 32  1  0  0  0  0
 31 33  1  0  0  0  0
 33 34  1  0  0  0  0
 33 35  1  0  0  0  0
 33 36  1  0  0  0  0
M  CHG  1  20   1
M  END
$$$$

  -OEChem-04042215563D

 36 35  0     1  0  0  0  0  0999 V2000
   -1.2493   -5.8498   -0.1508 H   0  0  0  0  0  0  0  0  0  0  0  0
   -1.7456   -4.8943   -0.3446 C   0  0  0  0  0  0  0  0  0  0  0  0
   -2.7560   -4.9339    0.0690 H   0  0  0  0  0  0  0  0  0  0  0  0
   -1.8061   -4.7457   -1.4254 H   0  0  0  0  0  0  0  0  0  0  0  0
   -0.9620   -3.7630    0.2934 C   0  0  0  0  0  0  0  0  0  0  0  0
    0.0695   -3.9975    0.8964 O   0  0  0  0  0  0  0  0  0  0  0  0
   -1.4319   -2.4631    0.2209 N   0  0  0  0  0  0  0  0  0  0  0  0
   -2.2276   -2.3254   -0.3966 H   0  0  0  0  0  0  0  0  0  0  0  0
   -0.6076   -1.2825    0.5484 C   0  0  1  0  0  0  0  0  0  0  0  0
    0.3127   -1.4061   -0.0363 H   0  0  0  0  0  0  0  0  0  0  0  0
   -1.2274    0.0278   -0.0046 C   0  0  0  0  0  0  0  0  0  0  0  0
   -0.5293    0.8424    0.2163 H   0  0  0  0  0  0  0  0  0  0  0  0
   -1.2606   -0.0673   -1.0952 H   0  0  0  0  0  0  0  0  0  0  0  0
   -2.6314    0.4718    0.4536 C   0  0  0  0  0  0  0  0  0  0  0  0
   -2.9271    1.3650   -0.1081 H   0  0  0  0  0  0  0  0  0  0  0  0
   -3.3355   -0.3199    0.1780 H   0  0  0  0  0  0  0  0  0  0  0  0
   -2.7925    0.7283    1.9561 C   0  0  0  0  0  0  0  0  0  0  0  0
   -3.8289    0.5144    2.2402 H   0  0  0  0  0  0  0  0  0  0  0  0
   -2.1578    0.0759    2.5455 H   0  0  0  0  0  0  0  0  0  0  0  0
   -2.5017    2.1465    2.2529 N   0  3  0  0  0  0  0  0  0  0  0  0
   -3.2004    2.8224    1.9478 H   0  0  0  0  0  0  0  0  0  0  0  0
   -1.4574    2.5896    2.8962 C   0  0  0  0  0  0  0  0  0  0  0  0
   -0.4405    1.7839    3.3475 N   0  0  0  0  0  0  0  0  0  0  0  0
   -0.3610    0.8418    2.9547 H   0  0  0  0  0  0  0  0  0  0  0  0
    0.4375    2.2258    3.6085 H   0  0  0  0  0  0  0  0  0  0  0  0
   -1.3577    3.9367    3.1490 N   0  0  0  0  0  0  0  0  0  0  0  0
   -2.1751    4.5254    3.0037 H   0  0  0  0  0  0  0  0  0  0  0  0
   -0.6576    4.2494    3.8193 H   0  0  0  0  0  0  0  0  0  0  0  0
   -0.0779   -1.2732    2.0022 C   0  0  0  0  0  0  0  0  0  0  0  0
    0.8411   -0.5086    2.2677 O   0  0  0  0  0  0  0  0  0  0  0  0
   -0.9108   -1.6028    3.0576 N   0  0  0  0  0  0  0  0  0  0  0  0
   -1.6129   -2.2985    2.8128 H   0  0  0  0  0  0  0  0  0  0  0  0
   -0.4305   -1.6297    4.4380 C   0  0  0  0  0  0  0  0  0  0  0  0
   -0.1670   -0.6253    4.7832 H   0  0  0  0  0  0  0  0  0  0  0  0
   -1.2074   -2.0248    5.1003 H   0  0  0  0  0  0  0  0  0  0  0  0
    0.4534   -2.2720    4.5232 H   0  0  0  0  0  0  0  0  0  0  0  0
  1  2  1  0  0  0  0
  2  3  1  0  0  0  0
  2  4  1  0  0  0  0
  2  5  1  0  0  0  0
  5  6  2  0  0  0  0
  5  7  1  0  0  0  0
  7  8  1  0  0  0  0
  7  9  1  0  0  0  0
  9 10  1  0  0  0  0
  9 11  1  0  0  0  0
  9 29  1  0  0  0  0
 11 12  1  0  0  0  0
 11 13  1  0  0  0  0
 11 14  1  0  0  0  0
 14 15  1  0  0  0  0
 14 16  1  0  0  0  0
 14 17  1  0  0  0  0
 17 18  1  0  0  0  0
 17 19  1  0  0  0  0
 17 20  1  0  0  0  0
 20 21  1  0  0  0  0
 20 22  2  0  0  0  0
 22 23  1  0  0  0  0
 22 26  1  0  0  0  0
 23 24  1  0  0  0  0
 23 25  1  0  0  0  0
 26 27  1  0  0  0  0
 26 28  1  0  0  0  0
 29 30  2  0  0  0  0
 29 31  1  0  0  0  0
 31 32  1  0  0  0  0
 31 33  1  0  0  0  0
 33 34  1  0  0  0  0
 33 35  1  0  0  0  0
 33 36  1  0  0  0  0
M  CHG  1  20   1
M  END
$$$$

  -OEChem-04042215563D

 36 35  0     1  0  0  0  0  0999 V2000
   -3.0153   -5.3847    0.9805 H   0  0  0  0  0  0  0  0  0  0  0  0
   -3.0202   -4.4331    0.4405 C   0  0  0  0  0  0  0  0  0  0  0  0
   -3.9292   -3.8870    0.7027 H   0  0  0  0  0  0  0  0  0  0  0  0
   -3.0224   -4.6406   -0.6325 H   0  0  0  0  0  0  0  0  0  0  0  0
   -1.7939   -3.6199    0.8085 C   0  0  0  0  0  0  0  0  0  0  0  0
   -0.9535   -4.0934    1.5506 O   0  0  0  0  0  0  0  0  0  0  0  0
   -1.6559   -2.3226    0.3451 N   0  0  0  0  0  0  0  0  0  0  0  0
   -2.3401   -2.0578   -0.3584 H   0  0  0  0  0  0  0  0  0  0  0  0
   -0.3589   -1.6131    0.3049 C   0  0  1  0  0  0  0  0  0  0  0  0
    0.3309   -2.2733   -0.2352 H   0  0  0  0  0  0  0  0  0  0  0  0
   -0.4427   -0.3278   -0.5583 C   0  0  0  0  0  0  0  0  0  0  0  0
    0.5597    0.1117   -0.6183 H   0  0  0  0  0  0  0  0  0  0  0  0
   -0.7089   -0.6400   -1.5735 H   0  0  0  0  0  0  0  0  0  0  0  0
   -1.4372    0.7707   -0.1412 C   0  0  0  0  0  0  0  0  0  0  0  0
   -1.5839    1.4652   -0.9756 H   0  0  0  0  0  0  0  0  0  0  0  0
   -2.4055    0.3157    0.0898 H   0  0  0  0  0  0  0  0  0  0  0  0
   -0.9140    1.5458    1.0685 C   0  0  0  0  0  0  0  0  0  0  0  0
   -0.4851    0.8569    1.7902 H   0  0  0  0  0  0  0  0  0  0  0  0
   -0.1038    2.2039    0.7340 H   0  0  0  0  0  0  0  0  0  0  0  0
   -1.9695    2.3497    1.7086 N   0  3  0  0  0  0  0  0  0  0  0  0
   -2.6662    2.7785    1.1011 H   0  0  0  0  0  0  0  0  0  0  0  0
   -1.9664    2.6247    2.9818 C   0  0  0  0  0  0  0  0  0  0  0  0
   -1.0209    2.0964    3.8323 N   0  0  0  0  0  0  0  0  0  0  0  0
   -0.4283    1.3432    3.4803 H   0  0  0  0  0  0  0  0  0  0  0  0
   -1.1585    2.1733    4.8375 H   0  0  0  0  0  0  0  0  0  0  0  0
   -2.9236    3.4639    3.4998 N   0  0  0  0  0  0  0  0  0  0  0  0
   -3.4914    4.0100    2.8550 H   0  0  0  0  0  0  0  0  0  0  0  0
   -2.7823    3.8353    4.4377 H   0  0  0  0  0  0  0  0  0  0  0  0
    0.3011   -1.4663    1.6994 C   0  0  0  0  0  0  0  0  0  0  0  0
    1.5054   -1.2668    1.7568 O   0  0  0  0  0  0  0  0  0  0  0  0
   -0.4529   -1.0826    2.8000 N   0  0  0  0  0  0  0  0  0  0  0  0
   -1.4139   -1.4113    2.7339 H   0  0  0  0  0  0  0  0  0  0  0  0
    0.1479   -1.1185    4.1327 C   0  0  0  0  0  0  0  0  0  0  0  0
    0.9766   -0.4061    4.2084 H   0  0  0  0  0  0  0  0  0  0  0  0
   -0.5964   -0.8663    4.8940 H   0  0  0  0  0  0  0  0  0  0  0  0
    0.5333   -2.1218    4.3486 H   0  0  0  0  0  0  0  0  0  0  0  0
  1  2  1  0  0  0  0
  2  3  1  0  0  0  0
  2  4  1  0  0  0  0
  2  5  1  0  0  0  0
  5  6  2  0  0  0  0
  5  7  1  0  0  0  0
  7  8  1  0  0  0  0
  7  9  1  0  0  0  0
  9 10  1  0  0  0  0
  9 11  1  0  0  0  0
  9 29  1  0  0  0  0
 11 12  1  0  0  0  0
 11 13  1  0  0  0  0
 11 14  1  0  0  0  0
 14 15  1  0  0  0  0
 14 16  1  0  0  0  0
 14 17  1  0  0  0  0
 17 18  1  0  0  0  0
 17 19  1  0  0  0  0
 17 20  1  0  0  0  0
 20 21  1  0  0  0  0
 20 22  2  0  0  0  0
 22 23  1  0  0  0  0
 22 26  1  0  0  0  0
 23 24  1  0  0  0  0
 23 25  1  0  0  0  0
 26 27  1  0  0  0  0
 26 28  1  0  0  0  0
 29 30  2  0  0  0  0
 29 31  1  0  0  0  0
 31 32  1  0  0  0  0
 31 33  1  0  0  0  0
 33 34  1  0  0  0  0
 33 35  1  0  0  0  0
 33 36  1  0  0  0  0
M  CHG  1  20   1
M  END
$$$$

  -OEChem-04042215563D

 36 35  0     1  0  0  0  0  0999 V2000
   -2.8805   -5.3600    1.1616 H   0  0  0  0  0  0  0  0  0  0  0  0
   -2.9027   -4.4583    0.5424 C   0  0  0  0  0  0  0  0  0  0  0  0
   -3.8421   -3.9314    0.7249 H   0  0  0  0  0  0  0  0  0  0  0  0
   -2.8555   -4.7553   -0.5082 H   0  0  0  0  0  0  0  0  0  0  0  0
   -1.7243   -3.5657    0.8816 C   0  0  0  0  0  0  0  0  0  0  0  0
   -0.9010   -3.9335    1.6993 O   0  0  0  0  0  0  0  0  0  0  0  0
   -1.6085   -2.3170    0.2949 N   0  0  0  0  0  0  0  0  0  0  0  0
   -2.2671   -2.1475   -0.4608 H   0  0  0  0  0  0  0  0  0  0  0  0
   -0.3391   -1.5595    0.2481 C   0  0  1  0  0  0  0  0  0  0  0  0
    0.4071   -2.2114   -0.2223 H   0  0  0  0  0  0  0  0  0  0  0  0
   -0.4581   -0.3079   -0.6508 C   0  0  0  0  0  0  0  0  0  0  0  0
    0.5243    0.1722   -0.7323 H   0  0  0  0  0  0  0  0  0  0  0  0
   -0.7185   -0.6558   -1.6559 H   0  0  0  0  0  0  0  0  0  0  0  0
   -1.5135    0.7275   -0.2272 C   0  0  0  0  0  0  0  0  0  0  0  0
   -1.8908    1.2571   -1.1088 H   0  0  0  0  0  0  0  0  0  0  0  0
   -2.3620    0.2364    0.2595 H   0  0  0  0  0  0  0  0  0  0  0  0
   -0.8473    1.7311    0.7166 C   0  0  0  0  0  0  0  0  0  0  0  0
   -0.2007    1.1910    1.4121 H   0  0  0  0  0  0  0  0  0  0  0  0
   -0.2044    2.3950    0.1275 H   0  0  0  0  0  0  0  0  0  0  0  0
   -1.8366    2.5296    1.4611 N   0  3  0  0  0  0  0  0  0  0  0  0
   -2.6363    2.8870    0.9404 H   0  0  0  0  0  0  0  0  0  0  0  0
   -1.6548    2.9000    2.6969 C   0  0  0  0  0  0  0  0  0  0  0  0
   -0.5739    2.4673    3.4321 N   0  0  0  0  0  0  0  0  0  0  0  0
   -0.0319    1.6852    3.0609 H   0  0  0  0  0  0  0  0  0  0  0  0
   -0.5746    2.6109    4.4393 H   0  0  0  0  0  0  0  0  0  0  0  0
   -2.5562    3.7502    3.2916 N   0  0  0  0  0  0  0  0  0  0  0  0
   -3.2325    4.2298    2.7008 H   0  0  0  0  0  0  0  0  0  0  0  0
   -2.2854    4.2030    4.1629 H   0  0  0  0  0  0  0  0  0  0  0  0
    0.2284   -1.2485    1.6557 C   0  0  0  0  0  0  0  0  0  0  0  0
    1.4165   -0.9872    1.7743 O   0  0  0  0  0  0  0  0  0  0  0  0
   -0.6132   -0.7906    2.6587 N   0  0  0  0  0  0  0  0  0  0  0  0
   -1.5671   -1.1207    2.5301 H   0  0  0  0  0  0  0  0  0  0  0  0
   -0.1312   -0.7689    4.0389 C   0  0  0  0  0  0  0  0  0  0  0  0
    0.7406   -0.1142    4.1433 H   0  0  0  0  0  0  0  0  0  0  0  0
   -0.9162   -0.4086    4.7107 H   0  0  0  0  0  0  0  0  0  0  0  0
    0.1560   -1.7786    4.3544 H   0  0  0  0  0  0  0  0  0  0  0  0
  1  2  1  0  0  0  0
  2  3  1  0  0  0  0
  2  4  1  0  0  0  0
  2  5  1  0  0  0  0
  5  6  2  0  0  0  0
  5  7  1  0  0  0  0
  7  8  1  0  0  0  0
  7  9  1  0  0  0  0
  9 10  1  0  0  0  0
  9 11  1  0  0  0  0
  9 29  1  0  0  0  0
 11 12  1  0  0  0  0
 11 13  1  0  0  0  0
 11 14  1  0  0  0  0
 14 15  1  0  0  0  0
 14 16  1  0  0  0  0
 14 17  1  0  0  0  0
 17 18  1  0  0  0  0
 17 19  1  0  0  0  0
 17 20  1  0  0  0  0
 20 21  1  0  0  0  0
 20 22  2  0  0  0  0
 22 23  1  0  0  0  0
 22 26  1  0  0  0  0
 23 24  1  0  0  0  0
 23 25  1  0  0  0  0
 26 27  1  0  0  0  0
 26 28  1  0  0  0  0
 29 30  2  0  0  0  0
 29 31  1  0  0  0  0
 31 32  1  0  0  0  0
 31 33  1  0  0  0  0
 33 34  1  0  0  0  0
 33 35  1  0  0  0  0
 33 36  1  0  0  0  0
M  CHG  1  20   1
M  END
$$$$

  -OEChem-04042215563D

 36 35  0     1  0  0  0  0  0999 V2000
   -2.4973   -5.3752    1.2704 H   0  0  0  0  0  0  0  0  0  0  0  0
   -2.5504   -4.5167    0.5944 C   0  0  0  0  0  0  0  0  0  0  0  0
   -3.5707   -4.1261    0.6030 H   0  0  0  0  0  0  0  0  0  0  0  0
   -2.3029   -4.8519   -0.4157 H   0  0  0  0  0  0  0  0  0  0  0  0
   -1.5755   -3.4436    1.0391 C   0  0  0  0  0  0  0  0  0  0  0  0
   -0.8910   -3.6158    2.0313 O   0  0  0  0  0  0  0  0  0  0  0  0
   -1.4900   -2.2502    0.3424 N   0  0  0  0  0  0  0  0  0  0  0  0
   -1.9974   -2.2339   -0.5389 H   0  0  0  0  0  0  0  0  0  0  0  0
   -0.3650   -1.3030    0.4909 C   0  0  1  0  0  0  0  0  0  0  0  0
    0.5493   -1.8819    0.3113 H   0  0  0  0  0  0  0  0  0  0  0  0
   -0.3815   -0.2016   -0.5881 C   0  0  0  0  0  0  0  0  0  0  0  0
    0.5292    0.3987   -0.4879 H   0  0  0  0  0  0  0  0  0  0  0  0
   -0.3063   -0.7101   -1.5557 H   0  0  0  0  0  0  0  0  0  0  0  0
   -1.6111    0.7249   -0.6564 C   0  0  0  0  0  0  0  0  0  0  0  0
   -1.8855    0.8488   -1.7098 H   0  0  0  0  0  0  0  0  0  0  0  0
   -2.4729    0.2825   -0.1470 H   0  0  0  0  0  0  0  0  0  0  0  0
   -1.2942    2.1207   -0.0902 C   0  0  0  0  0  0  0  0  0  0  0  0
   -0.2194    2.3111   -0.1778 H   0  0  0  0  0  0  0  0  0  0  0  0
   -1.7943    2.8554   -0.7312 H   0  0  0  0  0  0  0  0  0  0  0  0
   -1.7472    2.3597    1.2930 N   0  3  0  0  0  0  0  0  0  0  0  0
   -2.7497    2.4734    1.4305 H   0  0  0  0  0  0  0  0  0  0  0  0
   -0.9429    2.7186    2.2553 C   0  0  0  0  0  0  0  0  0  0  0  0
    0.4220    2.5745    2.1687 N   0  0  0  0  0  0  0  0  0  0  0  0
    0.7291    1.7525    1.6428 H   0  0  0  0  0  0  0  0  0  0  0  0
    0.9511    2.7467    3.0194 H   0  0  0  0  0  0  0  0  0  0  0  0
   -1.4691    3.2572    3.4060 N   0  0  0  0  0  0  0  0  0  0  0  0
   -2.4418    3.5561    3.4030 H   0  0  0  0  0  0  0  0  0  0  0  0
   -0.8330    3.7141    4.0570 H   0  0  0  0  0  0  0  0  0  0  0  0
   -0.2091   -0.7797    1.9351 C   0  0  0  0  0  0  0  0  0  0  0  0
    0.8562   -0.2680    2.2611 O   0  0  0  0  0  0  0  0  0  0  0  0
   -1.3312   -0.3830    2.6413 N   0  0  0  0  0  0  0  0  0  0  0  0
   -2.1715   -0.8602    2.3224 H   0  0  0  0  0  0  0  0  0  0  0  0
   -1.2396   -0.1638    4.0837 C   0  0  0  0  0  0  0  0  0  0  0  0
   -0.4820    0.5884    4.3259 H   0  0  0  0  0  0  0  0  0  0  0  0
   -2.2015    0.1805    4.4760 H   0  0  0  0  0  0  0  0  0  0  0  0
   -0.9729   -1.0974    4.5918 H   0  0  0  0  0  0  0  0  0  0  0  0
  1  2  1  0  0  0  0
  2  3  1  0  0  0  0
  2  4  1  0  0  0  0
  2  5  1  0  0  0  0
  5  6  2  0  0  0  0
  5  7  1  0  0  0  0
  7  8  1  0  0  0  0
  7  9  1  0  0  0  0
  9 10  1  0  0  0  0
  9 11  1  0  0  0  0
  9 29  1  0  0  0  0
 11 12  1  0  0  0  0
 11 13  1  0  0  0  0
 11 14  1  0  0  0  0
 14 15  1  0  0  0  0
 14 16  1  0  0  0  0
 14 17  1  0  0  0  0
 17 18  1  0  0  0  0
 17 19  1  0  0  0  0
 17 20  1  0  0  0  0
 20 21  1  0  0  0  0
 20 22  2  0  0  0  0
 22 23  1  0  0  0  0
 22 26  1  0  0  0  0
 23 24  1  0  0  0  0
 23 25  1  0  0  0  0
 26 27  1  0  0  0  0
 26 28  1  0  0  0  0
 29 30  2  0  0  0  0
 29 31  1  0  0  0  0
 31 32  1  0  0  0  0
 31 33  1  0  0  0  0
 33 34  1  0  0  0  0
 33 35  1  0  0  0  0
 33 36  1  0  0  0  0
M  CHG  1  20   1
M  END
$$$$

  -OEChem-04042215563D

 36 35  0     1  0  0  0  0  0999 V2000
   -2.1469   -5.3957    1.3411 H   0  0  0  0  0  0  0  0  0  0  0  0
   -2.2560   -4.5616    0.6415 C   0  0  0  0  0  0  0  0  0  0  0  0
   -3.3110   -4.2820    0.5916 H   0  0  0  0  0  0  0  0  0  0  0  0
   -1.9240   -4.8897   -0.3465 H   0  0  0  0  0  0  0  0  0  0  0  0
   -1.4244   -3.3813    1.1059 C   0  0  0  0  0  0  0  0  0  0  0  0
   -0.8106   -3.4433    2.1557 O   0  0  0  0  0  0  0  0  0  0  0  0
   -1.3919   -2.2155    0.3606 N   0  0  0  0  0  0  0  0  0  0  0  0
   -1.8202   -2.2779   -0.5596 H   0  0  0  0  0  0  0  0  0  0  0  0
   -0.4063   -1.1388    0.5864 C   0  0  1  0  0  0  0  0  0  0  0  0
    0.5848   -1.6036    0.5210 H   0  0  0  0  0  0  0  0  0  0  0  0
   -0.4614   -0.0711   -0.5236 C   0  0  0  0  0  0  0  0  0  0  0  0
    0.3475    0.6443   -0.3597 H   0  0  0  0  0  0  0  0  0  0  0  0
   -0.2347   -0.5712   -1.4717 H   0  0  0  0  0  0  0  0  0  0  0  0
   -1.8077    0.6632   -0.6905 C   0  0  0  0  0  0  0  0  0  0  0  0
   -2.1678    0.4949   -1.7114 H   0  0  0  0  0  0  0  0  0  0  0  0
   -2.5696    0.2624   -0.0147 H   0  0  0  0  0  0  0  0  0  0  0  0
   -1.6583    2.1797   -0.4793 C   0  0  0  0  0  0  0  0  0  0  0  0
   -0.7436    2.5340   -0.9666 H   0  0  0  0  0  0  0  0  0  0  0  0
   -2.4982    2.6785   -0.9760 H   0  0  0  0  0  0  0  0  0  0  0  0
   -1.6748    2.5624    0.9478 N   0  3  0  0  0  0  0  0  0  0  0  0
   -2.5860    2.5905    1.4019 H   0  0  0  0  0  0  0  0  0  0  0  0
   -0.6271    2.8860    1.6533 C   0  0  0  0  0  0  0  0  0  0  0  0
    0.6530    2.8131    1.1621 N   0  0  0  0  0  0  0  0  0  0  0  0
    0.7534    2.3671    0.2556 H   0  0  0  0  0  0  0  0  0  0  0  0
    1.3686    2.5777    1.8496 H   0  0  0  0  0  0  0  0  0  0  0  0
   -0.7881    3.2948    2.9547 N   0  0  0  0  0  0  0  0  0  0  0  0
   -1.7152    3.5534    3.2831 H   0  0  0  0  0  0  0  0  0  0  0  0
    0.0223    3.6628    3.4495 H   0  0  0  0  0  0  0  0  0  0  0  0
   -0.4660   -0.5282    2.0068 C   0  0  0  0  0  0  0  0  0  0  0  0
    0.5184    0.0632    2.4382 O   0  0  0  0  0  0  0  0  0  0  0  0
   -1.6946   -0.2228    2.5682 N   0  0  0  0  0  0  0  0  0  0  0  0
   -2.4463   -0.7975    2.1941 H   0  0  0  0  0  0  0  0  0  0  0  0
   -1.7955    0.1079    3.9879 C   0  0  0  0  0  0  0  0  0  0  0  0
   -1.1149    0.9203    4.2597 H   0  0  0  0  0  0  0  0  0  0  0  0
   -2.8156    0.4197    4.2323 H   0  0  0  0  0  0  0  0  0  0  0  0
   -1.5453   -0.7678    4.5975 H   0  0  0  0  0  0  0  0  0  0  0  0
  1  2  1  0  0  0  0
  2  3  1  0  0  0  0
  2  4  1  0  0  0  0
  2  5  1  0  0  0  0
  5  6  2  0  0  0  0
  5  7  1  0  0  0  0
  7  8  1  0  0  0  0
  7  9  1  0  0  0  0
  9 10  1  0  0  0  0
  9 11  1  0  0  0  0
  9 29  1  0  0  0  0
 11 12  1  0  0  0  0
 11 13  1  0  0  0  0
 11 14  1  0  0  0  0
 14 15  1  0  0  0  0
 14 16  1  0  0  0  0
 14 17  1  0  0  0  0
 17 18  1  0  0  0  0
 17 19  1  0  0  0  0
 17 20  1  0  0  0  0
 20 21  1  0  0  0  0
 20 22  2  0  0  0  0
 22 23  1  0  0  0  0
 22 26  1  0  0  0  0
 23 24  1  0  0  0  0
 23 25  1  0  0  0  0
 26 27  1  0  0  0  0
 26 28  1  0  0  0  0
 29 30  2  0  0  0  0
 29 31  1  0  0  0  0
 31 32  1  0  0  0  0
 31 33  1  0  0  0  0
 33 34  1  0  0  0  0
 33 35  1  0  0  0  0
 33 36  1  0  0  0  0
M  CHG  1  20   1
M  END
$$$$

  -OEChem-04042215563D

 36 35  0     1  0  0  0  0  0999 V2000
   -2.1109   -5.3797    1.4564 H   0  0  0  0  0  0  0  0  0  0  0  0
   -2.2547   -4.5817    0.7219 C   0  0  0  0  0  0  0  0  0  0  0  0
   -3.3107   -4.3021    0.7105 H   0  0  0  0  0  0  0  0  0  0  0  0
   -1.9730   -4.9601   -0.2636 H   0  0  0  0  0  0  0  0  0  0  0  0
   -1.4004   -3.3821    1.0842 C   0  0  0  0  0  0  0  0  0  0  0  0
   -0.6958   -3.4118    2.0770 O   0  0  0  0  0  0  0  0  0  0  0  0
   -1.4481   -2.2328    0.3146 N   0  0  0  0  0  0  0  0  0  0  0  0
   -1.9568   -2.3176   -0.5617 H   0  0  0  0  0  0  0  0  0  0  0  0
   -0.4569   -1.1451    0.4318 C   0  0  1  0  0  0  0  0  0  0  0  0
    0.5264   -1.6077    0.2826 H   0  0  0  0  0  0  0  0  0  0  0  0
   -0.6143   -0.0877   -0.6759 C   0  0  0  0  0  0  0  0  0  0  0  0
    0.1998    0.6319   -0.5787 H   0  0  0  0  0  0  0  0  0  0  0  0
   -0.4651   -0.5806   -1.6428 H   0  0  0  0  0  0  0  0  0  0  0  0
   -1.9805    0.6262   -0.7115 C   0  0  0  0  0  0  0  0  0  0  0  0
   -2.5484    0.2389   -1.5644 H   0  0  0  0  0  0  0  0  0  0  0  0
   -2.5756    0.4164    0.1816 H   0  0  0  0  0  0  0  0  0  0  0  0
   -1.8048    2.1431   -0.8875 C   0  0  0  0  0  0  0  0  0  0  0  0
   -0.8685    2.3638   -1.4112 H   0  0  0  0  0  0  0  0  0  0  0  0
   -2.6201    2.5196   -1.5158 H   0  0  0  0  0  0  0  0  0  0  0  0
   -1.8628    2.8332    0.4207 N   0  3  0  0  0  0  0  0  0  0  0  0
   -2.7917    3.0811    0.7579 H   0  0  0  0  0  0  0  0  0  0  0  0
   -0.8454    3.0709    1.2017 C   0  0  0  0  0  0  0  0  0  0  0  0
    0.4458    2.7478    0.8714 N   0  0  0  0  0  0  0  0  0  0  0  0
    0.5696    2.3070   -0.0345 H   0  0  0  0  0  0  0  0  0  0  0  0
    0.9903    2.3281    1.6296 H   0  0  0  0  0  0  0  0  0  0  0  0
   -1.0549    3.6453    2.4309 N   0  0  0  0  0  0  0  0  0  0  0  0
   -1.9438    4.1063    2.6104 H   0  0  0  0  0  0  0  0  0  0  0  0
   -0.2356    3.9738    2.9399 H   0  0  0  0  0  0  0  0  0  0  0  0
   -0.3774   -0.4892    1.8343 C   0  0  0  0  0  0  0  0  0  0  0  0
    0.6294    0.1499    2.1268 O   0  0  0  0  0  0  0  0  0  0  0  0
   -1.5416   -0.1661    2.5103 N   0  0  0  0  0  0  0  0  0  0  0  0
   -2.3185   -0.7809    2.2787 H   0  0  0  0  0  0  0  0  0  0  0  0
   -1.5033    0.3337    3.8821 C   0  0  0  0  0  0  0  0  0  0  0  0
   -0.9173    1.2551    3.9509 H   0  0  0  0  0  0  0  0  0  0  0  0
   -2.5173    0.5455    4.2358 H   0  0  0  0  0  0  0  0  0  0  0  0
   -1.0546   -0.4141    4.5457 H   0  0  0  0  0  0  0  0  0  0  0  0
  1  2  1  0  0  0  0
  2  3  1  0  0  0  0
  2  4  1  0  0  0  0
  2  5  1  0  0  0  0
  5  6  2  0  0  0  0
  5  7  1  0  0  0  0
  7  8  1  0  0  0  0
  7  9  1  0  0  0  0
  9 10  1  0  0  0  0
  9 11  1  0  0  0  0
  9 29  1  0  0  0  0
 11 12  1  0  0  0  0
 11 13  1  0  0  0  0
 11 14  1  0  0  0  0
 14 15  1  0  0  0  0
 14 16  1  0  0  0  0
 14 17  1  0  0  0  0
 17 18  1  0  0  0  0
 17 19  1  0  0  0  0
 17 20  1  0  0  0  0
 20 21  1  0  0  0  0
 20 22  2  0  0  0  0
 22 23  1  0  0  0  0
 22 26  1  0  0  0  0
 23 24  1  0  0  0  0
 23 25  1  0  0  0  0
 26 27  1  0  0  0  0
 26 28  1  0  0  0  0
 29 30  2  0  0  0  0
 29 31  1  0  0  0  0
 31 32  1  0  0  0  0
 31 33  1  0  0  0  0
 33 34  1  0  0  0  0
 33 35  1  0  0  0  0
 33 36  1  0  0  0  0
M  CHG  1  20   1
M  END
$$$$

  -OEChem-04042215563D

 36 35  0     1  0  0  0  0  0999 V2000
   -2.0507   -5.5299    1.2799 H   0  0  0  0  0  0  0  0  0  0  0  0
   -2.3126   -4.6794    0.6435 C   0  0  0  0  0  0  0  0  0  0  0  0
   -3.3561   -4.4128    0.8261 H   0  0  0  0  0  0  0  0  0  0  0  0
   -2.1959   -4.9772   -0.4012 H   0  0  0  0  0  0  0  0  0  0  0  0
   -1.4116   -3.4994    0.9540 C   0  0  0  0  0  0  0  0  0  0  0  0
   -0.6165   -3.5620    1.8741 O   0  0  0  0  0  0  0  0  0  0  0  0
   -1.5168   -2.3308    0.2210 N   0  0  0  0  0  0  0  0  0  0  0  0
   -2.1096   -2.3866   -0.6030 H   0  0  0  0  0  0  0  0  0  0  0  0
   -0.5053   -1.2573    0.2696 C   0  0  1  0  0  0  0  0  0  0  0  0
    0.4521   -1.7281    0.0156 H   0  0  0  0  0  0  0  0  0  0  0  0
   -0.7426   -0.1601   -0.7844 C   0  0  0  0  0  0  0  0  0  0  0  0
    0.0862    0.5508   -0.7252 H   0  0  0  0  0  0  0  0  0  0  0  0
   -0.6846   -0.6125   -1.7803 H   0  0  0  0  0  0  0  0  0  0  0  0
   -2.0914    0.5717   -0.6646 C   0  0  0  0  0  0  0  0  0  0  0  0
   -2.8396    0.0457   -1.2671 H   0  0  0  0  0  0  0  0  0  0  0  0
   -2.4620    0.5782    0.3625 H   0  0  0  0  0  0  0  0  0  0  0  0
   -1.9412    2.0111   -1.1728 C   0  0  0  0  0  0  0  0  0  0  0  0
   -0.9632    2.1478   -1.6481 H   0  0  0  0  0  0  0  0  0  0  0  0
   -2.6986    2.1900   -1.9442 H   0  0  0  0  0  0  0  0  0  0  0  0
   -2.1232    2.9975   -0.0842 N   0  3  0  0  0  0  0  0  0  0  0  0
   -3.0138    3.4928   -0.0719 H   0  0  0  0  0  0  0  0  0  0  0  0
   -1.2129    3.3438    0.7860 C   0  0  0  0  0  0  0  0  0  0  0  0
    0.0185    2.7394    0.8751 N   0  0  0  0  0  0  0  0  0  0  0  0
    0.0940    1.7908    0.5105 H   0  0  0  0  0  0  0  0  0  0  0  0
    0.5742    2.9230    1.7078 H   0  0  0  0  0  0  0  0  0  0  0  0
   -1.4841    4.3664    1.6637 N   0  0  0  0  0  0  0  0  0  0  0  0
   -2.2911    4.9607    1.4864 H   0  0  0  0  0  0  0  0  0  0  0  0
   -0.7076    4.7647    2.1890 H   0  0  0  0  0  0  0  0  0  0  0  0
   -0.2807   -0.6346    1.6712 C   0  0  0  0  0  0  0  0  0  0  0  0
    0.7218    0.0543    1.8292 O   0  0  0  0  0  0  0  0  0  0  0  0
   -1.3693   -0.3147    2.4646 N   0  0  0  0  0  0  0  0  0  0  0  0
   -2.1471   -0.9636    2.3654 H   0  0  0  0  0  0  0  0  0  0  0  0
   -1.2135    0.3278    3.7665 C   0  0  0  0  0  0  0  0  0  0  0  0
   -0.7874    1.3300    3.6569 H   0  0  0  0  0  0  0  0  0  0  0  0
   -2.1858    0.4203    4.2606 H   0  0  0  0  0  0  0  0  0  0  0  0
   -0.5543   -0.2658    4.4098 H   0  0  0  0  0  0  0  0  0  0  0  0
  1  2  1  0  0  0  0
  2  3  1  0  0  0  0
  2  4  1  0  0  0  0
  2  5  1  0  0  0  0
  5  6  2  0  0  0  0
  5  7  1  0  0  0  0
  7  8  1  0  0  0  0
  7  9  1  0  0  0  0
  9 10  1  0  0  0  0
  9 11  1  0  0  0  0
  9 29  1  0  0  0  0
 11 12  1  0  0  0  0
 11 13  1  0  0  0  0
 11 14  1  0  0  0  0
 14 15  1  0  0  0  0
 14 16  1  0  0  0  0
 14 17  1  0  0  0  0
 17 18  1  0  0  0  0
 17 19  1  0  0  0  0
 17 20  1  0  0  0  0
 20 21  1  0  0  0  0
 20 22  2  0  0  0  0
 22 23  1  0  0  0  0
 22 26  1  0  0  0  0
 23 24  1  0  0  0  0
 23 25  1  0  0  0  0
 26 27  1  0  0  0  0
 26 28  1  0  0  0  0
 29 30  2  0  0  0  0
 29 31  1  0  0  0  0
 31 32  1  0  0  0  0
 31 33  1  0  0  0  0
 33 34  1  0  0  0  0
 33 35  1  0  0  0  0
 33 36  1  0  0  0  0
M  CHG  1  20   1
M  END
$$$$

  -OEChem-04042215563D

 36 35  0     1  0  0  0  0  0999 V2000
   -2.8075   -5.6093    0.6570 H   0  0  0  0  0  0  0  0  0  0  0  0
   -2.9290   -4.5958    0.2632 C   0  0  0  0  0  0  0  0  0  0  0  0
   -3.8413   -4.1638    0.6808 H   0  0  0  0  0  0  0  0  0  0  0  0
   -3.0227   -4.6534   -0.8239 H   0  0  0  0  0  0  0  0  0  0  0  0
   -1.7303   -3.7458    0.6385 C   0  0  0  0  0  0  0  0  0  0  0  0
   -0.8576   -4.2092    1.3484 O   0  0  0  0  0  0  0  0  0  0  0  0
   -1.6441   -2.4372    0.1969 N   0  0  0  0  0  0  0  0  0  0  0  0
   -2.3358   -2.1719   -0.4975 H   0  0  0  0  0  0  0  0  0  0  0  0
   -0.3939   -1.6519    0.2469 C   0  0  1  0  0  0  0  0  0  0  0  0
    0.3618   -2.2320   -0.2965 H   0  0  0  0  0  0  0  0  0  0  0  0
   -0.5454   -0.3137   -0.5047 C   0  0  0  0  0  0  0  0  0  0  0  0
    0.4204    0.2028   -0.4584 H   0  0  0  0  0  0  0  0  0  0  0  0
   -0.7486   -0.5212   -1.5605 H   0  0  0  0  0  0  0  0  0  0  0  0
   -1.6410    0.6174    0.0412 C   0  0  0  0  0  0  0  0  0  0  0  0
   -2.6313    0.2318   -0.2218 H   0  0  0  0  0  0  0  0  0  0  0  0
   -1.5760    0.6764    1.1312 H   0  0  0  0  0  0  0  0  0  0  0  0
   -1.4366    2.0188   -0.5341 C   0  0  0  0  0  0  0  0  0  0  0  0
   -0.4108    2.3412   -0.3221 H   0  0  0  0  0  0  0  0  0  0  0  0
   -1.5710    1.9842   -1.6210 H   0  0  0  0  0  0  0  0  0  0  0  0
   -2.3917    2.9679    0.0675 N   0  3  0  0  0  0  0  0  0  0  0  0
   -3.0320    2.6015    0.7703 H   0  0  0  0  0  0  0  0  0  0  0  0
   -2.4124    4.2399   -0.2117 C   0  0  0  0  0  0  0  0  0  0  0  0
   -1.5387    4.7983   -1.1174 N   0  0  0  0  0  0  0  0  0  0  0  0
   -0.7545    4.2311   -1.4338 H   0  0  0  0  0  0  0  0  0  0  0  0
   -1.4319    5.8107   -1.1320 H   0  0  0  0  0  0  0  0  0  0  0  0
   -3.3241    5.0581    0.4126 N   0  0  0  0  0  0  0  0  0  0  0  0
   -4.0784    4.6368    0.9512 H   0  0  0  0  0  0  0  0  0  0  0  0
   -3.4622    6.0005    0.0517 H   0  0  0  0  0  0  0  0  0  0  0  0
    0.2079   -1.4544    1.6598 C   0  0  0  0  0  0  0  0  0  0  0  0
    1.4074   -1.2337    1.7531 O   0  0  0  0  0  0  0  0  0  0  0  0
   -0.6073   -1.1090    2.7245 N   0  0  0  0  0  0  0  0  0  0  0  0
   -1.5518   -1.4773    2.6625 H   0  0  0  0  0  0  0  0  0  0  0  0
   -0.0629   -0.8769    4.0591 C   0  0  0  0  0  0  0  0  0  0  0  0
    0.6490   -0.0447    4.0460 H   0  0  0  0  0  0  0  0  0  0  0  0
   -0.8663   -0.6306    4.7600 H   0  0  0  0  0  0  0  0  0  0  0  0
    0.4526   -1.7725    4.4228 H   0  0  0  0  0  0  0  0  0  0  0  0
  1  2  1  0  0  0  0
  2  3  1  0  0  0  0
  2  4  1  0  0  0  0
  2  5  1  0  0  0  0
  5  6  2  0  0  0  0
  5  7  1  0  0  0  0
  7  8  1  0  0  0  0
  7  9  1  0  0  0  0
  9 10  1  0  0  0  0
  9 11  1  0  0  0  0
  9 29  1  0  0  0  0
 11 12  1  0  0  0  0
 11 13  1  0  0  0  0
 11 14  1  0  0  0  0
 14 15  1  0  0  0  0
 14 16  1  0  0  0  0
 14 17  1  0  0  0  0
 17 18  1  0  0  0  0
 17 19  1  0  0  0  0
 17 20  1  0  0  0  0
 20 21  1  0  0  0  0
 20 22  2  0  0  0  0
 22 23  1  0  0  0  0
 22 26  1  0  0  0  0
 23 24  1  0  0  0  0
 23 25  1  0  0  0  0
 26 27  1  0  0  0  0
 26 28  1  0  0  0  0
 29 30  2  0  0  0  0
 29 31  1  0  0  0  0
 31 32  1  0  0  0  0
 31 33  1  0  0  0  0
 33 34  1  0  0  0  0
 33 35  1  0  0  0  0
 33 36  1  0  0  0  0
M  CHG  1  20   1
M  END
$$$$

  -OEChem-04042215563D

 36 35  0     1  0  0  0  0  0999 V2000
   -2.8749   -5.5607    0.6513 H   0  0  0  0  0  0  0  0  0  0  0  0
   -2.9682   -4.5466    0.2515 C   0  0  0  0  0  0  0  0  0  0  0  0
   -3.8660   -4.0858    0.6699 H   0  0  0  0  0  0  0  0  0  0  0  0
   -3.0682   -4.6077   -0.8350 H   0  0  0  0  0  0  0  0  0  0  0  0
   -1.7439   -3.7289    0.6173 C   0  0  0  0  0  0  0  0  0  0  0  0
   -0.8675   -4.2201    1.3039 O   0  0  0  0  0  0  0  0  0  0  0  0
   -1.6397   -2.4150    0.1968 N   0  0  0  0  0  0  0  0  0  0  0  0
   -2.3430   -2.1180   -0.4729 H   0  0  0  0  0  0  0  0  0  0  0  0
   -0.3824   -1.6426    0.2587 C   0  0  1  0  0  0  0  0  0  0  0  0
    0.3623   -2.2302   -0.2915 H   0  0  0  0  0  0  0  0  0  0  0  0
   -0.5214   -0.3049   -0.4972 C   0  0  0  0  0  0  0  0  0  0  0  0
    0.4861    0.0905   -0.6708 H   0  0  0  0  0  0  0  0  0  0  0  0
   -0.9677   -0.4974   -1.4786 H   0  0  0  0  0  0  0  0  0  0  0  0
   -1.3434    0.7634    0.2396 C   0  0  0  0  0  0  0  0  0  0  0  0
   -2.3533    0.3910    0.4406 H   0  0  0  0  0  0  0  0  0  0  0  0
   -0.8664    1.0007    1.1963 H   0  0  0  0  0  0  0  0  0  0  0  0
   -1.4049    2.0310   -0.6097 C   0  0  0  0  0  0  0  0  0  0  0  0
   -0.3839    2.3327   -0.8695 H   0  0  0  0  0  0  0  0  0  0  0  0
   -1.9514    1.8198   -1.5355 H   0  0  0  0  0  0  0  0  0  0  0  0
   -2.0692    3.1104    0.1433 N   0  3  0  0  0  0  0  0  0  0  0  0
   -2.3433    2.9063    1.1036 H   0  0  0  0  0  0  0  0  0  0  0  0
   -2.2577    4.3080   -0.3314 C   0  0  0  0  0  0  0  0  0  0  0  0
   -1.8611    4.6543   -1.6034 N   0  0  0  0  0  0  0  0  0  0  0  0
   -1.2549    4.0074   -2.1039 H   0  0  0  0  0  0  0  0  0  0  0  0
   -1.8084    5.6419   -1.8457 H   0  0  0  0  0  0  0  0  0  0  0  0
   -2.8648    5.2609    0.4514 N   0  0  0  0  0  0  0  0  0  0  0  0
   -3.3055    4.9755    1.3238 H   0  0  0  0  0  0  0  0  0  0  0  0
   -3.1815    6.1244    0.0136 H   0  0  0  0  0  0  0  0  0  0  0  0
    0.2225   -1.4705    1.6731 C   0  0  0  0  0  0  0  0  0  0  0  0
    1.4202   -1.2413    1.7661 O   0  0  0  0  0  0  0  0  0  0  0  0
   -0.5928   -1.1326    2.7410 N   0  0  0  0  0  0  0  0  0  0  0  0
   -1.5392   -1.4955    2.6736 H   0  0  0  0  0  0  0  0  0  0  0  0
   -0.0500   -0.9160    4.0794 C   0  0  0  0  0  0  0  0  0  0  0  0
    0.6604   -0.0824    4.0784 H   0  0  0  0  0  0  0  0  0  0  0  0
   -0.8543   -0.6794    4.7827 H   0  0  0  0  0  0  0  0  0  0  0  0
    0.4664   -1.8153    4.4328 H   0  0  0  0  0  0  0  0  0  0  0  0
  1  2  1  0  0  0  0
  2  3  1  0  0  0  0
  2  4  1  0  0  0  0
  2  5  1  0  0  0  0
  5  6  2  0  0  0  0
  5  7  1  0  0  0  0
  7  8  1  0  0  0  0
  7  9  1  0  0  0  0
  9 10  1  0  0  0  0
  9 11  1  0  0  0  0
  9 29  1  0  0  0  0
 11 12  1  0  0  0  0
 11 13  1  0  0  0  0
 11 14  1  0  0  0  0
 14 15  1  0  0  0  0
 14 16  1  0  0  0  0
 14 17  1  0  0  0  0
 17 18  1  0  0  0  0
 17 19  1  0  0  0  0
 17 20  1  0  0  0  0
 20 21  1  0  0  0  0
 20 22  2  0  0  0  0
 22 23  1  0  0  0  0
 22 26  1  0  0  0  0
 23 24  1  0  0  0  0
 23 25  1  0  0  0  0
 26 27  1  0  0  0  0
 26 28  1  0  0  0  0
 29 30  2  0  0  0  0
 29 31  1  0  0  0  0
 31 32  1  0  0  0  0
 31 33  1  0  0  0  0
 33 34  1  0  0  0  0
 33 35  1  0  0  0  0
 33 36  1  0  0  0  0
M  CHG  1  20   1
M  END
$$$$

  -OEChem-04042215563D

 36 35  0     1  0  0  0  0  0999 V2000
   -2.8957   -5.5542    0.6833 H   0  0  0  0  0  0  0  0  0  0  0  0
   -2.9831   -4.5440    0.2720 C   0  0  0  0  0  0  0  0  0  0  0  0
   -3.8802   -4.0744    0.6824 H   0  0  0  0  0  0  0  0  0  0  0  0
   -3.0801   -4.6164   -0.8141 H   0  0  0  0  0  0  0  0  0  0  0  0
   -1.7555   -3.7290    0.6327 C   0  0  0  0  0  0  0  0  0  0  0  0
   -0.8890   -4.2143    1.3356 O   0  0  0  0  0  0  0  0  0  0  0  0
   -1.6379   -2.4236    0.1904 N   0  0  0  0  0  0  0  0  0  0  0  0
   -2.3314   -2.1349   -0.4927 H   0  0  0  0  0  0  0  0  0  0  0  0
   -0.3741   -1.6612    0.2472 C   0  0  1  0  0  0  0  0  0  0  0  0
    0.3693   -2.2578   -0.2948 H   0  0  0  0  0  0  0  0  0  0  0  0
   -0.5050   -0.3260   -0.5132 C   0  0  0  0  0  0  0  0  0  0  0  0
    0.4989    0.0701   -0.7044 H   0  0  0  0  0  0  0  0  0  0  0  0
   -0.9651   -0.5274   -1.4863 H   0  0  0  0  0  0  0  0  0  0  0  0
   -1.3201    0.7398    0.2347 C   0  0  0  0  0  0  0  0  0  0  0  0
   -2.2272    0.2925    0.6546 H   0  0  0  0  0  0  0  0  0  0  0  0
   -0.7213    1.1390    1.0617 H   0  0  0  0  0  0  0  0  0  0  0  0
   -1.7068    1.8662   -0.7212 C   0  0  0  0  0  0  0  0  0  0  0  0
   -0.7998    2.2526   -1.1996 H   0  0  0  0  0  0  0  0  0  0  0  0
   -2.3690    1.4703   -1.4991 H   0  0  0  0  0  0  0  0  0  0  0  0
   -2.3785    2.9455    0.0254 N   0  3  0  0  0  0  0  0  0  0  0  0
   -2.4344    2.8430    1.0381 H   0  0  0  0  0  0  0  0  0  0  0  0
   -2.8386    4.0292   -0.5305 C   0  0  0  0  0  0  0  0  0  0  0  0
   -2.7491    4.2435   -1.8872 N   0  0  0  0  0  0  0  0  0  0  0  0
   -2.1489    3.6230   -2.4269 H   0  0  0  0  0  0  0  0  0  0  0  0
   -2.9036    5.1854   -2.2420 H   0  0  0  0  0  0  0  0  0  0  0  0
   -3.4300    4.9937    0.2497 N   0  0  0  0  0  0  0  0  0  0  0  0
   -3.6408    4.7820    1.2232 H   0  0  0  0  0  0  0  0  0  0  0  0
   -3.9594    5.7347   -0.2063 H   0  0  0  0  0  0  0  0  0  0  0  0
    0.2257   -1.4688    1.6613 C   0  0  0  0  0  0  0  0  0  0  0  0
    1.4261   -1.2553    1.7569 O   0  0  0  0  0  0  0  0  0  0  0  0
   -0.5914   -1.1042    2.7190 N   0  0  0  0  0  0  0  0  0  0  0  0
   -1.5392   -1.4636    2.6561 H   0  0  0  0  0  0  0  0  0  0  0  0
   -0.0498   -0.8702    4.0547 C   0  0  0  0  0  0  0  0  0  0  0  0
    0.6679   -0.0427    4.0410 H   0  0  0  0  0  0  0  0  0  0  0  0
   -0.8534   -0.6157    4.7524 H   0  0  0  0  0  0  0  0  0  0  0  0
    0.4587   -1.7681    4.4234 H   0  0  0  0  0  0  0  0  0  0  0  0
  1  2  1  0  0  0  0
  2  3  1  0  0  0  0
  2  4  1  0  0  0  0
  2  5  1  0  0  0  0
  5  6  2  0  0  0  0
  5  7  1  0  0  0  0
  7  8  1  0  0  0  0
  7  9  1  0  0  0  0
  9 10  1  0  0  0  0
  9 11  1  0  0  0  0
  9 29  1  0  0  0  0
 11 12  1  0  0  0  0
 11 13  1  0  0  0  0
 11 14  1  0  0  0  0
 14 15  1  0  0  0  0
 14 16  1  0  0  0  0
 14 17  1  0  0  0  0
 17 18  1  0  0  0  0
 17 19  1  0  0  0  0
 17 20  1  0  0  0  0
 20 21  1  0  0  0  0
 20 22  2  0  0  0  0
 22 23  1  0  0  0  0
 22 26  1  0  0  0  0
 23 24  1  0  0  0  0
 23 25  1  0  0  0  0
 26 27  1  0  0  0  0
 26 28  1  0  0  0  0
 29 30  2  0  0  0  0
 29 31  1  0  0  0  0
 31 32  1  0  0  0  0
 31 33  1  0  0  0  0
 33 34  1  0  0  0  0
 33 35  1  0  0  0  0
 33 36  1  0  0  0  0
M  CHG  1  20   1
M  END
$$$$

  -OEChem-04042215563D

 36 35  0     1  0  0  0  0  0999 V2000
   -2.8549   -5.5888    0.8014 H   0  0  0  0  0  0  0  0  0  0  0  0
   -2.9235   -4.6196    0.2985 C   0  0  0  0  0  0  0  0  0  0  0  0
   -3.8411   -4.1222    0.6204 H   0  0  0  0  0  0  0  0  0  0  0  0
   -2.9648   -4.7879   -0.7802 H   0  0  0  0  0  0  0  0  0  0  0  0
   -1.7173   -3.7684    0.6461 C   0  0  0  0  0  0  0  0  0  0  0  0
   -0.8331   -4.2278    1.3442 O   0  0  0  0  0  0  0  0  0  0  0  0
   -1.6400   -2.4604    0.2012 N   0  0  0  0  0  0  0  0  0  0  0  0
   -2.3440   -2.1938   -0.4800 H   0  0  0  0  0  0  0  0  0  0  0  0
   -0.3924   -1.6701    0.2428 C   0  0  1  0  0  0  0  0  0  0  0  0
    0.3563   -2.2523   -0.3079 H   0  0  0  0  0  0  0  0  0  0  0  0
   -0.5501   -0.3359   -0.5137 C   0  0  0  0  0  0  0  0  0  0  0  0
    0.4442    0.0770   -0.7184 H   0  0  0  0  0  0  0  0  0  0  0  0
   -1.0149   -0.5509   -1.4817 H   0  0  0  0  0  0  0  0  0  0  0  0
   -1.3758    0.7219    0.2383 C   0  0  0  0  0  0  0  0  0  0  0  0
   -2.1283    0.2343    0.8667 H   0  0  0  0  0  0  0  0  0  0  0  0
   -0.7099    1.2966    0.8930 H   0  0  0  0  0  0  0  0  0  0  0  0
   -2.0947    1.6398   -0.7488 C   0  0  0  0  0  0  0  0  0  0  0  0
   -1.3609    2.0385   -1.4584 H   0  0  0  0  0  0  0  0  0  0  0  0
   -2.8405    1.0622   -1.3061 H   0  0  0  0  0  0  0  0  0  0  0  0
   -2.7413    2.7476   -0.0215 N   0  3  0  0  0  0  0  0  0  0  0  0
   -2.6259    2.7671    0.9913 H   0  0  0  0  0  0  0  0  0  0  0  0
   -3.3804    3.7193   -0.6069 C   0  0  0  0  0  0  0  0  0  0  0  0
   -3.5263    3.7712   -1.9747 N   0  0  0  0  0  0  0  0  0  0  0  0
   -2.9787    3.1223   -2.5359 H   0  0  0  0  0  0  0  0  0  0  0  0
   -3.8085    4.6514   -2.4017 H   0  0  0  0  0  0  0  0  0  0  0  0
   -3.9243    4.7286    0.1514 N   0  0  0  0  0  0  0  0  0  0  0  0
   -3.9705    4.6166    1.1625 H   0  0  0  0  0  0  0  0  0  0  0  0
   -4.5757    5.3760   -0.2894 H   0  0  0  0  0  0  0  0  0  0  0  0
    0.2228   -1.4631    1.6481 C   0  0  0  0  0  0  0  0  0  0  0  0
    1.4200   -1.2268    1.7271 O   0  0  0  0  0  0  0  0  0  0  0  0
   -0.5870   -1.1164    2.7168 N   0  0  0  0  0  0  0  0  0  0  0  0
   -1.5264   -1.4992    2.6673 H   0  0  0  0  0  0  0  0  0  0  0  0
   -0.0325   -0.8698    4.0447 C   0  0  0  0  0  0  0  0  0  0  0  0
    0.6660   -0.0265    4.0214 H   0  0  0  0  0  0  0  0  0  0  0  0
   -0.8327   -0.6332    4.7523 H   0  0  0  0  0  0  0  0  0  0  0  0
    0.5004   -1.7556    4.4074 H   0  0  0  0  0  0  0  0  0  0  0  0
  1  2  1  0  0  0  0
  2  3  1  0  0  0  0
  2  4  1  0  0  0  0
  2  5  1  0  0  0  0
  5  6  2  0  0  0  0
  5  7  1  0  0  0  0
  7  8  1  0  0  0  0
  7  9  1  0  0  0  0
  9 10  1  0  0  0  0
  9 11  1  0  0  0  0
  9 29  1  0  0  0  0
 11 12  1  0  0  0  0
 11 13  1  0  0  0  0
 11 14  1  0  0  0  0
 14 15  1  0  0  0  0
 14 16  1  0  0  0  0
 14 17  1  0  0  0  0
 17 18  1  0  0  0  0
 17 19  1  0  0  0  0
 17 20  1  0  0  0  0
 20 21  1  0  0  0  0
 20 22  2  0  0  0  0
 22 23  1  0  0  0  0
 22 26  1  0  0  0  0
 23 24  1  0  0  0  0
 23 25  1  0  0  0  0
 26 27  1  0  0  0  0
 26 28  1  0  0  0  0
 29 30  2  0  0  0  0
 29 31  1  0  0  0  0
 31 32  1  0  0  0  0
 31 33  1  0  0  0  0
 33 34  1  0  0  0  0
 33 35  1  0  0  0  0
 33 36  1  0  0  0  0
M  CHG  1  20   1
M  END
$$$$

  -OEChem-04042215563D

 36 35  0     1  0  0  0  0  0999 V2000
   -2.8058   -5.6385    0.8028 H   0  0  0  0  0  0  0  0  0  0  0  0
   -2.8950   -4.6634    0.3147 C   0  0  0  0  0  0  0  0  0  0  0  0
   -3.8191   -4.1877    0.6511 H   0  0  0  0  0  0  0  0  0  0  0  0
   -2.9407   -4.8170   -0.7662 H   0  0  0  0  0  0  0  0  0  0  0  0
   -1.7015   -3.7957    0.6667 C   0  0  0  0  0  0  0  0  0  0  0  0
   -0.8075   -4.2471    1.3574 O   0  0  0  0  0  0  0  0  0  0  0  0
   -1.6467   -2.4827    0.2325 N   0  0  0  0  0  0  0  0  0  0  0  0
   -2.3575   -2.2235   -0.4437 H   0  0  0  0  0  0  0  0  0  0  0  0
   -0.4069   -1.6803    0.2630 C   0  0  1  0  0  0  0  0  0  0  0  0
    0.3379   -2.2586   -0.2971 H   0  0  0  0  0  0  0  0  0  0  0  0
   -0.5759   -0.3492   -0.5006 C   0  0  0  0  0  0  0  0  0  0  0  0
    0.4183    0.0654   -0.7047 H   0  0  0  0  0  0  0  0  0  0  0  0
   -1.0304   -0.5722   -1.4717 H   0  0  0  0  0  0  0  0  0  0  0  0
   -1.4058    0.7197    0.2364 C   0  0  0  0  0  0  0  0  0  0  0  0
   -1.9672    0.2642    1.0575 H   0  0  0  0  0  0  0  0  0  0  0  0
   -0.7239    1.4614    0.6678 H   0  0  0  0  0  0  0  0  0  0  0  0
   -2.4092    1.3883   -0.7028 C   0  0  0  0  0  0  0  0  0  0  0  0
   -1.8762    1.7619   -1.5843 H   0  0  0  0  0  0  0  0  0  0  0  0
   -3.1506    0.6508   -1.0292 H   0  0  0  0  0  0  0  0  0  0  0  0
   -3.0680    2.5062   -0.0008 N   0  3  0  0  0  0  0  0  0  0  0  0
   -2.8136    2.6524    0.9757 H   0  0  0  0  0  0  0  0  0  0  0  0
   -3.9020    3.3303   -0.5676 C   0  0  0  0  0  0  0  0  0  0  0  0
   -4.2563    3.2095   -1.8920 N   0  0  0  0  0  0  0  0  0  0  0  0
   -3.7164    2.5708   -2.4717 H   0  0  0  0  0  0  0  0  0  0  0  0
   -4.7139    3.9970   -2.3473 H   0  0  0  0  0  0  0  0  0  0  0  0
   -4.4482    4.3559    0.1673 N   0  0  0  0  0  0  0  0  0  0  0  0
   -4.3187    4.3669    1.1775 H   0  0  0  0  0  0  0  0  0  0  0  0
   -5.2341    4.8741   -0.2219 H   0  0  0  0  0  0  0  0  0  0  0  0
    0.2335   -1.4759    1.6583 C   0  0  0  0  0  0  0  0  0  0  0  0
    1.4321   -1.2409    1.7142 O   0  0  0  0  0  0  0  0  0  0  0  0
   -0.5512   -1.1448    2.7505 N   0  0  0  0  0  0  0  0  0  0  0  0
   -1.4897   -1.5314    2.7215 H   0  0  0  0  0  0  0  0  0  0  0  0
    0.0347   -0.9039    4.0662 C   0  0  0  0  0  0  0  0  0  0  0  0
    0.7222   -0.0519    4.0332 H   0  0  0  0  0  0  0  0  0  0  0  0
   -0.7493   -0.6832    4.7971 H   0  0  0  0  0  0  0  0  0  0  0  0
    0.5879   -1.7866    4.4056 H   0  0  0  0  0  0  0  0  0  0  0  0
  1  2  1  0  0  0  0
  2  3  1  0  0  0  0
  2  4  1  0  0  0  0
  2  5  1  0  0  0  0
  5  6  2  0  0  0  0
  5  7  1  0  0  0  0
  7  8  1  0  0  0  0
  7  9  1  0  0  0  0
  9 10  1  0  0  0  0
  9 11  1  0  0  0  0
  9 29  1  0  0  0  0
 11 12  1  0  0  0  0
 11 13  1  0  0  0  0
 11 14  1  0  0  0  0
 14 15  1  0  0  0  0
 14 16  1  0  0  0  0
 14 17  1  0  0  0  0
 17 18  1  0  0  0  0
 17 19  1  0  0  0  0
 17 20  1  0  0  0  0
 20 21  1  0  0  0  0
 20 22  2  0  0  0  0
 22 23  1  0  0  0  0
 22 26  1  0  0  0  0
 23 24  1  0  0  0  0
 23 25  1  0  0  0  0
 26 27  1  0  0  0  0
 26 28  1  0  0  0  0
 29 30  2  0  0  0  0
 29 31  1  0  0  0  0
 31 32  1  0  0  0  0
 31 33  1  0  0  0  0
 33 34  1  0  0  0  0
 33 35  1  0  0  0  0
 33 36  1  0  0  0  0
M  CHG  1  20   1
M  END
$$$$

  -OEChem-04042215563D

 36 35  0     1  0  0  0  0  0999 V2000
   -2.6677   -5.7387    0.7849 H   0  0  0  0  0  0  0  0  0  0  0  0
   -2.8428   -4.7327    0.3916 C   0  0  0  0  0  0  0  0  0  0  0  0
   -3.7464   -4.3288    0.8539 H   0  0  0  0  0  0  0  0  0  0  0  0
   -2.9898   -4.8011   -0.6889 H   0  0  0  0  0  0  0  0  0  0  0  0
   -1.6551   -3.8412    0.6998 C   0  0  0  0  0  0  0  0  0  0  0  0
   -0.7152   -4.2828    1.3334 O   0  0  0  0  0  0  0  0  0  0  0  0
   -1.6564   -2.5185    0.2930 N   0  0  0  0  0  0  0  0  0  0  0  0
   -2.4068   -2.2639   -0.3404 H   0  0  0  0  0  0  0  0  0  0  0  0
   -0.4384   -1.6830    0.2826 C   0  0  1  0  0  0  0  0  0  0  0  0
    0.2934   -2.2419   -0.3134 H   0  0  0  0  0  0  0  0  0  0  0  0
   -0.6664   -0.3601   -0.4800 C   0  0  0  0  0  0  0  0  0  0  0  0
    0.3179    0.0737   -0.6915 H   0  0  0  0  0  0  0  0  0  0  0  0
   -1.1199   -0.5893   -1.4500 H   0  0  0  0  0  0  0  0  0  0  0  0
   -1.5012    0.7039    0.2614 C   0  0  0  0  0  0  0  0  0  0  0  0
   -1.7962    0.3494    1.2518 H   0  0  0  0  0  0  0  0  0  0  0  0
   -0.8830    1.5977    0.4022 H   0  0  0  0  0  0  0  0  0  0  0  0
   -2.7604    1.0644   -0.5255 C   0  0  0  0  0  0  0  0  0  0  0  0
   -2.4685    1.3712   -1.5356 H   0  0  0  0  0  0  0  0  0  0  0  0
   -3.4074    0.1838   -0.6028 H   0  0  0  0  0  0  0  0  0  0  0  0
   -3.4715    2.1623    0.1569 N   0  3  0  0  0  0  0  0  0  0  0  0
   -3.2418    2.3226    1.1373 H   0  0  0  0  0  0  0  0  0  0  0  0
   -4.3445    2.9354   -0.4231 C   0  0  0  0  0  0  0  0  0  0  0  0
   -4.6793    2.7893   -1.7502 N   0  0  0  0  0  0  0  0  0  0  0  0
   -4.1029    2.1765   -2.3223 H   0  0  0  0  0  0  0  0  0  0  0  0
   -5.1759    3.5475   -2.2141 H   0  0  0  0  0  0  0  0  0  0  0  0
   -4.9544    3.9323    0.3005 N   0  0  0  0  0  0  0  0  0  0  0  0
   -4.8428    3.9475    1.3127 H   0  0  0  0  0  0  0  0  0  0  0  0
   -5.7668    4.3995   -0.0989 H   0  0  0  0  0  0  0  0  0  0  0  0
    0.2690   -1.4854    1.6469 C   0  0  0  0  0  0  0  0  0  0  0  0
    1.4630   -1.2216    1.6424 O   0  0  0  0  0  0  0  0  0  0  0  0
   -0.4607   -1.1965    2.7882 N   0  0  0  0  0  0  0  0  0  0  0  0
   -1.3879   -1.6101    2.8069 H   0  0  0  0  0  0  0  0  0  0  0  0
    0.1941   -0.9592    4.0719 C   0  0  0  0  0  0  0  0  0  0  0  0
    0.8255   -0.0656    4.0234 H   0  0  0  0  0  0  0  0  0  0  0  0
   -0.5520   -0.8104    4.8583 H   0  0  0  0  0  0  0  0  0  0  0  0
    0.8204   -1.8152    4.3468 H   0  0  0  0  0  0  0  0  0  0  0  0
  1  2  1  0  0  0  0
  2  3  1  0  0  0  0
  2  4  1  0  0  0  0
  2  5  1  0  0  0  0
  5  6  2  0  0  0  0
  5  7  1  0  0  0  0
  7  8  1  0  0  0  0
  7  9  1  0  0  0  0
  9 10  1  0  0  0  0
  9 11  1  0  0  0  0
  9 29  1  0  0  0  0
 11 12  1  0  0  0  0
 11 13  1  0  0  0  0
 11 14  1  0  0  0  0
 14 15  1  0  0  0  0
 14 16  1  0  0  0  0
 14 17  1  0  0  0  0
 17 18  1  0  0  0  0
 17 19  1  0  0  0  0
 17 20  1  0  0  0  0
 20 21  1  0  0  0  0
 20 22  2  0  0  0  0
 22 23  1  0  0  0  0
 22 26  1  0  0  0  0
 23 24  1  0  0  0  0
 23 25  1  0  0  0  0
 26 27  1  0  0  0  0
 26 28  1  0  0  0  0
 29 30  2  0  0  0  0
 29 31  1  0  0  0  0
 31 32  1  0  0  0  0
 31 33  1  0  0  0  0
 33 34  1  0  0  0  0
 33 35  1  0  0  0  0
 33 36  1  0  0  0  0
M  CHG  1  20   1
M  END
$$$$

  -OEChem-04042215563D

 36 35  0     1  0  0  0  0  0999 V2000
   -2.5648   -5.7980    0.8014 H   0  0  0  0  0  0  0  0  0  0  0  0
   -2.7741   -4.7905    0.4296 C   0  0  0  0  0  0  0  0  0  0  0  0
   -3.6737   -4.4154    0.9227 H   0  0  0  0  0  0  0  0  0  0  0  0
   -2.9492   -4.8451   -0.6476 H   0  0  0  0  0  0  0  0  0  0  0  0
   -1.5997   -3.8763    0.7216 C   0  0  0  0  0  0  0  0  0  0  0  0
   -0.6386   -4.3018    1.3338 O   0  0  0  0  0  0  0  0  0  0  0  0
   -1.6397   -2.5504    0.3277 N   0  0  0  0  0  0  0  0  0  0  0  0
   -2.4029   -2.3144   -0.2974 H   0  0  0  0  0  0  0  0  0  0  0  0
   -0.4390   -1.6910    0.2889 C   0  0  1  0  0  0  0  0  0  0  0  0
    0.2876   -2.2316   -0.3304 H   0  0  0  0  0  0  0  0  0  0  0  0
   -0.7205   -0.3722   -0.4643 C   0  0  0  0  0  0  0  0  0  0  0  0
    0.2542    0.0811   -0.6801 H   0  0  0  0  0  0  0  0  0  0  0  0
   -1.1791   -0.5986   -1.4326 H   0  0  0  0  0  0  0  0  0  0  0  0
   -1.5579    0.6801    0.2902 C   0  0  0  0  0  0  0  0  0  0  0  0
   -1.5734    0.4868    1.3643 H   0  0  0  0  0  0  0  0  0  0  0  0
   -1.0846    1.6582    0.1466 H   0  0  0  0  0  0  0  0  0  0  0  0
   -2.9867    0.7418   -0.2469 C   0  0  0  0  0  0  0  0  0  0  0  0
   -2.9525    0.9123   -1.3277 H   0  0  0  0  0  0  0  0  0  0  0  0
   -3.4855   -0.2159   -0.0625 H   0  0  0  0  0  0  0  0  0  0  0  0
   -3.7178    1.8324    0.4266 N   0  3  0  0  0  0  0  0  0  0  0  0
   -3.4304    2.0600    1.3782 H   0  0  0  0  0  0  0  0  0  0  0  0
   -4.6850    2.5123   -0.1205 C   0  0  0  0  0  0  0  0  0  0  0  0
   -5.1144    2.2681   -1.4055 N   0  0  0  0  0  0  0  0  0  0  0  0
   -4.5434    1.6641   -1.9925 H   0  0  0  0  0  0  0  0  0  0  0  0
   -5.6975    2.9658   -1.8640 H   0  0  0  0  0  0  0  0  0  0  0  0
   -5.3026    3.5090    0.5971 N   0  0  0  0  0  0  0  0  0  0  0  0
   -5.1023    3.5999    1.5915 H   0  0  0  0  0  0  0  0  0  0  0  0
   -6.1771    3.8962    0.2463 H   0  0  0  0  0  0  0  0  0  0  0  0
    0.3024   -1.4946    1.6350 C   0  0  0  0  0  0  0  0  0  0  0  0
    1.4904   -1.2078    1.5995 O   0  0  0  0  0  0  0  0  0  0  0  0
   -0.4002   -1.2324    2.7995 N   0  0  0  0  0  0  0  0  0  0  0  0
   -1.3173   -1.6664    2.8405 H   0  0  0  0  0  0  0  0  0  0  0  0
    0.2863   -0.9925    4.0660 C   0  0  0  0  0  0  0  0  0  0  0  0
    0.9239   -0.1046    3.9970 H   0  0  0  0  0  0  0  0  0  0  0  0
   -0.4399   -0.8320    4.8686 H   0  0  0  0  0  0  0  0  0  0  0  0
    0.9127   -1.8515    4.3309 H   0  0  0  0  0  0  0  0  0  0  0  0
  1  2  1  0  0  0  0
  2  3  1  0  0  0  0
  2  4  1  0  0  0  0
  2  5  1  0  0  0  0
  5  6  2  0  0  0  0
  5  7  1  0  0  0  0
  7  8  1  0  0  0  0
  7  9  1  0  0  0  0
  9 10  1  0  0  0  0
  9 11  1  0  0  0  0
  9 29  1  0  0  0  0
 11 12  1  0  0  0  0
 11 13  1  0  0  0  0
 11 14  1  0  0  0  0
 14 15  1  0  0  0  0
 14 16  1  0  0  0  0
 14 17  1  0  0  0  0
 17 18  1  0  0  0  0
 17 19  1  0  0  0  0
 17 20  1  0  0  0  0
 20 21  1  0  0  0  0
 20 22  2  0  0  0  0
 22 23  1  0  0  0  0
 22 26  1  0  0  0  0
 23 24  1  0  0  0  0
 23 25  1  0  0  0  0
 26 27  1  0  0  0  0
 26 28  1  0  0  0  0
 29 30  2  0  0  0  0
 29 31  1  0  0  0  0
 31 32  1  0  0  0  0
 31 33  1  0  0  0  0
 33 34  1  0  0  0  0
 33 35  1  0  0  0  0
 33 36  1  0  0  0  0
M  CHG  1  20   1
M  END
$$$$

  -OEChem-04042215563D

 36 35  0     1  0  0  0  0  0999 V2000
   -2.1204   -6.0163    1.0132 H   0  0  0  0  0  0  0  0  0  0  0  0
   -2.4603   -5.0635    0.5960 C   0  0  0  0  0  0  0  0  0  0  0  0
   -3.3891   -4.7755    1.0933 H   0  0  0  0  0  0  0  0  0  0  0  0
   -2.6499   -5.1985   -0.4715 H   0  0  0  0  0  0  0  0  0  0  0  0
   -1.4019   -3.9973    0.8067 C   0  0  0  0  0  0  0  0  0  0  0  0
   -0.3705   -4.2761    1.3881 O   0  0  0  0  0  0  0  0  0  0  0  0
   -1.6291   -2.7006    0.3785 N   0  0  0  0  0  0  0  0  0  0  0  0
   -2.4374   -2.5963   -0.2261 H   0  0  0  0  0  0  0  0  0  0  0  0
   -0.5409   -1.7132    0.2190 C   0  0  1  0  0  0  0  0  0  0  0  0
    0.1932   -2.1852   -0.4456 H   0  0  0  0  0  0  0  0  0  0  0  0
   -1.0342   -0.4527   -0.5278 C   0  0  0  0  0  0  0  0  0  0  0  0
   -0.1376    0.0986   -0.8344 H   0  0  0  0  0  0  0  0  0  0  0  0
   -1.5492   -0.7498   -1.4473 H   0  0  0  0  0  0  0  0  0  0  0  0
   -1.9150    0.5218    0.2775 C   0  0  0  0  0  0  0  0  0  0  0  0
   -1.6157    0.5600    1.3271 H   0  0  0  0  0  0  0  0  0  0  0  0
   -1.7573    1.5271   -0.1272 H   0  0  0  0  0  0  0  0  0  0  0  0
   -3.3975    0.1724    0.1544 C   0  0  0  0  0  0  0  0  0  0  0  0
   -3.6925    0.1458   -0.8999 H   0  0  0  0  0  0  0  0  0  0  0  0
   -3.5653   -0.8283    0.5669 H   0  0  0  0  0  0  0  0  0  0  0  0
   -4.2111    1.1536    0.8993 N   0  3  0  0  0  0  0  0  0  0  0  0
   -4.3419    0.9796    1.8956 H   0  0  0  0  0  0  0  0  0  0  0  0
   -4.7506    2.2147    0.3693 C   0  0  0  0  0  0  0  0  0  0  0  0
   -4.5809    2.5339   -0.9589 N   0  0  0  0  0  0  0  0  0  0  0  0
   -3.8692    2.0288   -1.4824 H   0  0  0  0  0  0  0  0  0  0  0  0
   -4.8254    3.4724   -1.2692 H   0  0  0  0  0  0  0  0  0  0  0  0
   -5.5065    3.0530    1.1537 N   0  0  0  0  0  0  0  0  0  0  0  0
   -5.7861    2.7401    2.0816 H   0  0  0  0  0  0  0  0  0  0  0  0
   -6.0732    3.7672    0.6993 H   0  0  0  0  0  0  0  0  0  0  0  0
    0.2689   -1.3893    1.4992 C   0  0  0  0  0  0  0  0  0  0  0  0
    1.4069   -0.9623    1.3665 O   0  0  0  0  0  0  0  0  0  0  0  0
   -0.3782   -1.1684    2.7038 N   0  0  0  0  0  0  0  0  0  0  0  0
   -1.2285   -1.7102    2.8232 H   0  0  0  0  0  0  0  0  0  0  0  0
    0.3619   -0.8076    3.9098 C   0  0  0  0  0  0  0  0  0  0  0  0
    0.8809    0.1473    3.7732 H   0  0  0  0  0  0  0  0  0  0  0  0
   -0.3198   -0.7084    4.7597 H   0  0  0  0  0  0  0  0  0  0  0  0
    1.1036   -1.5782    4.1475 H   0  0  0  0  0  0  0  0  0  0  0  0
  1  2  1  0  0  0  0
  2  3  1  0  0  0  0
  2  4  1  0  0  0  0
  2  5  1  0  0  0  0
  5  6  2  0  0  0  0
  5  7  1  0  0  0  0
  7  8  1  0  0  0  0
  7  9  1  0  0  0  0
  9 10  1  0  0  0  0
  9 11  1  0  0  0  0
  9 29  1  0  0  0  0
 11 12  1  0  0  0  0
 11 13  1  0  0  0  0
 11 14  1  0  0  0  0
 14 15  1  0  0  0  0
 14 16  1  0  0  0  0
 14 17  1  0  0  0  0
 17 18  1  0  0  0  0
 17 19  1  0  0  0  0
 17 20  1  0  0  0  0
 20 21  1  0  0  0  0
 20 22  2  0  0  0  0
 22 23  1  0  0  0  0
 22 26  1  0  0  0  0
 23 24  1  0  0  0  0
 23 25  1  0  0  0  0
 26 27  1  0  0  0  0
 26 28  1  0  0  0  0
 29 30  2  0  0  0  0
 29 31  1  0  0  0  0
 31 32  1  0  0  0  0
 31 33  1  0  0  0  0
 33 34  1  0  0  0  0
 33 35  1  0  0  0  0
 33 36  1  0  0  0  0
M  CHG  1  20   1
M  END
$$$$

  -OEChem-04042215563D

 36 35  0     1  0  0  0  0  0999 V2000
   -2.6030   -5.7733    0.7025 H   0  0  0  0  0  0  0  0  0  0  0  0
   -2.7099   -4.8002    0.2134 C   0  0  0  0  0  0  0  0  0  0  0  0
   -3.6974   -4.3976    0.4482 H   0  0  0  0  0  0  0  0  0  0  0  0
   -2.6253   -4.9425   -0.8667 H   0  0  0  0  0  0  0  0  0  0  0  0
   -1.6281   -3.8540    0.6984 C   0  0  0  0  0  0  0  0  0  0  0  0
   -0.8198   -4.2351    1.5229 O   0  0  0  0  0  0  0  0  0  0  0  0
   -1.5934   -2.5480    0.2393 N   0  0  0  0  0  0  0  0  0  0  0  0
   -2.2090   -2.3815   -0.5502 H   0  0  0  0  0  0  0  0  0  0  0  0
   -0.3586   -1.7351    0.2751 C   0  0  1  0  0  0  0  0  0  0  0  0
    0.4023   -2.3085   -0.2684 H   0  0  0  0  0  0  0  0  0  0  0  0
   -0.5422   -0.4094   -0.5010 C   0  0  0  0  0  0  0  0  0  0  0  0
    0.4591    0.0029   -0.6720 H   0  0  0  0  0  0  0  0  0  0  0  0
   -0.9675   -0.6246   -1.4868 H   0  0  0  0  0  0  0  0  0  0  0  0
   -1.3789    0.6859    0.1874 C   0  0  0  0  0  0  0  0  0  0  0  0
   -1.0312    0.8425    1.2126 H   0  0  0  0  0  0  0  0  0  0  0  0
   -1.2005    1.6232   -0.3510 H   0  0  0  0  0  0  0  0  0  0  0  0
   -2.8796    0.4053    0.1701 C   0  0  0  0  0  0  0  0  0  0  0  0
   -3.2213    0.3130   -0.8666 H   0  0  0  0  0  0  0  0  0  0  0  0
   -3.0788   -0.5359    0.6941 H   0  0  0  0  0  0  0  0  0  0  0  0
   -3.5681    1.5207    0.8471 N   0  3  0  0  0  0  0  0  0  0  0  0
   -2.9794    2.2756    1.1988 H   0  0  0  0  0  0  0  0  0  0  0  0
   -4.8542    1.5864    1.0355 C   0  0  0  0  0  0  0  0  0  0  0  0
   -5.7095    0.6128    0.5726 N   0  0  0  0  0  0  0  0  0  0  0  0
   -5.3425   -0.0605   -0.0957 H   0  0  0  0  0  0  0  0  0  0  0  0
   -6.7060    0.8202    0.5416 H   0  0  0  0  0  0  0  0  0  0  0  0
   -5.3828    2.6585    1.7146 N   0  0  0  0  0  0  0  0  0  0  0  0
   -4.7521    3.2967    2.1970 H   0  0  0  0  0  0  0  0  0  0  0  0
   -6.3470    2.6049    2.0383 H   0  0  0  0  0  0  0  0  0  0  0  0
    0.2497   -1.5120    1.6824 C   0  0  0  0  0  0  0  0  0  0  0  0
    1.4449   -1.2695    1.7643 O   0  0  0  0  0  0  0  0  0  0  0  0
   -0.5657   -1.1753    2.7506 N   0  0  0  0  0  0  0  0  0  0  0  0
   -1.4881   -1.5968    2.7087 H   0  0  0  0  0  0  0  0  0  0  0  0
   -0.0098   -0.9159    4.0759 C   0  0  0  0  0  0  0  0  0  0  0  0
    0.6609   -0.0504    4.0502 H   0  0  0  0  0  0  0  0  0  0  0  0
   -0.8110   -0.7083    4.7917 H   0  0  0  0  0  0  0  0  0  0  0  0
    0.5552   -1.7849    4.4310 H   0  0  0  0  0  0  0  0  0  0  0  0
  1  2  1  0  0  0  0
  2  3  1  0  0  0  0
  2  4  1  0  0  0  0
  2  5  1  0  0  0  0
  5  6  2  0  0  0  0
  5  7  1  0  0  0  0
  7  8  1  0  0  0  0
  7  9  1  0  0  0  0
  9 10  1  0  0  0  0
  9 11  1  0  0  0  0
  9 29  1  0  0  0  0
 11 12  1  0  0  0  0
 11 13  1  0  0  0  0
 11 14  1  0  0  0  0
 14 15  1  0  0  0  0
 14 16  1  0  0  0  0
 14 17  1  0  0  0  0
 17 18  1  0  0  0  0
 17 19  1  0  0  0  0
 17 20  1  0  0  0  0
 20 21  1  0  0  0  0
 20 22  2  0  0  0  0
 22 23  1  0  0  0  0
 22 26  1  0  0  0  0
 23 24  1  0  0  0  0
 23 25  1  0  0  0  0
 26 27  1  0  0  0  0
 26 28  1  0  0  0  0
 29 30  2  0  0  0  0
 29 31  1  0  0  0  0
 31 32  1  0  0  0  0
 31 33  1  0  0  0  0
 33 34  1  0  0  0  0
 33 35  1  0  0  0  0
 33 36  1  0  0  0  0
M  CHG  1  20   1
M  END
$$$$

  -OEChem-04042215563D

 36 35  0     1  0  0  0  0  0999 V2000
   -2.5055   -5.8335    0.5443 H   0  0  0  0  0  0  0  0  0  0  0  0
   -2.6708   -4.8340    0.1305 C   0  0  0  0  0  0  0  0  0  0  0  0
   -3.6680   -4.4946    0.4190 H   0  0  0  0  0  0  0  0  0  0  0  0
   -2.6121   -4.8959   -0.9589 H   0  0  0  0  0  0  0  0  0  0  0  0
   -1.6202   -3.8751    0.6566 C   0  0  0  0  0  0  0  0  0  0  0  0
   -0.8675   -4.2319    1.5422 O   0  0  0  0  0  0  0  0  0  0  0  0
   -1.5749   -2.5728    0.1893 N   0  0  0  0  0  0  0  0  0  0  0  0
   -2.1511   -2.4219   -0.6334 H   0  0  0  0  0  0  0  0  0  0  0  0
   -0.3439   -1.7550    0.2622 C   0  0  1  0  0  0  0  0  0  0  0  0
    0.4363   -2.3224   -0.2596 H   0  0  0  0  0  0  0  0  0  0  0  0
   -0.5084   -0.4201   -0.5027 C   0  0  0  0  0  0  0  0  0  0  0  0
    0.4928   -0.0043   -0.6632 H   0  0  0  0  0  0  0  0  0  0  0  0
   -0.9256   -0.6322   -1.4924 H   0  0  0  0  0  0  0  0  0  0  0  0
   -1.3617    0.6703    0.1742 C   0  0  0  0  0  0  0  0  0  0  0  0
   -0.8805    0.9662    1.1129 H   0  0  0  0  0  0  0  0  0  0  0  0
   -1.3620    1.5520   -0.4761 H   0  0  0  0  0  0  0  0  0  0  0  0
   -2.8068    0.2554    0.4468 C   0  0  0  0  0  0  0  0  0  0  0  0
   -3.3082    0.0365   -0.5023 H   0  0  0  0  0  0  0  0  0  0  0  0
   -2.8137   -0.6471    1.0668 H   0  0  0  0  0  0  0  0  0  0  0  0
   -3.4884    1.3571    1.1519 N   0  3  0  0  0  0  0  0  0  0  0  0
   -2.9657    2.2262    1.2580 H   0  0  0  0  0  0  0  0  0  0  0  0
   -4.6771    1.2689    1.6741 C   0  0  0  0  0  0  0  0  0  0  0  0
   -5.4390    0.1284    1.5609 N   0  0  0  0  0  0  0  0  0  0  0  0
   -5.1381   -0.5774    0.8934 H   0  0  0  0  0  0  0  0  0  0  0  0
   -6.4313    0.1840    1.7827 H   0  0  0  0  0  0  0  0  0  0  0  0
   -5.1944    2.3424    2.3592 N   0  0  0  0  0  0  0  0  0  0  0  0
   -4.5763    3.1160    2.5979 H   0  0  0  0  0  0  0  0  0  0  0  0
   -6.0236    2.2008    2.9335 H   0  0  0  0  0  0  0  0  0  0  0  0
    0.2185   -1.5177    1.6859 C   0  0  0  0  0  0  0  0  0  0  0  0
    1.4069   -1.2562    1.8014 O   0  0  0  0  0  0  0  0  0  0  0  0
   -0.6344   -1.1749    2.7224 N   0  0  0  0  0  0  0  0  0  0  0  0
   -1.5354   -1.6392    2.6721 H   0  0  0  0  0  0  0  0  0  0  0  0
   -0.1188   -0.8673    4.0534 C   0  0  0  0  0  0  0  0  0  0  0  0
    0.5513   -0.0012    4.0172 H   0  0  0  0  0  0  0  0  0  0  0  0
   -0.9413   -0.6364    4.7368 H   0  0  0  0  0  0  0  0  0  0  0  0
    0.4368   -1.7220    4.4548 H   0  0  0  0  0  0  0  0  0  0  0  0
  1  2  1  0  0  0  0
  2  3  1  0  0  0  0
  2  4  1  0  0  0  0
  2  5  1  0  0  0  0
  5  6  2  0  0  0  0
  5  7  1  0  0  0  0
  7  8  1  0  0  0  0
  7  9  1  0  0  0  0
  9 10  1  0  0  0  0
  9 11  1  0  0  0  0
  9 29  1  0  0  0  0
 11 12  1  0  0  0  0
 11 13  1  0  0  0  0
 11 14  1  0  0  0  0
 14 15  1  0  0  0  0
 14 16  1  0  0  0  0
 14 17  1  0  0  0  0
 17 18  1  0  0  0  0
 17 19  1  0  0  0  0
 17 20  1  0  0  0  0
 20 21  1  0  0  0  0
 20 22  2  0  0  0  0
 22 23  1  0  0  0  0
 22 26  1  0  0  0  0
 23 24  1  0  0  0  0
 23 25  1  0  0  0  0
 26 27  1  0  0  0  0
 26 28  1  0  0  0  0
 29 30  2  0  0  0  0
 29 31  1  0  0  0  0
 31 32  1  0  0  0  0
 31 33  1  0  0  0  0
 33 34  1  0  0  0  0
 33 35  1  0  0  0  0
 33 36  1  0  0  0  0
M  CHG  1  20   1
M  END
$$$$

  -OEChem-04042215563D

 36 35  0     1  0  0  0  0  0999 V2000
   -2.4616   -5.8847    0.4420 H   0  0  0  0  0  0  0  0  0  0  0  0
   -2.5849   -4.9005   -0.0202 C   0  0  0  0  0  0  0  0  0  0  0  0
   -3.6130   -4.5657    0.1346 H   0  0  0  0  0  0  0  0  0  0  0  0
   -2.3950   -4.9943   -1.0923 H   0  0  0  0  0  0  0  0  0  0  0  0
   -1.6113   -3.9138    0.5950 C   0  0  0  0  0  0  0  0  0  0  0  0
   -0.9014   -4.2591    1.5202 O   0  0  0  0  0  0  0  0  0  0  0  0
   -1.5957   -2.5955    0.1754 N   0  0  0  0  0  0  0  0  0  0  0  0
   -2.1643   -2.4355   -0.6518 H   0  0  0  0  0  0  0  0  0  0  0  0
   -0.3731   -1.7670    0.2657 C   0  0  1  0  0  0  0  0  0  0  0  0
    0.4020   -2.3172   -0.2817 H   0  0  0  0  0  0  0  0  0  0  0  0
   -0.5442   -0.4181   -0.4707 C   0  0  0  0  0  0  0  0  0  0  0  0
    0.4525    0.0059   -0.6391 H   0  0  0  0  0  0  0  0  0  0  0  0
   -0.9693   -0.6245   -1.4584 H   0  0  0  0  0  0  0  0  0  0  0  0
   -1.4057    0.6636    0.2125 C   0  0  0  0  0  0  0  0  0  0  0  0
   -0.8078    1.0956    1.0234 H   0  0  0  0  0  0  0  0  0  0  0  0
   -1.6006    1.4630   -0.5106 H   0  0  0  0  0  0  0  0  0  0  0  0
   -2.7302    0.1715    0.7985 C   0  0  0  0  0  0  0  0  0  0  0  0
   -3.3847   -0.1645   -0.0129 H   0  0  0  0  0  0  0  0  0  0  0  0
   -2.5428   -0.6726    1.4675 H   0  0  0  0  0  0  0  0  0  0  0  0
   -3.3596    1.2768    1.5446 N   0  3  0  0  0  0  0  0  0  0  0  0
   -2.8928    2.1823    1.5036 H   0  0  0  0  0  0  0  0  0  0  0  0
   -4.4288    1.1509    2.2760 C   0  0  0  0  0  0  0  0  0  0  0  0
   -5.0892   -0.0500    2.4010 N   0  0  0  0  0  0  0  0  0  0  0  0
   -4.6356   -0.8843    2.0368 H   0  0  0  0  0  0  0  0  0  0  0  0
   -5.7658   -0.1594    3.1543 H   0  0  0  0  0  0  0  0  0  0  0  0
   -4.9190    2.2442    2.9494 N   0  0  0  0  0  0  0  0  0  0  0  0
   -4.5357    3.1642    2.7395 H   0  0  0  0  0  0  0  0  0  0  0  0
   -5.8565    2.1952    3.3446 H   0  0  0  0  0  0  0  0  0  0  0  0
    0.2273   -1.5611    1.6796 C   0  0  0  0  0  0  0  0  0  0  0  0
    1.4138   -1.2787    1.7607 O   0  0  0  0  0  0  0  0  0  0  0  0
   -0.5902   -1.2591    2.7560 N   0  0  0  0  0  0  0  0  0  0  0  0
   -1.4616   -1.7787    2.7426 H   0  0  0  0  0  0  0  0  0  0  0  0
   -0.0235   -0.9624    4.0692 C   0  0  0  0  0  0  0  0  0  0  0  0
    0.6014   -0.0636    4.0255 H   0  0  0  0  0  0  0  0  0  0  0  0
   -0.8206   -0.7907    4.7986 H   0  0  0  0  0  0  0  0  0  0  0  0
    0.5925   -1.7984    4.4195 H   0  0  0  0  0  0  0  0  0  0  0  0
  1  2  1  0  0  0  0
  2  3  1  0  0  0  0
  2  4  1  0  0  0  0
  2  5  1  0  0  0  0
  5  6  2  0  0  0  0
  5  7  1  0  0  0  0
  7  8  1  0  0  0  0
  7  9  1  0  0  0  0
  9 10  1  0  0  0  0
  9 11  1  0  0  0  0
  9 29  1  0  0  0  0
 11 12  1  0  0  0  0
 11 13  1  0  0  0  0
 11 14  1  0  0  0  0
 14 15  1  0  0  0  0
 14 16  1  0  0  0  0
 14 17  1  0  0  0  0
 17 18  1  0  0  0  0
 17 19  1  0  0  0  0
 17 20  1  0  0  0  0
 20 21  1  0  0  0  0
 20 22  2  0  0  0  0
 22 23  1  0  0  0  0
 22 26  1  0  0  0  0
 23 24  1  0  0  0  0
 23 25  1  0  0  0  0
 26 27  1  0  0  0  0
 26 28  1  0  0  0  0
 29 30  2  0  0  0  0
 29 31  1  0  0  0  0
 31 32  1  0  0  0  0
 31 33  1  0  0  0  0
 33 34  1  0  0  0  0
 33 35  1  0  0  0  0
 33 36  1  0  0  0  0
M  CHG  1  20   1
M  END
$$$$

  -OEChem-04042215563D

 36 35  0     1  0  0  0  0  0999 V2000
   -1.9103   -6.0304   -0.1785 H   0  0  0  0  0  0  0  0  0  0  0  0
   -2.1314   -5.0075   -0.4981 C   0  0  0  0  0  0  0  0  0  0  0  0
   -3.2013   -4.8246   -0.3738 H   0  0  0  0  0  0  0  0  0  0  0  0
   -1.8703   -4.9090   -1.5545 H   0  0  0  0  0  0  0  0  0  0  0  0
   -1.3310   -4.0201    0.3295 C   0  0  0  0  0  0  0  0  0  0  0  0
   -0.6395   -4.4142    1.2505 O   0  0  0  0  0  0  0  0  0  0  0  0
   -1.4381   -2.6617    0.0889 N   0  0  0  0  0  0  0  0  0  0  0  0
   -1.9460   -2.4322   -0.7613 H   0  0  0  0  0  0  0  0  0  0  0  0
   -0.3997   -1.7001    0.5137 C   0  0  1  0  0  0  0  0  0  0  0  0
    0.5335   -2.1047    0.1021 H   0  0  0  0  0  0  0  0  0  0  0  0
   -0.5490   -0.3170   -0.1604 C   0  0  0  0  0  0  0  0  0  0  0  0
    0.4061    0.2125   -0.0631 H   0  0  0  0  0  0  0  0  0  0  0  0
   -0.6972   -0.4956   -1.2307 H   0  0  0  0  0  0  0  0  0  0  0  0
   -1.6637    0.6375    0.3118 C   0  0  0  0  0  0  0  0  0  0  0  0
   -1.2326    1.2546    1.1072 H   0  0  0  0  0  0  0  0  0  0  0  0
   -1.9242    1.3125   -0.5109 H   0  0  0  0  0  0  0  0  0  0  0  0
   -2.9363   -0.0224    0.8513 C   0  0  0  0  0  0  0  0  0  0  0  0
   -2.6992   -0.7954    1.5819 H   0  0  0  0  0  0  0  0  0  0  0  0
   -3.4627   -0.5132    0.0255 H   0  0  0  0  0  0  0  0  0  0  0  0
   -3.8079    0.9993    1.4644 N   0  3  0  0  0  0  0  0  0  0  0  0
   -4.5306    1.4046    0.8704 H   0  0  0  0  0  0  0  0  0  0  0  0
   -3.6712    1.4405    2.6840 C   0  0  0  0  0  0  0  0  0  0  0  0
   -2.6948    0.9692    3.5322 N   0  0  0  0  0  0  0  0  0  0  0  0
   -1.9926    0.3286    3.1551 H   0  0  0  0  0  0  0  0  0  0  0  0
   -2.4421    1.5263    4.3458 H   0  0  0  0  0  0  0  0  0  0  0  0
   -4.5142    2.4228    3.1458 N   0  0  0  0  0  0  0  0  0  0  0  0
   -5.3435    2.6552    2.6030 H   0  0  0  0  0  0  0  0  0  0  0  0
   -4.5220    2.6284    4.1435 H   0  0  0  0  0  0  0  0  0  0  0  0
   -0.1049   -1.6325    2.0341 C   0  0  0  0  0  0  0  0  0  0  0  0
    0.9643   -1.1586    2.3877 O   0  0  0  0  0  0  0  0  0  0  0  0
   -1.1331   -1.6102    2.9637 N   0  0  0  0  0  0  0  0  0  0  0  0
   -1.9048   -2.2109    2.6796 H   0  0  0  0  0  0  0  0  0  0  0  0
   -0.8199   -1.6224    4.3930 C   0  0  0  0  0  0  0  0  0  0  0  0
   -0.2793   -0.7149    4.6831 H   0  0  0  0  0  0  0  0  0  0  0  0
   -1.7396   -1.6804    4.9833 H   0  0  0  0  0  0  0  0  0  0  0  0
   -0.1978   -2.4903    4.6399 H   0  0  0  0  0  0  0  0  0  0  0  0
  1  2  1  0  0  0  0
  2  3  1  0  0  0  0
  2  4  1  0  0  0  0
  2  5  1  0  0  0  0
  5  6  2  0  0  0  0
  5  7  1  0  0  0  0
  7  8  1  0  0  0  0
  7  9  1  0  0  0  0
  9 10  1  0  0  0  0
  9 11  1  0  0  0  0
  9 29  1  0  0  0  0
 11 12  1  0  0  0  0
 11 13  1  0  0  0  0
 11 14  1  0  0  0  0
 14 15  1  0  0  0  0
 14 16  1  0  0  0  0
 14 17  1  0  0  0  0
 17 18  1  0  0  0  0
 17 19  1  0  0  0  0
 17 20  1  0  0  0  0
 20 21  1  0  0  0  0
 20 22  2  0  0  0  0
 22 23  1  0  0  0  0
 22 26  1  0  0  0  0
 23 24  1  0  0  0  0
 23 25  1  0  0  0  0
 26 27  1  0  0  0  0
 26 28  1  0  0  0  0
 29 30  2  0  0  0  0
 29 31  1  0  0  0  0
 31 32  1  0  0  0  0
 31 33  1  0  0  0  0
 33 34  1  0  0  0  0
 33 35  1  0  0  0  0
 33 36  1  0  0  0  0
M  CHG  1  20   1
M  END
$$$$

  -OEChem-04042215563D

 36 35  0     1  0  0  0  0  0999 V2000
   -1.4265   -6.1369    0.0605 H   0  0  0  0  0  0  0  0  0  0  0  0
   -1.8476   -5.1699   -0.2301 C   0  0  0  0  0  0  0  0  0  0  0  0
   -2.8797   -5.1165    0.1241 H   0  0  0  0  0  0  0  0  0  0  0  0
   -1.8386   -5.0994   -1.3204 H   0  0  0  0  0  0  0  0  0  0  0  0
   -1.0278   -4.0437    0.3705 C   0  0  0  0  0  0  0  0  0  0  0  0
   -0.0736   -4.2951    1.0830 O   0  0  0  0  0  0  0  0  0  0  0  0
   -1.4025   -2.7269    0.1707 N   0  0  0  0  0  0  0  0  0  0  0  0
   -2.1338   -2.6022   -0.5243 H   0  0  0  0  0  0  0  0  0  0  0  0
   -0.4764   -1.5926    0.3690 C   0  0  1  0  0  0  0  0  0  0  0  0
    0.4121   -1.8715   -0.2114 H   0  0  0  0  0  0  0  0  0  0  0  0
   -0.9641   -0.2972   -0.3254 C   0  0  0  0  0  0  0  0  0  0  0  0
   -0.0951    0.3652   -0.4129 H   0  0  0  0  0  0  0  0  0  0  0  0
   -1.2405   -0.5750   -1.3482 H   0  0  0  0  0  0  0  0  0  0  0  0
   -2.1232    0.5533    0.2463 C   0  0  0  0  0  0  0  0  0  0  0  0
   -1.7002    1.4876    0.6331 H   0  0  0  0  0  0  0  0  0  0  0  0
   -2.7648    0.8361   -0.5952 H   0  0  0  0  0  0  0  0  0  0  0  0
   -3.0151   -0.0798    1.3171 C   0  0  0  0  0  0  0  0  0  0  0  0
   -2.9010   -1.1681    1.3082 H   0  0  0  0  0  0  0  0  0  0  0  0
   -4.0641    0.1403    1.0970 H   0  0  0  0  0  0  0  0  0  0  0  0
   -2.6423    0.4646    2.6373 N   0  3  0  0  0  0  0  0  0  0  0  0
   -1.7649    0.1116    3.0296 H   0  0  0  0  0  0  0  0  0  0  0  0
   -3.2850    1.3966    3.2776 C   0  0  0  0  0  0  0  0  0  0  0  0
   -4.4615    1.9335    2.8072 N   0  0  0  0  0  0  0  0  0  0  0  0
   -4.9233    1.4665    2.0305 H   0  0  0  0  0  0  0  0  0  0  0  0
   -5.0328    2.4883    3.4415 H   0  0  0  0  0  0  0  0  0  0  0  0
   -2.7696    1.8683    4.4607 N   0  0  0  0  0  0  0  0  0  0  0  0
   -1.8075    1.6291    4.6950 H   0  0  0  0  0  0  0  0  0  0  0  0
   -3.1441    2.7374    4.8367 H   0  0  0  0  0  0  0  0  0  0  0  0
    0.1110   -1.4430    1.7947 C   0  0  0  0  0  0  0  0  0  0  0  0
    1.1252   -0.7747    1.9295 O   0  0  0  0  0  0  0  0  0  0  0  0
   -0.6941   -1.5741    2.9150 N   0  0  0  0  0  0  0  0  0  0  0  0
   -1.4052   -2.2924    2.7876 H   0  0  0  0  0  0  0  0  0  0  0  0
   -0.1165   -1.4775    4.2557 C   0  0  0  0  0  0  0  0  0  0  0  0
    0.3108   -0.4836    4.4271 H   0  0  0  0  0  0  0  0  0  0  0  0
   -0.8830   -1.6586    5.0157 H   0  0  0  0  0  0  0  0  0  0  0  0
    0.6771   -2.2227    4.3823 H   0  0  0  0  0  0  0  0  0  0  0  0
  1  2  1  0  0  0  0
  2  3  1  0  0  0  0
  2  4  1  0  0  0  0
  2  5  1  0  0  0  0
  5  6  2  0  0  0  0
  5  7  1  0  0  0  0
  7  8  1  0  0  0  0
  7  9  1  0  0  0  0
  9 10  1  0  0  0  0
  9 11  1  0  0  0  0
  9 29  1  0  0  0  0
 11 12  1  0  0  0  0
 11 13  1  0  0  0  0
 11 14  1  0  0  0  0
 14 15  1  0  0  0  0
 14 16  1  0  0  0  0
 14 17  1  0  0  0  0
 17 18  1  0  0  0  0
 17 19  1  0  0  0  0
 17 20  1  0  0  0  0
 20 21  1  0  0  0  0
 20 22  2  0  0  0  0
 22 23  1  0  0  0  0
 22 26  1  0  0  0  0
 23 24  1  0  0  0  0
 23 25  1  0  0  0  0
 26 27  1  0  0  0  0
 26 28  1  0  0  0  0
 29 30  2  0  0  0  0
 29 31  1  0  0  0  0
 31 32  1  0  0  0  0
 31 33  1  0  0  0  0
 33 34  1  0  0  0  0
 33 35  1  0  0  0  0
 33 36  1  0  0  0  0
M  CHG  1  20   1
M  END
$$$$

  -OEChem-04042215563D

 36 35  0     1  0  0  0  0  0999 V2000
   -1.2613   -6.0543   -0.3007 H   0  0  0  0  0  0  0  0  0  0  0  0
   -1.7645   -5.0938   -0.4463 C   0  0  0  0  0  0  0  0  0  0  0  0
   -2.7680   -5.1549   -0.0187 H   0  0  0  0  0  0  0  0  0  0  0  0
   -1.8426   -4.9010   -1.5190 H   0  0  0  0  0  0  0  0  0  0  0  0
   -0.9754   -3.9863    0.2251 C   0  0  0  0  0  0  0  0  0  0  0  0
    0.0268   -4.2518    0.8632 O   0  0  0  0  0  0  0  0  0  0  0  0
   -1.4158   -2.6759    0.1575 N   0  0  0  0  0  0  0  0  0  0  0  0
   -2.1934   -2.5234   -0.4795 H   0  0  0  0  0  0  0  0  0  0  0  0
   -0.5422   -1.5181    0.4374 C   0  0  1  0  0  0  0  0  0  0  0  0
    0.3515   -1.7133   -0.1685 H   0  0  0  0  0  0  0  0  0  0  0  0
   -1.0820   -0.1978   -0.1742 C   0  0  0  0  0  0  0  0  0  0  0  0
   -0.2334    0.4957   -0.1827 H   0  0  0  0  0  0  0  0  0  0  0  0
   -1.3160   -0.4022   -1.2248 H   0  0  0  0  0  0  0  0  0  0  0  0
   -2.2753    0.5902    0.4184 C   0  0  0  0  0  0  0  0  0  0  0  0
   -1.9665    1.6284    0.5869 H   0  0  0  0  0  0  0  0  0  0  0  0
   -3.0462    0.6239   -0.3590 H   0  0  0  0  0  0  0  0  0  0  0  0
   -2.9483    0.0418    1.6721 C   0  0  0  0  0  0  0  0  0  0  0  0
   -2.9268   -1.0532    1.6659 H   0  0  0  0  0  0  0  0  0  0  0  0
   -3.9971    0.3535    1.7015 H   0  0  0  0  0  0  0  0  0  0  0  0
   -2.2188    0.5785    2.8377 N   0  3  0  0  0  0  0  0  0  0  0  0
   -1.3261    0.1215    3.0479 H   0  0  0  0  0  0  0  0  0  0  0  0
   -2.5596    1.6163    3.5409 C   0  0  0  0  0  0  0  0  0  0  0  0
   -3.7348    2.2980    3.3244 N   0  0  0  0  0  0  0  0  0  0  0  0
   -4.4314    1.8646    2.7230 H   0  0  0  0  0  0  0  0  0  0  0  0
   -4.0574    2.9470    4.0393 H   0  0  0  0  0  0  0  0  0  0  0  0
   -1.7083    2.0488    4.5285 N   0  0  0  0  0  0  0  0  0  0  0  0
   -0.7561    1.6843    4.5295 H   0  0  0  0  0  0  0  0  0  0  0  0
   -1.8571    2.9767    4.9200 H   0  0  0  0  0  0  0  0  0  0  0  0
    0.0619   -1.4945    1.8648 C   0  0  0  0  0  0  0  0  0  0  0  0
    0.9870   -0.7245    2.0798 O   0  0  0  0  0  0  0  0  0  0  0  0
   -0.7242   -1.7845    2.9683 N   0  0  0  0  0  0  0  0  0  0  0  0
   -1.4202   -2.5010    2.7682 H   0  0  0  0  0  0  0  0  0  0  0  0
   -0.1509   -1.8141    4.3141 C   0  0  0  0  0  0  0  0  0  0  0  0
    0.2442   -0.8329    4.5965 H   0  0  0  0  0  0  0  0  0  0  0  0
   -0.9141   -2.1000    5.0447 H   0  0  0  0  0  0  0  0  0  0  0  0
    0.6649   -2.5441    4.3644 H   0  0  0  0  0  0  0  0  0  0  0  0
  1  2  1  0  0  0  0
  2  3  1  0  0  0  0
  2  4  1  0  0  0  0
  2  5  1  0  0  0  0
  5  6  2  0  0  0  0
  5  7  1  0  0  0  0
  7  8  1  0  0  0  0
  7  9  1  0  0  0  0
  9 10  1  0  0  0  0
  9 11  1  0  0  0  0
  9 29  1  0  0  0  0
 11 12  1  0  0  0  0
 11 13  1  0  0  0  0
 11 14  1  0  0  0  0
 14 15  1  0  0  0  0
 14 16  1  0  0  0  0
 14 17  1  0  0  0  0
 17 18  1  0  0  0  0
 17 19  1  0  0  0  0
 17 20  1  0  0  0  0
 20 21  1  0  0  0  0
 20 22  2  0  0  0  0
 22 23  1  0  0  0  0
 22 26  1  0  0  0  0
 23 24  1  0  0  0  0
 23 25  1  0  0  0  0
 26 27  1  0  0  0  0
 26 28  1  0  0  0  0
 29 30  2  0  0  0  0
 29 31  1  0  0  0  0
 31 32  1  0  0  0  0
 31 33  1  0  0  0  0
 33 34  1  0  0  0  0
 33 35  1  0  0  0  0
 33 36  1  0  0  0  0
M  CHG  1  20   1
M  END
$$$$

  -OEChem-04042215563D

 36 35  0     1  0  0  0  0  0999 V2000
   -1.4166   -6.0764   -0.2864 H   0  0  0  0  0  0  0  0  0  0  0  0
   -1.7266   -5.0485   -0.4976 C   0  0  0  0  0  0  0  0  0  0  0  0
   -2.7828   -4.9407   -0.2394 H   0  0  0  0  0  0  0  0  0  0  0  0
   -1.5961   -4.8571   -1.5656 H   0  0  0  0  0  0  0  0  0  0  0  0
   -0.8884   -4.0764    0.3105 C   0  0  0  0  0  0  0  0  0  0  0  0
   -0.0235   -4.4929    1.0591 O   0  0  0  0  0  0  0  0  0  0  0  0
   -1.1347   -2.7167    0.2373 N   0  0  0  0  0  0  0  0  0  0  0  0
   -1.7919   -2.4387   -0.4864 H   0  0  0  0  0  0  0  0  0  0  0  0
   -0.1758   -1.6977    0.7076 C   0  0  1  0  0  0  0  0  0  0  0  0
    0.7700   -1.9961    0.2378 H   0  0  0  0  0  0  0  0  0  0  0  0
   -0.4374   -0.3002    0.0857 C   0  0  0  0  0  0  0  0  0  0  0  0
    0.4783    0.2761    0.2608 H   0  0  0  0  0  0  0  0  0  0  0  0
   -0.5167   -0.4254   -0.9995 H   0  0  0  0  0  0  0  0  0  0  0  0
   -1.6086    0.5996    0.5420 C   0  0  0  0  0  0  0  0  0  0  0  0
   -1.2346    1.6274    0.6050 H   0  0  0  0  0  0  0  0  0  0  0  0
   -2.3787    0.5862   -0.2367 H   0  0  0  0  0  0  0  0  0  0  0  0
   -2.2719    0.2195    1.8584 C   0  0  0  0  0  0  0  0  0  0  0  0
   -2.8657   -0.6920    1.7300 H   0  0  0  0  0  0  0  0  0  0  0  0
   -1.4963    0.0176    2.5967 H   0  0  0  0  0  0  0  0  0  0  0  0
   -3.1051    1.3241    2.3658 N   0  3  0  0  0  0  0  0  0  0  0  0
   -4.0770    1.3603    2.0605 H   0  0  0  0  0  0  0  0  0  0  0  0
   -2.6660    2.1971    3.2295 C   0  0  0  0  0  0  0  0  0  0  0  0
   -1.3669    2.1758    3.6922 N   0  0  0  0  0  0  0  0  0  0  0  0
   -0.7732    1.3831    3.4453 H   0  0  0  0  0  0  0  0  0  0  0  0
   -1.1207    2.7249    4.5132 H   0  0  0  0  0  0  0  0  0  0  0  0
   -3.5118    3.1750    3.6960 N   0  0  0  0  0  0  0  0  0  0  0  0
   -4.4096    3.3102    3.2354 H   0  0  0  0  0  0  0  0  0  0  0  0
   -3.1114    3.9613    4.2048 H   0  0  0  0  0  0  0  0  0  0  0  0
    0.1981   -1.7756    2.2115 C   0  0  0  0  0  0  0  0  0  0  0  0
    1.1960   -1.1683    2.5761 O   0  0  0  0  0  0  0  0  0  0  0  0
   -0.7775   -1.9745    3.1758 N   0  0  0  0  0  0  0  0  0  0  0  0
   -1.5192   -2.6000    2.8693 H   0  0  0  0  0  0  0  0  0  0  0  0
   -0.4472   -2.0037    4.5991 C   0  0  0  0  0  0  0  0  0  0  0  0
   -0.0691   -1.0313    4.9315 H   0  0  0  0  0  0  0  0  0  0  0  0
   -1.3354   -2.2474    5.1900 H   0  0  0  0  0  0  0  0  0  0  0  0
    0.3180   -2.7624    4.7977 H   0  0  0  0  0  0  0  0  0  0  0  0
  1  2  1  0  0  0  0
  2  3  1  0  0  0  0
  2  4  1  0  0  0  0
  2  5  1  0  0  0  0
  5  6  2  0  0  0  0
  5  7  1  0  0  0  0
  7  8  1  0  0  0  0
  7  9  1  0  0  0  0
  9 10  1  0  0  0  0
  9 11  1  0  0  0  0
  9 29  1  0  0  0  0
 11 12  1  0  0  0  0
 11 13  1  0  0  0  0
 11 14  1  0  0  0  0
 14 15  1  0  0  0  0
 14 16  1  0  0  0  0
 14 17  1  0  0  0  0
 17 18  1  0  0  0  0
 17 19  1  0  0  0  0
 17 20  1  0  0  0  0
 20 21  1  0  0  0  0
 20 22  2  0  0  0  0
 22 23  1  0  0  0  0
 22 26  1  0  0  0  0
 23 24  1  0  0  0  0
 23 25  1  0  0  0  0
 26 27  1  0  0  0  0
 26 28  1  0  0  0  0
 29 30  2  0  0  0  0
 29 31  1  0  0  0  0
 31 32  1  0  0  0  0
 31 33  1  0  0  0  0
 33 34  1  0  0  0  0
 33 35  1  0  0  0  0
 33 36  1  0  0  0  0
M  CHG  1  20   1
M  END
$$$$

  -OEChem-04042215563D

 36 35  0     1  0  0  0  0  0999 V2000
   -1.7898   -5.9663   -0.2834 H   0  0  0  0  0  0  0  0  0  0  0  0
   -2.1771   -4.9497   -0.3991 C   0  0  0  0  0  0  0  0  0  0  0  0
   -3.1726   -4.9007    0.0485 H   0  0  0  0  0  0  0  0  0  0  0  0
   -2.2506   -4.7235   -1.4657 H   0  0  0  0  0  0  0  0  0  0  0  0
   -1.2508   -3.9596    0.2803 C   0  0  0  0  0  0  0  0  0  0  0  0
   -0.2693   -4.3547    0.8831 O   0  0  0  0  0  0  0  0  0  0  0  0
   -1.5376   -2.6060    0.2575 N   0  0  0  0  0  0  0  0  0  0  0  0
   -2.3138   -2.3334   -0.3400 H   0  0  0  0  0  0  0  0  0  0  0  0
   -0.5672   -1.5635    0.6428 C   0  0  1  0  0  0  0  0  0  0  0  0
    0.3366   -1.8410    0.0858 H   0  0  0  0  0  0  0  0  0  0  0  0
   -0.9071   -0.1745    0.0355 C   0  0  0  0  0  0  0  0  0  0  0  0
    0.0099    0.4173    0.1338 H   0  0  0  0  0  0  0  0  0  0  0  0
   -1.0665   -0.3150   -1.0393 H   0  0  0  0  0  0  0  0  0  0  0  0
   -2.0488    0.7308    0.5546 C   0  0  0  0  0  0  0  0  0  0  0  0
   -1.8225    1.7648    0.2706 H   0  0  0  0  0  0  0  0  0  0  0  0
   -2.9530    0.4510    0.0040 H   0  0  0  0  0  0  0  0  0  0  0  0
   -2.4140    0.6546    2.0379 C   0  0  0  0  0  0  0  0  0  0  0  0
   -1.8157   -0.0873    2.5462 H   0  0  0  0  0  0  0  0  0  0  0  0
   -3.4631    0.3544    2.1377 H   0  0  0  0  0  0  0  0  0  0  0  0
   -2.2075    1.9655    2.6844 N   0  3  0  0  0  0  0  0  0  0  0  0
   -2.9627    2.6436    2.5944 H   0  0  0  0  0  0  0  0  0  0  0  0
   -1.1311    2.3071    3.3380 C   0  0  0  0  0  0  0  0  0  0  0  0
   -0.0444    1.4777    3.4982 N   0  0  0  0  0  0  0  0  0  0  0  0
    0.8394    1.8735    3.8086 H   0  0  0  0  0  0  0  0  0  0  0  0
    0.0012    0.5974    2.9756 H   0  0  0  0  0  0  0  0  0  0  0  0
   -1.0646    3.5596    3.9002 N   0  0  0  0  0  0  0  0  0  0  0  0
   -1.9165    4.1125    3.9685 H   0  0  0  0  0  0  0  0  0  0  0  0
   -0.3190    3.7478    4.5683 H   0  0  0  0  0  0  0  0  0  0  0  0
   -0.0492   -1.6628    2.0992 C   0  0  0  0  0  0  0  0  0  0  0  0
    0.9335   -0.9899    2.3865 O   0  0  0  0  0  0  0  0  0  0  0  0
   -0.9210   -1.9113    3.1462 N   0  0  0  0  0  0  0  0  0  0  0  0
   -1.6931   -2.5241    2.8913 H   0  0  0  0  0  0  0  0  0  0  0  0
   -0.4617   -1.9878    4.5317 C   0  0  0  0  0  0  0  0  0  0  0  0
   -0.1183   -1.0109    4.8859 H   0  0  0  0  0  0  0  0  0  0  0  0
   -1.2772   -2.3197    5.1820 H   0  0  0  0  0  0  0  0  0  0  0  0
    0.3635   -2.7030    4.6226 H   0  0  0  0  0  0  0  0  0  0  0  0
  1  2  1  0  0  0  0
  2  3  1  0  0  0  0
  2  4  1  0  0  0  0
  2  5  1  0  0  0  0
  5  6  2  0  0  0  0
  5  7  1  0  0  0  0
  7  8  1  0  0  0  0
  7  9  1  0  0  0  0
  9 10  1  0  0  0  0
  9 11  1  0  0  0  0
  9 29  1  0  0  0  0
 11 12  1  0  0  0  0
 11 13  1  0  0  0  0
 11 14  1  0  0  0  0
 14 15  1  0  0  0  0
 14 16  1  0  0  0  0
 14 17  1  0  0  0  0
 17 18  1  0  0  0  0
 17 19  1  0  0  0  0
 17 20  1  0  0  0  0
 20 21  1  0  0  0  0
 20 22  2  0  0  0  0
 22 23  1  0  0  0  0
 22 26  1  0  0  0  0
 23 24  1  0  0  0  0
 23 25  1  0  0  0  0
 26 27  1  0  0  0  0
 26 28  1  0  0  0  0
 29 30  2  0  0  0  0
 29 31  1  0  0  0  0
 31 32  1  0  0  0  0
 31 33  1  0  0  0  0
 33 34  1  0  0  0  0
 33 35  1  0  0  0  0
 33 36  1  0  0  0  0
M  CHG  1  20   1
M  END
$$$$

  -OEChem-04042215563D

 36 35  0     1  0  0  0  0  0999 V2000
   -1.3986   -5.8642   -0.3651 H   0  0  0  0  0  0  0  0  0  0  0  0
   -1.8671   -4.8799   -0.4590 C   0  0  0  0  0  0  0  0  0  0  0  0
   -2.8470   -4.9111    0.0230 H   0  0  0  0  0  0  0  0  0  0  0  0
   -1.9965   -4.6549   -1.5205 H   0  0  0  0  0  0  0  0  0  0  0  0
   -0.9953   -3.8243    0.1939 C   0  0  0  0  0  0  0  0  0  0  0  0
    0.0531   -4.1415    0.7261 O   0  0  0  0  0  0  0  0  0  0  0  0
   -1.4001   -2.5009    0.2151 N   0  0  0  0  0  0  0  0  0  0  0  0
   -2.2293   -2.2871   -0.3327 H   0  0  0  0  0  0  0  0  0  0  0  0
   -0.5117   -1.3824    0.5871 C   0  0  1  0  0  0  0  0  0  0  0  0
    0.3866   -1.5368   -0.0235 H   0  0  0  0  0  0  0  0  0  0  0  0
   -1.0558   -0.0204    0.0741 C   0  0  0  0  0  0  0  0  0  0  0  0
   -0.2119    0.6767    0.1223 H   0  0  0  0  0  0  0  0  0  0  0  0
   -1.2969   -0.1408   -0.9878 H   0  0  0  0  0  0  0  0  0  0  0  0
   -2.2487    0.7036    0.7388 C   0  0  0  0  0  0  0  0  0  0  0  0
   -2.3459    1.7014    0.2966 H   0  0  0  0  0  0  0  0  0  0  0  0
   -3.1496    0.1490    0.4559 H   0  0  0  0  0  0  0  0  0  0  0  0
   -2.2620    0.7993    2.2685 C   0  0  0  0  0  0  0  0  0  0  0  0
   -1.5534    0.1148    2.7155 H   0  0  0  0  0  0  0  0  0  0  0  0
   -3.2582    0.5290    2.6357 H   0  0  0  0  0  0  0  0  0  0  0  0
   -1.9440    2.1777    2.6921 N   0  3  0  0  0  0  0  0  0  0  0  0
   -2.6740    2.8750    2.5561 H   0  0  0  0  0  0  0  0  0  0  0  0
   -0.8192    2.5510    3.2370 C   0  0  0  0  0  0  0  0  0  0  0  0
    0.2373    1.6994    3.4582 N   0  0  0  0  0  0  0  0  0  0  0  0
    1.1493    2.0990    3.6641 H   0  0  0  0  0  0  0  0  0  0  0  0
    0.2355    0.7828    2.9999 H   0  0  0  0  0  0  0  0  0  0  0  0
   -0.6697    3.8621    3.6212 N   0  0  0  0  0  0  0  0  0  0  0  0
   -1.4951    4.4556    3.6677 H   0  0  0  0  0  0  0  0  0  0  0  0
    0.1219    4.0999    4.2163 H   0  0  0  0  0  0  0  0  0  0  0  0
    0.0575   -1.4866    2.0217 C   0  0  0  0  0  0  0  0  0  0  0  0
    1.0150   -0.7758    2.3036 O   0  0  0  0  0  0  0  0  0  0  0  0
   -0.7671   -1.8428    3.0761 N   0  0  0  0  0  0  0  0  0  0  0  0
   -1.5097   -2.4881    2.8146 H   0  0  0  0  0  0  0  0  0  0  0  0
   -0.2755   -1.9312    4.4492 C   0  0  0  0  0  0  0  0  0  0  0  0
    0.5772   -2.6169    4.5069 H   0  0  0  0  0  0  0  0  0  0  0  0
   -1.0643   -2.3064    5.1090 H   0  0  0  0  0  0  0  0  0  0  0  0
    0.0394   -0.9495    4.8171 H   0  0  0  0  0  0  0  0  0  0  0  0
  1  2  1  0  0  0  0
  2  3  1  0  0  0  0
  2  4  1  0  0  0  0
  2  5  1  0  0  0  0
  5  6  2  0  0  0  0
  5  7  1  0  0  0  0
  7  8  1  0  0  0  0
  7  9  1  0  0  0  0
  9 10  1  0  0  0  0
  9 11  1  0  0  0  0
  9 29  1  0  0  0  0
 11 12  1  0  0  0  0
 11 13  1  0  0  0  0
 11 14  1  0  0  0  0
 14 15  1  0  0  0  0
 14 16  1  0  0  0  0
 14 17  1  0  0  0  0
 17 18  1  0  0  0  0
 17 19  1  0  0  0  0
 17 20  1  0  0  0  0
 20 21  1  0  0  0  0
 20 22  2  0  0  0  0
 22 23  1  0  0  0  0
 22 26  1  0  0  0  0
 23 24  1  0  0  0  0
 23 25  1  0  0  0  0
 26 27  1  0  0  0  0
 26 28  1  0  0  0  0
 29 30  2  0  0  0  0
 29 31  1  0  0  0  0
 31 32  1  0  0  0  0
 31 33  1  0  0  0  0
 33 34  1  0  0  0  0
 33 35  1  0  0  0  0
 33 36  1  0  0  0  0
M  CHG  1  20   1
M  END
$$$$

  -OEChem-04042215563D

 36 35  0     1  0  0  0  0  0999 V2000
   -1.5150   -5.7125   -0.4028 H   0  0  0  0  0  0  0  0  0  0  0  0
   -1.9126   -4.7026   -0.5399 C   0  0  0  0  0  0  0  0  0  0  0  0
   -2.9226   -4.6647   -0.1251 H   0  0  0  0  0  0  0  0  0  0  0  0
   -1.9558   -4.4864   -1.6101 H   0  0  0  0  0  0  0  0  0  0  0  0
   -1.0212   -3.6929    0.1571 C   0  0  0  0  0  0  0  0  0  0  0  0
    0.0041   -4.0565    0.7043 O   0  0  0  0  0  0  0  0  0  0  0  0
   -1.3799   -2.3567    0.1925 N   0  0  0  0  0  0  0  0  0  0  0  0
   -2.1881   -2.1034   -0.3697 H   0  0  0  0  0  0  0  0  0  0  0  0
   -0.4695   -1.2763    0.6218 C   0  0  1  0  0  0  0  0  0  0  0  0
    0.4412   -1.4110    0.0252 H   0  0  0  0  0  0  0  0  0  0  0  0
   -1.0149    0.1127    0.1926 C   0  0  0  0  0  0  0  0  0  0  0  0
   -0.1776    0.8165    0.2458 H   0  0  0  0  0  0  0  0  0  0  0  0
   -1.2962    0.0432   -0.8637 H   0  0  0  0  0  0  0  0  0  0  0  0
   -2.1968    0.7551    0.9493 C   0  0  0  0  0  0  0  0  0  0  0  0
   -2.4877    1.6812    0.4418 H   0  0  0  0  0  0  0  0  0  0  0  0
   -3.0469    0.0701    0.8686 H   0  0  0  0  0  0  0  0  0  0  0  0
   -1.9686    1.0305    2.4438 C   0  0  0  0  0  0  0  0  0  0  0  0
   -2.9048    0.8481    2.9828 H   0  0  0  0  0  0  0  0  0  0  0  0
   -1.2176    0.3697    2.8677 H   0  0  0  0  0  0  0  0  0  0  0  0
   -1.5598    2.4340    2.6546 N   0  3  0  0  0  0  0  0  0  0  0  0
   -2.3100    3.1206    2.7163 H   0  0  0  0  0  0  0  0  0  0  0  0
   -0.3333    2.8343    2.8467 C   0  0  0  0  0  0  0  0  0  0  0  0
    0.7534    1.9924    2.8198 N   0  0  0  0  0  0  0  0  0  0  0  0
    0.6129    0.9801    2.7406 H   0  0  0  0  0  0  0  0  0  0  0  0
    1.6517    2.3160    3.1690 H   0  0  0  0  0  0  0  0  0  0  0  0
   -0.0988    4.1676    3.0854 N   0  0  0  0  0  0  0  0  0  0  0  0
   -0.8492    4.8368    2.9284 H   0  0  0  0  0  0  0  0  0  0  0  0
    0.8613    4.5045    3.0443 H   0  0  0  0  0  0  0  0  0  0  0  0
    0.0289   -1.4460    2.0750 C   0  0  0  0  0  0  0  0  0  0  0  0
    1.0112   -0.8005    2.4222 O   0  0  0  0  0  0  0  0  0  0  0  0
   -0.8653   -1.8002    3.0712 N   0  0  0  0  0  0  0  0  0  0  0  0
   -1.6218   -2.4016    2.7525 H   0  0  0  0  0  0  0  0  0  0  0  0
   -0.4580   -1.9319    4.4676 C   0  0  0  0  0  0  0  0  0  0  0  0
   -0.1507   -0.9637    4.8761 H   0  0  0  0  0  0  0  0  0  0  0  0
   -1.2902   -2.3097    5.0702 H   0  0  0  0  0  0  0  0  0  0  0  0
    0.3790   -2.6332    4.5580 H   0  0  0  0  0  0  0  0  0  0  0  0
  1  2  1  0  0  0  0
  2  3  1  0  0  0  0
  2  4  1  0  0  0  0
  2  5  1  0  0  0  0
  5  6  2  0  0  0  0
  5  7  1  0  0  0  0
  7  8  1  0  0  0  0
  7  9  1  0  0  0  0
  9 10  1  0  0  0  0
  9 11  1  0  0  0  0
  9 29  1  0  0  0  0
 11 12  1  0  0  0  0
 11 13  1  0  0  0  0
 11 14  1  0  0  0  0
 14 15  1  0  0  0  0
 14 16  1  0  0  0  0
 14 17  1  0  0  0  0
 17 18  1  0  0  0  0
 17 19  1  0  0  0  0
 17 20  1  0  0  0  0
 20 21  1  0  0  0  0
 20 22  2  0  0  0  0
 22 23  1  0  0  0  0
 22 26  1  0  0  0  0
 23 24  1  0  0  0  0
 23 25  1  0  0  0  0
 26 27  1  0  0  0  0
 26 28  1  0  0  0  0
 29 30  2  0  0  0  0
 29 31  1  0  0  0  0
 31 32  1  0  0  0  0
 31 33  1  0  0  0  0
 33 34  1  0  0  0  0
 33 35  1  0  0  0  0
 33 36  1  0  0  0  0
M  CHG  1  20   1
M  END
$$$$

  -OEChem-04042215563D

 36 35  0     1  0  0  0  0  0999 V2000
   -2.9615   -5.3613    0.9878 H   0  0  0  0  0  0  0  0  0  0  0  0
   -2.9895   -4.3940    0.4774 C   0  0  0  0  0  0  0  0  0  0  0  0
   -3.8771   -3.8494    0.8074 H   0  0  0  0  0  0  0  0  0  0  0  0
   -3.0547   -4.5692   -0.5993 H   0  0  0  0  0  0  0  0  0  0  0  0
   -1.7376   -3.6005    0.7993 C   0  0  0  0  0  0  0  0  0  0  0  0
   -0.8818   -4.0830    1.5183 O   0  0  0  0  0  0  0  0  0  0  0  0
   -1.5859   -2.3144    0.3089 N   0  0  0  0  0  0  0  0  0  0  0  0
   -2.2835   -2.0345   -0.3758 H   0  0  0  0  0  0  0  0  0  0  0  0
   -0.2919   -1.5987    0.2832 C   0  0  1  0  0  0  0  0  0  0  0  0
    0.4164   -2.2549   -0.2372 H   0  0  0  0  0  0  0  0  0  0  0  0
   -0.4044   -0.3220   -0.5917 C   0  0  0  0  0  0  0  0  0  0  0  0
    0.6112   -0.0048   -0.8543 H   0  0  0  0  0  0  0  0  0  0  0  0
   -0.8948   -0.6032   -1.5299 H   0  0  0  0  0  0  0  0  0  0  0  0
   -1.1487    0.8948   -0.0107 C   0  0  0  0  0  0  0  0  0  0  0  0
   -1.3945    1.5956   -0.8158 H   0  0  0  0  0  0  0  0  0  0  0  0
   -2.0873    0.5574    0.4409 H   0  0  0  0  0  0  0  0  0  0  0  0
   -0.2831    1.6096    1.0327 C   0  0  0  0  0  0  0  0  0  0  0  0
    0.2381    0.8788    1.6477 H   0  0  0  0  0  0  0  0  0  0  0  0
    0.4846    2.1873    0.5057 H   0  0  0  0  0  0  0  0  0  0  0  0
   -1.0657    2.5070    1.8984 N   0  3  0  0  0  0  0  0  0  0  0  0
   -1.8799    2.9648    1.4922 H   0  0  0  0  0  0  0  0  0  0  0  0
   -0.6833    2.8118    3.1058 C   0  0  0  0  0  0  0  0  0  0  0  0
    0.4360    2.2437    3.6739 N   0  0  0  0  0  0  0  0  0  0  0  0
    0.8541    1.4392    3.2031 H   0  0  0  0  0  0  0  0  0  0  0  0
    0.5891    2.3454    4.6744 H   0  0  0  0  0  0  0  0  0  0  0  0
   -1.4008    3.7280    3.8378 N   0  0  0  0  0  0  0  0  0  0  0  0
   -2.1041    4.2888    3.3612 H   0  0  0  0  0  0  0  0  0  0  0  0
   -0.9695    4.1191    4.6734 H   0  0  0  0  0  0  0  0  0  0  0  0
    0.3085   -1.4262    1.7007 C   0  0  0  0  0  0  0  0  0  0  0  0
    1.5027   -1.1903    1.8232 O   0  0  0  0  0  0  0  0  0  0  0  0
   -0.5111   -1.0247    2.7449 N   0  0  0  0  0  0  0  0  0  0  0  0
   -1.4811   -1.2925    2.5948 H   0  0  0  0  0  0  0  0  0  0  0  0
   -0.0332   -1.1182    4.1225 C   0  0  0  0  0  0  0  0  0  0  0  0
    0.8958   -0.5561    4.2610 H   0  0  0  0  0  0  0  0  0  0  0  0
   -0.7829   -0.7180    4.8117 H   0  0  0  0  0  0  0  0  0  0  0  0
    0.1556   -2.1652    4.3853 H   0  0  0  0  0  0  0  0  0  0  0  0
  1  2  1  0  0  0  0
  2  3  1  0  0  0  0
  2  4  1  0  0  0  0
  2  5  1  0  0  0  0
  5  6  2  0  0  0  0
  5  7  1  0  0  0  0
  7  8  1  0  0  0  0
  7  9  1  0  0  0  0
  9 10  1  0  0  0  0
  9 11  1  0  0  0  0
  9 29  1  0  0  0  0
 11 12  1  0  0  0  0
 11 13  1  0  0  0  0
 11 14  1  0  0  0  0
 14 15  1  0  0  0  0
 14 16  1  0  0  0  0
 14 17  1  0  0  0  0
 17 18  1  0  0  0  0
 17 19  1  0  0  0  0
 17 20  1  0  0  0  0
 20 21  1  0  0  0  0
 20 22  2  0  0  0  0
 22 23  1  0  0  0  0
 22 26  1  0  0  0  0
 23 24  1  0  0  0  0
 23 25  1  0  0  0  0
 26 27  1  0  0  0  0
 26 28  1  0  0  0  0
 29 30  2  0  0  0  0
 29 31  1  0  0  0  0
 31 32  1  0  0  0  0
 31 33  1  0  0  0  0
 33 34  1  0  0  0  0
 33 35  1  0  0  0  0
 33 36  1  0  0  0  0
M  CHG  1  20   1
M  END
$$$$

  -OEChem-04042215563D

 36 35  0     1  0  0  0  0  0999 V2000
   -2.5960   -5.3257    1.3175 H   0  0  0  0  0  0  0  0  0  0  0  0
   -2.6997   -4.4206    0.7117 C   0  0  0  0  0  0  0  0  0  0  0  0
   -3.6536   -3.9452    0.9516 H   0  0  0  0  0  0  0  0  0  0  0  0
   -2.6960   -4.7052   -0.3434 H   0  0  0  0  0  0  0  0  0  0  0  0
   -1.5541   -3.4687    0.9978 C   0  0  0  0  0  0  0  0  0  0  0  0
   -0.7180   -3.7575    1.8350 O   0  0  0  0  0  0  0  0  0  0  0  0
   -1.4771   -2.2573    0.3312 N   0  0  0  0  0  0  0  0  0  0  0  0
   -2.1362   -2.1504   -0.4361 H   0  0  0  0  0  0  0  0  0  0  0  0
   -0.2599   -1.4182    0.2964 C   0  0  1  0  0  0  0  0  0  0  0  0
    0.5536   -2.0509   -0.0778 H   0  0  0  0  0  0  0  0  0  0  0  0
   -0.4080   -0.2533   -0.7097 C   0  0  0  0  0  0  0  0  0  0  0  0
    0.5901    0.1194   -0.9674 H   0  0  0  0  0  0  0  0  0  0  0  0
   -0.8284   -0.6650   -1.6333 H   0  0  0  0  0  0  0  0  0  0  0  0
   -1.2967    0.9189   -0.2617 C   0  0  0  0  0  0  0  0  0  0  0  0
   -1.7555    1.4030   -1.1305 H   0  0  0  0  0  0  0  0  0  0  0  0
   -2.1023    0.5632    0.3882 H   0  0  0  0  0  0  0  0  0  0  0  0
   -0.3869    1.9257    0.4572 C   0  0  0  0  0  0  0  0  0  0  0  0
    0.5326    1.4110    0.7515 H   0  0  0  0  0  0  0  0  0  0  0  0
   -0.0998    2.7060   -0.2566 H   0  0  0  0  0  0  0  0  0  0  0  0
   -0.9978    2.5481    1.6443 N   0  3  0  0  0  0  0  0  0  0  0  0
   -1.9222    2.9610    1.5357 H   0  0  0  0  0  0  0  0  0  0  0  0
   -0.3282    2.7408    2.7472 C   0  0  0  0  0  0  0  0  0  0  0  0
    0.9366    2.2260    2.9386 N   0  0  0  0  0  0  0  0  0  0  0  0
    1.1794    1.3933    2.3890 H   0  0  0  0  0  0  0  0  0  0  0  0
    1.3345    2.2747    3.8723 H   0  0  0  0  0  0  0  0  0  0  0  0
   -0.8870    3.4900    3.7553 N   0  0  0  0  0  0  0  0  0  0  0  0
   -1.7155    4.0429    3.5462 H   0  0  0  0  0  0  0  0  0  0  0  0
   -0.2783    3.8133    4.5048 H   0  0  0  0  0  0  0  0  0  0  0  0
    0.1693   -0.9920    1.7252 C   0  0  0  0  0  0  0  0  0  0  0  0
    1.2985   -0.5555    1.9216 O   0  0  0  0  0  0  0  0  0  0  0  0
   -0.8021   -0.5486    2.6076 N   0  0  0  0  0  0  0  0  0  0  0  0
   -1.7253   -0.8874    2.3469 H   0  0  0  0  0  0  0  0  0  0  0  0
   -0.5336   -0.5468    4.0448 C   0  0  0  0  0  0  0  0  0  0  0  0
    0.4357   -0.0964    4.2789 H   0  0  0  0  0  0  0  0  0  0  0  0
   -1.3085    0.0179    4.5721 H   0  0  0  0  0  0  0  0  0  0  0  0
   -0.5318   -1.5741    4.4260 H   0  0  0  0  0  0  0  0  0  0  0  0
  1  2  1  0  0  0  0
  2  3  1  0  0  0  0
  2  4  1  0  0  0  0
  2  5  1  0  0  0  0
  5  6  2  0  0  0  0
  5  7  1  0  0  0  0
  7  8  1  0  0  0  0
  7  9  1  0  0  0  0
  9 10  1  0  0  0  0
  9 11  1  0  0  0  0
  9 29  1  0  0  0  0
 11 12  1  0  0  0  0
 11 13  1  0  0  0  0
 11 14  1  0  0  0  0
 14 15  1  0  0  0  0
 14 16  1  0  0  0  0
 14 17  1  0  0  0  0
 17 18  1  0  0  0  0
 17 19  1  0  0  0  0
 17 20  1  0  0  0  0
 20 21  1  0  0  0  0
 20 22  2  0  0  0  0
 22 23  1  0  0  0  0
 22 26  1  0  0  0  0
 23 24  1  0  0  0  0
 23 25  1  0  0  0  0
 26 27  1  0  0  0  0
 26 28  1  0  0  0  0
 29 30  2  0  0  0  0
 29 31  1  0  0  0  0
 31 32  1  0  0  0  0
 31 33  1  0  0  0  0
 33 34  1  0  0  0  0
 33 35  1  0  0  0  0
 33 36  1  0  0  0  0
M  CHG  1  20   1
M  END
$$$$

  -OEChem-04042215563D

 36 35  0     1  0  0  0  0  0999 V2000
   -2.4670   -5.3469    1.3687 H   0  0  0  0  0  0  0  0  0  0  0  0
   -2.6034   -4.4682    0.7316 C   0  0  0  0  0  0  0  0  0  0  0  0
   -3.5842   -4.0340    0.9381 H   0  0  0  0  0  0  0  0  0  0  0  0
   -2.5640   -4.7857   -0.3132 H   0  0  0  0  0  0  0  0  0  0  0  0
   -1.5123   -3.4516    1.0071 C   0  0  0  0  0  0  0  0  0  0  0  0
   -0.6749   -3.6726    1.8634 O   0  0  0  0  0  0  0  0  0  0  0  0
   -1.4846   -2.2550    0.3119 N   0  0  0  0  0  0  0  0  0  0  0  0
   -2.1417   -2.1901   -0.4618 H   0  0  0  0  0  0  0  0  0  0  0  0
   -0.3064   -1.3646    0.2786 C   0  0  1  0  0  0  0  0  0  0  0  0
    0.5323   -1.9802   -0.0680 H   0  0  0  0  0  0  0  0  0  0  0  0
   -0.4629   -0.2329   -0.7558 C   0  0  0  0  0  0  0  0  0  0  0  0
    0.5294    0.1657   -0.9953 H   0  0  0  0  0  0  0  0  0  0  0  0
   -0.8425   -0.6776   -1.6820 H   0  0  0  0  0  0  0  0  0  0  0  0
   -1.4144    0.9040   -0.3417 C   0  0  0  0  0  0  0  0  0  0  0  0
   -2.0506    1.1795   -1.1896 H   0  0  0  0  0  0  0  0  0  0  0  0
   -2.0773    0.5895    0.4695 H   0  0  0  0  0  0  0  0  0  0  0  0
   -0.5641    2.1208    0.0508 C   0  0  0  0  0  0  0  0  0  0  0  0
    0.4767    1.8051    0.1754 H   0  0  0  0  0  0  0  0  0  0  0  0
   -0.5820    2.8456   -0.7708 H   0  0  0  0  0  0  0  0  0  0  0  0
   -1.0302    2.7652    1.2924 N   0  3  0  0  0  0  0  0  0  0  0  0
   -1.9579    3.1849    1.2778 H   0  0  0  0  0  0  0  0  0  0  0  0
   -0.2512    2.9721    2.3180 C   0  0  0  0  0  0  0  0  0  0  0  0
    1.0184    2.4451    2.4009 N   0  0  0  0  0  0  0  0  0  0  0  0
    1.1767    1.5638    1.8988 H   0  0  0  0  0  0  0  0  0  0  0  0
    1.5103    2.5374    3.2851 H   0  0  0  0  0  0  0  0  0  0  0  0
   -0.6956    3.7572    3.3553 N   0  0  0  0  0  0  0  0  0  0  0  0
   -1.5350    4.3157    3.2159 H   0  0  0  0  0  0  0  0  0  0  0  0
   -0.0092    4.0924    4.0288 H   0  0  0  0  0  0  0  0  0  0  0  0
    0.1184   -0.8607    1.6813 C   0  0  0  0  0  0  0  0  0  0  0  0
    1.2378   -0.3813    1.8282 O   0  0  0  0  0  0  0  0  0  0  0  0
   -0.8498   -0.4158    2.5661 N   0  0  0  0  0  0  0  0  0  0  0  0
   -1.7575   -0.8369    2.3808 H   0  0  0  0  0  0  0  0  0  0  0  0
   -0.5300   -0.2214    3.9786 C   0  0  0  0  0  0  0  0  0  0  0  0
    0.3329    0.4371    4.1110 H   0  0  0  0  0  0  0  0  0  0  0  0
   -1.3826    0.2245    4.4999 H   0  0  0  0  0  0  0  0  0  0  0  0
   -0.3013   -1.1845    4.4482 H   0  0  0  0  0  0  0  0  0  0  0  0
  1  2  1  0  0  0  0
  2  3  1  0  0  0  0
  2  4  1  0  0  0  0
  2  5  1  0  0  0  0
  5  6  2  0  0  0  0
  5  7  1  0  0  0  0
  7  8  1  0  0  0  0
  7  9  1  0  0  0  0
  9 10  1  0  0  0  0
  9 11  1  0  0  0  0
  9 29  1  0  0  0  0
 11 12  1  0  0  0  0
 11 13  1  0  0  0  0
 11 14  1  0  0  0  0
 14 15  1  0  0  0  0
 14 16  1  0  0  0  0
 14 17  1  0  0  0  0
 17 18  1  0  0  0  0
 17 19  1  0  0  0  0
 17 20  1  0  0  0  0
 20 21  1  0  0  0  0
 20 22  2  0  0  0  0
 22 23  1  0  0  0  0
 22 26  1  0  0  0  0
 23 24  1  0  0  0  0
 23 25  1  0  0  0  0
 26 27  1  0  0  0  0
 26 28  1  0  0  0  0
 29 30  2  0  0  0  0
 29 31  1  0  0  0  0
 31 32  1  0  0  0  0
 31 33  1  0  0  0  0
 33 34  1  0  0  0  0
 33 35  1  0  0  0  0
 33 36  1  0  0  0  0
M  CHG  1  20   1
M  END
$$$$

  -OEChem-04042215563D

 36 35  0     1  0  0  0  0  0999 V2000
   -2.4049   -5.3768    1.3479 H   0  0  0  0  0  0  0  0  0  0  0  0
   -2.5553   -4.5079    0.7004 C   0  0  0  0  0  0  0  0  0  0  0  0
   -3.5535   -4.1029    0.8833 H   0  0  0  0  0  0  0  0  0  0  0  0
   -2.4852   -4.8322   -0.3408 H   0  0  0  0  0  0  0  0  0  0  0  0
   -1.5019   -3.4555    0.9892 C   0  0  0  0  0  0  0  0  0  0  0  0
   -0.6736   -3.6424    1.8625 O   0  0  0  0  0  0  0  0  0  0  0  0
   -1.5007   -2.2605    0.2916 N   0  0  0  0  0  0  0  0  0  0  0  0
   -2.1447   -2.2134   -0.4940 H   0  0  0  0  0  0  0  0  0  0  0  0
   -0.3630   -1.3205    0.3031 C   0  0  1  0  0  0  0  0  0  0  0  0
    0.5080   -1.9127   -0.0030 H   0  0  0  0  0  0  0  0  0  0  0  0
   -0.5066   -0.2152   -0.7604 C   0  0  0  0  0  0  0  0  0  0  0  0
    0.4838    0.2222   -0.9246 H   0  0  0  0  0  0  0  0  0  0  0  0
   -0.7943   -0.6835   -1.7079 H   0  0  0  0  0  0  0  0  0  0  0  0
   -1.5300    0.8902   -0.4296 C   0  0  0  0  0  0  0  0  0  0  0  0
   -2.2877    0.9205   -1.2202 H   0  0  0  0  0  0  0  0  0  0  0  0
   -2.0633    0.6792    0.5004 H   0  0  0  0  0  0  0  0  0  0  0  0
   -0.8320    2.2574   -0.3722 C   0  0  0  0  0  0  0  0  0  0  0  0
    0.2486    2.1356   -0.4999 H   0  0  0  0  0  0  0  0  0  0  0  0
   -1.1848    2.8678   -1.2111 H   0  0  0  0  0  0  0  0  0  0  0  0
   -1.1064    2.9628    0.8949 N   0  3  0  0  0  0  0  0  0  0  0  0
   -2.0093    3.4275    0.9739 H   0  0  0  0  0  0  0  0  0  0  0  0
   -0.2118    3.1640    1.8224 C   0  0  0  0  0  0  0  0  0  0  0  0
    1.0314    2.5755    1.7995 N   0  0  0  0  0  0  0  0  0  0  0  0
    1.0841    1.6519    1.3583 H   0  0  0  0  0  0  0  0  0  0  0  0
    1.6116    2.6843    2.6270 H   0  0  0  0  0  0  0  0  0  0  0  0
   -0.5076    4.0110    2.8644 N   0  0  0  0  0  0  0  0  0  0  0  0
   -1.3270    4.6097    2.7862 H   0  0  0  0  0  0  0  0  0  0  0  0
    0.2585    4.3312    3.4539 H   0  0  0  0  0  0  0  0  0  0  0  0
    0.0161   -0.7733    1.7007 C   0  0  0  0  0  0  0  0  0  0  0  0
    1.1230   -0.2643    1.8419 O   0  0  0  0  0  0  0  0  0  0  0  0
   -0.9730   -0.3457    2.5702 N   0  0  0  0  0  0  0  0  0  0  0  0
   -1.8530   -0.8410    2.4426 H   0  0  0  0  0  0  0  0  0  0  0  0
   -0.6553    0.0618    3.9362 C   0  0  0  0  0  0  0  0  0  0  0  0
   -0.0200    0.9522    3.9439 H   0  0  0  0  0  0  0  0  0  0  0  0
   -1.5740    0.2914    4.4851 H   0  0  0  0  0  0  0  0  0  0  0  0
   -0.1323   -0.7446    4.4626 H   0  0  0  0  0  0  0  0  0  0  0  0
  1  2  1  0  0  0  0
  2  3  1  0  0  0  0
  2  4  1  0  0  0  0
  2  5  1  0  0  0  0
  5  6  2  0  0  0  0
  5  7  1  0  0  0  0
  7  8  1  0  0  0  0
  7  9  1  0  0  0  0
  9 10  1  0  0  0  0
  9 11  1  0  0  0  0
  9 29  1  0  0  0  0
 11 12  1  0  0  0  0
 11 13  1  0  0  0  0
 11 14  1  0  0  0  0
 14 15  1  0  0  0  0
 14 16  1  0  0  0  0
 14 17  1  0  0  0  0
 17 18  1  0  0  0  0
 17 19  1  0  0  0  0
 17 20  1  0  0  0  0
 20 21  1  0  0  0  0
 20 22  2  0  0  0  0
 22 23  1  0  0  0  0
 22 26  1  0  0  0  0
 23 24  1  0  0  0  0
 23 25  1  0  0  0  0
 26 27  1  0  0  0  0
 26 28  1  0  0  0  0
 29 30  2  0  0  0  0
 29 31  1  0  0  0  0
 31 32  1  0  0  0  0
 31 33  1  0  0  0  0
 33 34  1  0  0  0  0
 33 35  1  0  0  0  0
 33 36  1  0  0  0  0
M  CHG  1  20   1
M  END
$$$$

  -OEChem-04042215563D

 36 35  0     1  0  0  0  0  0999 V2000
   -1.9431   -5.4000    1.3617 H   0  0  0  0  0  0  0  0  0  0  0  0
   -2.1587   -4.5685    0.6840 C   0  0  0  0  0  0  0  0  0  0  0  0
   -3.2136   -4.3019    0.7818 H   0  0  0  0  0  0  0  0  0  0  0  0
   -1.9644   -4.8940   -0.3408 H   0  0  0  0  0  0  0  0  0  0  0  0
   -1.2836   -3.3780    1.0270 C   0  0  0  0  0  0  0  0  0  0  0  0
   -0.4825   -3.4506    1.9415 O   0  0  0  0  0  0  0  0  0  0  0  0
   -1.4071   -2.1927    0.3240 N   0  0  0  0  0  0  0  0  0  0  0  0
   -2.0096   -2.2264   -0.4945 H   0  0  0  0  0  0  0  0  0  0  0  0
   -0.4256   -1.0958    0.4210 C   0  0  1  0  0  0  0  0  0  0  0  0
    0.5416   -1.5619    0.1966 H   0  0  0  0  0  0  0  0  0  0  0  0
   -0.6314   -0.0361   -0.6807 C   0  0  0  0  0  0  0  0  0  0  0  0
    0.2910    0.5440   -0.7526 H   0  0  0  0  0  0  0  0  0  0  0  0
   -0.7435   -0.5464   -1.6437 H   0  0  0  0  0  0  0  0  0  0  0  0
   -1.8358    0.9091   -0.4824 C   0  0  0  0  0  0  0  0  0  0  0  0
   -2.6165    0.6132   -1.1915 H   0  0  0  0  0  0  0  0  0  0  0  0
   -2.2766    0.8174    0.5124 H   0  0  0  0  0  0  0  0  0  0  0  0
   -1.4561    2.3725   -0.7604 C   0  0  0  0  0  0  0  0  0  0  0  0
   -0.5763    2.4274   -1.4105 H   0  0  0  0  0  0  0  0  0  0  0  0
   -2.2820    2.8544   -1.2960 H   0  0  0  0  0  0  0  0  0  0  0  0
   -1.2312    3.0959    0.5109 N   0  3  0  0  0  0  0  0  0  0  0  0
   -2.0567    3.4978    0.9529 H   0  0  0  0  0  0  0  0  0  0  0  0
   -0.1042    3.1378    1.1654 C   0  0  0  0  0  0  0  0  0  0  0  0
    1.0592    2.5964    0.6826 N   0  0  0  0  0  0  0  0  0  0  0  0
    0.9979    2.1788   -0.2403 H   0  0  0  0  0  0  0  0  0  0  0  0
    1.5841    2.0465    1.3688 H   0  0  0  0  0  0  0  0  0  0  0  0
   -0.0643    3.7099    2.4127 N   0  0  0  0  0  0  0  0  0  0  0  0
   -0.8275    4.3173    2.7011 H   0  0  0  0  0  0  0  0  0  0  0  0
    0.8512    3.8545    2.8359 H   0  0  0  0  0  0  0  0  0  0  0  0
   -0.2234   -0.4884    1.8330 C   0  0  0  0  0  0  0  0  0  0  0  0
    0.8188    0.1204    2.0606 O   0  0  0  0  0  0  0  0  0  0  0  0
   -1.3155   -0.1989    2.6324 N   0  0  0  0  0  0  0  0  0  0  0  0
   -2.1170   -0.8038    2.4665 H   0  0  0  0  0  0  0  0  0  0  0  0
   -1.1568    0.3259    3.9855 C   0  0  0  0  0  0  0  0  0  0  0  0
   -0.6604    1.3010    3.9709 H   0  0  0  0  0  0  0  0  0  0  0  0
   -2.1349    0.4464    4.4616 H   0  0  0  0  0  0  0  0  0  0  0  0
   -0.5589   -0.3618    4.5940 H   0  0  0  0  0  0  0  0  0  0  0  0
  1  2  1  0  0  0  0
  2  3  1  0  0  0  0
  2  4  1  0  0  0  0
  2  5  1  0  0  0  0
  5  6  2  0  0  0  0
  5  7  1  0  0  0  0
  7  8  1  0  0  0  0
  7  9  1  0  0  0  0
  9 10  1  0  0  0  0
  9 11  1  0  0  0  0
  9 29  1  0  0  0  0
 11 12  1  0  0  0  0
 11 13  1  0  0  0  0
 11 14  1  0  0  0  0
 14 15  1  0  0  0  0
 14 16  1  0  0  0  0
 14 17  1  0  0  0  0
 17 18  1  0  0  0  0
 17 19  1  0  0  0  0
 17 20  1  0  0  0  0
 20 21  1  0  0  0  0
 20 22  2  0  0  0  0
 22 23  1  0  0  0  0
 22 26  1  0  0  0  0
 23 24  1  0  0  0  0
 23 25  1  0  0  0  0
 26 27  1  0  0  0  0
 26 28  1  0  0  0  0
 29 30  2  0  0  0  0
 29 31  1  0  0  0  0
 31 32  1  0  0  0  0
 31 33  1  0  0  0  0
 33 34  1  0  0  0  0
 33 35  1  0  0  0  0
 33 36  1  0  0  0  0
M  CHG  1  20   1
M  END
$$$$

  -OEChem-04042215563D

 36 35  0     1  0  0  0  0  0999 V2000
   -1.9435   -5.5504    1.1961 H   0  0  0  0  0  0  0  0  0  0  0  0
   -2.2271   -4.6884    0.5850 C   0  0  0  0  0  0  0  0  0  0  0  0
   -3.2634   -4.4260    0.8100 H   0  0  0  0  0  0  0  0  0  0  0  0
   -2.1480   -4.9661   -0.4687 H   0  0  0  0  0  0  0  0  0  0  0  0
   -1.3133   -3.5150    0.8839 C   0  0  0  0  0  0  0  0  0  0  0  0
   -0.4232   -3.6275    1.7077 O   0  0  0  0  0  0  0  0  0  0  0  0
   -1.4992   -2.3029    0.2429 N   0  0  0  0  0  0  0  0  0  0  0  0
   -2.1820   -2.3025   -0.5105 H   0  0  0  0  0  0  0  0  0  0  0  0
   -0.5058   -1.2135    0.2790 C   0  0  1  0  0  0  0  0  0  0  0  0
    0.4304   -1.6728   -0.0618 H   0  0  0  0  0  0  0  0  0  0  0  0
   -0.8055   -0.0981   -0.7413 C   0  0  0  0  0  0  0  0  0  0  0  0
    0.1158    0.4819   -0.8557 H   0  0  0  0  0  0  0  0  0  0  0  0
   -1.0116   -0.5489   -1.7181 H   0  0  0  0  0  0  0  0  0  0  0  0
   -1.9647    0.8496   -0.3762 C   0  0  0  0  0  0  0  0  0  0  0  0
   -2.9023    0.4450   -0.7721 H   0  0  0  0  0  0  0  0  0  0  0  0
   -2.0930    0.9434    0.7033 H   0  0  0  0  0  0  0  0  0  0  0  0
   -1.7013    2.2361   -0.9771 C   0  0  0  0  0  0  0  0  0  0  0  0
   -0.7893    2.2198   -1.5841 H   0  0  0  0  0  0  0  0  0  0  0  0
   -2.5280    2.4858   -1.6513 H   0  0  0  0  0  0  0  0  0  0  0  0
   -1.5936    3.2828    0.0629 N   0  3  0  0  0  0  0  0  0  0  0  0
   -2.3822    3.9235    0.1411 H   0  0  0  0  0  0  0  0  0  0  0  0
   -0.5300    3.5185    0.7825 C   0  0  0  0  0  0  0  0  0  0  0  0
    0.5809    2.7092    0.7718 N   0  0  0  0  0  0  0  0  0  0  0  0
    0.4334    1.7325    0.5153 H   0  0  0  0  0  0  0  0  0  0  0  0
    1.2721    2.8553    1.5043 H   0  0  0  0  0  0  0  0  0  0  0  0
   -0.5039    4.6289    1.5918 N   0  0  0  0  0  0  0  0  0  0  0  0
   -1.2124    5.3468    1.4557 H   0  0  0  0  0  0  0  0  0  0  0  0
    0.3925    4.9153    1.9818 H   0  0  0  0  0  0  0  0  0  0  0  0
   -0.1605   -0.6663    1.6857 C   0  0  0  0  0  0  0  0  0  0  0  0
    0.8514    0.0204    1.7845 O   0  0  0  0  0  0  0  0  0  0  0  0
   -1.1701   -0.4113    2.5977 N   0  0  0  0  0  0  0  0  0  0  0  0
   -1.9585   -1.0513    2.5325 H   0  0  0  0  0  0  0  0  0  0  0  0
   -0.9060    0.1832    3.9048 C   0  0  0  0  0  0  0  0  0  0  0  0
   -0.5136    1.1994    3.7971 H   0  0  0  0  0  0  0  0  0  0  0  0
   -1.8290    0.2328    4.4915 H   0  0  0  0  0  0  0  0  0  0  0  0
   -0.1766   -0.4185    4.4583 H   0  0  0  0  0  0  0  0  0  0  0  0
  1  2  1  0  0  0  0
  2  3  1  0  0  0  0
  2  4  1  0  0  0  0
  2  5  1  0  0  0  0
  5  6  2  0  0  0  0
  5  7  1  0  0  0  0
  7  8  1  0  0  0  0
  7  9  1  0  0  0  0
  9 10  1  0  0  0  0
  9 11  1  0  0  0  0
  9 29  1  0  0  0  0
 11 12  1  0  0  0  0
 11 13  1  0  0  0  0
 11 14  1  0  0  0  0
 14 15  1  0  0  0  0
 14 16  1  0  0  0  0
 14 17  1  0  0  0  0
 17 18  1  0  0  0  0
 17 19  1  0  0  0  0
 17 20  1  0  0  0  0
 20 21  1  0  0  0  0
 20 22  2  0  0  0  0
 22 23  1  0  0  0  0
 22 26  1  0  0  0  0
 23 24  1  0  0  0  0
 23 25  1  0  0  0  0
 26 27  1  0  0  0  0
 26 28  1  0  0  0  0
 29 30  2  0  0  0  0
 29 31  1  0  0  0  0
 31 32  1  0  0  0  0
 31 33  1  0  0  0  0
 33 34  1  0  0  0  0
 33 35  1  0  0  0  0
 33 36  1  0  0  0  0
M  CHG  1  20   1
M  END
$$$$

  -OEChem-04042215563D

 36 35  0     1  0  0  0  0  0999 V2000
   -2.8464   -5.5707    0.6258 H   0  0  0  0  0  0  0  0  0  0  0  0
   -2.9514   -4.5525    0.2393 C   0  0  0  0  0  0  0  0  0  0  0  0
   -3.8466   -4.1027    0.6747 H   0  0  0  0  0  0  0  0  0  0  0  0
   -3.0645   -4.6008   -0.8465 H   0  0  0  0  0  0  0  0  0  0  0  0
   -1.7285   -3.7314    0.5996 C   0  0  0  0  0  0  0  0  0  0  0  0
   -0.8379   -4.2279    1.2637 O   0  0  0  0  0  0  0  0  0  0  0  0
   -1.6404   -2.4095    0.2018 N   0  0  0  0  0  0  0  0  0  0  0  0
   -2.3563   -2.1005   -0.4490 H   0  0  0  0  0  0  0  0  0  0  0  0
   -0.3918   -1.6256    0.2759 C   0  0  1  0  0  0  0  0  0  0  0  0
    0.3575   -2.2073   -0.2747 H   0  0  0  0  0  0  0  0  0  0  0  0
   -0.5295   -0.2904   -0.4855 C   0  0  0  0  0  0  0  0  0  0  0  0
    0.4846    0.0999   -0.6311 H   0  0  0  0  0  0  0  0  0  0  0  0
   -0.9473   -0.4814   -1.4797 H   0  0  0  0  0  0  0  0  0  0  0  0
   -1.3662    0.7883    0.2217 C   0  0  0  0  0  0  0  0  0  0  0  0
   -2.4288    0.5275    0.1837 H   0  0  0  0  0  0  0  0  0  0  0  0
   -1.0700    0.8687    1.2708 H   0  0  0  0  0  0  0  0  0  0  0  0
   -1.1118    2.1392   -0.4453 C   0  0  0  0  0  0  0  0  0  0  0  0
   -0.0314    2.3201   -0.4739 H   0  0  0  0  0  0  0  0  0  0  0  0
   -1.4869    2.1110   -1.4744 H   0  0  0  0  0  0  0  0  0  0  0  0
   -1.7776    3.2134    0.3136 N   0  3  0  0  0  0  0  0  0  0  0  0
   -2.2828    2.9426    1.1563 H   0  0  0  0  0  0  0  0  0  0  0  0
   -1.6940    4.4741   -0.0011 C   0  0  0  0  0  0  0  0  0  0  0  0
   -0.9838    4.9022   -1.1002 N   0  0  0  0  0  0  0  0  0  0  0  0
   -0.3824    4.2284   -1.5701 H   0  0  0  0  0  0  0  0  0  0  0  0
   -0.7437    5.8890   -1.1732 H   0  0  0  0  0  0  0  0  0  0  0  0
   -2.3273    5.4109    0.7806 N   0  0  0  0  0  0  0  0  0  0  0  0
   -2.9875    5.0967    1.4891 H   0  0  0  0  0  0  0  0  0  0  0  0
   -2.4223    6.3606    0.4248 H   0  0  0  0  0  0  0  0  0  0  0  0
    0.2136   -1.4715    1.6924 C   0  0  0  0  0  0  0  0  0  0  0  0
    1.4084   -1.2263    1.7852 O   0  0  0  0  0  0  0  0  0  0  0  0
   -0.6010   -1.1612    2.7690 N   0  0  0  0  0  0  0  0  0  0  0  0
   -1.5450   -1.5302    2.6984 H   0  0  0  0  0  0  0  0  0  0  0  0
   -0.0562   -0.9607    4.1090 C   0  0  0  0  0  0  0  0  0  0  0  0
    0.6451   -0.1195    4.1194 H   0  0  0  0  0  0  0  0  0  0  0  0
   -0.8612   -0.7446    4.8181 H   0  0  0  0  0  0  0  0  0  0  0  0
    0.4713   -1.8597    4.4465 H   0  0  0  0  0  0  0  0  0  0  0  0
  1  2  1  0  0  0  0
  2  3  1  0  0  0  0
  2  4  1  0  0  0  0
  2  5  1  0  0  0  0
  5  6  2  0  0  0  0
  5  7  1  0  0  0  0
  7  8  1  0  0  0  0
  7  9  1  0  0  0  0
  9 10  1  0  0  0  0
  9 11  1  0  0  0  0
  9 29  1  0  0  0  0
 11 12  1  0  0  0  0
 11 13  1  0  0  0  0
 11 14  1  0  0  0  0
 14 15  1  0  0  0  0
 14 16  1  0  0  0  0
 14 17  1  0  0  0  0
 17 18  1  0  0  0  0
 17 19  1  0  0  0  0
 17 20  1  0  0  0  0
 20 21  1  0  0  0  0
 20 22  2  0  0  0  0
 22 23  1  0  0  0  0
 22 26  1  0  0  0  0
 23 24  1  0  0  0  0
 23 25  1  0  0  0  0
 26 27  1  0  0  0  0
 26 28  1  0  0  0  0
 29 30  2  0  0  0  0
 29 31  1  0  0  0  0
 31 32  1  0  0  0  0
 31 33  1  0  0  0  0
 33 34  1  0  0  0  0
 33 35  1  0  0  0  0
 33 36  1  0  0  0  0
M  CHG  1  20   1
M  END
$$$$

  -OEChem-04042215563D

 36 35  0     1  0  0  0  0  0999 V2000
   -2.9078   -5.5285    0.6252 H   0  0  0  0  0  0  0  0  0  0  0  0
   -2.9914   -4.5085    0.2382 C   0  0  0  0  0  0  0  0  0  0  0  0
   -3.8798   -4.0414    0.6696 H   0  0  0  0  0  0  0  0  0  0  0  0
   -3.1014   -4.5550   -0.8479 H   0  0  0  0  0  0  0  0  0  0  0  0
   -1.7530   -3.7120    0.6020 C   0  0  0  0  0  0  0  0  0  0  0  0
   -0.8748   -4.2254    1.2699 O   0  0  0  0  0  0  0  0  0  0  0  0
   -1.6336   -2.3945    0.1979 N   0  0  0  0  0  0  0  0  0  0  0  0
   -2.3461   -2.0684   -0.4483 H   0  0  0  0  0  0  0  0  0  0  0  0
   -0.3711   -1.6327    0.2753 C   0  0  1  0  0  0  0  0  0  0  0  0
    0.3692   -2.2298   -0.2712 H   0  0  0  0  0  0  0  0  0  0  0  0
   -0.4938   -0.2972   -0.4938 C   0  0  0  0  0  0  0  0  0  0  0  0
    0.5025   -0.0408   -0.8716 H   0  0  0  0  0  0  0  0  0  0  0  0
   -1.1438   -0.4375   -1.3639 H   0  0  0  0  0  0  0  0  0  0  0  0
   -0.9967    0.8864    0.3471 C   0  0  0  0  0  0  0  0  0  0  0  0
   -1.9807    0.6541    0.7682 H   0  0  0  0  0  0  0  0  0  0  0  0
   -0.3023    1.0729    1.1740 H   0  0  0  0  0  0  0  0  0  0  0  0
   -1.0749    2.1407   -0.5197 C   0  0  0  0  0  0  0  0  0  0  0  0
   -0.1044    2.2999   -1.0030 H   0  0  0  0  0  0  0  0  0  0  0  0
   -1.8325    1.9967   -1.2979 H   0  0  0  0  0  0  0  0  0  0  0  0
   -1.4129    3.3040    0.3205 N   0  3  0  0  0  0  0  0  0  0  0  0
   -1.4756    3.1457    1.3258 H   0  0  0  0  0  0  0  0  0  0  0  0
   -1.5625    4.5110   -0.1443 C   0  0  0  0  0  0  0  0  0  0  0  0
   -1.4386    4.7930   -1.4860 N   0  0  0  0  0  0  0  0  0  0  0  0
   -1.0486    4.0714   -2.0886 H   0  0  0  0  0  0  0  0  0  0  0  0
   -1.3287    5.7638   -1.7719 H   0  0  0  0  0  0  0  0  0  0  0  0
   -1.8490    5.5403    0.7207 N   0  0  0  0  0  0  0  0  0  0  0  0
   -2.0909    5.3232    1.6856 H   0  0  0  0  0  0  0  0  0  0  0  0
   -2.1575    6.4318    0.3369 H   0  0  0  0  0  0  0  0  0  0  0  0
    0.2260   -1.4820    1.6952 C   0  0  0  0  0  0  0  0  0  0  0  0
    1.4231   -1.2526    1.7989 O   0  0  0  0  0  0  0  0  0  0  0  0
   -0.5971   -1.1499    2.7588 N   0  0  0  0  0  0  0  0  0  0  0  0
   -1.5476   -1.4991    2.6760 H   0  0  0  0  0  0  0  0  0  0  0  0
   -0.0666   -0.9574    4.1055 C   0  0  0  0  0  0  0  0  0  0  0  0
    0.6491   -0.1285    4.1246 H   0  0  0  0  0  0  0  0  0  0  0  0
   -0.8771   -0.7272    4.8038 H   0  0  0  0  0  0  0  0  0  0  0  0
    0.4406   -1.8653    4.4503 H   0  0  0  0  0  0  0  0  0  0  0  0
  1  2  1  0  0  0  0
  2  3  1  0  0  0  0
  2  4  1  0  0  0  0
  2  5  1  0  0  0  0
  5  6  2  0  0  0  0
  5  7  1  0  0  0  0
  7  8  1  0  0  0  0
  7  9  1  0  0  0  0
  9 10  1  0  0  0  0
  9 11  1  0  0  0  0
  9 29  1  0  0  0  0
 11 12  1  0  0  0  0
 11 13  1  0  0  0  0
 11 14  1  0  0  0  0
 14 15  1  0  0  0  0
 14 16  1  0  0  0  0
 14 17  1  0  0  0  0
 17 18  1  0  0  0  0
 17 19  1  0  0  0  0
 17 20  1  0  0  0  0
 20 21  1  0  0  0  0
 20 22  2  0  0  0  0
 22 23  1  0  0  0  0
 22 26  1  0  0  0  0
 23 24  1  0  0  0  0
 23 25  1  0  0  0  0
 26 27  1  0  0  0  0
 26 28  1  0  0  0  0
 29 30  2  0  0  0  0
 29 31  1  0  0  0  0
 31 32  1  0  0  0  0
 31 33  1  0  0  0  0
 33 34  1  0  0  0  0
 33 35  1  0  0  0  0
 33 36  1  0  0  0  0
M  CHG  1  20   1
M  END
$$$$

  -OEChem-04042215563D

 36 35  0     1  0  0  0  0  0999 V2000
   -2.9220   -5.5328    0.6441 H   0  0  0  0  0  0  0  0  0  0  0  0
   -3.0061   -4.5127    0.2577 C   0  0  0  0  0  0  0  0  0  0  0  0
   -3.8920   -4.0444    0.6929 H   0  0  0  0  0  0  0  0  0  0  0  0
   -3.1207   -4.5594   -0.8278 H   0  0  0  0  0  0  0  0  0  0  0  0
   -1.7660   -3.7163    0.6161 C   0  0  0  0  0  0  0  0  0  0  0  0
   -0.8928   -4.2228    1.2956 O   0  0  0  0  0  0  0  0  0  0  0  0
   -1.6427   -2.4029    0.2000 N   0  0  0  0  0  0  0  0  0  0  0  0
   -2.3503   -2.0832   -0.4544 H   0  0  0  0  0  0  0  0  0  0  0  0
   -0.3764   -1.6470    0.2705 C   0  0  1  0  0  0  0  0  0  0  0  0
    0.3588   -2.2544   -0.2715 H   0  0  0  0  0  0  0  0  0  0  0  0
   -0.4845   -0.3154   -0.5060 C   0  0  0  0  0  0  0  0  0  0  0  0
    0.5074   -0.0629   -0.8972 H   0  0  0  0  0  0  0  0  0  0  0  0
   -1.1441   -0.4615   -1.3680 H   0  0  0  0  0  0  0  0  0  0  0  0
   -0.9787    0.8687    0.3390 C   0  0  0  0  0  0  0  0  0  0  0  0
   -1.8370    0.5579    0.9444 H   0  0  0  0  0  0  0  0  0  0  0  0
   -0.1782    1.1905    1.0163 H   0  0  0  0  0  0  0  0  0  0  0  0
   -1.4023    2.0263   -0.5620 C   0  0  0  0  0  0  0  0  0  0  0  0
   -0.5728    2.2779   -1.2324 H   0  0  0  0  0  0  0  0  0  0  0  0
   -2.2611    1.7194   -1.1690 H   0  0  0  0  0  0  0  0  0  0  0  0
   -1.7495    3.1924    0.2711 N   0  3  0  0  0  0  0  0  0  0  0  0
   -1.5748    3.1118    1.2724 H   0  0  0  0  0  0  0  0  0  0  0  0
   -2.2065    4.3145   -0.2051 C   0  0  0  0  0  0  0  0  0  0  0  0
   -2.4095    4.5023   -1.5534 N   0  0  0  0  0  0  0  0  0  0  0  0
   -2.0292    3.8059   -2.1909 H   0  0  0  0  0  0  0  0  0  0  0  0
   -2.5221    5.4533   -1.8991 H   0  0  0  0  0  0  0  0  0  0  0  0
   -2.4949    5.3479    0.6544 N   0  0  0  0  0  0  0  0  0  0  0  0
   -2.5038    5.1665    1.6564 H   0  0  0  0  0  0  0  0  0  0  0  0
   -3.0409    6.1340    0.3063 H   0  0  0  0  0  0  0  0  0  0  0  0
    0.2279   -1.4833    1.6866 C   0  0  0  0  0  0  0  0  0  0  0  0
    1.4271   -1.2618    1.7822 O   0  0  0  0  0  0  0  0  0  0  0  0
   -0.5866   -1.1359    2.7520 N   0  0  0  0  0  0  0  0  0  0  0  0
   -1.5370   -1.4881    2.6816 H   0  0  0  0  0  0  0  0  0  0  0  0
   -0.0455   -0.9291    4.0922 C   0  0  0  0  0  0  0  0  0  0  0  0
    0.6723   -0.1019    4.0968 H   0  0  0  0  0  0  0  0  0  0  0  0
   -0.8500   -0.6890    4.7939 H   0  0  0  0  0  0  0  0  0  0  0  0
    0.4624   -1.8340    4.4434 H   0  0  0  0  0  0  0  0  0  0  0  0
  1  2  1  0  0  0  0
  2  3  1  0  0  0  0
  2  4  1  0  0  0  0
  2  5  1  0  0  0  0
  5  6  2  0  0  0  0
  5  7  1  0  0  0  0
  7  8  1  0  0  0  0
  7  9  1  0  0  0  0
  9 10  1  0  0  0  0
  9 11  1  0  0  0  0
  9 29  1  0  0  0  0
 11 12  1  0  0  0  0
 11 13  1  0  0  0  0
 11 14  1  0  0  0  0
 14 15  1  0  0  0  0
 14 16  1  0  0  0  0
 14 17  1  0  0  0  0
 17 18  1  0  0  0  0
 17 19  1  0  0  0  0
 17 20  1  0  0  0  0
 20 21  1  0  0  0  0
 20 22  2  0  0  0  0
 22 23  1  0  0  0  0
 22 26  1  0  0  0  0
 23 24  1  0  0  0  0
 23 25  1  0  0  0  0
 26 27  1  0  0  0  0
 26 28  1  0  0  0  0
 29 30  2  0  0  0  0
 29 31  1  0  0  0  0
 31 32  1  0  0  0  0
 31 33  1  0  0  0  0
 33 34  1  0  0  0  0
 33 35  1  0  0  0  0
 33 36  1  0  0  0  0
M  CHG  1  20   1
M  END
$$$$

  -OEChem-04042215563D

 36 35  0     1  0  0  0  0  0999 V2000
   -2.9232   -5.5454    0.6581 H   0  0  0  0  0  0  0  0  0  0  0  0
   -3.0042   -4.5290    0.2615 C   0  0  0  0  0  0  0  0  0  0  0  0
   -3.8892   -4.0544    0.6913 H   0  0  0  0  0  0  0  0  0  0  0  0
   -3.1173   -4.5860   -0.8236 H   0  0  0  0  0  0  0  0  0  0  0  0
   -1.7626   -3.7330    0.6146 C   0  0  0  0  0  0  0  0  0  0  0  0
   -0.8808   -4.2448    1.2787 O   0  0  0  0  0  0  0  0  0  0  0  0
   -1.6511   -2.4129    0.2168 N   0  0  0  0  0  0  0  0  0  0  0  0
   -2.3653   -2.0894   -0.4281 H   0  0  0  0  0  0  0  0  0  0  0  0
   -0.3888   -1.6507    0.2865 C   0  0  1  0  0  0  0  0  0  0  0  0
    0.3419   -2.2542   -0.2655 H   0  0  0  0  0  0  0  0  0  0  0  0
   -0.4970   -0.3184   -0.4885 C   0  0  0  0  0  0  0  0  0  0  0  0
    0.4929   -0.0643   -0.8837 H   0  0  0  0  0  0  0  0  0  0  0  0
   -1.1554   -0.4719   -1.3501 H   0  0  0  0  0  0  0  0  0  0  0  0
   -0.9948    0.8715    0.3501 C   0  0  0  0  0  0  0  0  0  0  0  0
   -1.6843    0.5185    1.1231 H   0  0  0  0  0  0  0  0  0  0  0  0
   -0.1404    1.3470    0.8464 H   0  0  0  0  0  0  0  0  0  0  0  0
   -1.7508    1.8722   -0.5214 C   0  0  0  0  0  0  0  0  0  0  0  0
   -1.1075    2.1748   -1.3553 H   0  0  0  0  0  0  0  0  0  0  0  0
   -2.6488    1.3942   -0.9280 H   0  0  0  0  0  0  0  0  0  0  0  0
   -2.1150    3.0499    0.2883 N   0  3  0  0  0  0  0  0  0  0  0  0
   -1.7532    3.0845    1.2410 H   0  0  0  0  0  0  0  0  0  0  0  0
   -2.8193    4.0491   -0.1592 C   0  0  0  0  0  0  0  0  0  0  0  0
   -3.2957    4.0818   -1.4501 N   0  0  0  0  0  0  0  0  0  0  0  0
   -2.9258    3.4007   -2.1098 H   0  0  0  0  0  0  0  0  0  0  0  0
   -3.6384    4.9663   -1.8197 H   0  0  0  0  0  0  0  0  0  0  0  0
   -3.0987    5.1067    0.6732 N   0  0  0  0  0  0  0  0  0  0  0  0
   -2.8862    5.0241    1.6656 H   0  0  0  0  0  0  0  0  0  0  0  0
   -3.8066    5.7812    0.3888 H   0  0  0  0  0  0  0  0  0  0  0  0
    0.2376   -1.4980    1.6944 C   0  0  0  0  0  0  0  0  0  0  0  0
    1.4377   -1.2751    1.7708 O   0  0  0  0  0  0  0  0  0  0  0  0
   -0.5567   -1.1684    2.7802 N   0  0  0  0  0  0  0  0  0  0  0  0
   -1.5055   -1.5274    2.7268 H   0  0  0  0  0  0  0  0  0  0  0  0
    0.0119   -0.9686    4.1102 C   0  0  0  0  0  0  0  0  0  0  0  0
    0.7240   -0.1365    4.1048 H   0  0  0  0  0  0  0  0  0  0  0  0
   -0.7787   -0.7391    4.8309 H   0  0  0  0  0  0  0  0  0  0  0  0
    0.5336   -1.8725    4.4436 H   0  0  0  0  0  0  0  0  0  0  0  0
  1  2  1  0  0  0  0
  2  3  1  0  0  0  0
  2  4  1  0  0  0  0
  2  5  1  0  0  0  0
  5  6  2  0  0  0  0
  5  7  1  0  0  0  0
  7  8  1  0  0  0  0
  7  9  1  0  0  0  0
  9 10  1  0  0  0  0
  9 11  1  0  0  0  0
  9 29  1  0  0  0  0
 11 12  1  0  0  0  0
 11 13  1  0  0  0  0
 11 14  1  0  0  0  0
 14 15  1  0  0  0  0
 14 16  1  0  0  0  0
 14 17  1  0  0  0  0
 17 18  1  0  0  0  0
 17 19  1  0  0  0  0
 17 20  1  0  0  0  0
 20 21  1  0  0  0  0
 20 22  2  0  0  0  0
 22 23  1  0  0  0  0
 22 26  1  0  0  0  0
 23 24  1  0  0  0  0
 23 25  1  0  0  0  0
 26 27  1  0  0  0  0
 26 28  1  0  0  0  0
 29 30  2  0  0  0  0
 29 31  1  0  0  0  0
 31 32  1  0  0  0  0
 31 33  1  0  0  0  0
 33 34  1  0  0  0  0
 33 35  1  0  0  0  0
 33 36  1  0  0  0  0
M  CHG  1  20   1
M  END
$$$$

  -OEChem-04042215563D

 36 35  0     1  0  0  0  0  0999 V2000
   -2.6917   -5.7207    0.6921 H   0  0  0  0  0  0  0  0  0  0  0  0
   -2.8636   -4.7055    0.3229 C   0  0  0  0  0  0  0  0  0  0  0  0
   -3.7582   -4.3047    0.8044 H   0  0  0  0  0  0  0  0  0  0  0  0
   -3.0239   -4.7496   -0.7567 H   0  0  0  0  0  0  0  0  0  0  0  0
   -1.6658   -3.8293    0.6357 C   0  0  0  0  0  0  0  0  0  0  0  0
   -0.7113   -4.2956    1.2292 O   0  0  0  0  0  0  0  0  0  0  0  0
   -1.6714   -2.4925    0.2780 N   0  0  0  0  0  0  0  0  0  0  0  0
   -2.4450   -2.2019   -0.3114 H   0  0  0  0  0  0  0  0  0  0  0  0
   -0.4590   -1.6496    0.2922 C   0  0  1  0  0  0  0  0  0  0  0  0
    0.2698   -2.2015   -0.3143 H   0  0  0  0  0  0  0  0  0  0  0  0
   -0.6736   -0.3146   -0.4583 C   0  0  0  0  0  0  0  0  0  0  0  0
    0.2868   -0.0091   -0.8891 H   0  0  0  0  0  0  0  0  0  0  0  0
   -1.3501   -0.4985   -1.2994 H   0  0  0  0  0  0  0  0  0  0  0  0
   -1.1968    0.8574    0.3957 C   0  0  0  0  0  0  0  0  0  0  0  0
   -1.6034    0.4909    1.3411 H   0  0  0  0  0  0  0  0  0  0  0  0
   -0.3620    1.5290    0.6279 H   0  0  0  0  0  0  0  0  0  0  0  0
   -2.3178    1.6092   -0.3199 C   0  0  0  0  0  0  0  0  0  0  0  0
   -1.9660    1.9047   -1.3142 H   0  0  0  0  0  0  0  0  0  0  0  0
   -3.1845    0.9493   -0.4380 H   0  0  0  0  0  0  0  0  0  0  0  0
   -2.6836    2.8017    0.4681 N   0  3  0  0  0  0  0  0  0  0  0  0
   -2.3957    2.8133    1.4461 H   0  0  0  0  0  0  0  0  0  0  0  0
   -3.3097    3.8347   -0.0193 C   0  0  0  0  0  0  0  0  0  0  0  0
   -3.7010    3.8945   -1.3376 N   0  0  0  0  0  0  0  0  0  0  0  0
   -3.3411    3.1869   -1.9743 H   0  0  0  0  0  0  0  0  0  0  0  0
   -3.9651    4.7976   -1.7268 H   0  0  0  0  0  0  0  0  0  0  0  0
   -3.5905    4.9049    0.7969 N   0  0  0  0  0  0  0  0  0  0  0  0
   -3.4523    4.8107    1.8015 H   0  0  0  0  0  0  0  0  0  0  0  0
   -4.2436    5.6137    0.4671 H   0  0  0  0  0  0  0  0  0  0  0  0
    0.2520   -1.4979    1.6600 C   0  0  0  0  0  0  0  0  0  0  0  0
    1.4360   -1.1909    1.6606 O   0  0  0  0  0  0  0  0  0  0  0  0
   -0.4823   -1.2562    2.8096 N   0  0  0  0  0  0  0  0  0  0  0  0
   -1.4033   -1.6851    2.8144 H   0  0  0  0  0  0  0  0  0  0  0  0
    0.1662   -1.0441    4.1007 C   0  0  0  0  0  0  0  0  0  0  0  0
    0.7994   -0.1508    4.0721 H   0  0  0  0  0  0  0  0  0  0  0  0
   -0.5839   -0.9077    4.8857 H   0  0  0  0  0  0  0  0  0  0  0  0
    0.7895   -1.9065    4.3622 H   0  0  0  0  0  0  0  0  0  0  0  0
  1  2  1  0  0  0  0
  2  3  1  0  0  0  0
  2  4  1  0  0  0  0
  2  5  1  0  0  0  0
  5  6  2  0  0  0  0
  5  7  1  0  0  0  0
  7  8  1  0  0  0  0
  7  9  1  0  0  0  0
  9 10  1  0  0  0  0
  9 11  1  0  0  0  0
  9 29  1  0  0  0  0
 11 12  1  0  0  0  0
 11 13  1  0  0  0  0
 11 14  1  0  0  0  0
 14 15  1  0  0  0  0
 14 16  1  0  0  0  0
 14 17  1  0  0  0  0
 17 18  1  0  0  0  0
 17 19  1  0  0  0  0
 17 20  1  0  0  0  0
 20 21  1  0  0  0  0
 20 22  2  0  0  0  0
 22 23  1  0  0  0  0
 22 26  1  0  0  0  0
 23 24  1  0  0  0  0
 23 25  1  0  0  0  0
 26 27  1  0  0  0  0
 26 28  1  0  0  0  0
 29 30  2  0  0  0  0
 29 31  1  0  0  0  0
 31 32  1  0  0  0  0
 31 33  1  0  0  0  0
 33 34  1  0  0  0  0
 33 35  1  0  0  0  0
 33 36  1  0  0  0  0
M  CHG  1  20   1
M  END
$$$$

  -OEChem-04042215563D

 36 35  0     1  0  0  0  0  0999 V2000
   -2.8178   -5.6360    0.6719 H   0  0  0  0  0  0  0  0  0  0  0  0
   -2.9198   -4.6255    0.2647 C   0  0  0  0  0  0  0  0  0  0  0  0
   -3.8292   -4.1750    0.6689 H   0  0  0  0  0  0  0  0  0  0  0  0
   -3.0049   -4.6944   -0.8225 H   0  0  0  0  0  0  0  0  0  0  0  0
   -1.7111   -3.7891    0.6394 C   0  0  0  0  0  0  0  0  0  0  0  0
   -0.7958   -4.2903    1.2649 O   0  0  0  0  0  0  0  0  0  0  0  0
   -1.6622   -2.4505    0.2924 N   0  0  0  0  0  0  0  0  0  0  0  0
   -2.3970   -2.1419   -0.3358 H   0  0  0  0  0  0  0  0  0  0  0  0
   -0.4184   -1.6556    0.3330 C   0  0  1  0  0  0  0  0  0  0  0  0
    0.2996   -2.2344   -0.2612 H   0  0  0  0  0  0  0  0  0  0  0  0
   -0.5740   -0.3176   -0.4293 C   0  0  0  0  0  0  0  0  0  0  0  0
    0.4172   -0.0561   -0.8175 H   0  0  0  0  0  0  0  0  0  0  0  0
   -1.2147   -0.4795   -1.3024 H   0  0  0  0  0  0  0  0  0  0  0  0
   -1.0745    0.8961    0.3832 C   0  0  0  0  0  0  0  0  0  0  0  0
   -1.2360    0.6396    1.4314 H   0  0  0  0  0  0  0  0  0  0  0  0
   -0.3016    1.6729    0.3543 H   0  0  0  0  0  0  0  0  0  0  0  0
   -2.3804    1.4484   -0.1847 C   0  0  0  0  0  0  0  0  0  0  0  0
   -2.2424    1.6733   -1.2481 H   0  0  0  0  0  0  0  0  0  0  0  0
   -3.1681    0.6937   -0.0846 H   0  0  0  0  0  0  0  0  0  0  0  0
   -2.7452    2.6741    0.5501 N   0  3  0  0  0  0  0  0  0  0  0  0
   -2.1093    2.9749    1.2886 H   0  0  0  0  0  0  0  0  0  0  0  0
   -3.7973    3.3948    0.2886 C   0  0  0  0  0  0  0  0  0  0  0  0
   -4.6764    3.0606   -0.7162 N   0  0  0  0  0  0  0  0  0  0  0  0
   -4.3920    2.3400   -1.3761 H   0  0  0  0  0  0  0  0  0  0  0  0
   -5.3399    3.7642   -1.0346 H   0  0  0  0  0  0  0  0  0  0  0  0
   -4.0446    4.5257    1.0297 N   0  0  0  0  0  0  0  0  0  0  0  0
   -3.4920    4.6979    1.8677 H   0  0  0  0  0  0  0  0  0  0  0  0
   -4.9598    4.9672    0.9595 H   0  0  0  0  0  0  0  0  0  0  0  0
    0.2743   -1.5435    1.7140 C   0  0  0  0  0  0  0  0  0  0  0  0
    1.4722   -1.2990    1.7376 O   0  0  0  0  0  0  0  0  0  0  0  0
   -0.4664   -1.2835    2.8553 N   0  0  0  0  0  0  0  0  0  0  0  0
   -1.4094   -1.6601    2.8343 H   0  0  0  0  0  0  0  0  0  0  0  0
    0.1709   -1.1435    4.1620 C   0  0  0  0  0  0  0  0  0  0  0  0
    0.8676   -0.2983    4.1644 H   0  0  0  0  0  0  0  0  0  0  0  0
   -0.5823   -0.9693    4.9363 H   0  0  0  0  0  0  0  0  0  0  0  0
    0.7249   -2.0537    4.4166 H   0  0  0  0  0  0  0  0  0  0  0  0
  1  2  1  0  0  0  0
  2  3  1  0  0  0  0
  2  4  1  0  0  0  0
  2  5  1  0  0  0  0
  5  6  2  0  0  0  0
  5  7  1  0  0  0  0
  7  8  1  0  0  0  0
  7  9  1  0  0  0  0
  9 10  1  0  0  0  0
  9 11  1  0  0  0  0
  9 29  1  0  0  0  0
 11 12  1  0  0  0  0
 11 13  1  0  0  0  0
 11 14  1  0  0  0  0
 14 15  1  0  0  0  0
 14 16  1  0  0  0  0
 14 17  1  0  0  0  0
 17 18  1  0  0  0  0
 17 19  1  0  0  0  0
 17 20  1  0  0  0  0
 20 21  1  0  0  0  0
 20 22  2  0  0  0  0
 22 23  1  0  0  0  0
 22 26  1  0  0  0  0
 23 24  1  0  0  0  0
 23 25  1  0  0  0  0
 26 27  1  0  0  0  0
 26 28  1  0  0  0  0
 29 30  2  0  0  0  0
 29 31  1  0  0  0  0
 31 32  1  0  0  0  0
 31 33  1  0  0  0  0
 33 34  1  0  0  0  0
 33 35  1  0  0  0  0
 33 36  1  0  0  0  0
M  CHG  1  20   1
M  END
$$$$

  -OEChem-04042215563D

 36 35  0     1  0  0  0  0  0999 V2000
   -2.7727   -5.6596    0.7145 H   0  0  0  0  0  0  0  0  0  0  0  0
   -2.8727   -4.6621    0.2760 C   0  0  0  0  0  0  0  0  0  0  0  0
   -3.7907   -4.2052    0.6524 H   0  0  0  0  0  0  0  0  0  0  0  0
   -2.9389   -4.7629   -0.8100 H   0  0  0  0  0  0  0  0  0  0  0  0
   -1.6736   -3.8103    0.6463 C   0  0  0  0  0  0  0  0  0  0  0  0
   -0.7613   -4.2973    1.2870 O   0  0  0  0  0  0  0  0  0  0  0  0
   -1.6344   -2.4742    0.2868 N   0  0  0  0  0  0  0  0  0  0  0  0
   -2.3596   -2.1856   -0.3615 H   0  0  0  0  0  0  0  0  0  0  0  0
   -0.3934   -1.6733    0.3175 C   0  0  1  0  0  0  0  0  0  0  0  0
    0.3297   -2.2445   -0.2777 H   0  0  0  0  0  0  0  0  0  0  0  0
   -0.5733   -0.3347   -0.4410 C   0  0  0  0  0  0  0  0  0  0  0  0
    0.4207   -0.0676   -0.8182 H   0  0  0  0  0  0  0  0  0  0  0  0
   -1.2047   -0.4908   -1.3221 H   0  0  0  0  0  0  0  0  0  0  0  0
   -1.0733    0.8805    0.3689 C   0  0  0  0  0  0  0  0  0  0  0  0
   -0.9252    0.7496    1.4415 H   0  0  0  0  0  0  0  0  0  0  0  0
   -0.4695    1.7461    0.0733 H   0  0  0  0  0  0  0  0  0  0  0  0
   -2.5387    1.1954    0.0768 C   0  0  0  0  0  0  0  0  0  0  0  0
   -2.6700    1.3352   -1.0020 H   0  0  0  0  0  0  0  0  0  0  0  0
   -3.1623    0.3549    0.4013 H   0  0  0  0  0  0  0  0  0  0  0  0
   -2.9136    2.4238    0.8028 N   0  3  0  0  0  0  0  0  0  0  0  0
   -2.1926    2.8527    1.3826 H   0  0  0  0  0  0  0  0  0  0  0  0
   -4.0849    2.9874    0.7333 C   0  0  0  0  0  0  0  0  0  0  0  0
   -5.0949    2.4736   -0.0475 N   0  0  0  0  0  0  0  0  0  0  0  0
   -4.8538    1.7489   -0.7197 H   0  0  0  0  0  0  0  0  0  0  0  0
   -5.9004    3.0629   -0.2492 H   0  0  0  0  0  0  0  0  0  0  0  0
   -4.3281    4.1314    1.4559 N   0  0  0  0  0  0  0  0  0  0  0  0
   -3.6495    4.4263    2.1559 H   0  0  0  0  0  0  0  0  0  0  0  0
   -5.2889    4.4554    1.5539 H   0  0  0  0  0  0  0  0  0  0  0  0
    0.2890   -1.5566    1.7031 C   0  0  0  0  0  0  0  0  0  0  0  0
    1.4859   -1.3101    1.7395 O   0  0  0  0  0  0  0  0  0  0  0  0
   -0.4674   -1.2953    2.8340 N   0  0  0  0  0  0  0  0  0  0  0  0
   -1.4073   -1.6787    2.8013 H   0  0  0  0  0  0  0  0  0  0  0  0
    0.1524   -1.1499    4.1482 C   0  0  0  0  0  0  0  0  0  0  0  0
    0.8396   -0.2973    4.1594 H   0  0  0  0  0  0  0  0  0  0  0  0
   -0.6123   -0.9842    4.9131 H   0  0  0  0  0  0  0  0  0  0  0  0
    0.7131   -2.0544    4.4085 H   0  0  0  0  0  0  0  0  0  0  0  0
  1  2  1  0  0  0  0
  2  3  1  0  0  0  0
  2  4  1  0  0  0  0
  2  5  1  0  0  0  0
  5  6  2  0  0  0  0
  5  7  1  0  0  0  0
  7  8  1  0  0  0  0
  7  9  1  0  0  0  0
  9 10  1  0  0  0  0
  9 11  1  0  0  0  0
  9 29  1  0  0  0  0
 11 12  1  0  0  0  0
 11 13  1  0  0  0  0
 11 14  1  0  0  0  0
 14 15  1  0  0  0  0
 14 16  1  0  0  0  0
 14 17  1  0  0  0  0
 17 18  1  0  0  0  0
 17 19  1  0  0  0  0
 17 20  1  0  0  0  0
 20 21  1  0  0  0  0
 20 22  2  0  0  0  0
 22 23  1  0  0  0  0
 22 26  1  0  0  0  0
 23 24  1  0  0  0  0
 23 25  1  0  0  0  0
 26 27  1  0  0  0  0
 26 28  1  0  0  0  0
 29 30  2  0  0  0  0
 29 31  1  0  0  0  0
 31 32  1  0  0  0  0
 31 33  1  0  0  0  0
 33 34  1  0  0  0  0
 33 35  1  0  0  0  0
 33 36  1  0  0  0  0
M  CHG  1  20   1
M  END
$$$$

  -OEChem-04042215563D

 36 35  0     1  0  0  0  0  0999 V2000
   -2.7655   -5.6721    0.6697 H   0  0  0  0  0  0  0  0  0  0  0  0
   -2.8483   -4.6799    0.2160 C   0  0  0  0  0  0  0  0  0  0  0  0
   -3.8044   -4.2403    0.5080 H   0  0  0  0  0  0  0  0  0  0  0  0
   -2.8190   -4.7895   -0.8708 H   0  0  0  0  0  0  0  0  0  0  0  0
   -1.7026   -3.8002    0.6790 C   0  0  0  0  0  0  0  0  0  0  0  0
   -0.8646   -4.2496    1.4376 O   0  0  0  0  0  0  0  0  0  0  0  0
   -1.6320   -2.4809    0.2655 N   0  0  0  0  0  0  0  0  0  0  0  0
   -2.2881   -2.2441   -0.4720 H   0  0  0  0  0  0  0  0  0  0  0  0
   -0.3748   -1.7047    0.3032 C   0  0  1  0  0  0  0  0  0  0  0  0
    0.3557   -2.2984   -0.2600 H   0  0  0  0  0  0  0  0  0  0  0  0
   -0.5366   -0.3783   -0.4804 C   0  0  0  0  0  0  0  0  0  0  0  0
    0.4621   -0.1249   -0.8544 H   0  0  0  0  0  0  0  0  0  0  0  0
   -1.1677   -0.5367   -1.3610 H   0  0  0  0  0  0  0  0  0  0  0  0
   -1.0302    0.8487    0.3115 C   0  0  0  0  0  0  0  0  0  0  0  0
   -0.6377    0.8597    1.3309 H   0  0  0  0  0  0  0  0  0  0  0  0
   -0.6266    1.7400   -0.1817 H   0  0  0  0  0  0  0  0  0  0  0  0
   -2.5521    0.9607    0.3083 C   0  0  0  0  0  0  0  0  0  0  0  0
   -2.9094    1.0413   -0.7242 H   0  0  0  0  0  0  0  0  0  0  0  0
   -2.9808    0.0600    0.7613 H   0  0  0  0  0  0  0  0  0  0  0  0
   -2.9360    2.1551    1.0838 N   0  3  0  0  0  0  0  0  0  0  0  0
   -2.1757    2.7166    1.4669 H   0  0  0  0  0  0  0  0  0  0  0  0
   -4.1649    2.5143    1.3172 C   0  0  0  0  0  0  0  0  0  0  0  0
   -5.2367    1.8075    0.8219 N   0  0  0  0  0  0  0  0  0  0  0  0
   -5.0512    1.1025    0.1122 H   0  0  0  0  0  0  0  0  0  0  0  0
   -6.1533    2.2512    0.8262 H   0  0  0  0  0  0  0  0  0  0  0  0
   -4.4083    3.6322    2.0792 N   0  0  0  0  0  0  0  0  0  0  0  0
   -3.6324    4.0689    2.5739 H   0  0  0  0  0  0  0  0  0  0  0  0
   -5.3495    3.7829    2.4386 H   0  0  0  0  0  0  0  0  0  0  0  0
    0.2655   -1.5476    1.7045 C   0  0  0  0  0  0  0  0  0  0  0  0
    1.4640   -1.3155    1.7706 O   0  0  0  0  0  0  0  0  0  0  0  0
   -0.5267   -1.2257    2.7947 N   0  0  0  0  0  0  0  0  0  0  0  0
   -1.4596   -1.6248    2.7533 H   0  0  0  0  0  0  0  0  0  0  0  0
    0.0522   -1.0151    4.1182 C   0  0  0  0  0  0  0  0  0  0  0  0
    0.7538   -0.1740    4.1044 H   0  0  0  0  0  0  0  0  0  0  0  0
   -0.7344   -0.7939    4.8457 H   0  0  0  0  0  0  0  0  0  0  0  0
    0.5881   -1.9121    4.4475 H   0  0  0  0  0  0  0  0  0  0  0  0
  1  2  1  0  0  0  0
  2  3  1  0  0  0  0
  2  4  1  0  0  0  0
  2  5  1  0  0  0  0
  5  6  2  0  0  0  0
  5  7  1  0  0  0  0
  7  8  1  0  0  0  0
  7  9  1  0  0  0  0
  9 10  1  0  0  0  0
  9 11  1  0  0  0  0
  9 29  1  0  0  0  0
 11 12  1  0  0  0  0
 11 13  1  0  0  0  0
 11 14  1  0  0  0  0
 14 15  1  0  0  0  0
 14 16  1  0  0  0  0
 14 17  1  0  0  0  0
 17 18  1  0  0  0  0
 17 19  1  0  0  0  0
 17 20  1  0  0  0  0
 20 21  1  0  0  0  0
 20 22  2  0  0  0  0
 22 23  1  0  0  0  0
 22 26  1  0  0  0  0
 23 24  1  0  0  0  0
 23 25  1  0  0  0  0
 26 27  1  0  0  0  0
 26 28  1  0  0  0  0
 29 30  2  0  0  0  0
 29 31  1  0  0  0  0
 31 32  1  0  0  0  0
 31 33  1  0  0  0  0
 33 34  1  0  0  0  0
 33 35  1  0  0  0  0
 33 36  1  0  0  0  0
M  CHG  1  20   1
M  END
$$$$

  -OEChem-04042215563D

 36 35  0     1  0  0  0  0  0999 V2000
   -2.7491   -5.6760    0.6174 H   0  0  0  0  0  0  0  0  0  0  0  0
   -2.8531   -4.6720    0.1953 C   0  0  0  0  0  0  0  0  0  0  0  0
   -3.8137   -4.2577    0.5091 H   0  0  0  0  0  0  0  0  0  0  0  0
   -2.8326   -4.7491   -0.8945 H   0  0  0  0  0  0  0  0  0  0  0  0
   -1.7191   -3.7873    0.6769 C   0  0  0  0  0  0  0  0  0  0  0  0
   -0.9303   -4.2099    1.5006 O   0  0  0  0  0  0  0  0  0  0  0  0
   -1.6209   -2.4817    0.2280 N   0  0  0  0  0  0  0  0  0  0  0  0
   -2.2336   -2.2709   -0.5540 H   0  0  0  0  0  0  0  0  0  0  0  0
   -0.3578   -1.7152    0.2920 C   0  0  1  0  0  0  0  0  0  0  0  0
    0.3890   -2.3224   -0.2341 H   0  0  0  0  0  0  0  0  0  0  0  0
   -0.4890   -0.3993   -0.5143 C   0  0  0  0  0  0  0  0  0  0  0  0
    0.5143   -0.1519   -0.8790 H   0  0  0  0  0  0  0  0  0  0  0  0
   -1.1129   -0.5643   -1.3988 H   0  0  0  0  0  0  0  0  0  0  0  0
   -0.9964    0.8301    0.2607 C   0  0  0  0  0  0  0  0  0  0  0  0
   -0.4342    0.9592    1.1908 H   0  0  0  0  0  0  0  0  0  0  0  0
   -0.7990    1.7187   -0.3488 H   0  0  0  0  0  0  0  0  0  0  0  0
   -2.4962    0.7581    0.5342 C   0  0  0  0  0  0  0  0  0  0  0  0
   -3.0411    0.7786   -0.4161 H   0  0  0  0  0  0  0  0  0  0  0  0
   -2.7226   -0.1811    1.0508 H   0  0  0  0  0  0  0  0  0  0  0  0
   -2.8772    1.9056    1.3785 N   0  3  0  0  0  0  0  0  0  0  0  0
   -2.1504    2.5949    1.5693 H   0  0  0  0  0  0  0  0  0  0  0  0
   -4.0507    2.0581    1.9201 C   0  0  0  0  0  0  0  0  0  0  0  0
   -5.0749    1.1668    1.6964 N   0  0  0  0  0  0  0  0  0  0  0  0
   -4.9589    0.4948    0.9416 H   0  0  0  0  0  0  0  0  0  0  0  0
   -6.0222    1.4446    1.9459 H   0  0  0  0  0  0  0  0  0  0  0  0
   -4.2831    3.1373    2.7391 N   0  0  0  0  0  0  0  0  0  0  0  0
   -3.4902    3.6952    3.0512 H   0  0  0  0  0  0  0  0  0  0  0  0
   -5.1242    3.1418    3.3135 H   0  0  0  0  0  0  0  0  0  0  0  0
    0.2312   -1.5214    1.7113 C   0  0  0  0  0  0  0  0  0  0  0  0
    1.4275   -1.2927    1.8148 O   0  0  0  0  0  0  0  0  0  0  0  0
   -0.5983   -1.1599    2.7612 N   0  0  0  0  0  0  0  0  0  0  0  0
   -1.5222   -1.5775    2.7070 H   0  0  0  0  0  0  0  0  0  0  0  0
   -0.0605   -0.9050    4.0950 C   0  0  0  0  0  0  0  0  0  0  0  0
    0.6433   -0.0657    4.0744 H   0  0  0  0  0  0  0  0  0  0  0  0
   -0.8679   -0.6579    4.7908 H   0  0  0  0  0  0  0  0  0  0  0  0
    0.4632   -1.7908    4.4716 H   0  0  0  0  0  0  0  0  0  0  0  0
  1  2  1  0  0  0  0
  2  3  1  0  0  0  0
  2  4  1  0  0  0  0
  2  5  1  0  0  0  0
  5  6  2  0  0  0  0
  5  7  1  0  0  0  0
  7  8  1  0  0  0  0
  7  9  1  0  0  0  0
  9 10  1  0  0  0  0
  9 11  1  0  0  0  0
  9 29  1  0  0  0  0
 11 12  1  0  0  0  0
 11 13  1  0  0  0  0
 11 14  1  0  0  0  0
 14 15  1  0  0  0  0
 14 16  1  0  0  0  0
 14 17  1  0  0  0  0
 17 18  1  0  0  0  0
 17 19  1  0  0  0  0
 17 20  1  0  0  0  0
 20 21  1  0  0  0  0
 20 22  2  0  0  0  0
 22 23  1  0  0  0  0
 22 26  1  0  0  0  0
 23 24  1  0  0  0  0
 23 25  1  0  0  0  0
 26 27  1  0  0  0  0
 26 28  1  0  0  0  0
 29 30  2  0  0  0  0
 29 31  1  0  0  0  0
 31 32  1  0  0  0  0
 31 33  1  0  0  0  0
 33 34  1  0  0  0  0
 33 35  1  0  0  0  0
 33 36  1  0  0  0  0
M  CHG  1  20   1
M  END
$$$$

  -OEChem-04042215563D

 36 35  0     1  0  0  0  0  0999 V2000
   -2.6884   -5.7403    0.5462 H   0  0  0  0  0  0  0  0  0  0  0  0
   -2.7715   -4.7516    0.0850 C   0  0  0  0  0  0  0  0  0  0  0  0
   -3.7637   -4.3477    0.2976 H   0  0  0  0  0  0  0  0  0  0  0  0
   -2.6525   -4.8613   -0.9956 H   0  0  0  0  0  0  0  0  0  0  0  0
   -1.6995   -3.8300    0.6349 C   0  0  0  0  0  0  0  0  0  0  0  0
   -0.9382   -4.2304    1.4953 O   0  0  0  0  0  0  0  0  0  0  0  0
   -1.6323   -2.5136    0.2132 N   0  0  0  0  0  0  0  0  0  0  0  0
   -2.2339   -2.3119   -0.5807 H   0  0  0  0  0  0  0  0  0  0  0  0
   -0.3821   -1.7270    0.2897 C   0  0  1  0  0  0  0  0  0  0  0  0
    0.3687   -2.3182   -0.2486 H   0  0  0  0  0  0  0  0  0  0  0  0
   -0.5153   -0.3998   -0.4970 C   0  0  0  0  0  0  0  0  0  0  0  0
    0.4820   -0.1386   -0.8696 H   0  0  0  0  0  0  0  0  0  0  0  0
   -1.1486   -0.5623   -1.3752 H   0  0  0  0  0  0  0  0  0  0  0  0
   -1.0379    0.8163    0.2884 C   0  0  0  0  0  0  0  0  0  0  0  0
   -0.3304    1.0465    1.0932 H   0  0  0  0  0  0  0  0  0  0  0  0
   -1.0571    1.6829   -0.3812 H   0  0  0  0  0  0  0  0  0  0  0  0
   -2.4349    0.6038    0.8705 C   0  0  0  0  0  0  0  0  0  0  0  0
   -3.1640    0.5530    0.0545 H   0  0  0  0  0  0  0  0  0  0  0  0
   -2.4606   -0.3412    1.4213 H   0  0  0  0  0  0  0  0  0  0  0  0
   -2.7439    1.7260    1.7763 N   0  3  0  0  0  0  0  0  0  0  0  0
   -2.0263    2.4433    1.8777 H   0  0  0  0  0  0  0  0  0  0  0  0
   -3.8309    1.8160    2.4858 C   0  0  0  0  0  0  0  0  0  0  0  0
   -4.8175    0.8587    2.4286 N   0  0  0  0  0  0  0  0  0  0  0  0
   -4.6143   -0.0080    1.9365 H   0  0  0  0  0  0  0  0  0  0  0  0
   -5.5282    0.8445    3.1577 H   0  0  0  0  0  0  0  0  0  0  0  0
   -4.0054    2.8920    3.3229 N   0  0  0  0  0  0  0  0  0  0  0  0
   -3.3666    3.6818    3.2472 H   0  0  0  0  0  0  0  0  0  0  0  0
   -4.9308    3.0618    3.7127 H   0  0  0  0  0  0  0  0  0  0  0  0
    0.2259   -1.5439    1.7033 C   0  0  0  0  0  0  0  0  0  0  0  0
    1.4184   -1.2886    1.7878 O   0  0  0  0  0  0  0  0  0  0  0  0
   -0.5874   -1.2149    2.7759 N   0  0  0  0  0  0  0  0  0  0  0  0
   -1.4869   -1.6848    2.7460 H   0  0  0  0  0  0  0  0  0  0  0  0
   -0.0205   -0.9637    4.0985 C   0  0  0  0  0  0  0  0  0  0  0  0
    0.6419   -0.0915    4.0761 H   0  0  0  0  0  0  0  0  0  0  0  0
   -0.8166   -0.7720    4.8245 H   0  0  0  0  0  0  0  0  0  0  0  0
    0.5566   -1.8313    4.4380 H   0  0  0  0  0  0  0  0  0  0  0  0
  1  2  1  0  0  0  0
  2  3  1  0  0  0  0
  2  4  1  0  0  0  0
  2  5  1  0  0  0  0
  5  6  2  0  0  0  0
  5  7  1  0  0  0  0
  7  8  1  0  0  0  0
  7  9  1  0  0  0  0
  9 10  1  0  0  0  0
  9 11  1  0  0  0  0
  9 29  1  0  0  0  0
 11 12  1  0  0  0  0
 11 13  1  0  0  0  0
 11 14  1  0  0  0  0
 14 15  1  0  0  0  0
 14 16  1  0  0  0  0
 14 17  1  0  0  0  0
 17 18  1  0  0  0  0
 17 19  1  0  0  0  0
 17 20  1  0  0  0  0
 20 21  1  0  0  0  0
 20 22  2  0  0  0  0
 22 23  1  0  0  0  0
 22 26  1  0  0  0  0
 23 24  1  0  0  0  0
 23 25  1  0  0  0  0
 26 27  1  0  0  0  0
 26 28  1  0  0  0  0
 29 30  2  0  0  0  0
 29 31  1  0  0  0  0
 31 32  1  0  0  0  0
 31 33  1  0  0  0  0
 33 34  1  0  0  0  0
 33 35  1  0  0  0  0
 33 36  1  0  0  0  0
M  CHG  1  20   1
M  END
$$$$

  -OEChem-04042215563D

 36 35  0     1  0  0  0  0  0999 V2000
   -2.8729   -5.7105    0.2726 H   0  0  0  0  0  0  0  0  0  0  0  0
   -2.8524   -4.7106   -0.1709 C   0  0  0  0  0  0  0  0  0  0  0  0
   -3.8461   -4.2660   -0.0809 H   0  0  0  0  0  0  0  0  0  0  0  0
   -2.5955   -4.8046   -1.2289 H   0  0  0  0  0  0  0  0  0  0  0  0
   -1.8250   -3.8487    0.5377 C   0  0  0  0  0  0  0  0  0  0  0  0
   -1.1930   -4.2978    1.4759 O   0  0  0  0  0  0  0  0  0  0  0  0
   -1.6718   -2.5184    0.1919 N   0  0  0  0  0  0  0  0  0  0  0  0
   -2.1851   -2.2558   -0.6457 H   0  0  0  0  0  0  0  0  0  0  0  0
   -0.4047   -1.7928    0.4210 C   0  0  1  0  0  0  0  0  0  0  0  0
    0.3537   -2.4253   -0.0570 H   0  0  0  0  0  0  0  0  0  0  0  0
   -0.3497   -0.4647   -0.3716 C   0  0  0  0  0  0  0  0  0  0  0  0
    0.6984   -0.2705   -0.6268 H   0  0  0  0  0  0  0  0  0  0  0  0
   -0.8835   -0.6031   -1.3175 H   0  0  0  0  0  0  0  0  0  0  0  0
   -0.8937    0.7987    0.3193 C   0  0  0  0  0  0  0  0  0  0  0  0
   -0.1476    1.1031    1.0631 H   0  0  0  0  0  0  0  0  0  0  0  0
   -0.9741    1.6080   -0.4143 H   0  0  0  0  0  0  0  0  0  0  0  0
   -2.2369    0.6041    1.0267 C   0  0  0  0  0  0  0  0  0  0  0  0
   -2.2469   -0.3519    1.5522 H   0  0  0  0  0  0  0  0  0  0  0  0
   -3.0368    0.5865    0.2787 H   0  0  0  0  0  0  0  0  0  0  0  0
   -2.4465    1.7104    1.9791 N   0  3  0  0  0  0  0  0  0  0  0  0
   -1.8114    2.5047    1.9083 H   0  0  0  0  0  0  0  0  0  0  0  0
   -3.3360    1.6960    2.9284 C   0  0  0  0  0  0  0  0  0  0  0  0
   -4.1970    0.6369    3.1034 N   0  0  0  0  0  0  0  0  0  0  0  0
   -4.0268   -0.2109    2.5680 H   0  0  0  0  0  0  0  0  0  0  0  0
   -4.7074    0.5597    3.9810 H   0  0  0  0  0  0  0  0  0  0  0  0
   -3.4252    2.7656    3.7867 N   0  0  0  0  0  0  0  0  0  0  0  0
   -2.9100    3.6164    3.5677 H   0  0  0  0  0  0  0  0  0  0  0  0
   -4.2451    2.8443    4.3855 H   0  0  0  0  0  0  0  0  0  0  0  0
    0.1132   -1.6844    1.8795 C   0  0  0  0  0  0  0  0  0  0  0  0
    1.3029   -1.4514    2.0367 O   0  0  0  0  0  0  0  0  0  0  0  0
   -0.7427   -1.3647    2.9210 N   0  0  0  0  0  0  0  0  0  0  0  0
   -1.6272   -1.8593    2.8528 H   0  0  0  0  0  0  0  0  0  0  0  0
   -0.2303   -1.1260    4.2684 C   0  0  0  0  0  0  0  0  0  0  0  0
    0.4499   -0.2674    4.2763 H   0  0  0  0  0  0  0  0  0  0  0  0
   -1.0533   -0.9173    4.9582 H   0  0  0  0  0  0  0  0  0  0  0  0
    0.3138   -2.0047    4.6325 H   0  0  0  0  0  0  0  0  0  0  0  0
  1  2  1  0  0  0  0
  2  3  1  0  0  0  0
  2  4  1  0  0  0  0
  2  5  1  0  0  0  0
  5  6  2  0  0  0  0
  5  7  1  0  0  0  0
  7  8  1  0  0  0  0
  7  9  1  0  0  0  0
  9 10  1  0  0  0  0
  9 11  1  0  0  0  0
  9 29  1  0  0  0  0
 11 12  1  0  0  0  0
 11 13  1  0  0  0  0
 11 14  1  0  0  0  0
 14 15  1  0  0  0  0
 14 16  1  0  0  0  0
 14 17  1  0  0  0  0
 17 18  1  0  0  0  0
 17 19  1  0  0  0  0
 17 20  1  0  0  0  0
 20 21  1  0  0  0  0
 20 22  2  0  0  0  0
 22 23  1  0  0  0  0
 22 26  1  0  0  0  0
 23 24  1  0  0  0  0
 23 25  1  0  0  0  0
 26 27  1  0  0  0  0
 26 28  1  0  0  0  0
 29 30  2  0  0  0  0
 29 31  1  0  0  0  0
 31 32  1  0  0  0  0
 31 33  1  0  0  0  0
 33 34  1  0  0  0  0
 33 35  1  0  0  0  0
 33 36  1  0  0  0  0
M  CHG  1  20   1
M  END
$$$$

  -OEChem-04042215563D

 36 35  0     1  0  0  0  0  0999 V2000
   -1.5807   -6.1003    0.1488 H   0  0  0  0  0  0  0  0  0  0  0  0
   -1.9687   -5.1228   -0.1528 C   0  0  0  0  0  0  0  0  0  0  0  0
   -2.9959   -5.0275    0.2073 H   0  0  0  0  0  0  0  0  0  0  0  0
   -1.9638   -5.0672   -1.2442 H   0  0  0  0  0  0  0  0  0  0  0  0
   -1.1047   -4.0188    0.4261 C   0  0  0  0  0  0  0  0  0  0  0  0
   -0.1428   -4.2959    1.1189 O   0  0  0  0  0  0  0  0  0  0  0  0
   -1.4371   -2.6917    0.2173 N   0  0  0  0  0  0  0  0  0  0  0  0
   -2.1858   -2.5471   -0.4551 H   0  0  0  0  0  0  0  0  0  0  0  0
   -0.4678   -1.5889    0.3831 C   0  0  1  0  0  0  0  0  0  0  0  0
    0.3962   -1.9181   -0.2077 H   0  0  0  0  0  0  0  0  0  0  0  0
   -0.9093   -0.2897   -0.3371 C   0  0  0  0  0  0  0  0  0  0  0  0
    0.0007    0.2201   -0.6744 H   0  0  0  0  0  0  0  0  0  0  0  0
   -1.4476   -0.5887   -1.2426 H   0  0  0  0  0  0  0  0  0  0  0  0
   -1.7684    0.7678    0.3869 C   0  0  0  0  0  0  0  0  0  0  0  0
   -1.0802    1.4969    0.8306 H   0  0  0  0  0  0  0  0  0  0  0  0
   -2.3506    1.3098   -0.3658 H   0  0  0  0  0  0  0  0  0  0  0  0
   -2.7251    0.2564    1.4672 C   0  0  0  0  0  0  0  0  0  0  0  0
   -2.7161   -0.8382    1.4827 H   0  0  0  0  0  0  0  0  0  0  0  0
   -3.7472    0.5703    1.2341 H   0  0  0  0  0  0  0  0  0  0  0  0
   -2.3032    0.7824    2.7799 N   0  3  0  0  0  0  0  0  0  0  0  0
   -1.4731    0.3393    3.1834 H   0  0  0  0  0  0  0  0  0  0  0  0
   -2.8393    1.7955    3.3947 C   0  0  0  0  0  0  0  0  0  0  0  0
   -3.9474    2.4492    2.9063 N   0  0  0  0  0  0  0  0  0  0  0  0
   -4.4530    2.0212    2.1343 H   0  0  0  0  0  0  0  0  0  0  0  0
   -4.4585    3.0731    3.5277 H   0  0  0  0  0  0  0  0  0  0  0  0
   -2.2787    2.2348    4.5696 N   0  0  0  0  0  0  0  0  0  0  0  0
   -1.3486    1.8978    4.8130 H   0  0  0  0  0  0  0  0  0  0  0  0
   -2.5565    3.1484    4.9235 H   0  0  0  0  0  0  0  0  0  0  0  0
    0.1523   -1.4447    1.7958 C   0  0  0  0  0  0  0  0  0  0  0  0
    1.1925   -0.8129    1.9077 O   0  0  0  0  0  0  0  0  0  0  0  0
   -0.6366   -1.5350    2.9317 N   0  0  0  0  0  0  0  0  0  0  0  0
   -1.4002   -2.1982    2.8120 H   0  0  0  0  0  0  0  0  0  0  0  0
   -0.0225   -1.5031    4.2588 C   0  0  0  0  0  0  0  0  0  0  0  0
    0.4744   -0.5439    4.4388 H   0  0  0  0  0  0  0  0  0  0  0  0
   -0.7821   -1.6488    5.0334 H   0  0  0  0  0  0  0  0  0  0  0  0
    0.7222   -2.3021    4.3522 H   0  0  0  0  0  0  0  0  0  0  0  0
  1  2  1  0  0  0  0
  2  3  1  0  0  0  0
  2  4  1  0  0  0  0
  2  5  1  0  0  0  0
  5  6  2  0  0  0  0
  5  7  1  0  0  0  0
  7  8  1  0  0  0  0
  7  9  1  0  0  0  0
  9 10  1  0  0  0  0
  9 11  1  0  0  0  0
  9 29  1  0  0  0  0
 11 12  1  0  0  0  0
 11 13  1  0  0  0  0
 11 14  1  0  0  0  0
 14 15  1  0  0  0  0
 14 16  1  0  0  0  0
 14 17  1  0  0  0  0
 17 18  1  0  0  0  0
 17 19  1  0  0  0  0
 17 20  1  0  0  0  0
 20 21  1  0  0  0  0
 20 22  2  0  0  0  0
 22 23  1  0  0  0  0
 22 26  1  0  0  0  0
 23 24  1  0  0  0  0
 23 25  1  0  0  0  0
 26 27  1  0  0  0  0
 26 28  1  0  0  0  0
 29 30  2  0  0  0  0
 29 31  1  0  0  0  0
 31 32  1  0  0  0  0
 31 33  1  0  0  0  0
 33 34  1  0  0  0  0
 33 35  1  0  0  0  0
 33 36  1  0  0  0  0
M  CHG  1  20   1
M  END
$$$$

  -OEChem-04042215563D

 36 35  0     1  0  0  0  0  0999 V2000
   -1.6592   -6.0384   -0.1774 H   0  0  0  0  0  0  0  0  0  0  0  0
   -2.0302   -5.0298   -0.3819 C   0  0  0  0  0  0  0  0  0  0  0  0
   -3.0474   -4.9447    0.0072 H   0  0  0  0  0  0  0  0  0  0  0  0
   -2.0456   -4.8763   -1.4636 H   0  0  0  0  0  0  0  0  0  0  0  0
   -1.1305   -4.0015    0.2761 C   0  0  0  0  0  0  0  0  0  0  0  0
   -0.1764   -4.3618    0.9412 O   0  0  0  0  0  0  0  0  0  0  0  0
   -1.4200   -2.6522    0.1683 N   0  0  0  0  0  0  0  0  0  0  0  0
   -2.1632   -2.4232   -0.4868 H   0  0  0  0  0  0  0  0  0  0  0  0
   -0.4554   -1.5833    0.5002 C   0  0  1  0  0  0  0  0  0  0  0  0
    0.4546   -1.8841   -0.0340 H   0  0  0  0  0  0  0  0  0  0  0  0
   -0.8034   -0.2241   -0.1685 C   0  0  0  0  0  0  0  0  0  0  0  0
    0.1548    0.2673   -0.3723 H   0  0  0  0  0  0  0  0  0  0  0  0
   -1.2365   -0.4575   -1.1472 H   0  0  0  0  0  0  0  0  0  0  0  0
   -1.7000    0.8578    0.4801 C   0  0  0  0  0  0  0  0  0  0  0  0
   -1.0692    1.7148    0.7439 H   0  0  0  0  0  0  0  0  0  0  0  0
   -2.3819    1.2147   -0.2995 H   0  0  0  0  0  0  0  0  0  0  0  0
   -2.5556    0.4713    1.6822 C   0  0  0  0  0  0  0  0  0  0  0  0
   -2.7850   -0.5994    1.6556 H   0  0  0  0  0  0  0  0  0  0  0  0
   -3.5037    1.0172    1.6571 H   0  0  0  0  0  0  0  0  0  0  0  0
   -1.7888    0.8207    2.8946 N   0  3  0  0  0  0  0  0  0  0  0  0
   -0.9876    0.2130    3.0958 H   0  0  0  0  0  0  0  0  0  0  0  0
   -1.9653    1.8716    3.6373 C   0  0  0  0  0  0  0  0  0  0  0  0
   -3.0054    2.7498    3.4379 N   0  0  0  0  0  0  0  0  0  0  0  0
   -3.7575    2.4606    2.8171 H   0  0  0  0  0  0  0  0  0  0  0  0
   -3.2245    3.4158    4.1760 H   0  0  0  0  0  0  0  0  0  0  0  0
   -1.0702    2.1145    4.6505 N   0  0  0  0  0  0  0  0  0  0  0  0
   -0.1911    1.5978    4.6385 H   0  0  0  0  0  0  0  0  0  0  0  0
   -1.0646    3.0403    5.0738 H   0  0  0  0  0  0  0  0  0  0  0  0
    0.0260   -1.6223    1.9727 C   0  0  0  0  0  0  0  0  0  0  0  0
    0.9822   -0.9255    2.2854 O   0  0  0  0  0  0  0  0  0  0  0  0
   -0.8892   -1.8272    2.9928 N   0  0  0  0  0  0  0  0  0  0  0  0
   -1.6460   -2.4485    2.7123 H   0  0  0  0  0  0  0  0  0  0  0  0
   -0.4518   -1.9506    4.3831 C   0  0  0  0  0  0  0  0  0  0  0  0
    0.0238   -1.0284    4.7318 H   0  0  0  0  0  0  0  0  0  0  0  0
   -1.3081   -2.1602    5.0321 H   0  0  0  0  0  0  0  0  0  0  0  0
    0.2667   -2.7719    4.4843 H   0  0  0  0  0  0  0  0  0  0  0  0
  1  2  1  0  0  0  0
  2  3  1  0  0  0  0
  2  4  1  0  0  0  0
  2  5  1  0  0  0  0
  5  6  2  0  0  0  0
  5  7  1  0  0  0  0
  7  8  1  0  0  0  0
  7  9  1  0  0  0  0
  9 10  1  0  0  0  0
  9 11  1  0  0  0  0
  9 29  1  0  0  0  0
 11 12  1  0  0  0  0
 11 13  1  0  0  0  0
 11 14  1  0  0  0  0
 14 15  1  0  0  0  0
 14 16  1  0  0  0  0
 14 17  1  0  0  0  0
 17 18  1  0  0  0  0
 17 19  1  0  0  0  0
 17 20  1  0  0  0  0
 20 21  1  0  0  0  0
 20 22  2  0  0  0  0
 22 23  1  0  0  0  0
 22 26  1  0  0  0  0
 23 24  1  0  0  0  0
 23 25  1  0  0  0  0
 26 27  1  0  0  0  0
 26 28  1  0  0  0  0
 29 30  2  0  0  0  0
 29 31  1  0  0  0  0
 31 32  1  0  0  0  0
 31 33  1  0  0  0  0
 33 34  1  0  0  0  0
 33 35  1  0  0  0  0
 33 36  1  0  0  0  0
M  CHG  1  20   1
M  END
$$$$

  -OEChem-04042215563D

 36 35  0     1  0  0  0  0  0999 V2000
   -1.1283   -6.1499   -0.0875 H   0  0  0  0  0  0  0  0  0  0  0  0
   -1.5507   -5.1638   -0.3026 C   0  0  0  0  0  0  0  0  0  0  0  0
   -2.6027   -5.1604   -0.0080 H   0  0  0  0  0  0  0  0  0  0  0  0
   -1.4788   -4.9805   -1.3775 H   0  0  0  0  0  0  0  0  0  0  0  0
   -0.7919   -4.0950    0.4603 C   0  0  0  0  0  0  0  0  0  0  0  0
    0.0952   -4.4074    1.2341 O   0  0  0  0  0  0  0  0  0  0  0  0
   -1.1360   -2.7619    0.3223 N   0  0  0  0  0  0  0  0  0  0  0  0
   -1.8205   -2.5586   -0.4017 H   0  0  0  0  0  0  0  0  0  0  0  0
   -0.2921   -1.6503    0.8020 C   0  0  1  0  0  0  0  0  0  0  0  0
    0.6982   -1.9344    0.4230 H   0  0  0  0  0  0  0  0  0  0  0  0
   -0.5282   -0.3139    0.0417 C   0  0  0  0  0  0  0  0  0  0  0  0
    0.4413    0.1977    0.0421 H   0  0  0  0  0  0  0  0  0  0  0  0
   -0.7312   -0.5698   -1.0038 H   0  0  0  0  0  0  0  0  0  0  0  0
   -1.5651    0.7582    0.4607 C   0  0  0  0  0  0  0  0  0  0  0  0
   -1.0122    1.6942    0.5976 H   0  0  0  0  0  0  0  0  0  0  0  0
   -2.2476    0.9271   -0.3793 H   0  0  0  0  0  0  0  0  0  0  0  0
   -2.4165    0.4961    1.7013 C   0  0  0  0  0  0  0  0  0  0  0  0
   -3.3877    0.0919    1.3956 H   0  0  0  0  0  0  0  0  0  0  0  0
   -1.9496   -0.2410    2.3349 H   0  0  0  0  0  0  0  0  0  0  0  0
   -2.5967    1.7285    2.4923 N   0  3  0  0  0  0  0  0  0  0  0  0
   -3.4952    2.2026    2.4126 H   0  0  0  0  0  0  0  0  0  0  0  0
   -1.7059    2.1887    3.3287 C   0  0  0  0  0  0  0  0  0  0  0  0
   -0.4719    1.6024    3.5122 N   0  0  0  0  0  0  0  0  0  0  0  0
   -0.2591    0.7011    3.0725 H   0  0  0  0  0  0  0  0  0  0  0  0
    0.1262    1.9070    4.2760 H   0  0  0  0  0  0  0  0  0  0  0  0
   -1.9927    3.3193    4.0554 N   0  0  0  0  0  0  0  0  0  0  0  0
   -2.8096    3.8724    3.8056 H   0  0  0  0  0  0  0  0  0  0  0  0
   -1.2338    3.7814    4.5529 H   0  0  0  0  0  0  0  0  0  0  0  0
   -0.0004   -1.6419    2.3257 C   0  0  0  0  0  0  0  0  0  0  0  0
    0.8704   -0.8748    2.7197 O   0  0  0  0  0  0  0  0  0  0  0  0
   -1.0085   -1.8878    3.2440 N   0  0  0  0  0  0  0  0  0  0  0  0
   -1.6920   -2.5671    2.9146 H   0  0  0  0  0  0  0  0  0  0  0  0
   -0.7637   -1.8654    4.6849 C   0  0  0  0  0  0  0  0  0  0  0  0
   -0.5036   -0.8581    5.0243 H   0  0  0  0  0  0  0  0  0  0  0  0
   -1.6602   -2.1865    5.2250 H   0  0  0  0  0  0  0  0  0  0  0  0
    0.0564   -2.5446    4.9432 H   0  0  0  0  0  0  0  0  0  0  0  0
  1  2  1  0  0  0  0
  2  3  1  0  0  0  0
  2  4  1  0  0  0  0
  2  5  1  0  0  0  0
  5  6  2  0  0  0  0
  5  7  1  0  0  0  0
  7  8  1  0  0  0  0
  7  9  1  0  0  0  0
  9 10  1  0  0  0  0
  9 11  1  0  0  0  0
  9 29  1  0  0  0  0
 11 12  1  0  0  0  0
 11 13  1  0  0  0  0
 11 14  1  0  0  0  0
 14 15  1  0  0  0  0
 14 16  1  0  0  0  0
 14 17  1  0  0  0  0
 17 18  1  0  0  0  0
 17 19  1  0  0  0  0
 17 20  1  0  0  0  0
 20 21  1  0  0  0  0
 20 22  2  0  0  0  0
 22 23  1  0  0  0  0
 22 26  1  0  0  0  0
 23 24  1  0  0  0  0
 23 25  1  0  0  0  0
 26 27  1  0  0  0  0
 26 28  1  0  0  0  0
 29 30  2  0  0  0  0
 29 31  1  0  0  0  0
 31 32  1  0  0  0  0
 31 33  1  0  0  0  0
 33 34  1  0  0  0  0
 33 35  1  0  0  0  0
 33 36  1  0  0  0  0
M  CHG  1  20   1
M  END
$$$$

  -OEChem-04042215563D

 36 35  0     1  0  0  0  0  0999 V2000
   -2.2550   -5.6370   -0.8756 H   0  0  0  0  0  0  0  0  0  0  0  0
   -2.5331   -4.5792   -0.8498 C   0  0  0  0  0  0  0  0  0  0  0  0
   -3.5153   -4.4854   -0.3806 H   0  0  0  0  0  0  0  0  0  0  0  0
   -2.5882   -4.2083   -1.8763 H   0  0  0  0  0  0  0  0  0  0  0  0
   -1.5024   -3.7900   -0.0659 C   0  0  0  0  0  0  0  0  0  0  0  0
   -0.5796   -4.3649    0.4827 O   0  0  0  0  0  0  0  0  0  0  0  0
   -1.6208   -2.4168    0.0593 N   0  0  0  0  0  0  0  0  0  0  0  0
   -2.3578   -1.9862   -0.4931 H   0  0  0  0  0  0  0  0  0  0  0  0
   -0.5382   -1.5485    0.5616 C   0  0  1  0  0  0  0  0  0  0  0  0
    0.3315   -1.8848   -0.0170 H   0  0  0  0  0  0  0  0  0  0  0  0
   -0.6790   -0.0697    0.0971 C   0  0  0  0  0  0  0  0  0  0  0  0
    0.3517    0.2971    0.0314 H   0  0  0  0  0  0  0  0  0  0  0  0
   -1.0605   -0.0786   -0.9295 H   0  0  0  0  0  0  0  0  0  0  0  0
   -1.4461    1.0353    0.8682 C   0  0  0  0  0  0  0  0  0  0  0  0
   -0.8518    1.9530    0.7917 H   0  0  0  0  0  0  0  0  0  0  0  0
   -2.3822    1.2295    0.3337 H   0  0  0  0  0  0  0  0  0  0  0  0
   -1.8179    0.7857    2.3295 C   0  0  0  0  0  0  0  0  0  0  0  0
   -2.8752    0.5085    2.4053 H   0  0  0  0  0  0  0  0  0  0  0  0
   -1.2317   -0.0258    2.7340 H   0  0  0  0  0  0  0  0  0  0  0  0
   -1.5235    1.9777    3.1447 N   0  3  0  0  0  0  0  0  0  0  0  0
   -2.2199    2.7215    3.1551 H   0  0  0  0  0  0  0  0  0  0  0  0
   -0.4108    2.1260    3.8113 C   0  0  0  0  0  0  0  0  0  0  0  0
    0.5872    1.1738    3.8281 N   0  0  0  0  0  0  0  0  0  0  0  0
    1.5108    1.4242    4.1720 H   0  0  0  0  0  0  0  0  0  0  0  0
    0.5212    0.3577    3.2096 H   0  0  0  0  0  0  0  0  0  0  0  0
   -0.2090    3.2810    4.5285 N   0  0  0  0  0  0  0  0  0  0  0  0
   -0.9964    3.9072    4.6823 H   0  0  0  0  0  0  0  0  0  0  0  0
    0.5607    3.3068    5.1948 H   0  0  0  0  0  0  0  0  0  0  0  0
   -0.0693   -1.8745    2.0016 C   0  0  0  0  0  0  0  0  0  0  0  0
    0.9662   -1.3405    2.3862 O   0  0  0  0  0  0  0  0  0  0  0  0
   -1.0048   -2.1266    2.9929 N   0  0  0  0  0  0  0  0  0  0  0  0
   -1.8338   -2.6113    2.6549 H   0  0  0  0  0  0  0  0  0  0  0  0
   -0.6184   -2.3807    4.3788 C   0  0  0  0  0  0  0  0  0  0  0  0
   -0.1649   -1.4913    4.8273 H   0  0  0  0  0  0  0  0  0  0  0  0
   -1.4973   -2.6524    4.9720 H   0  0  0  0  0  0  0  0  0  0  0  0
    0.1005   -3.2061    4.4303 H   0  0  0  0  0  0  0  0  0  0  0  0
  1  2  1  0  0  0  0
  2  3  1  0  0  0  0
  2  4  1  0  0  0  0
  2  5  1  0  0  0  0
  5  6  2  0  0  0  0
  5  7  1  0  0  0  0
  7  8  1  0  0  0  0
  7  9  1  0  0  0  0
  9 10  1  0  0  0  0
  9 11  1  0  0  0  0
  9 29  1  0  0  0  0
 11 12  1  0  0  0  0
 11 13  1  0  0  0  0
 11 14  1  0  0  0  0
 14 15  1  0  0  0  0
 14 16  1  0  0  0  0
 14 17  1  0  0  0  0
 17 18  1  0  0  0  0
 17 19  1  0  0  0  0
 17 20  1  0  0  0  0
 20 21  1  0  0  0  0
 20 22  2  0  0  0  0
 22 23  1  0  0  0  0
 22 26  1  0  0  0  0
 23 24  1  0  0  0  0
 23 25  1  0  0  0  0
 26 27  1  0  0  0  0
 26 28  1  0  0  0  0
 29 30  2  0  0  0  0
 29 31  1  0  0  0  0
 31 32  1  0  0  0  0
 31 33  1  0  0  0  0
 33 34  1  0  0  0  0
 33 35  1  0  0  0  0
 33 36  1  0  0  0  0
M  CHG  1  20   1
M  END
$$$$

  -OEChem-04042215563D

 36 35  0     1  0  0  0  0  0999 V2000
   -4.0351   -4.6575    0.6806 H   0  0  0  0  0  0  0  0  0  0  0  0
   -3.7836   -3.6560    0.3189 C   0  0  0  0  0  0  0  0  0  0  0  0
   -4.5095   -2.9454    0.7206 H   0  0  0  0  0  0  0  0  0  0  0  0
   -3.8451   -3.6544   -0.7720 H   0  0  0  0  0  0  0  0  0  0  0  0
   -2.3825   -3.2803    0.7614 C   0  0  0  0  0  0  0  0  0  0  0  0
   -1.7360   -4.0475    1.4509 O   0  0  0  0  0  0  0  0  0  0  0  0
   -1.8602   -2.0396    0.4390 N   0  0  0  0  0  0  0  0  0  0  0  0
   -2.4195   -1.5114   -0.2255 H   0  0  0  0  0  0  0  0  0  0  0  0
   -0.4108   -1.7515    0.4599 C   0  0  1  0  0  0  0  0  0  0  0  0
    0.0223   -2.5815   -0.1130 H   0  0  0  0  0  0  0  0  0  0  0  0
   -0.0670   -0.5184   -0.4201 C   0  0  0  0  0  0  0  0  0  0  0  0
    0.9545   -0.7096   -0.7688 H   0  0  0  0  0  0  0  0  0  0  0  0
   -0.7022   -0.5471   -1.3116 H   0  0  0  0  0  0  0  0  0  0  0  0
   -0.0399    0.9427    0.0927 C   0  0  0  0  0  0  0  0  0  0  0  0
    0.6776    1.4889   -0.5300 H   0  0  0  0  0  0  0  0  0  0  0  0
   -1.0192    1.3910   -0.1028 H   0  0  0  0  0  0  0  0  0  0  0  0
    0.3315    1.1974    1.5539 C   0  0  0  0  0  0  0  0  0  0  0  0
    0.9804    2.0800    1.5824 H   0  0  0  0  0  0  0  0  0  0  0  0
    0.9147    0.3557    1.9381 H   0  0  0  0  0  0  0  0  0  0  0  0
   -0.8477    1.4665    2.3986 N   0  3  0  0  0  0  0  0  0  0  0  0
   -1.7518    1.5372    1.9365 H   0  0  0  0  0  0  0  0  0  0  0  0
   -0.7552    1.6816    3.6795 C   0  0  0  0  0  0  0  0  0  0  0  0
    0.4499    1.5862    4.3378 N   0  0  0  0  0  0  0  0  0  0  0  0
    1.2092    1.1174    3.8441 H   0  0  0  0  0  0  0  0  0  0  0  0
    0.4465    1.5376    5.3540 H   0  0  0  0  0  0  0  0  0  0  0  0
   -1.8783    2.0096    4.4010 N   0  0  0  0  0  0  0  0  0  0  0  0
   -2.7157    2.2889    3.8942 H   0  0  0  0  0  0  0  0  0  0  0  0
   -1.7523    2.3757    5.3432 H   0  0  0  0  0  0  0  0  0  0  0  0
    0.2797   -1.9459    1.8313 C   0  0  0  0  0  0  0  0  0  0  0  0
    1.4916   -2.1061    1.8546 O   0  0  0  0  0  0  0  0  0  0  0  0
   -0.3114   -1.4748    2.9918 N   0  0  0  0  0  0  0  0  0  0  0  0
   -1.3264   -1.5079    2.9410 H   0  0  0  0  0  0  0  0  0  0  0  0
    0.2796   -1.7968    4.2894 C   0  0  0  0  0  0  0  0  0  0  0  0
    0.3623   -2.8829    4.4111 H   0  0  0  0  0  0  0  0  0  0  0  0
   -0.3437   -1.4066    5.0994 H   0  0  0  0  0  0  0  0  0  0  0  0
    1.2800   -1.3612    4.3821 H   0  0  0  0  0  0  0  0  0  0  0  0
  1  2  1  0  0  0  0
  2  3  1  0  0  0  0
  2  4  1  0  0  0  0
  2  5  1  0  0  0  0
  5  6  2  0  0  0  0
  5  7  1  0  0  0  0
  7  8  1  0  0  0  0
  7  9  1  0  0  0  0
  9 10  1  0  0  0  0
  9 11  1  0  0  0  0
  9 29  1  0  0  0  0
 11 12  1  0  0  0  0
 11 13  1  0  0  0  0
 11 14  1  0  0  0  0
 14 15  1  0  0  0  0
 14 16  1  0  0  0  0
 14 17  1  0  0  0  0
 17 18  1  0  0  0  0
 17 19  1  0  0  0  0
 17 20  1  0  0  0  0
 20 21  1  0  0  0  0
 20 22  2  0  0  0  0
 22 23  1  0  0  0  0
 22 26  1  0  0  0  0
 23 24  1  0  0  0  0
 23 25  1  0  0  0  0
 26 27  1  0  0  0  0
 26 28  1  0  0  0  0
 29 30  2  0  0  0  0
 29 31  1  0  0  0  0
 31 32  1  0  0  0  0
 31 33  1  0  0  0  0
 33 34  1  0  0  0  0
 33 35  1  0  0  0  0
 33 36  1  0  0  0  0
M  CHG  1  20   1
M  END
$$$$

  -OEChem-04042215563D

 36 35  0     1  0  0  0  0  0999 V2000
   -1.9216   -5.7195   -0.3707 H   0  0  0  0  0  0  0  0  0  0  0  0
   -2.1910   -4.6704   -0.5241 C   0  0  0  0  0  0  0  0  0  0  0  0
   -3.1989   -4.5079   -0.1348 H   0  0  0  0  0  0  0  0  0  0  0  0
   -2.1819   -4.4598   -1.5963 H   0  0  0  0  0  0  0  0  0  0  0  0
   -1.2011   -3.7706    0.1906 C   0  0  0  0  0  0  0  0  0  0  0  0
   -0.2439   -4.2532    0.7687 O   0  0  0  0  0  0  0  0  0  0  0  0
   -1.3913   -2.3998    0.2086 N   0  0  0  0  0  0  0  0  0  0  0  0
   -2.1482   -2.0483   -0.3722 H   0  0  0  0  0  0  0  0  0  0  0  0
   -0.3782   -1.4399    0.6902 C   0  0  1  0  0  0  0  0  0  0  0  0
    0.5376   -1.7031    0.1469 H   0  0  0  0  0  0  0  0  0  0  0  0
   -0.7190   -0.0040    0.1961 C   0  0  0  0  0  0  0  0  0  0  0  0
    0.2466    0.5010    0.0854 H   0  0  0  0  0  0  0  0  0  0  0  0
   -1.1408   -0.0832   -0.8117 H   0  0  0  0  0  0  0  0  0  0  0  0
   -1.6056    0.9783    1.0027 C   0  0  0  0  0  0  0  0  0  0  0  0
   -1.5681    1.9597    0.5166 H   0  0  0  0  0  0  0  0  0  0  0  0
   -2.6354    0.6204    0.9012 H   0  0  0  0  0  0  0  0  0  0  0  0
   -1.3534    1.1370    2.5112 C   0  0  0  0  0  0  0  0  0  0  0  0
   -0.7282    0.3446    2.9098 H   0  0  0  0  0  0  0  0  0  0  0  0
   -2.3138    1.0841    3.0355 H   0  0  0  0  0  0  0  0  0  0  0  0
   -0.7170    2.4384    2.7975 N   0  3  0  0  0  0  0  0  0  0  0  0
   -1.3405    3.2356    2.9139 H   0  0  0  0  0  0  0  0  0  0  0  0
    0.5680    2.6245    2.9209 C   0  0  0  0  0  0  0  0  0  0  0  0
    1.4933    1.6207    2.7548 N   0  0  0  0  0  0  0  0  0  0  0  0
    1.1766    0.6471    2.6989 H   0  0  0  0  0  0  0  0  0  0  0  0
    2.4685    1.7861    2.9883 H   0  0  0  0  0  0  0  0  0  0  0  0
    1.0326    3.8852    3.2113 N   0  0  0  0  0  0  0  0  0  0  0  0
    0.3757    4.6034    3.5086 H   0  0  0  0  0  0  0  0  0  0  0  0
    2.0192    4.0076    3.4311 H   0  0  0  0  0  0  0  0  0  0  0  0
    0.0175   -1.6576    2.1667 C   0  0  0  0  0  0  0  0  0  0  0  0
    1.0747   -1.1745    2.5578 O   0  0  0  0  0  0  0  0  0  0  0  0
   -0.9648   -1.8883    3.1150 N   0  0  0  0  0  0  0  0  0  0  0  0
   -1.7893   -2.3643    2.7558 H   0  0  0  0  0  0  0  0  0  0  0  0
   -0.6492   -2.0762    4.5284 C   0  0  0  0  0  0  0  0  0  0  0  0
   -0.2288   -1.1609    4.9577 H   0  0  0  0  0  0  0  0  0  0  0  0
   -1.5543   -2.3337    5.0876 H   0  0  0  0  0  0  0  0  0  0  0  0
    0.0757   -2.8882    4.6539 H   0  0  0  0  0  0  0  0  0  0  0  0
  1  2  1  0  0  0  0
  2  3  1  0  0  0  0
  2  4  1  0  0  0  0
  2  5  1  0  0  0  0
  5  6  2  0  0  0  0
  5  7  1  0  0  0  0
  7  8  1  0  0  0  0
  7  9  1  0  0  0  0
  9 10  1  0  0  0  0
  9 11  1  0  0  0  0
  9 29  1  0  0  0  0
 11 12  1  0  0  0  0
 11 13  1  0  0  0  0
 11 14  1  0  0  0  0
 14 15  1  0  0  0  0
 14 16  1  0  0  0  0
 14 17  1  0  0  0  0
 17 18  1  0  0  0  0
 17 19  1  0  0  0  0
 17 20  1  0  0  0  0
 20 21  1  0  0  0  0
 20 22  2  0  0  0  0
 22 23  1  0  0  0  0
 22 26  1  0  0  0  0
 23 24  1  0  0  0  0
 23 25  1  0  0  0  0
 26 27  1  0  0  0  0
 26 28  1  0  0  0  0
 29 30  2  0  0  0  0
 29 31  1  0  0  0  0
 31 32  1  0  0  0  0
 31 33  1  0  0  0  0
 33 34  1  0  0  0  0
 33 35  1  0  0  0  0
 33 36  1  0  0  0  0
M  CHG  1  20   1
M  END
$$$$

  -OEChem-04042215563D

 36 35  0     1  0  0  0  0  0999 V2000
   -1.8171   -5.6057   -0.3482 H   0  0  0  0  0  0  0  0  0  0  0  0
   -2.0949   -4.5616   -0.5196 C   0  0  0  0  0  0  0  0  0  0  0  0
   -3.1033   -4.3997   -0.1315 H   0  0  0  0  0  0  0  0  0  0  0  0
   -2.0892   -4.3697   -1.5954 H   0  0  0  0  0  0  0  0  0  0  0  0
   -1.1113   -3.6409    0.1771 C   0  0  0  0  0  0  0  0  0  0  0  0
   -0.1352   -4.1023    0.7403 O   0  0  0  0  0  0  0  0  0  0  0  0
   -1.3255   -2.2738    0.1886 N   0  0  0  0  0  0  0  0  0  0  0  0
   -2.0966   -1.9391   -0.3833 H   0  0  0  0  0  0  0  0  0  0  0  0
   -0.3308   -1.2923    0.6650 C   0  0  1  0  0  0  0  0  0  0  0  0
    0.5888   -1.5055    0.1068 H   0  0  0  0  0  0  0  0  0  0  0  0
   -0.7683    0.1323    0.2209 C   0  0  0  0  0  0  0  0  0  0  0  0
    0.1513    0.7060    0.0648 H   0  0  0  0  0  0  0  0  0  0  0  0
   -1.2513    0.0522   -0.7589 H   0  0  0  0  0  0  0  0  0  0  0  0
   -1.6732    0.9956    1.1311 C   0  0  0  0  0  0  0  0  0  0  0  0
   -1.9385    1.9152    0.5982 H   0  0  0  0  0  0  0  0  0  0  0  0
   -2.6037    0.4370    1.2777 H   0  0  0  0  0  0  0  0  0  0  0  0
   -1.1335    1.3540    2.5273 C   0  0  0  0  0  0  0  0  0  0  0  0
   -1.9850    1.4694    3.2069 H   0  0  0  0  0  0  0  0  0  0  0  0
   -0.5045    0.5696    2.9423 H   0  0  0  0  0  0  0  0  0  0  0  0
   -0.3938    2.6323    2.4785 N   0  3  0  0  0  0  0  0  0  0  0  0
   -0.9593    3.4793    2.4636 H   0  0  0  0  0  0  0  0  0  0  0  0
    0.9027    2.7561    2.5476 C   0  0  0  0  0  0  0  0  0  0  0  0
    1.7642    1.6877    2.6046 N   0  0  0  0  0  0  0  0  0  0  0  0
    1.3857    0.7384    2.6844 H   0  0  0  0  0  0  0  0  0  0  0  0
    2.7326    1.8336    2.8775 H   0  0  0  0  0  0  0  0  0  0  0  0
    1.4506    4.0165    2.5607 N   0  0  0  0  0  0  0  0  0  0  0  0
    0.8599    4.8141    2.3360 H   0  0  0  0  0  0  0  0  0  0  0  0
    2.4549    4.1072    2.4184 H   0  0  0  0  0  0  0  0  0  0  0  0
    0.0643   -1.4998    2.1433 C   0  0  0  0  0  0  0  0  0  0  0  0
    1.1375   -1.0526    2.5321 O   0  0  0  0  0  0  0  0  0  0  0  0
   -0.9147   -1.7431    3.0910 N   0  0  0  0  0  0  0  0  0  0  0  0
   -1.7458   -2.2071    2.7317 H   0  0  0  0  0  0  0  0  0  0  0  0
   -0.5990   -1.9306    4.5043 C   0  0  0  0  0  0  0  0  0  0  0  0
   -0.1494   -1.0250    4.9246 H   0  0  0  0  0  0  0  0  0  0  0  0
   -1.5092   -2.1550    5.0692 H   0  0  0  0  0  0  0  0  0  0  0  0
    0.1015   -2.7631    4.6330 H   0  0  0  0  0  0  0  0  0  0  0  0
  1  2  1  0  0  0  0
  2  3  1  0  0  0  0
  2  4  1  0  0  0  0
  2  5  1  0  0  0  0
  5  6  2  0  0  0  0
  5  7  1  0  0  0  0
  7  8  1  0  0  0  0
  7  9  1  0  0  0  0
  9 10  1  0  0  0  0
  9 11  1  0  0  0  0
  9 29  1  0  0  0  0
 11 12  1  0  0  0  0
 11 13  1  0  0  0  0
 11 14  1  0  0  0  0
 14 15  1  0  0  0  0
 14 16  1  0  0  0  0
 14 17  1  0  0  0  0
 17 18  1  0  0  0  0
 17 19  1  0  0  0  0
 17 20  1  0  0  0  0
 20 21  1  0  0  0  0
 20 22  2  0  0  0  0
 22 23  1  0  0  0  0
 22 26  1  0  0  0  0
 23 24  1  0  0  0  0
 23 25  1  0  0  0  0
 26 27  1  0  0  0  0
 26 28  1  0  0  0  0
 29 30  2  0  0  0  0
 29 31  1  0  0  0  0
 31 32  1  0  0  0  0
 31 33  1  0  0  0  0
 33 34  1  0  0  0  0
 33 35  1  0  0  0  0
 33 36  1  0  0  0  0
M  CHG  1  20   1
M  END
$$$$

  -OEChem-04042215563D

 36 35  0     1  0  0  0  0  0999 V2000
   -2.7834   -5.2551    1.2698 H   0  0  0  0  0  0  0  0  0  0  0  0
   -2.8338   -4.3239    0.6978 C   0  0  0  0  0  0  0  0  0  0  0  0
   -3.7305   -3.7765    0.9973 H   0  0  0  0  0  0  0  0  0  0  0  0
   -2.9027   -4.5705   -0.3646 H   0  0  0  0  0  0  0  0  0  0  0  0
   -1.5975   -3.4848    0.9583 C   0  0  0  0  0  0  0  0  0  0  0  0
   -0.7434   -3.8826    1.7298 O   0  0  0  0  0  0  0  0  0  0  0  0
   -1.4558   -2.2524    0.3431 N   0  0  0  0  0  0  0  0  0  0  0  0
   -2.1480   -2.0469   -0.3733 H   0  0  0  0  0  0  0  0  0  0  0  0
   -0.1873   -1.4931    0.3000 C   0  0  1  0  0  0  0  0  0  0  0  0
    0.5715   -2.1604   -0.1261 H   0  0  0  0  0  0  0  0  0  0  0  0
   -0.3422   -0.3054   -0.6910 C   0  0  0  0  0  0  0  0  0  0  0  0
    0.6355   -0.1306   -1.1542 H   0  0  0  0  0  0  0  0  0  0  0  0
   -1.0127   -0.6162   -1.4994 H   0  0  0  0  0  0  0  0  0  0  0  0
   -0.8452    1.0419   -0.1384 C   0  0  0  0  0  0  0  0  0  0  0  0
   -1.1673    1.6875   -0.9626 H   0  0  0  0  0  0  0  0  0  0  0  0
   -1.7135    0.8663    0.5044 H   0  0  0  0  0  0  0  0  0  0  0  0
    0.2805    1.7411    0.6379 C   0  0  0  0  0  0  0  0  0  0  0  0
    1.0575    1.0108    0.8711 H   0  0  0  0  0  0  0  0  0  0  0  0
    0.7402    2.4851   -0.0224 H   0  0  0  0  0  0  0  0  0  0  0  0
   -0.1673    2.4066    1.8738 N   0  3  0  0  0  0  0  0  0  0  0  0
   -1.0287    2.9475    1.8309 H   0  0  0  0  0  0  0  0  0  0  0  0
    0.5813    2.4668    2.9400 C   0  0  0  0  0  0  0  0  0  0  0  0
    1.7669    1.7723    3.0437 N   0  0  0  0  0  0  0  0  0  0  0  0
    1.8482    0.9261    2.4675 H   0  0  0  0  0  0  0  0  0  0  0  0
    2.2188    1.7358    3.9531 H   0  0  0  0  0  0  0  0  0  0  0  0
    0.1910    3.2545    3.9966 N   0  0  0  0  0  0  0  0  0  0  0  0
   -0.5639    3.9211    3.8505 H   0  0  0  0  0  0  0  0  0  0  0  0
    0.8811    3.4691    4.7139 H   0  0  0  0  0  0  0  0  0  0  0  0
    0.3083   -1.1641    1.7327 C   0  0  0  0  0  0  0  0  0  0  0  0
    1.4932   -0.9268    1.9452 O   0  0  0  0  0  0  0  0  0  0  0  0
   -0.6039   -0.6984    2.6659 N   0  0  0  0  0  0  0  0  0  0  0  0
   -1.5610   -0.9358    2.4152 H   0  0  0  0  0  0  0  0  0  0  0  0
   -0.3014   -0.7561    4.0948 C   0  0  0  0  0  0  0  0  0  0  0  0
    0.6921   -0.3569    4.3177 H   0  0  0  0  0  0  0  0  0  0  0  0
   -1.0369   -0.1743    4.6591 H   0  0  0  0  0  0  0  0  0  0  0  0
   -0.3371   -1.7943    4.4434 H   0  0  0  0  0  0  0  0  0  0  0  0
  1  2  1  0  0  0  0
  2  3  1  0  0  0  0
  2  4  1  0  0  0  0
  2  5  1  0  0  0  0
  5  6  2  0  0  0  0
  5  7  1  0  0  0  0
  7  8  1  0  0  0  0
  7  9  1  0  0  0  0
  9 10  1  0  0  0  0
  9 11  1  0  0  0  0
  9 29  1  0  0  0  0
 11 12  1  0  0  0  0
 11 13  1  0  0  0  0
 11 14  1  0  0  0  0
 14 15  1  0  0  0  0
 14 16  1  0  0  0  0
 14 17  1  0  0  0  0
 17 18  1  0  0  0  0
 17 19  1  0  0  0  0
 17 20  1  0  0  0  0
 20 21  1  0  0  0  0
 20 22  2  0  0  0  0
 22 23  1  0  0  0  0
 22 26  1  0  0  0  0
 23 24  1  0  0  0  0
 23 25  1  0  0  0  0
 26 27  1  0  0  0  0
 26 28  1  0  0  0  0
 29 30  2  0  0  0  0
 29 31  1  0  0  0  0
 31 32  1  0  0  0  0
 31 33  1  0  0  0  0
 33 34  1  0  0  0  0
 33 35  1  0  0  0  0
 33 36  1  0  0  0  0
M  CHG  1  20   1
M  END
$$$$

  -OEChem-04042215563D

 36 35  0     1  0  0  0  0  0999 V2000
   -2.5940   -5.3116    1.3072 H   0  0  0  0  0  0  0  0  0  0  0  0
   -2.7156   -4.3918    0.7274 C   0  0  0  0  0  0  0  0  0  0  0  0
   -3.6287   -3.8893    1.0551 H   0  0  0  0  0  0  0  0  0  0  0  0
   -2.8099   -4.6552   -0.3289 H   0  0  0  0  0  0  0  0  0  0  0  0
   -1.5170   -3.4852    0.9324 C   0  0  0  0  0  0  0  0  0  0  0  0
   -0.6166   -3.8241    1.6792 O   0  0  0  0  0  0  0  0  0  0  0  0
   -1.4626   -2.2522    0.3056 N   0  0  0  0  0  0  0  0  0  0  0  0
   -2.1886   -2.0824   -0.3863 H   0  0  0  0  0  0  0  0  0  0  0  0
   -0.2404   -1.4253    0.2349 C   0  0  1  0  0  0  0  0  0  0  0  0
    0.5360   -2.0662   -0.2006 H   0  0  0  0  0  0  0  0  0  0  0  0
   -0.4318   -0.2498   -0.7556 C   0  0  0  0  0  0  0  0  0  0  0  0
    0.5301   -0.0382   -1.2365 H   0  0  0  0  0  0  0  0  0  0  0  0
   -1.1071   -0.5782   -1.5527 H   0  0  0  0  0  0  0  0  0  0  0  0
   -0.9874    1.0504   -0.1496 C   0  0  0  0  0  0  0  0  0  0  0  0
   -1.5495    1.6044   -0.9090 H   0  0  0  0  0  0  0  0  0  0  0  0
   -1.6783    0.8271    0.6688 H   0  0  0  0  0  0  0  0  0  0  0  0
    0.1938    1.9117    0.3147 C   0  0  0  0  0  0  0  0  0  0  0  0
    1.0479    1.2589    0.5162 H   0  0  0  0  0  0  0  0  0  0  0  0
    0.4883    2.5811   -0.5011 H   0  0  0  0  0  0  0  0  0  0  0  0
   -0.1241    2.6996    1.5189 N   0  3  0  0  0  0  0  0  0  0  0  0
   -0.9589    3.2819    1.4890 H   0  0  0  0  0  0  0  0  0  0  0  0
    0.6787    2.7802    2.5431 C   0  0  0  0  0  0  0  0  0  0  0  0
    1.8300    2.0305    2.6385 N   0  0  0  0  0  0  0  0  0  0  0  0
    1.8485    1.1515    2.1075 H   0  0  0  0  0  0  0  0  0  0  0  0
    2.3217    2.0234    3.5279 H   0  0  0  0  0  0  0  0  0  0  0  0
    0.3830    3.6507    3.5650 N   0  0  0  0  0  0  0  0  0  0  0  0
   -0.3401    4.3506    3.4133 H   0  0  0  0  0  0  0  0  0  0  0  0
    1.1150    3.8628    4.2402 H   0  0  0  0  0  0  0  0  0  0  0  0
    0.3008   -1.0343    1.6353 C   0  0  0  0  0  0  0  0  0  0  0  0
    1.4744   -0.7005    1.7663 O   0  0  0  0  0  0  0  0  0  0  0  0
   -0.5837   -0.5945    2.6063 N   0  0  0  0  0  0  0  0  0  0  0  0
   -1.5345   -0.9154    2.4373 H   0  0  0  0  0  0  0  0  0  0  0  0
   -0.1821   -0.5232    4.0091 C   0  0  0  0  0  0  0  0  0  0  0  0
    0.7212    0.0785    4.1400 H   0  0  0  0  0  0  0  0  0  0  0  0
   -0.9811   -0.0733    4.6065 H   0  0  0  0  0  0  0  0  0  0  0  0
    0.0154   -1.5293    4.3959 H   0  0  0  0  0  0  0  0  0  0  0  0
  1  2  1  0  0  0  0
  2  3  1  0  0  0  0
  2  4  1  0  0  0  0
  2  5  1  0  0  0  0
  5  6  2  0  0  0  0
  5  7  1  0  0  0  0
  7  8  1  0  0  0  0
  7  9  1  0  0  0  0
  9 10  1  0  0  0  0
  9 11  1  0  0  0  0
  9 29  1  0  0  0  0
 11 12  1  0  0  0  0
 11 13  1  0  0  0  0
 11 14  1  0  0  0  0
 14 15  1  0  0  0  0
 14 16  1  0  0  0  0
 14 17  1  0  0  0  0
 17 18  1  0  0  0  0
 17 19  1  0  0  0  0
 17 20  1  0  0  0  0
 20 21  1  0  0  0  0
 20 22  2  0  0  0  0
 22 23  1  0  0  0  0
 22 26  1  0  0  0  0
 23 24  1  0  0  0  0
 23 25  1  0  0  0  0
 26 27  1  0  0  0  0
 26 28  1  0  0  0  0
 29 30  2  0  0  0  0
 29 31  1  0  0  0  0
 31 32  1  0  0  0  0
 31 33  1  0  0  0  0
 33 34  1  0  0  0  0
 33 35  1  0  0  0  0
 33 36  1  0  0  0  0
M  CHG  1  20   1
M  END
$$$$

  -OEChem-04042215563D

 36 35  0     1  0  0  0  0  0999 V2000
   -2.4287   -5.3912    1.2711 H   0  0  0  0  0  0  0  0  0  0  0  0
   -2.6192   -4.4709    0.7108 C   0  0  0  0  0  0  0  0  0  0  0  0
   -3.5520   -4.0290    1.0687 H   0  0  0  0  0  0  0  0  0  0  0  0
   -2.7234   -4.7222   -0.3475 H   0  0  0  0  0  0  0  0  0  0  0  0
   -1.4722   -3.4975    0.9033 C   0  0  0  0  0  0  0  0  0  0  0  0
   -0.5321   -3.7952    1.6186 O   0  0  0  0  0  0  0  0  0  0  0  0
   -1.5022   -2.2549    0.2948 N   0  0  0  0  0  0  0  0  0  0  0  0
   -2.2580   -2.1102   -0.3702 H   0  0  0  0  0  0  0  0  0  0  0  0
   -0.3229   -1.3726    0.1982 C   0  0  1  0  0  0  0  0  0  0  0  0
    0.4589   -1.9909   -0.2597 H   0  0  0  0  0  0  0  0  0  0  0  0
   -0.5442   -0.2024   -0.7865 C   0  0  0  0  0  0  0  0  0  0  0  0
    0.4111    0.0268   -1.2722 H   0  0  0  0  0  0  0  0  0  0  0  0
   -1.2143   -0.5458   -1.5816 H   0  0  0  0  0  0  0  0  0  0  0  0
   -1.1357    1.0783   -0.1687 C   0  0  0  0  0  0  0  0  0  0  0  0
   -1.9083    1.4832   -0.8310 H   0  0  0  0  0  0  0  0  0  0  0  0
   -1.6185    0.8775    0.7901 H   0  0  0  0  0  0  0  0  0  0  0  0
   -0.0108    2.1119   -0.0422 C   0  0  0  0  0  0  0  0  0  0  0  0
    0.9453    1.5862    0.0545 H   0  0  0  0  0  0  0  0  0  0  0  0
    0.0391    2.7070   -0.9610 H   0  0  0  0  0  0  0  0  0  0  0  0
   -0.2071    2.9929    1.1235 N   0  3  0  0  0  0  0  0  0  0  0  0
   -1.0062    3.6239    1.0993 H   0  0  0  0  0  0  0  0  0  0  0  0
    0.6510    3.0841    2.1015 C   0  0  0  0  0  0  0  0  0  0  0  0
    1.7553    2.2672    2.1971 N   0  0  0  0  0  0  0  0  0  0  0  0
    1.7042    1.3603    1.7180 H   0  0  0  0  0  0  0  0  0  0  0  0
    2.2873    2.2822    3.0627 H   0  0  0  0  0  0  0  0  0  0  0  0
    0.4635    4.0371    3.0745 N   0  0  0  0  0  0  0  0  0  0  0  0
   -0.2178    4.7744    2.9067 H   0  0  0  0  0  0  0  0  0  0  0  0
    1.2422    4.2446    3.6969 H   0  0  0  0  0  0  0  0  0  0  0  0
    0.2754   -0.9575    1.5674 C   0  0  0  0  0  0  0  0  0  0  0  0
    1.4214   -0.5195    1.6048 O   0  0  0  0  0  0  0  0  0  0  0  0
   -0.5667   -0.5582    2.5918 N   0  0  0  0  0  0  0  0  0  0  0  0
   -1.4955   -0.9686    2.5225 H   0  0  0  0  0  0  0  0  0  0  0  0
   -0.0653   -0.3341    3.9445 C   0  0  0  0  0  0  0  0  0  0  0  0
    0.6829    0.4626    3.9636 H   0  0  0  0  0  0  0  0  0  0  0  0
   -0.8874   -0.0468    4.6071 H   0  0  0  0  0  0  0  0  0  0  0  0
    0.3904   -1.2500    4.3372 H   0  0  0  0  0  0  0  0  0  0  0  0
  1  2  1  0  0  0  0
  2  3  1  0  0  0  0
  2  4  1  0  0  0  0
  2  5  1  0  0  0  0
  5  6  2  0  0  0  0
  5  7  1  0  0  0  0
  7  8  1  0  0  0  0
  7  9  1  0  0  0  0
  9 10  1  0  0  0  0
  9 11  1  0  0  0  0
  9 29  1  0  0  0  0
 11 12  1  0  0  0  0
 11 13  1  0  0  0  0
 11 14  1  0  0  0  0
 14 15  1  0  0  0  0
 14 16  1  0  0  0  0
 14 17  1  0  0  0  0
 17 18  1  0  0  0  0
 17 19  1  0  0  0  0
 17 20  1  0  0  0  0
 20 21  1  0  0  0  0
 20 22  2  0  0  0  0
 22 23  1  0  0  0  0
 22 26  1  0  0  0  0
 23 24  1  0  0  0  0
 23 25  1  0  0  0  0
 26 27  1  0  0  0  0
 26 28  1  0  0  0  0
 29 30  2  0  0  0  0
 29 31  1  0  0  0  0
 31 32  1  0  0  0  0
 31 33  1  0  0  0  0
 33 34  1  0  0  0  0
 33 35  1  0  0  0  0
 33 36  1  0  0  0  0
M  CHG  1  20   1
M  END
$$$$

  -OEChem-04042215563D

 36 35  0     1  0  0  0  0  0999 V2000
   -2.3629   -5.4296    1.2253 H   0  0  0  0  0  0  0  0  0  0  0  0
   -2.5885   -4.5052    0.6854 C   0  0  0  0  0  0  0  0  0  0  0  0
   -3.5335   -4.1030    1.0582 H   0  0  0  0  0  0  0  0  0  0  0  0
   -2.6919   -4.7380   -0.3771 H   0  0  0  0  0  0  0  0  0  0  0  0
   -1.4730   -3.4984    0.8907 C   0  0  0  0  0  0  0  0  0  0  0  0
   -0.5273   -3.7715    1.6084 O   0  0  0  0  0  0  0  0  0  0  0  0
   -1.5352   -2.2546    0.2878 N   0  0  0  0  0  0  0  0  0  0  0  0
   -2.2929   -2.1261   -0.3781 H   0  0  0  0  0  0  0  0  0  0  0  0
   -0.3801   -1.3407    0.2029 C   0  0  1  0  0  0  0  0  0  0  0  0
    0.4169   -1.9493   -0.2420 H   0  0  0  0  0  0  0  0  0  0  0  0
   -0.5987   -0.1877   -0.8019 C   0  0  0  0  0  0  0  0  0  0  0  0
    0.3758    0.0506   -1.2423 H   0  0  0  0  0  0  0  0  0  0  0  0
   -1.2220   -0.5524   -1.6254 H   0  0  0  0  0  0  0  0  0  0  0  0
   -1.2367    1.0958   -0.2297 C   0  0  0  0  0  0  0  0  0  0  0  0
   -2.1694    1.3095   -0.7623 H   0  0  0  0  0  0  0  0  0  0  0  0
   -1.5027    0.9857    0.8217 H   0  0  0  0  0  0  0  0  0  0  0  0
   -0.2701    2.2689   -0.4275 C   0  0  0  0  0  0  0  0  0  0  0  0
    0.7564    1.8924   -0.4946 H   0  0  0  0  0  0  0  0  0  0  0  0
   -0.4937    2.7674   -1.3775 H   0  0  0  0  0  0  0  0  0  0  0  0
   -0.3593    3.2292    0.6881 N   0  3  0  0  0  0  0  0  0  0  0  0
   -1.1179    3.9086    0.6550 H   0  0  0  0  0  0  0  0  0  0  0  0
    0.5386    3.3187    1.6305 C   0  0  0  0  0  0  0  0  0  0  0  0
    1.5900    2.4369    1.7451 N   0  0  0  0  0  0  0  0  0  0  0  0
    1.4724    1.5051    1.3317 H   0  0  0  0  0  0  0  0  0  0  0  0
    2.1573    2.4762    2.5875 H   0  0  0  0  0  0  0  0  0  0  0  0
    0.4512    4.3401    2.5462 N   0  0  0  0  0  0  0  0  0  0  0  0
   -0.1884    5.1089    2.3571 H   0  0  0  0  0  0  0  0  0  0  0  0
    1.2650    4.5322    3.1274 H   0  0  0  0  0  0  0  0  0  0  0  0
    0.2167   -0.9022    1.5642 C   0  0  0  0  0  0  0  0  0  0  0  0
    1.3385   -0.4039    1.5686 O   0  0  0  0  0  0  0  0  0  0  0  0
   -0.6247   -0.5199    2.5955 N   0  0  0  0  0  0  0  0  0  0  0  0
   -1.5265   -0.9917    2.5778 H   0  0  0  0  0  0  0  0  0  0  0  0
   -0.1139   -0.1364    3.9082 C   0  0  0  0  0  0  0  0  0  0  0  0
    0.4809    0.7793    3.8438 H   0  0  0  0  0  0  0  0  0  0  0  0
   -0.9444    0.0426    4.5984 H   0  0  0  0  0  0  0  0  0  0  0  0
    0.5123   -0.9345    4.3222 H   0  0  0  0  0  0  0  0  0  0  0  0
  1  2  1  0  0  0  0
  2  3  1  0  0  0  0
  2  4  1  0  0  0  0
  2  5  1  0  0  0  0
  5  6  2  0  0  0  0
  5  7  1  0  0  0  0
  7  8  1  0  0  0  0
  7  9  1  0  0  0  0
  9 10  1  0  0  0  0
  9 11  1  0  0  0  0
  9 29  1  0  0  0  0
 11 12  1  0  0  0  0
 11 13  1  0  0  0  0
 11 14  1  0  0  0  0
 14 15  1  0  0  0  0
 14 16  1  0  0  0  0
 14 17  1  0  0  0  0
 17 18  1  0  0  0  0
 17 19  1  0  0  0  0
 17 20  1  0  0  0  0
 20 21  1  0  0  0  0
 20 22  2  0  0  0  0
 22 23  1  0  0  0  0
 22 26  1  0  0  0  0
 23 24  1  0  0  0  0
 23 25  1  0  0  0  0
 26 27  1  0  0  0  0
 26 28  1  0  0  0  0
 29 30  2  0  0  0  0
 29 31  1  0  0  0  0
 31 32  1  0  0  0  0
 31 33  1  0  0  0  0
 33 34  1  0  0  0  0
 33 35  1  0  0  0  0
 33 36  1  0  0  0  0
M  CHG  1  20   1
M  END
$$$$

  -OEChem-04042215563D

 36 35  0     1  0  0  0  0  0999 V2000
   -2.2314   -5.4819    1.1964 H   0  0  0  0  0  0  0  0  0  0  0  0
   -2.5092   -4.5562    0.6838 C   0  0  0  0  0  0  0  0  0  0  0  0
   -3.4550   -4.1972    1.0964 H   0  0  0  0  0  0  0  0  0  0  0  0
   -2.6399   -4.7713   -0.3796 H   0  0  0  0  0  0  0  0  0  0  0  0
   -1.4264   -3.5117    0.8748 C   0  0  0  0  0  0  0  0  0  0  0  0
   -0.4612   -3.7524    1.5779 O   0  0  0  0  0  0  0  0  0  0  0  0
   -1.5429   -2.2679    0.2802 N   0  0  0  0  0  0  0  0  0  0  0  0
   -2.3185   -2.1561   -0.3676 H   0  0  0  0  0  0  0  0  0  0  0  0
   -0.4339   -1.2985    0.2103 C   0  0  1  0  0  0  0  0  0  0  0  0
    0.3938   -1.8688   -0.2292 H   0  0  0  0  0  0  0  0  0  0  0  0
   -0.6943   -0.1557   -0.7973 C   0  0  0  0  0  0  0  0  0  0  0  0
    0.2872    0.1313   -1.1904 H   0  0  0  0  0  0  0  0  0  0  0  0
   -1.2646   -0.5433   -1.6483 H   0  0  0  0  0  0  0  0  0  0  0  0
   -1.4024    1.1027   -0.2473 C   0  0  0  0  0  0  0  0  0  0  0  0
   -2.4485    1.1109   -0.5719 H   0  0  0  0  0  0  0  0  0  0  0  0
   -1.4176    1.1165    0.8419 H   0  0  0  0  0  0  0  0  0  0  0  0
   -0.6894    2.3611   -0.7585 C   0  0  0  0  0  0  0  0  0  0  0  0
    0.3299    2.1162   -1.0754 H   0  0  0  0  0  0  0  0  0  0  0  0
   -1.2172    2.7412   -1.6402 H   0  0  0  0  0  0  0  0  0  0  0  0
   -0.6267    3.4015    0.2863 N   0  3  0  0  0  0  0  0  0  0  0  0
   -1.3484    4.1205    0.2657 H   0  0  0  0  0  0  0  0  0  0  0  0
    0.3521    3.5067    1.1431 C   0  0  0  0  0  0  0  0  0  0  0  0
    1.3622    2.5761    1.2418 N   0  0  0  0  0  0  0  0  0  0  0  0
    1.1697    1.6275    0.9059 H   0  0  0  0  0  0  0  0  0  0  0  0
    1.9871    2.6355    2.0415 H   0  0  0  0  0  0  0  0  0  0  0  0
    0.3934    4.5933    1.9842 N   0  0  0  0  0  0  0  0  0  0  0  0
   -0.2192    5.3828    1.7911 H   0  0  0  0  0  0  0  0  0  0  0  0
    1.2580    4.7755    2.4907 H   0  0  0  0  0  0  0  0  0  0  0  0
    0.1346   -0.8370    1.5744 C   0  0  0  0  0  0  0  0  0  0  0  0
    1.2215   -0.2667    1.5700 O   0  0  0  0  0  0  0  0  0  0  0  0
   -0.7300   -0.5007    2.6023 N   0  0  0  0  0  0  0  0  0  0  0  0
   -1.5967   -1.0342    2.6029 H   0  0  0  0  0  0  0  0  0  0  0  0
   -0.2532   -0.0126    3.8928 C   0  0  0  0  0  0  0  0  0  0  0  0
    0.2659    0.9442    3.7792 H   0  0  0  0  0  0  0  0  0  0  0  0
   -1.0963    0.1337    4.5755 H   0  0  0  0  0  0  0  0  0  0  0  0
    0.4354   -0.7355    4.3442 H   0  0  0  0  0  0  0  0  0  0  0  0
  1  2  1  0  0  0  0
  2  3  1  0  0  0  0
  2  4  1  0  0  0  0
  2  5  1  0  0  0  0
  5  6  2  0  0  0  0
  5  7  1  0  0  0  0
  7  8  1  0  0  0  0
  7  9  1  0  0  0  0
  9 10  1  0  0  0  0
  9 11  1  0  0  0  0
  9 29  1  0  0  0  0
 11 12  1  0  0  0  0
 11 13  1  0  0  0  0
 11 14  1  0  0  0  0
 14 15  1  0  0  0  0
 14 16  1  0  0  0  0
 14 17  1  0  0  0  0
 17 18  1  0  0  0  0
 17 19  1  0  0  0  0
 17 20  1  0  0  0  0
 20 21  1  0  0  0  0
 20 22  2  0  0  0  0
 22 23  1  0  0  0  0
 22 26  1  0  0  0  0
 23 24  1  0  0  0  0
 23 25  1  0  0  0  0
 26 27  1  0  0  0  0
 26 28  1  0  0  0  0
 29 30  2  0  0  0  0
 29 31  1  0  0  0  0
 31 32  1  0  0  0  0
 31 33  1  0  0  0  0
 33 34  1  0  0  0  0
 33 35  1  0  0  0  0
 33 36  1  0  0  0  0
M  CHG  1  20   1
M  END
$$$$

  -OEChem-04042215563D

 36 35  0     1  0  0  0  0  0999 V2000
   -1.8419   -5.5842    1.0288 H   0  0  0  0  0  0  0  0  0  0  0  0
   -2.2083   -4.6741    0.5447 C   0  0  0  0  0  0  0  0  0  0  0  0
   -3.1916   -4.4299    0.9535 H   0  0  0  0  0  0  0  0  0  0  0  0
   -2.3019   -4.8626   -0.5274 H   0  0  0  0  0  0  0  0  0  0  0  0
   -1.2431   -3.5304    0.7897 C   0  0  0  0  0  0  0  0  0  0  0  0
   -0.2621   -3.6960    1.4925 O   0  0  0  0  0  0  0  0  0  0  0  0
   -1.4837   -2.2844    0.2391 N   0  0  0  0  0  0  0  0  0  0  0  0
   -2.2603   -2.2291   -0.4149 H   0  0  0  0  0  0  0  0  0  0  0  0
   -0.4865   -1.1982    0.2324 C   0  0  1  0  0  0  0  0  0  0  0  0
    0.4062   -1.6564   -0.2115 H   0  0  0  0  0  0  0  0  0  0  0  0
   -0.8594   -0.0514   -0.7326 C   0  0  0  0  0  0  0  0  0  0  0  0
    0.0901    0.3688   -1.0818 H   0  0  0  0  0  0  0  0  0  0  0  0
   -1.3632   -0.4598   -1.6151 H   0  0  0  0  0  0  0  0  0  0  0  0
   -1.7118    1.0924   -0.1430 C   0  0  0  0  0  0  0  0  0  0  0  0
   -2.7752    0.8548   -0.2541 H   0  0  0  0  0  0  0  0  0  0  0  0
   -1.5294    1.2300    0.9234 H   0  0  0  0  0  0  0  0  0  0  0  0
   -1.3840    2.4009   -0.8734 C   0  0  0  0  0  0  0  0  0  0  0  0
   -0.5502    2.2492   -1.5678 H   0  0  0  0  0  0  0  0  0  0  0  0
   -2.2507    2.6954   -1.4760 H   0  0  0  0  0  0  0  0  0  0  0  0
   -1.0439    3.4882    0.0693 N   0  3  0  0  0  0  0  0  0  0  0  0
   -1.7297    4.2357    0.1670 H   0  0  0  0  0  0  0  0  0  0  0  0
    0.1076    3.6127    0.6722 C   0  0  0  0  0  0  0  0  0  0  0  0
    1.0906    2.6514    0.6182 N   0  0  0  0  0  0  0  0  0  0  0  0
    0.7878    1.6904    0.4469 H   0  0  0  0  0  0  0  0  0  0  0  0
    1.8698    2.7428    1.2660 H   0  0  0  0  0  0  0  0  0  0  0  0
    0.3642    4.7524    1.3963 N   0  0  0  0  0  0  0  0  0  0  0  0
   -0.2542    5.5529    1.2841 H   0  0  0  0  0  0  0  0  0  0  0  0
    1.3231    4.9292    1.6901 H   0  0  0  0  0  0  0  0  0  0  0  0
    0.0072   -0.7244    1.6197 C   0  0  0  0  0  0  0  0  0  0  0  0
    1.0274   -0.0416    1.6426 O   0  0  0  0  0  0  0  0  0  0  0  0
   -0.9043   -0.5188    2.6409 N   0  0  0  0  0  0  0  0  0  0  0  0
   -1.7056   -1.1458    2.6206 H   0  0  0  0  0  0  0  0  0  0  0  0
   -0.5134    0.0235    3.9387 C   0  0  0  0  0  0  0  0  0  0  0  0
   -0.1688    1.0576    3.8376 H   0  0  0  0  0  0  0  0  0  0  0  0
   -1.3652    0.0111    4.6261 H   0  0  0  0  0  0  0  0  0  0  0  0
    0.2923   -0.5750    4.3778 H   0  0  0  0  0  0  0  0  0  0  0  0
  1  2  1  0  0  0  0
  2  3  1  0  0  0  0
  2  4  1  0  0  0  0
  2  5  1  0  0  0  0
  5  6  2  0  0  0  0
  5  7  1  0  0  0  0
  7  8  1  0  0  0  0
  7  9  1  0  0  0  0
  9 10  1  0  0  0  0
  9 11  1  0  0  0  0
  9 29  1  0  0  0  0
 11 12  1  0  0  0  0
 11 13  1  0  0  0  0
 11 14  1  0  0  0  0
 14 15  1  0  0  0  0
 14 16  1  0  0  0  0
 14 17  1  0  0  0  0
 17 18  1  0  0  0  0
 17 19  1  0  0  0  0
 17 20  1  0  0  0  0
 20 21  1  0  0  0  0
 20 22  2  0  0  0  0
 22 23  1  0  0  0  0
 22 26  1  0  0  0  0
 23 24  1  0  0  0  0
 23 25  1  0  0  0  0
 26 27  1  0  0  0  0
 26 28  1  0  0  0  0
 29 30  2  0  0  0  0
 29 31  1  0  0  0  0
 31 32  1  0  0  0  0
 31 33  1  0  0  0  0
 33 34  1  0  0  0  0
 33 35  1  0  0  0  0
 33 36  1  0  0  0  0
M  CHG  1  20   1
M  END
$$$$

  -OEChem-04042215563D

 36 35  0     1  0  0  0  0  0999 V2000
   -2.8881   -5.5324    0.6069 H   0  0  0  0  0  0  0  0  0  0  0  0
   -2.9783   -4.5100    0.2286 C   0  0  0  0  0  0  0  0  0  0  0  0
   -3.8609   -4.0472    0.6759 H   0  0  0  0  0  0  0  0  0  0  0  0
   -3.1036   -4.5494   -0.8560 H   0  0  0  0  0  0  0  0  0  0  0  0
   -1.7360   -3.7147    0.5822 C   0  0  0  0  0  0  0  0  0  0  0  0
   -0.8435   -4.2355    1.2255 O   0  0  0  0  0  0  0  0  0  0  0  0
   -1.6285   -2.3894    0.1998 N   0  0  0  0  0  0  0  0  0  0  0  0
   -2.3555   -2.0494   -0.4229 H   0  0  0  0  0  0  0  0  0  0  0  0
   -0.3737   -1.6165    0.2888 C   0  0  1  0  0  0  0  0  0  0  0  0
    0.3708   -2.2078   -0.2581 H   0  0  0  0  0  0  0  0  0  0  0  0
   -0.4956   -0.2809   -0.4820 C   0  0  0  0  0  0  0  0  0  0  0  0
    0.5116   -0.0320   -0.8352 H   0  0  0  0  0  0  0  0  0  0  0  0
   -1.1209   -0.4217   -1.3700 H   0  0  0  0  0  0  0  0  0  0  0  0
   -1.0139    0.9165    0.3341 C   0  0  0  0  0  0  0  0  0  0  0  0
   -2.0840    0.8002    0.5348 H   0  0  0  0  0  0  0  0  0  0  0  0
   -0.4897    0.9782    1.2921 H   0  0  0  0  0  0  0  0  0  0  0  0
   -0.7358    2.2125   -0.4252 C   0  0  0  0  0  0  0  0  0  0  0  0
    0.3263    2.2462   -0.6939 H   0  0  0  0  0  0  0  0  0  0  0  0
   -1.3289    2.2268   -1.3463 H   0  0  0  0  0  0  0  0  0  0  0  0
   -1.0723    3.3709    0.4224 N   0  3  0  0  0  0  0  0  0  0  0  0
   -1.3845    3.1745    1.3726 H   0  0  0  0  0  0  0  0  0  0  0  0
   -0.9203    4.6078    0.0464 C   0  0  0  0  0  0  0  0  0  0  0  0
   -0.4507    4.9332   -1.2058 N   0  0  0  0  0  0  0  0  0  0  0  0
   -0.0568    4.1861   -1.7740 H   0  0  0  0  0  0  0  0  0  0  0  0
   -0.1239    5.8829   -1.3725 H   0  0  0  0  0  0  0  0  0  0  0  0
   -1.2318    5.6245    0.9173 N   0  0  0  0  0  0  0  0  0  0  0  0
   -1.7258    5.4021    1.7795 H   0  0  0  0  0  0  0  0  0  0  0  0
   -1.3015    6.5740    0.5555 H   0  0  0  0  0  0  0  0  0  0  0  0
    0.2198   -1.4848    1.7121 C   0  0  0  0  0  0  0  0  0  0  0  0
    1.4127   -1.2362    1.8212 O   0  0  0  0  0  0  0  0  0  0  0  0
   -0.6095   -1.1796    2.7792 N   0  0  0  0  0  0  0  0  0  0  0  0
   -1.5572   -1.5344    2.6867 H   0  0  0  0  0  0  0  0  0  0  0  0
   -0.0865   -1.0032    4.1310 C   0  0  0  0  0  0  0  0  0  0  0  0
    0.6217   -0.1686    4.1655 H   0  0  0  0  0  0  0  0  0  0  0  0
   -0.9019   -0.7904    4.8292 H   0  0  0  0  0  0  0  0  0  0  0  0
    0.4269   -1.9117    4.4647 H   0  0  0  0  0  0  0  0  0  0  0  0
  1  2  1  0  0  0  0
  2  3  1  0  0  0  0
  2  4  1  0  0  0  0
  2  5  1  0  0  0  0
  5  6  2  0  0  0  0
  5  7  1  0  0  0  0
  7  8  1  0  0  0  0
  7  9  1  0  0  0  0
  9 10  1  0  0  0  0
  9 11  1  0  0  0  0
  9 29  1  0  0  0  0
 11 12  1  0  0  0  0
 11 13  1  0  0  0  0
 11 14  1  0  0  0  0
 14 15  1  0  0  0  0
 14 16  1  0  0  0  0
 14 17  1  0  0  0  0
 17 18  1  0  0  0  0
 17 19  1  0  0  0  0
 17 20  1  0  0  0  0
 20 21  1  0  0  0  0
 20 22  2  0  0  0  0
 22 23  1  0  0  0  0
 22 26  1  0  0  0  0
 23 24  1  0  0  0  0
 23 25  1  0  0  0  0
 26 27  1  0  0  0  0
 26 28  1  0  0  0  0
 29 30  2  0  0  0  0
 29 31  1  0  0  0  0
 31 32  1  0  0  0  0
 31 33  1  0  0  0  0
 33 34  1  0  0  0  0
 33 35  1  0  0  0  0
 33 36  1  0  0  0  0
M  CHG  1  20   1
M  END
$$$$

  -OEChem-04042215563D

 36 35  0     1  0  0  0  0  0999 V2000
   -2.9386   -5.4937    0.6413 H   0  0  0  0  0  0  0  0  0  0  0  0
   -3.0114   -4.4717    0.2578 C   0  0  0  0  0  0  0  0  0  0  0  0
   -3.8819   -3.9895    0.7088 H   0  0  0  0  0  0  0  0  0  0  0  0
   -3.1447   -4.5140   -0.8258 H   0  0  0  0  0  0  0  0  0  0  0  0
   -1.7515   -3.6982    0.5968 C   0  0  0  0  0  0  0  0  0  0  0  0
   -0.8692   -4.2278    1.2469 O   0  0  0  0  0  0  0  0  0  0  0  0
   -1.6161   -2.3825    0.1909 N   0  0  0  0  0  0  0  0  0  0  0  0
   -2.3390   -2.0350   -0.4324 H   0  0  0  0  0  0  0  0  0  0  0  0
   -0.3488   -1.6289    0.2765 C   0  0  1  0  0  0  0  0  0  0  0  0
    0.3935   -2.2361   -0.2561 H   0  0  0  0  0  0  0  0  0  0  0  0
   -0.4561   -0.2957   -0.5089 C   0  0  0  0  0  0  0  0  0  0  0  0
    0.4609   -0.1862   -1.0986 H   0  0  0  0  0  0  0  0  0  0  0  0
   -1.2884   -0.3528   -1.2184 H   0  0  0  0  0  0  0  0  0  0  0  0
   -0.6061    0.9640    0.3606 C   0  0  0  0  0  0  0  0  0  0  0  0
   -1.5019    0.8802    0.9852 H   0  0  0  0  0  0  0  0  0  0  0  0
    0.2654    1.0635    1.0179 H   0  0  0  0  0  0  0  0  0  0  0  0
   -0.7014    2.2075   -0.5199 C   0  0  0  0  0  0  0  0  0  0  0  0
    0.1535    2.2273   -1.2057 H   0  0  0  0  0  0  0  0  0  0  0  0
   -1.6230    2.1641   -1.1107 H   0  0  0  0  0  0  0  0  0  0  0  0
   -0.6902    3.4092    0.3348 N   0  3  0  0  0  0  0  0  0  0  0  0
   -0.5269    3.2643    1.3307 H   0  0  0  0  0  0  0  0  0  0  0  0
   -0.8177    4.6236   -0.1160 C   0  0  0  0  0  0  0  0  0  0  0  0
   -0.9870    4.8864   -1.4563 N   0  0  0  0  0  0  0  0  0  0  0  0
   -0.8304    4.1225   -2.1107 H   0  0  0  0  0  0  0  0  0  0  0  0
   -0.8310    5.8368   -1.7872 H   0  0  0  0  0  0  0  0  0  0  0  0
   -0.7804    5.6799    0.7632 N   0  0  0  0  0  0  0  0  0  0  0  0
   -0.8061    5.4894    1.7632 H   0  0  0  0  0  0  0  0  0  0  0  0
   -1.0937    6.5942    0.4416 H   0  0  0  0  0  0  0  0  0  0  0  0
    0.2259   -1.4855    1.7071 C   0  0  0  0  0  0  0  0  0  0  0  0
    1.4251   -1.2796    1.8377 O   0  0  0  0  0  0  0  0  0  0  0  0
   -0.6141   -1.1480    2.7553 N   0  0  0  0  0  0  0  0  0  0  0  0
   -1.5720   -1.4686    2.6454 H   0  0  0  0  0  0  0  0  0  0  0  0
   -0.1135   -0.9774    4.1158 C   0  0  0  0  0  0  0  0  0  0  0  0
    0.6175   -0.1632    4.1604 H   0  0  0  0  0  0  0  0  0  0  0  0
   -0.9369   -0.7375    4.7955 H   0  0  0  0  0  0  0  0  0  0  0  0
    0.3672   -1.8982    4.4643 H   0  0  0  0  0  0  0  0  0  0  0  0
  1  2  1  0  0  0  0
  2  3  1  0  0  0  0
  2  4  1  0  0  0  0
  2  5  1  0  0  0  0
  5  6  2  0  0  0  0
  5  7  1  0  0  0  0
  7  8  1  0  0  0  0
  7  9  1  0  0  0  0
  9 10  1  0  0  0  0
  9 11  1  0  0  0  0
  9 29  1  0  0  0  0
 11 12  1  0  0  0  0
 11 13  1  0  0  0  0
 11 14  1  0  0  0  0
 14 15  1  0  0  0  0
 14 16  1  0  0  0  0
 14 17  1  0  0  0  0
 17 18  1  0  0  0  0
 17 19  1  0  0  0  0
 17 20  1  0  0  0  0
 20 21  1  0  0  0  0
 20 22  2  0  0  0  0
 22 23  1  0  0  0  0
 22 26  1  0  0  0  0
 23 24  1  0  0  0  0
 23 25  1  0  0  0  0
 26 27  1  0  0  0  0
 26 28  1  0  0  0  0
 29 30  2  0  0  0  0
 29 31  1  0  0  0  0
 31 32  1  0  0  0  0
 31 33  1  0  0  0  0
 33 34  1  0  0  0  0
 33 35  1  0  0  0  0
 33 36  1  0  0  0  0
M  CHG  1  20   1
M  END
$$$$

  -OEChem-04042215563D

 36 35  0     1  0  0  0  0  0999 V2000
   -2.9379   -5.5117    0.6294 H   0  0  0  0  0  0  0  0  0  0  0  0
   -3.0153   -4.4895    0.2477 C   0  0  0  0  0  0  0  0  0  0  0  0
   -3.8938   -4.0154    0.6914 H   0  0  0  0  0  0  0  0  0  0  0  0
   -3.1380   -4.5300   -0.8372 H   0  0  0  0  0  0  0  0  0  0  0  0
   -1.7650   -3.7069    0.6006 C   0  0  0  0  0  0  0  0  0  0  0  0
   -0.8800   -4.2336    1.2489 O   0  0  0  0  0  0  0  0  0  0  0  0
   -1.6400   -2.3867    0.2074 N   0  0  0  0  0  0  0  0  0  0  0  0
   -2.3612   -2.0437   -0.4202 H   0  0  0  0  0  0  0  0  0  0  0  0
   -0.3741   -1.6307    0.2903 C   0  0  1  0  0  0  0  0  0  0  0  0
    0.3605   -2.2420   -0.2482 H   0  0  0  0  0  0  0  0  0  0  0  0
   -0.4672   -0.2996   -0.4979 C   0  0  0  0  0  0  0  0  0  0  0  0
    0.4457   -0.1906   -1.0942 H   0  0  0  0  0  0  0  0  0  0  0  0
   -1.3042   -0.3596   -1.2013 H   0  0  0  0  0  0  0  0  0  0  0  0
   -0.6141    0.9593    0.3727 C   0  0  0  0  0  0  0  0  0  0  0  0
   -1.3672    0.7879    1.1485 H   0  0  0  0  0  0  0  0  0  0  0  0
    0.3429    1.1750    0.8629 H   0  0  0  0  0  0  0  0  0  0  0  0
   -1.0593    2.1497   -0.4726 C   0  0  0  0  0  0  0  0  0  0  0  0
   -0.3654    2.2725   -1.3116 H   0  0  0  0  0  0  0  0  0  0  0  0
   -2.0612    1.9569   -0.8716 H   0  0  0  0  0  0  0  0  0  0  0  0
   -1.0607    3.3642    0.3634 N   0  3  0  0  0  0  0  0  0  0  0  0
   -0.6732    3.2767    1.3028 H   0  0  0  0  0  0  0  0  0  0  0  0
   -1.4776    4.5273   -0.0460 C   0  0  0  0  0  0  0  0  0  0  0  0
   -1.9636    4.7170   -1.3196 N   0  0  0  0  0  0  0  0  0  0  0  0
   -1.8186    3.9708   -1.9965 H   0  0  0  0  0  0  0  0  0  0  0  0
   -2.0442    5.6692   -1.6709 H   0  0  0  0  0  0  0  0  0  0  0  0
   -1.4331    5.6021    0.8094 N   0  0  0  0  0  0  0  0  0  0  0  0
   -1.2262    5.4396    1.7931 H   0  0  0  0  0  0  0  0  0  0  0  0
   -1.9495    6.4443    0.5621 H   0  0  0  0  0  0  0  0  0  0  0  0
    0.2251   -1.4937    1.7119 C   0  0  0  0  0  0  0  0  0  0  0  0
    1.4242   -1.2740    1.8179 O   0  0  0  0  0  0  0  0  0  0  0  0
   -0.5935   -1.1669    2.7803 N   0  0  0  0  0  0  0  0  0  0  0  0
   -1.5478   -1.5056    2.6942 H   0  0  0  0  0  0  0  0  0  0  0  0
   -0.0607   -0.9957    4.1287 C   0  0  0  0  0  0  0  0  0  0  0  0
    0.6634   -0.1747    4.1578 H   0  0  0  0  0  0  0  0  0  0  0  0
   -0.8686   -0.7660    4.8300 H   0  0  0  0  0  0  0  0  0  0  0  0
    0.4370   -1.9129    4.4613 H   0  0  0  0  0  0  0  0  0  0  0  0
  1  2  1  0  0  0  0
  2  3  1  0  0  0  0
  2  4  1  0  0  0  0
  2  5  1  0  0  0  0
  5  6  2  0  0  0  0
  5  7  1  0  0  0  0
  7  8  1  0  0  0  0
  7  9  1  0  0  0  0
  9 10  1  0  0  0  0
  9 11  1  0  0  0  0
  9 29  1  0  0  0  0
 11 12  1  0  0  0  0
 11 13  1  0  0  0  0
 11 14  1  0  0  0  0
 14 15  1  0  0  0  0
 14 16  1  0  0  0  0
 14 17  1  0  0  0  0
 17 18  1  0  0  0  0
 17 19  1  0  0  0  0
 17 20  1  0  0  0  0
 20 21  1  0  0  0  0
 20 22  2  0  0  0  0
 22 23  1  0  0  0  0
 22 26  1  0  0  0  0
 23 24  1  0  0  0  0
 23 25  1  0  0  0  0
 26 27  1  0  0  0  0
 26 28  1  0  0  0  0
 29 30  2  0  0  0  0
 29 31  1  0  0  0  0
 31 32  1  0  0  0  0
 31 33  1  0  0  0  0
 33 34  1  0  0  0  0
 33 35  1  0  0  0  0
 33 36  1  0  0  0  0
M  CHG  1  20   1
M  END
$$$$

  -OEChem-04042215563D

 36 35  0     1  0  0  0  0  0999 V2000
   -2.9469   -5.5226    0.6159 H   0  0  0  0  0  0  0  0  0  0  0  0
   -3.0272   -4.4954    0.2478 C   0  0  0  0  0  0  0  0  0  0  0  0
   -3.9029   -4.0269    0.7027 H   0  0  0  0  0  0  0  0  0  0  0  0
   -3.1565   -4.5226   -0.8367 H   0  0  0  0  0  0  0  0  0  0  0  0
   -1.7754   -3.7163    0.6029 C   0  0  0  0  0  0  0  0  0  0  0  0
   -0.8867   -4.2498    1.2407 O   0  0  0  0  0  0  0  0  0  0  0  0
   -1.6570   -2.3891    0.2313 N   0  0  0  0  0  0  0  0  0  0  0  0
   -2.3814   -2.0400   -0.3889 H   0  0  0  0  0  0  0  0  0  0  0  0
   -0.3902   -1.6350    0.3115 C   0  0  1  0  0  0  0  0  0  0  0  0
    0.3342   -2.2500   -0.2368 H   0  0  0  0  0  0  0  0  0  0  0  0
   -0.4680   -0.3040   -0.4793 C   0  0  0  0  0  0  0  0  0  0  0  0
    0.4448   -0.2049   -1.0771 H   0  0  0  0  0  0  0  0  0  0  0  0
   -1.3031   -0.3676   -1.1845 H   0  0  0  0  0  0  0  0  0  0  0  0
   -0.6086    0.9693    0.3753 C   0  0  0  0  0  0  0  0  0  0  0  0
   -1.1735    0.7515    1.2853 H   0  0  0  0  0  0  0  0  0  0  0  0
    0.3881    1.3194    0.6690 H   0  0  0  0  0  0  0  0  0  0  0  0
   -1.3763    2.0545   -0.3755 C   0  0  0  0  0  0  0  0  0  0  0  0
   -0.8742    2.2536   -1.3289 H   0  0  0  0  0  0  0  0  0  0  0  0
   -2.3938    1.7042   -0.5814 H   0  0  0  0  0  0  0  0  0  0  0  0
   -1.4066    3.2785    0.4465 N   0  3  0  0  0  0  0  0  0  0  0  0
   -0.8254    3.2845    1.2847 H   0  0  0  0  0  0  0  0  0  0  0  0
   -2.0949    4.3413    0.1447 C   0  0  0  0  0  0  0  0  0  0  0  0
   -2.8635    4.4103   -0.9951 N   0  0  0  0  0  0  0  0  0  0  0  0
   -2.7337    3.6857   -1.6980 H   0  0  0  0  0  0  0  0  0  0  0  0
   -3.1882    5.3235   -1.3069 H   0  0  0  0  0  0  0  0  0  0  0  0
   -2.0592    5.4310    0.9816 N   0  0  0  0  0  0  0  0  0  0  0  0
   -1.6268    5.3333    1.8984 H   0  0  0  0  0  0  0  0  0  0  0  0
   -2.7537    6.1653    0.8563 H   0  0  0  0  0  0  0  0  0  0  0  0
    0.2335   -1.5195    1.7252 C   0  0  0  0  0  0  0  0  0  0  0  0
    1.4328   -1.2927    1.8105 O   0  0  0  0  0  0  0  0  0  0  0  0
   -0.5636   -1.2109    2.8155 N   0  0  0  0  0  0  0  0  0  0  0  0
   -1.5166   -1.5571    2.7472 H   0  0  0  0  0  0  0  0  0  0  0  0
   -0.0022   -1.0497    4.1536 C   0  0  0  0  0  0  0  0  0  0  0  0
    0.7136   -0.2212    4.1766 H   0  0  0  0  0  0  0  0  0  0  0  0
   -0.7961   -0.8372    4.8759 H   0  0  0  0  0  0  0  0  0  0  0  0
    0.5125   -1.9656    4.4636 H   0  0  0  0  0  0  0  0  0  0  0  0
  1  2  1  0  0  0  0
  2  3  1  0  0  0  0
  2  4  1  0  0  0  0
  2  5  1  0  0  0  0
  5  6  2  0  0  0  0
  5  7  1  0  0  0  0
  7  8  1  0  0  0  0
  7  9  1  0  0  0  0
  9 10  1  0  0  0  0
  9 11  1  0  0  0  0
  9 29  1  0  0  0  0
 11 12  1  0  0  0  0
 11 13  1  0  0  0  0
 11 14  1  0  0  0  0
 14 15  1  0  0  0  0
 14 16  1  0  0  0  0
 14 17  1  0  0  0  0
 17 18  1  0  0  0  0
 17 19  1  0  0  0  0
 17 20  1  0  0  0  0
 20 21  1  0  0  0  0
 20 22  2  0  0  0  0
 22 23  1  0  0  0  0
 22 26  1  0  0  0  0
 23 24  1  0  0  0  0
 23 25  1  0  0  0  0
 26 27  1  0  0  0  0
 26 28  1  0  0  0  0
 29 30  2  0  0  0  0
 29 31  1  0  0  0  0
 31 32  1  0  0  0  0
 31 33  1  0  0  0  0
 33 34  1  0  0  0  0
 33 35  1  0  0  0  0
 33 36  1  0  0  0  0
M  CHG  1  20   1
M  END
$$$$

  -OEChem-04042215563D

 36 35  0     1  0  0  0  0  0999 V2000
   -2.8289   -5.6179    0.6291 H   0  0  0  0  0  0  0  0  0  0  0  0
   -2.9410   -4.5980    0.2491 C   0  0  0  0  0  0  0  0  0  0  0  0
   -3.8280   -4.1508    0.7034 H   0  0  0  0  0  0  0  0  0  0  0  0
   -3.0741   -4.6421   -0.8345 H   0  0  0  0  0  0  0  0  0  0  0  0
   -1.7100   -3.7794    0.5888 C   0  0  0  0  0  0  0  0  0  0  0  0
   -0.7727   -4.3040    1.1608 O   0  0  0  0  0  0  0  0  0  0  0  0
   -1.6613   -2.4329    0.2724 N   0  0  0  0  0  0  0  0  0  0  0  0
   -2.4263   -2.0878   -0.2990 H   0  0  0  0  0  0  0  0  0  0  0  0
   -0.4214   -1.6322    0.3292 C   0  0  1  0  0  0  0  0  0  0  0  0
    0.2989   -2.2024   -0.2705 H   0  0  0  0  0  0  0  0  0  0  0  0
   -0.5733   -0.2800   -0.4180 C   0  0  0  0  0  0  0  0  0  0  0  0
    0.3194   -0.1395   -1.0379 H   0  0  0  0  0  0  0  0  0  0  0  0
   -1.4187   -0.3601   -1.1091 H   0  0  0  0  0  0  0  0  0  0  0  0
   -0.7300    0.9877    0.4504 C   0  0  0  0  0  0  0  0  0  0  0  0
   -0.9907    0.7330    1.4789 H   0  0  0  0  0  0  0  0  0  0  0  0
    0.2279    1.5202    0.4743 H   0  0  0  0  0  0  0  0  0  0  0  0
   -1.8401    1.8927   -0.0812 C   0  0  0  0  0  0  0  0  0  0  0  0
   -1.6515    2.1050   -1.1395 H   0  0  0  0  0  0  0  0  0  0  0  0
   -2.8037    1.3786    0.0074 H   0  0  0  0  0  0  0  0  0  0  0  0
   -1.8513    3.1478    0.6938 N   0  3  0  0  0  0  0  0  0  0  0  0
   -1.2020    3.2100    1.4776 H   0  0  0  0  0  0  0  0  0  0  0  0
   -2.5938    4.1771    0.4046 C   0  0  0  0  0  0  0  0  0  0  0  0
   -3.4678    4.1676   -0.6583 N   0  0  0  0  0  0  0  0  0  0  0  0
   -3.4058    3.3962   -1.3189 H   0  0  0  0  0  0  0  0  0  0  0  0
   -3.8436    5.0540   -0.9895 H   0  0  0  0  0  0  0  0  0  0  0  0
   -2.5059    5.3124    1.1744 N   0  0  0  0  0  0  0  0  0  0  0  0
   -1.9885    5.2760    2.0509 H   0  0  0  0  0  0  0  0  0  0  0  0
   -3.2134    6.0367    1.0640 H   0  0  0  0  0  0  0  0  0  0  0  0
    0.2601   -1.5556    1.7179 C   0  0  0  0  0  0  0  0  0  0  0  0
    1.4540   -1.2934    1.7636 O   0  0  0  0  0  0  0  0  0  0  0  0
   -0.5000   -1.3284    2.8534 N   0  0  0  0  0  0  0  0  0  0  0  0
   -1.4450   -1.6986    2.8059 H   0  0  0  0  0  0  0  0  0  0  0  0
    0.1111   -1.2100    4.1741 C   0  0  0  0  0  0  0  0  0  0  0  0
    0.7983   -0.3580    4.2066 H   0  0  0  0  0  0  0  0  0  0  0  0
   -0.6588   -1.0592    4.9368 H   0  0  0  0  0  0  0  0  0  0  0  0
    0.6699   -2.1197    4.4206 H   0  0  0  0  0  0  0  0  0  0  0  0
  1  2  1  0  0  0  0
  2  3  1  0  0  0  0
  2  4  1  0  0  0  0
  2  5  1  0  0  0  0
  5  6  2  0  0  0  0
  5  7  1  0  0  0  0
  7  8  1  0  0  0  0
  7  9  1  0  0  0  0
  9 10  1  0  0  0  0
  9 11  1  0  0  0  0
  9 29  1  0  0  0  0
 11 12  1  0  0  0  0
 11 13  1  0  0  0  0
 11 14  1  0  0  0  0
 14 15  1  0  0  0  0
 14 16  1  0  0  0  0
 14 17  1  0  0  0  0
 17 18  1  0  0  0  0
 17 19  1  0  0  0  0
 17 20  1  0  0  0  0
 20 21  1  0  0  0  0
 20 22  2  0  0  0  0
 22 23  1  0  0  0  0
 22 26  1  0  0  0  0
 23 24  1  0  0  0  0
 23 25  1  0  0  0  0
 26 27  1  0  0  0  0
 26 28  1  0  0  0  0
 29 30  2  0  0  0  0
 29 31  1  0  0  0  0
 31 32  1  0  0  0  0
 31 33  1  0  0  0  0
 33 34  1  0  0  0  0
 33 35  1  0  0  0  0
 33 36  1  0  0  0  0
M  CHG  1  20   1
M  END
$$$$

  -OEChem-04042215563D

 36 35  0     1  0  0  0  0  0999 V2000
   -2.8495   -5.6143    0.6027 H   0  0  0  0  0  0  0  0  0  0  0  0
   -2.9542   -4.5874    0.2401 C   0  0  0  0  0  0  0  0  0  0  0  0
   -3.8480   -4.1476    0.6883 H   0  0  0  0  0  0  0  0  0  0  0  0
   -3.0706   -4.6116   -0.8461 H   0  0  0  0  0  0  0  0  0  0  0  0
   -1.7274   -3.7773    0.6138 C   0  0  0  0  0  0  0  0  0  0  0  0
   -0.8131   -4.3062    1.2181 O   0  0  0  0  0  0  0  0  0  0  0  0
   -1.6570   -2.4342    0.2872 N   0  0  0  0  0  0  0  0  0  0  0  0
   -2.3963   -2.0978   -0.3219 H   0  0  0  0  0  0  0  0  0  0  0  0
   -0.4015   -1.6568    0.3369 C   0  0  1  0  0  0  0  0  0  0  0  0
    0.3099   -2.2385   -0.2622 H   0  0  0  0  0  0  0  0  0  0  0  0
   -0.5488   -0.3065   -0.4169 C   0  0  0  0  0  0  0  0  0  0  0  0
    0.3577   -0.1874   -1.0213 H   0  0  0  0  0  0  0  0  0  0  0  0
   -1.3791   -0.3802   -1.1270 H   0  0  0  0  0  0  0  0  0  0  0  0
   -0.6868    0.9830    0.4267 C   0  0  0  0  0  0  0  0  0  0  0  0
   -0.6260    0.7858    1.4973 H   0  0  0  0  0  0  0  0  0  0  0  0
    0.1517    1.6436    0.1784 H   0  0  0  0  0  0  0  0  0  0  0  0
   -2.0014    1.7048    0.1402 C   0  0  0  0  0  0  0  0  0  0  0  0
   -2.0709    1.9136   -0.9331 H   0  0  0  0  0  0  0  0  0  0  0  0
   -2.8400    1.0611    0.4281 H   0  0  0  0  0  0  0  0  0  0  0  0
   -2.0343    2.9632    0.9084 N   0  3  0  0  0  0  0  0  0  0  0  0
   -1.2353    3.1544    1.5127 H   0  0  0  0  0  0  0  0  0  0  0  0
   -3.0021    3.8311    0.8433 C   0  0  0  0  0  0  0  0  0  0  0  0
   -4.0965    3.6369    0.0318 N   0  0  0  0  0  0  0  0  0  0  0  0
   -4.0520    2.8856   -0.6531 H   0  0  0  0  0  0  0  0  0  0  0  0
   -4.7006    4.4316   -0.1687 H   0  0  0  0  0  0  0  0  0  0  0  0
   -2.9365    4.9779    1.5987 N   0  0  0  0  0  0  0  0  0  0  0  0
   -2.2161    5.0573    2.3144 H   0  0  0  0  0  0  0  0  0  0  0  0
   -3.7734    5.5506    1.6947 H   0  0  0  0  0  0  0  0  0  0  0  0
    0.2790   -1.5871    1.7266 C   0  0  0  0  0  0  0  0  0  0  0  0
    1.4778   -1.3491    1.7728 O   0  0  0  0  0  0  0  0  0  0  0  0
   -0.4795   -1.3389    2.8593 N   0  0  0  0  0  0  0  0  0  0  0  0
   -1.4278   -1.7008    2.8141 H   0  0  0  0  0  0  0  0  0  0  0  0
    0.1341   -1.2215    4.1792 C   0  0  0  0  0  0  0  0  0  0  0  0
    0.8358   -0.3810    4.2059 H   0  0  0  0  0  0  0  0  0  0  0  0
   -0.6326   -1.0529    4.9414 H   0  0  0  0  0  0  0  0  0  0  0  0
    0.6779   -2.1386    4.4310 H   0  0  0  0  0  0  0  0  0  0  0  0
  1  2  1  0  0  0  0
  2  3  1  0  0  0  0
  2  4  1  0  0  0  0
  2  5  1  0  0  0  0
  5  6  2  0  0  0  0
  5  7  1  0  0  0  0
  7  8  1  0  0  0  0
  7  9  1  0  0  0  0
  9 10  1  0  0  0  0
  9 11  1  0  0  0  0
  9 29  1  0  0  0  0
 11 12  1  0  0  0  0
 11 13  1  0  0  0  0
 11 14  1  0  0  0  0
 14 15  1  0  0  0  0
 14 16  1  0  0  0  0
 14 17  1  0  0  0  0
 17 18  1  0  0  0  0
 17 19  1  0  0  0  0
 17 20  1  0  0  0  0
 20 21  1  0  0  0  0
 20 22  2  0  0  0  0
 22 23  1  0  0  0  0
 22 26  1  0  0  0  0
 23 24  1  0  0  0  0
 23 25  1  0  0  0  0
 26 27  1  0  0  0  0
 26 28  1  0  0  0  0
 29 30  2  0  0  0  0
 29 31  1  0  0  0  0
 31 32  1  0  0  0  0
 31 33  1  0  0  0  0
 33 34  1  0  0  0  0
 33 35  1  0  0  0  0
 33 36  1  0  0  0  0
M  CHG  1  20   1
M  END
$$$$

  -OEChem-04042215563D

 36 35  0     1  0  0  0  0  0999 V2000
   -2.8714   -5.5948    0.6730 H   0  0  0  0  0  0  0  0  0  0  0  0
   -2.9327   -4.5952    0.2324 C   0  0  0  0  0  0  0  0  0  0  0  0
   -3.8474   -4.1130    0.5846 H   0  0  0  0  0  0  0  0  0  0  0  0
   -2.9736   -4.6955   -0.8549 H   0  0  0  0  0  0  0  0  0  0  0  0
   -1.7205   -3.7765    0.6329 C   0  0  0  0  0  0  0  0  0  0  0  0
   -0.8403   -4.2873    1.2999 O   0  0  0  0  0  0  0  0  0  0  0  0
   -1.6312   -2.4448    0.2656 N   0  0  0  0  0  0  0  0  0  0  0  0
   -2.3342   -2.1385   -0.4001 H   0  0  0  0  0  0  0  0  0  0  0  0
   -0.3670   -1.6802    0.3166 C   0  0  1  0  0  0  0  0  0  0  0  0
    0.3539   -2.2716   -0.2615 H   0  0  0  0  0  0  0  0  0  0  0  0
   -0.5156   -0.3359   -0.4485 C   0  0  0  0  0  0  0  0  0  0  0  0
    0.4040   -0.2267   -1.0346 H   0  0  0  0  0  0  0  0  0  0  0  0
   -1.3318   -0.4065   -1.1749 H   0  0  0  0  0  0  0  0  0  0  0  0
   -0.6508    0.9640    0.3786 C   0  0  0  0  0  0  0  0  0  0  0  0
   -0.2821    0.8553    1.4005 H   0  0  0  0  0  0  0  0  0  0  0  0
   -0.0157    1.7210   -0.0953 H   0  0  0  0  0  0  0  0  0  0  0  0
   -2.0852    1.4872    0.3833 C   0  0  0  0  0  0  0  0  0  0  0  0
   -2.4145    1.6529   -0.6485 H   0  0  0  0  0  0  0  0  0  0  0  0
   -2.7393    0.7401    0.8463 H   0  0  0  0  0  0  0  0  0  0  0  0
   -2.1277    2.7487    1.1465 N   0  3  0  0  0  0  0  0  0  0  0  0
   -1.2390    3.0991    1.5033 H   0  0  0  0  0  0  0  0  0  0  0  0
   -3.2153    3.4196    1.3933 C   0  0  0  0  0  0  0  0  0  0  0  0
   -4.4450    3.0099    0.9313 N   0  0  0  0  0  0  0  0  0  0  0  0
   -4.4667    2.2688    0.2346 H   0  0  0  0  0  0  0  0  0  0  0  0
   -5.2144    3.6768    0.9437 H   0  0  0  0  0  0  0  0  0  0  0  0
   -3.1423    4.5742    2.1356 N   0  0  0  0  0  0  0  0  0  0  0  0
   -2.2709    4.7977    2.6132 H   0  0  0  0  0  0  0  0  0  0  0  0
   -4.0042    4.9744    2.5021 H   0  0  0  0  0  0  0  0  0  0  0  0
    0.2753   -1.5833    1.7215 C   0  0  0  0  0  0  0  0  0  0  0  0
    1.4752   -1.3600    1.7994 O   0  0  0  0  0  0  0  0  0  0  0  0
   -0.5178   -1.2947    2.8202 N   0  0  0  0  0  0  0  0  0  0  0  0
   -1.4644   -1.6566    2.7506 H   0  0  0  0  0  0  0  0  0  0  0  0
    0.0535   -1.1660    4.1576 C   0  0  0  0  0  0  0  0  0  0  0  0
    0.7748   -0.3427    4.1929 H   0  0  0  0  0  0  0  0  0  0  0  0
   -0.7343   -0.9634    4.8894 H   0  0  0  0  0  0  0  0  0  0  0  0
    0.5651   -2.0910    4.4457 H   0  0  0  0  0  0  0  0  0  0  0  0
  1  2  1  0  0  0  0
  2  3  1  0  0  0  0
  2  4  1  0  0  0  0
  2  5  1  0  0  0  0
  5  6  2  0  0  0  0
  5  7  1  0  0  0  0
  7  8  1  0  0  0  0
  7  9  1  0  0  0  0
  9 10  1  0  0  0  0
  9 11  1  0  0  0  0
  9 29  1  0  0  0  0
 11 12  1  0  0  0  0
 11 13  1  0  0  0  0
 11 14  1  0  0  0  0
 14 15  1  0  0  0  0
 14 16  1  0  0  0  0
 14 17  1  0  0  0  0
 17 18  1  0  0  0  0
 17 19  1  0  0  0  0
 17 20  1  0  0  0  0
 20 21  1  0  0  0  0
 20 22  2  0  0  0  0
 22 23  1  0  0  0  0
 22 26  1  0  0  0  0
 23 24  1  0  0  0  0
 23 25  1  0  0  0  0
 26 27  1  0  0  0  0
 26 28  1  0  0  0  0
 29 30  2  0  0  0  0
 29 31  1  0  0  0  0
 31 32  1  0  0  0  0
 31 33  1  0  0  0  0
 33 34  1  0  0  0  0
 33 35  1  0  0  0  0
 33 36  1  0  0  0  0
M  CHG  1  20   1
M  END
$$$$

  -OEChem-04042215563D

 36 35  0     1  0  0  0  0  0999 V2000
   -2.8554   -5.5984    0.6779 H   0  0  0  0  0  0  0  0  0  0  0  0
   -2.9151   -4.6027    0.2284 C   0  0  0  0  0  0  0  0  0  0  0  0
   -3.8469   -4.1303    0.5467 H   0  0  0  0  0  0  0  0  0  0  0  0
   -2.9193   -4.7111   -0.8588 H   0  0  0  0  0  0  0  0  0  0  0  0
   -1.7278   -3.7644    0.6621 C   0  0  0  0  0  0  0  0  0  0  0  0
   -0.8985   -4.2365    1.4166 O   0  0  0  0  0  0  0  0  0  0  0  0
   -1.6133   -2.4522    0.2361 N   0  0  0  0  0  0  0  0  0  0  0  0
   -2.2709   -2.1908   -0.4927 H   0  0  0  0  0  0  0  0  0  0  0  0
   -0.3423   -1.6980    0.2909 C   0  0  1  0  0  0  0  0  0  0  0  0
    0.3938   -2.3035   -0.2522 H   0  0  0  0  0  0  0  0  0  0  0  0
   -0.4885   -0.3700   -0.5024 C   0  0  0  0  0  0  0  0  0  0  0  0
    0.4332   -0.2663   -1.0864 H   0  0  0  0  0  0  0  0  0  0  0  0
   -1.3047   -0.4464   -1.2280 H   0  0  0  0  0  0  0  0  0  0  0  0
   -0.6288    0.9324    0.3136 C   0  0  0  0  0  0  0  0  0  0  0  0
   -0.0248    0.9146    1.2248 H   0  0  0  0  0  0  0  0  0  0  0  0
   -0.2294    1.7483   -0.2987 H   0  0  0  0  0  0  0  0  0  0  0  0
   -2.0875    1.2551    0.6227 C   0  0  0  0  0  0  0  0  0  0  0  0
   -2.6338    1.4129   -0.3137 H   0  0  0  0  0  0  0  0  0  0  0  0
   -2.5358    0.4093    1.1558 H   0  0  0  0  0  0  0  0  0  0  0  0
   -2.1317    2.4668    1.4622 N   0  3  0  0  0  0  0  0  0  0  0  0
   -1.2417    2.9303    1.6440 H   0  0  0  0  0  0  0  0  0  0  0  0
   -3.2143    2.9443    2.0039 C   0  0  0  0  0  0  0  0  0  0  0  0
   -4.4473    2.3702    1.7947 N   0  0  0  0  0  0  0  0  0  0  0  0
   -4.5255    1.6741    1.0571 H   0  0  0  0  0  0  0  0  0  0  0  0
   -5.2789    2.9059    2.0364 H   0  0  0  0  0  0  0  0  0  0  0  0
   -3.1331    4.0556    2.8086 N   0  0  0  0  0  0  0  0  0  0  0  0
   -2.2142    4.3772    3.1082 H   0  0  0  0  0  0  0  0  0  0  0  0
   -3.9349    4.2976    3.3880 H   0  0  0  0  0  0  0  0  0  0  0  0
    0.2508   -1.5470    1.7132 C   0  0  0  0  0  0  0  0  0  0  0  0
    1.4492   -1.3317    1.8280 O   0  0  0  0  0  0  0  0  0  0  0  0
   -0.5821   -1.2022    2.7661 N   0  0  0  0  0  0  0  0  0  0  0  0
   -1.5190   -1.5856    2.6834 H   0  0  0  0  0  0  0  0  0  0  0  0
   -0.0565   -1.0129    4.1147 C   0  0  0  0  0  0  0  0  0  0  0  0
    0.6682   -0.1923    4.1354 H   0  0  0  0  0  0  0  0  0  0  0  0
   -0.8670   -0.7725    4.8091 H   0  0  0  0  0  0  0  0  0  0  0  0
    0.4390   -1.9259    4.4628 H   0  0  0  0  0  0  0  0  0  0  0  0
  1  2  1  0  0  0  0
  2  3  1  0  0  0  0
  2  4  1  0  0  0  0
  2  5  1  0  0  0  0
  5  6  2  0  0  0  0
  5  7  1  0  0  0  0
  7  8  1  0  0  0  0
  7  9  1  0  0  0  0
  9 10  1  0  0  0  0
  9 11  1  0  0  0  0
  9 29  1  0  0  0  0
 11 12  1  0  0  0  0
 11 13  1  0  0  0  0
 11 14  1  0  0  0  0
 14 15  1  0  0  0  0
 14 16  1  0  0  0  0
 14 17  1  0  0  0  0
 17 18  1  0  0  0  0
 17 19  1  0  0  0  0
 17 20  1  0  0  0  0
 20 21  1  0  0  0  0
 20 22  2  0  0  0  0
 22 23  1  0  0  0  0
 22 26  1  0  0  0  0
 23 24  1  0  0  0  0
 23 25  1  0  0  0  0
 26 27  1  0  0  0  0
 26 28  1  0  0  0  0
 29 30  2  0  0  0  0
 29 31  1  0  0  0  0
 31 32  1  0  0  0  0
 31 33  1  0  0  0  0
 33 34  1  0  0  0  0
 33 35  1  0  0  0  0
 33 36  1  0  0  0  0
M  CHG  1  20   1
M  END
$$$$

  -OEChem-04042215563D

 36 35  0     1  0  0  0  0  0999 V2000
   -2.4861   -5.8176    0.6184 H   0  0  0  0  0  0  0  0  0  0  0  0
   -2.6805   -4.8115    0.2347 C   0  0  0  0  0  0  0  0  0  0  0  0
   -3.6235   -4.4530    0.6534 H   0  0  0  0  0  0  0  0  0  0  0  0
   -2.7663   -4.8636   -0.8535 H   0  0  0  0  0  0  0  0  0  0  0  0
   -1.5479   -3.8800    0.6216 C   0  0  0  0  0  0  0  0  0  0  0  0
   -0.6121   -4.3016    1.2751 O   0  0  0  0  0  0  0  0  0  0  0  0
   -1.6005   -2.5421    0.2711 N   0  0  0  0  0  0  0  0  0  0  0  0
   -2.3457   -2.3092   -0.3789 H   0  0  0  0  0  0  0  0  0  0  0  0
   -0.4060   -1.6715    0.2546 C   0  0  1  0  0  0  0  0  0  0  0  0
    0.3232   -2.1800   -0.3878 H   0  0  0  0  0  0  0  0  0  0  0  0
   -0.7344   -0.3280   -0.4516 C   0  0  0  0  0  0  0  0  0  0  0  0
    0.1090   -0.1082   -1.1159 H   0  0  0  0  0  0  0  0  0  0  0  0
   -1.6146   -0.4427   -1.0925 H   0  0  0  0  0  0  0  0  0  0  0  0
   -0.9113    0.9017    0.4565 C   0  0  0  0  0  0  0  0  0  0  0  0
   -0.0747    0.9808    1.1584 H   0  0  0  0  0  0  0  0  0  0  0  0
   -0.8796    1.8016   -0.1670 H   0  0  0  0  0  0  0  0  0  0  0  0
   -2.2474    0.8730    1.1946 C   0  0  0  0  0  0  0  0  0  0  0  0
   -3.0603    1.0601    0.4861 H   0  0  0  0  0  0  0  0  0  0  0  0
   -2.3990   -0.1189    1.6335 H   0  0  0  0  0  0  0  0  0  0  0  0
   -2.2144    1.8851    2.2668 N   0  3  0  0  0  0  0  0  0  0  0  0
   -1.3947    1.8706    2.8744 H   0  0  0  0  0  0  0  0  0  0  0  0
   -3.1441    2.7699    2.4838 C   0  0  0  0  0  0  0  0  0  0  0  0
   -4.2951    2.8256    1.7313 N   0  0  0  0  0  0  0  0  0  0  0  0
   -4.4976    2.0467    1.1089 H   0  0  0  0  0  0  0  0  0  0  0  0
   -5.0765    3.3802    2.0754 H   0  0  0  0  0  0  0  0  0  0  0  0
   -2.9793    3.6824    3.4983 N   0  0  0  0  0  0  0  0  0  0  0  0
   -2.0601    3.7725    3.9278 H   0  0  0  0  0  0  0  0  0  0  0  0
   -3.5990    4.4900    3.5300 H   0  0  0  0  0  0  0  0  0  0  0  0
    0.3176   -1.5338    1.6180 C   0  0  0  0  0  0  0  0  0  0  0  0
    1.4968   -1.2097    1.6224 O   0  0  0  0  0  0  0  0  0  0  0  0
   -0.4180   -1.3270    2.7747 N   0  0  0  0  0  0  0  0  0  0  0  0
   -1.3153   -1.8044    2.7664 H   0  0  0  0  0  0  0  0  0  0  0  0
    0.2459   -1.1980    4.0692 C   0  0  0  0  0  0  0  0  0  0  0  0
    0.8971   -0.3176    4.0845 H   0  0  0  0  0  0  0  0  0  0  0  0
   -0.4942   -1.0927    4.8681 H   0  0  0  0  0  0  0  0  0  0  0  0
    0.8548   -2.0853    4.2762 H   0  0  0  0  0  0  0  0  0  0  0  0
  1  2  1  0  0  0  0
  2  3  1  0  0  0  0
  2  4  1  0  0  0  0
  2  5  1  0  0  0  0
  5  6  2  0  0  0  0
  5  7  1  0  0  0  0
  7  8  1  0  0  0  0
  7  9  1  0  0  0  0
  9 10  1  0  0  0  0
  9 11  1  0  0  0  0
  9 29  1  0  0  0  0
 11 12  1  0  0  0  0
 11 13  1  0  0  0  0
 11 14  1  0  0  0  0
 14 15  1  0  0  0  0
 14 16  1  0  0  0  0
 14 17  1  0  0  0  0
 17 18  1  0  0  0  0
 17 19  1  0  0  0  0
 17 20  1  0  0  0  0
 20 21  1  0  0  0  0
 20 22  2  0  0  0  0
 22 23  1  0  0  0  0
 22 26  1  0  0  0  0
 23 24  1  0  0  0  0
 23 25  1  0  0  0  0
 26 27  1  0  0  0  0
 26 28  1  0  0  0  0
 29 30  2  0  0  0  0
 29 31  1  0  0  0  0
 31 32  1  0  0  0  0
 31 33  1  0  0  0  0
 33 34  1  0  0  0  0
 33 35  1  0  0  0  0
 33 36  1  0  0  0  0
M  CHG  1  20   1
M  END
$$$$

  -OEChem-04042215563D

 36 35  0     1  0  0  0  0  0999 V2000
   -2.8492   -5.6429    0.4949 H   0  0  0  0  0  0  0  0  0  0  0  0
   -2.8828   -4.6499    0.0364 C   0  0  0  0  0  0  0  0  0  0  0  0
   -3.8563   -4.2004    0.2450 H   0  0  0  0  0  0  0  0  0  0  0  0
   -2.7620   -4.7611   -1.0441 H   0  0  0  0  0  0  0  0  0  0  0  0
   -1.7730   -3.7808    0.5965 C   0  0  0  0  0  0  0  0  0  0  0  0
   -1.0171   -4.2290    1.4384 O   0  0  0  0  0  0  0  0  0  0  0  0
   -1.6623   -2.4562    0.2114 N   0  0  0  0  0  0  0  0  0  0  0  0
   -2.2646   -2.1999   -0.5665 H   0  0  0  0  0  0  0  0  0  0  0  0
   -0.4030   -1.6936    0.3446 C   0  0  1  0  0  0  0  0  0  0  0  0
    0.3485   -2.3171   -0.1557 H   0  0  0  0  0  0  0  0  0  0  0  0
   -0.4423   -0.3837   -0.4875 C   0  0  0  0  0  0  0  0  0  0  0  0
    0.5153   -0.3049   -1.0153 H   0  0  0  0  0  0  0  0  0  0  0  0
   -1.2185   -0.4638   -1.2558 H   0  0  0  0  0  0  0  0  0  0  0  0
   -0.6344    0.9335    0.2827 C   0  0  0  0  0  0  0  0  0  0  0  0
    0.2165    1.0574    0.9627 H   0  0  0  0  0  0  0  0  0  0  0  0
   -0.6068    1.7691   -0.4251 H   0  0  0  0  0  0  0  0  0  0  0  0
   -1.9411    0.9909    1.0736 C   0  0  0  0  0  0  0  0  0  0  0  0
   -2.1291    0.0244    1.5479 H   0  0  0  0  0  0  0  0  0  0  0  0
   -2.7704    1.2040    0.3902 H   0  0  0  0  0  0  0  0  0  0  0  0
   -1.8224    2.0473    2.0960 N   0  3  0  0  0  0  0  0  0  0  0  0
   -0.9806    2.6217    2.0645 H   0  0  0  0  0  0  0  0  0  0  0  0
   -2.6650    2.2190    3.0718 C   0  0  0  0  0  0  0  0  0  0  0  0
   -3.7939    1.4438    3.2019 N   0  0  0  0  0  0  0  0  0  0  0  0
   -3.8866    0.6307    2.5982 H   0  0  0  0  0  0  0  0  0  0  0  0
   -4.2917    1.4467    4.0900 H   0  0  0  0  0  0  0  0  0  0  0  0
   -2.4264    3.1992    4.0052 N   0  0  0  0  0  0  0  0  0  0  0  0
   -1.6908    3.8800    3.8241 H   0  0  0  0  0  0  0  0  0  0  0  0
   -3.1796    3.4660    4.6366 H   0  0  0  0  0  0  0  0  0  0  0  0
    0.1616   -1.5561    1.7826 C   0  0  0  0  0  0  0  0  0  0  0  0
    1.3502   -1.2987    1.9104 O   0  0  0  0  0  0  0  0  0  0  0  0
   -0.6789   -1.2412    2.8383 N   0  0  0  0  0  0  0  0  0  0  0  0
   -1.5785   -1.7084    2.7673 H   0  0  0  0  0  0  0  0  0  0  0  0
   -0.1497   -1.0413    4.1853 C   0  0  0  0  0  0  0  0  0  0  0  0
    0.5267   -0.1801    4.2117 H   0  0  0  0  0  0  0  0  0  0  0  0
   -0.9649   -0.8602    4.8921 H   0  0  0  0  0  0  0  0  0  0  0  0
    0.4025   -1.9286    4.5151 H   0  0  0  0  0  0  0  0  0  0  0  0
  1  2  1  0  0  0  0
  2  3  1  0  0  0  0
  2  4  1  0  0  0  0
  2  5  1  0  0  0  0
  5  6  2  0  0  0  0
  5  7  1  0  0  0  0
  7  8  1  0  0  0  0
  7  9  1  0  0  0  0
  9 10  1  0  0  0  0
  9 11  1  0  0  0  0
  9 29  1  0  0  0  0
 11 12  1  0  0  0  0
 11 13  1  0  0  0  0
 11 14  1  0  0  0  0
 14 15  1  0  0  0  0
 14 16  1  0  0  0  0
 14 17  1  0  0  0  0
 17 18  1  0  0  0  0
 17 19  1  0  0  0  0
 17 20  1  0  0  0  0
 20 21  1  0  0  0  0
 20 22  2  0  0  0  0
 22 23  1  0  0  0  0
 22 26  1  0  0  0  0
 23 24  1  0  0  0  0
 23 25  1  0  0  0  0
 26 27  1  0  0  0  0
 26 28  1  0  0  0  0
 29 30  2  0  0  0  0
 29 31  1  0  0  0  0
 31 32  1  0  0  0  0
 31 33  1  0  0  0  0
 33 34  1  0  0  0  0
 33 35  1  0  0  0  0
 33 36  1  0  0  0  0
M  CHG  1  20   1
M  END
$$$$

  -OEChem-04042215563D

 36 35  0     1  0  0  0  0  0999 V2000
   -2.6549   -5.7561    0.3430 H   0  0  0  0  0  0  0  0  0  0  0  0
   -2.7951   -4.7269   -0.0004 C   0  0  0  0  0  0  0  0  0  0  0  0
   -3.7791   -4.3793    0.3225 H   0  0  0  0  0  0  0  0  0  0  0  0
   -2.7509   -4.7154   -1.0923 H   0  0  0  0  0  0  0  0  0  0  0  0
   -1.7114   -3.8352    0.5749 C   0  0  0  0  0  0  0  0  0  0  0  0
   -0.9235   -4.2781    1.3907 O   0  0  0  0  0  0  0  0  0  0  0  0
   -1.6670   -2.4923    0.2464 N   0  0  0  0  0  0  0  0  0  0  0  0
   -2.2987   -2.2262   -0.5046 H   0  0  0  0  0  0  0  0  0  0  0  0
   -0.4458   -1.6755    0.4003 C   0  0  1  0  0  0  0  0  0  0  0  0
    0.3183   -2.2839   -0.0999 H   0  0  0  0  0  0  0  0  0  0  0  0
   -0.4759   -0.3835   -0.4589 C   0  0  0  0  0  0  0  0  0  0  0  0
    0.4943   -0.3000   -0.9619 H   0  0  0  0  0  0  0  0  0  0  0  0
   -1.2257   -0.5103   -1.2465 H   0  0  0  0  0  0  0  0  0  0  0  0
   -0.7332    0.9653    0.2361 C   0  0  0  0  0  0  0  0  0  0  0  0
    0.1962    1.2258    0.7567 H   0  0  0  0  0  0  0  0  0  0  0  0
   -0.9099    1.7393   -0.5187 H   0  0  0  0  0  0  0  0  0  0  0  0
   -1.8792    0.9663    1.2494 C   0  0  0  0  0  0  0  0  0  0  0  0
   -1.9983   -0.0278    1.6808 H   0  0  0  0  0  0  0  0  0  0  0  0
   -2.8119    1.2177    0.7327 H   0  0  0  0  0  0  0  0  0  0  0  0
   -1.5918    1.9573    2.3044 N   0  3  0  0  0  0  0  0  0  0  0  0
   -0.8208    2.6013    2.1308 H   0  0  0  0  0  0  0  0  0  0  0  0
   -2.1925    1.9900    3.4577 C   0  0  0  0  0  0  0  0  0  0  0  0
   -3.2063    1.1152    3.7729 N   0  0  0  0  0  0  0  0  0  0  0  0
   -3.3656    0.3311    3.1454 H   0  0  0  0  0  0  0  0  0  0  0  0
   -3.4817    1.0169    4.7478 H   0  0  0  0  0  0  0  0  0  0  0  0
   -1.8108    2.9211    4.3940 N   0  0  0  0  0  0  0  0  0  0  0  0
   -1.1802    3.6697    4.1125 H   0  0  0  0  0  0  0  0  0  0  0  0
   -2.4164    3.0828    5.1966 H   0  0  0  0  0  0  0  0  0  0  0  0
    0.1486   -1.5547    1.8283 C   0  0  0  0  0  0  0  0  0  0  0  0
    1.3181   -1.2104    1.9253 O   0  0  0  0  0  0  0  0  0  0  0  0
   -0.6679   -1.3203    2.9235 N   0  0  0  0  0  0  0  0  0  0  0  0
   -1.5275   -1.8615    2.8763 H   0  0  0  0  0  0  0  0  0  0  0  0
   -0.0929   -1.1284    4.2530 C   0  0  0  0  0  0  0  0  0  0  0  0
    0.5221   -0.2224    4.2812 H   0  0  0  0  0  0  0  0  0  0  0  0
   -0.8852   -1.0306    5.0010 H   0  0  0  0  0  0  0  0  0  0  0  0
    0.5350   -1.9845    4.5249 H   0  0  0  0  0  0  0  0  0  0  0  0
  1  2  1  0  0  0  0
  2  3  1  0  0  0  0
  2  4  1  0  0  0  0
  2  5  1  0  0  0  0
  5  6  2  0  0  0  0
  5  7  1  0  0  0  0
  7  8  1  0  0  0  0
  7  9  1  0  0  0  0
  9 10  1  0  0  0  0
  9 11  1  0  0  0  0
  9 29  1  0  0  0  0
 11 12  1  0  0  0  0
 11 13  1  0  0  0  0
 11 14  1  0  0  0  0
 14 15  1  0  0  0  0
 14 16  1  0  0  0  0
 14 17  1  0  0  0  0
 17 18  1  0  0  0  0
 17 19  1  0  0  0  0
 17 20  1  0  0  0  0
 20 21  1  0  0  0  0
 20 22  2  0  0  0  0
 22 23  1  0  0  0  0
 22 26  1  0  0  0  0
 23 24  1  0  0  0  0
 23 25  1  0  0  0  0
 26 27  1  0  0  0  0
 26 28  1  0  0  0  0
 29 30  2  0  0  0  0
 29 31  1  0  0  0  0
 31 32  1  0  0  0  0
 31 33  1  0  0  0  0
 33 34  1  0  0  0  0
 33 35  1  0  0  0  0
 33 36  1  0  0  0  0
M  CHG  1  20   1
M  END
$$$$

  -OEChem-04042215563D

 36 35  0     1  0  0  0  0  0999 V2000
   -1.9372   -5.9906    0.0368 H   0  0  0  0  0  0  0  0  0  0  0  0
   -2.2268   -4.9685   -0.2241 C   0  0  0  0  0  0  0  0  0  0  0  0
   -3.2352   -4.7830    0.1527 H   0  0  0  0  0  0  0  0  0  0  0  0
   -2.2276   -4.8733   -1.3127 H   0  0  0  0  0  0  0  0  0  0  0  0
   -1.2512   -3.9794    0.3845 C   0  0  0  0  0  0  0  0  0  0  0  0
   -0.3330   -4.3761    1.0791 O   0  0  0  0  0  0  0  0  0  0  0  0
   -1.4283   -2.6200    0.1909 N   0  0  0  0  0  0  0  0  0  0  0  0
   -2.1466   -2.3691   -0.4840 H   0  0  0  0  0  0  0  0  0  0  0  0
   -0.3988   -1.6047    0.5003 C   0  0  1  0  0  0  0  0  0  0  0  0
    0.5080   -1.9906    0.0180 H   0  0  0  0  0  0  0  0  0  0  0  0
   -0.6436   -0.2537   -0.2354 C   0  0  0  0  0  0  0  0  0  0  0  0
    0.3128    0.0322   -0.6885 H   0  0  0  0  0  0  0  0  0  0  0  0
   -1.3197   -0.4672   -1.0701 H   0  0  0  0  0  0  0  0  0  0  0  0
   -1.1792    1.0214    0.4564 C   0  0  0  0  0  0  0  0  0  0  0  0
   -0.3149    1.6317    0.7440 H   0  0  0  0  0  0  0  0  0  0  0  0
   -1.7149    1.5981   -0.3053 H   0  0  0  0  0  0  0  0  0  0  0  0
   -2.1091    0.8750    1.6579 C   0  0  0  0  0  0  0  0  0  0  0  0
   -2.5627   -0.1220    1.6660 H   0  0  0  0  0  0  0  0  0  0  0  0
   -2.9159    1.6115    1.5951 H   0  0  0  0  0  0  0  0  0  0  0  0
   -1.2938    1.0957    2.8693 N   0  3  0  0  0  0  0  0  0  0  0  0
   -0.5699    0.3883    3.0415 H   0  0  0  0  0  0  0  0  0  0  0  0
   -1.3395    2.1309    3.6514 C   0  0  0  0  0  0  0  0  0  0  0  0
   -2.2661    3.1352    3.4930 N   0  0  0  0  0  0  0  0  0  0  0  0
   -3.0468    2.9622    2.8644 H   0  0  0  0  0  0  0  0  0  0  0  0
   -2.4059    3.7904    4.2596 H   0  0  0  0  0  0  0  0  0  0  0  0
   -0.4196    2.2206    4.6676 N   0  0  0  0  0  0  0  0  0  0  0  0
    0.3827    1.5916    4.6344 H   0  0  0  0  0  0  0  0  0  0  0  0
   -0.2917    3.1223    5.1222 H   0  0  0  0  0  0  0  0  0  0  0  0
    0.0027   -1.6145    1.9976 C   0  0  0  0  0  0  0  0  0  0  0  0
    0.9861   -0.9727    2.3470 O   0  0  0  0  0  0  0  0  0  0  0  0
   -0.9853   -1.7026    2.9654 N   0  0  0  0  0  0  0  0  0  0  0  0
   -1.7906   -2.2384    2.6477 H   0  0  0  0  0  0  0  0  0  0  0  0
   -0.6440   -1.8526    4.3798 C   0  0  0  0  0  0  0  0  0  0  0  0
   -0.0932   -0.9824    4.7503 H   0  0  0  0  0  0  0  0  0  0  0  0
   -1.5545   -1.9612    4.9779 H   0  0  0  0  0  0  0  0  0  0  0  0
   -0.0254   -2.7450    4.5287 H   0  0  0  0  0  0  0  0  0  0  0  0
  1  2  1  0  0  0  0
  2  3  1  0  0  0  0
  2  4  1  0  0  0  0
  2  5  1  0  0  0  0
  5  6  2  0  0  0  0
  5  7  1  0  0  0  0
  7  8  1  0  0  0  0
  7  9  1  0  0  0  0
  9 10  1  0  0  0  0
  9 11  1  0  0  0  0
  9 29  1  0  0  0  0
 11 12  1  0  0  0  0
 11 13  1  0  0  0  0
 11 14  1  0  0  0  0
 14 15  1  0  0  0  0
 14 16  1  0  0  0  0
 14 17  1  0  0  0  0
 17 18  1  0  0  0  0
 17 19  1  0  0  0  0
 17 20  1  0  0  0  0
 20 21  1  0  0  0  0
 20 22  2  0  0  0  0
 22 23  1  0  0  0  0
 22 26  1  0  0  0  0
 23 24  1  0  0  0  0
 23 25  1  0  0  0  0
 26 27  1  0  0  0  0
 26 28  1  0  0  0  0
 29 30  2  0  0  0  0
 29 31  1  0  0  0  0
 31 32  1  0  0  0  0
 31 33  1  0  0  0  0
 33 34  1  0  0  0  0
 33 35  1  0  0  0  0
 33 36  1  0  0  0  0
M  CHG  1  20   1
M  END
$$$$

  -OEChem-04042215563D

 36 35  0     1  0  0  0  0  0999 V2000
   -1.8791   -6.0262   -0.1826 H   0  0  0  0  0  0  0  0  0  0  0  0
   -2.1000   -4.9848   -0.4346 C   0  0  0  0  0  0  0  0  0  0  0  0
   -3.1489   -4.7839   -0.2048 H   0  0  0  0  0  0  0  0  0  0  0  0
   -1.9334   -4.8421   -1.5051 H   0  0  0  0  0  0  0  0  0  0  0  0
   -1.2019   -4.0556    0.3597 C   0  0  0  0  0  0  0  0  0  0  0  0
   -0.3853   -4.5133    1.1392 O   0  0  0  0  0  0  0  0  0  0  0  0
   -1.3269   -2.6831    0.2299 N   0  0  0  0  0  0  0  0  0  0  0  0
   -1.9641   -2.3671   -0.4968 H   0  0  0  0  0  0  0  0  0  0  0  0
   -0.3258   -1.7215    0.7349 C   0  0  1  0  0  0  0  0  0  0  0  0
    0.6150   -2.1512    0.3682 H   0  0  0  0  0  0  0  0  0  0  0  0
   -0.3456   -0.3478   -0.0006 C   0  0  0  0  0  0  0  0  0  0  0  0
    0.6965   -0.1209   -0.2539 H   0  0  0  0  0  0  0  0  0  0  0  0
   -0.8545   -0.5114   -0.9564 H   0  0  0  0  0  0  0  0  0  0  0  0
   -0.9276    0.9591    0.5944 C   0  0  0  0  0  0  0  0  0  0  0  0
   -0.0608    1.5761    0.8555 H   0  0  0  0  0  0  0  0  0  0  0  0
   -1.4628    1.4965   -0.1961 H   0  0  0  0  0  0  0  0  0  0  0  0
   -1.8316    0.8857    1.8236 C   0  0  0  0  0  0  0  0  0  0  0  0
   -2.8636    0.6875    1.5143 H   0  0  0  0  0  0  0  0  0  0  0  0
   -1.5260    0.0836    2.4783 H   0  0  0  0  0  0  0  0  0  0  0  0
   -1.7428    2.1418    2.5910 N   0  3  0  0  0  0  0  0  0  0  0  0
   -2.4118    2.8765    2.3648 H   0  0  0  0  0  0  0  0  0  0  0  0
   -0.8415    2.3519    3.5120 C   0  0  0  0  0  0  0  0  0  0  0  0
    0.1164    1.4179    3.8475 N   0  0  0  0  0  0  0  0  0  0  0  0
    0.2049    0.5629    3.2868 H   0  0  0  0  0  0  0  0  0  0  0  0
    0.9321    1.7112    4.3792 H   0  0  0  0  0  0  0  0  0  0  0  0
   -0.8276    3.5557    4.1747 N   0  0  0  0  0  0  0  0  0  0  0  0
   -1.6312    4.1736    4.0848 H   0  0  0  0  0  0  0  0  0  0  0  0
   -0.2513    3.6391    5.0102 H   0  0  0  0  0  0  0  0  0  0  0  0
   -0.0848   -1.7914    2.2647 C   0  0  0  0  0  0  0  0  0  0  0  0
    0.8827   -1.1840    2.7119 O   0  0  0  0  0  0  0  0  0  0  0  0
   -1.1608   -1.8906    3.1324 N   0  0  0  0  0  0  0  0  0  0  0  0
   -1.9410   -2.4163    2.7434 H   0  0  0  0  0  0  0  0  0  0  0  0
   -0.9779   -1.9831    4.5791 C   0  0  0  0  0  0  0  0  0  0  0  0
   -0.5901   -1.0456    4.9877 H   0  0  0  0  0  0  0  0  0  0  0  0
   -1.9339   -2.1983    5.0665 H   0  0  0  0  0  0  0  0  0  0  0  0
   -0.2776   -2.7888    4.8258 H   0  0  0  0  0  0  0  0  0  0  0  0
  1  2  1  0  0  0  0
  2  3  1  0  0  0  0
  2  4  1  0  0  0  0
  2  5  1  0  0  0  0
  5  6  2  0  0  0  0
  5  7  1  0  0  0  0
  7  8  1  0  0  0  0
  7  9  1  0  0  0  0
  9 10  1  0  0  0  0
  9 11  1  0  0  0  0
  9 29  1  0  0  0  0
 11 12  1  0  0  0  0
 11 13  1  0  0  0  0
 11 14  1  0  0  0  0
 14 15  1  0  0  0  0
 14 16  1  0  0  0  0
 14 17  1  0  0  0  0
 17 18  1  0  0  0  0
 17 19  1  0  0  0  0
 17 20  1  0  0  0  0
 20 21  1  0  0  0  0
 20 22  2  0  0  0  0
 22 23  1  0  0  0  0
 22 26  1  0  0  0  0
 23 24  1  0  0  0  0
 23 25  1  0  0  0  0
 26 27  1  0  0  0  0
 26 28  1  0  0  0  0
 29 30  2  0  0  0  0
 29 31  1  0  0  0  0
 31 32  1  0  0  0  0
 31 33  1  0  0  0  0
 33 34  1  0  0  0  0
 33 35  1  0  0  0  0
 33 36  1  0  0  0  0
M  CHG  1  20   1
M  END
$$$$

  -OEChem-04042215563D

 36 35  0     1  0  0  0  0  0999 V2000
   -2.3606   -5.5048   -1.0155 H   0  0  0  0  0  0  0  0  0  0  0  0
   -2.5436   -4.4262   -1.0169 C   0  0  0  0  0  0  0  0  0  0  0  0
   -3.5368   -4.2381   -0.6022 H   0  0  0  0  0  0  0  0  0  0  0  0
   -2.5124   -4.0686   -2.0490 H   0  0  0  0  0  0  0  0  0  0  0  0
   -1.4886   -3.7178   -0.1883 C   0  0  0  0  0  0  0  0  0  0  0  0
   -0.6234   -4.3590    0.3807 O   0  0  0  0  0  0  0  0  0  0  0  0
   -1.5223   -2.3419   -0.0469 N   0  0  0  0  0  0  0  0  0  0  0  0
   -2.2172   -1.8561   -0.6081 H   0  0  0  0  0  0  0  0  0  0  0  0
   -0.4180   -1.5479    0.5285 C   0  0  1  0  0  0  0  0  0  0  0  0
    0.4619   -1.9260   -0.0071 H   0  0  0  0  0  0  0  0  0  0  0  0
   -0.4617   -0.0538    0.0835 C   0  0  0  0  0  0  0  0  0  0  0  0
    0.5664    0.1860   -0.2119 H   0  0  0  0  0  0  0  0  0  0  0  0
   -1.0515   -0.0054   -0.8379 H   0  0  0  0  0  0  0  0  0  0  0  0
   -0.9135    1.1365    0.9745 C   0  0  0  0  0  0  0  0  0  0  0  0
   -0.0713    1.8373    0.9972 H   0  0  0  0  0  0  0  0  0  0  0  0
   -1.7323    1.6547    0.4639 H   0  0  0  0  0  0  0  0  0  0  0  0
   -1.3606    0.8804    2.4145 C   0  0  0  0  0  0  0  0  0  0  0  0
   -2.4363    0.6746    2.4444 H   0  0  0  0  0  0  0  0  0  0  0  0
   -0.8463    0.0234    2.8265 H   0  0  0  0  0  0  0  0  0  0  0  0
   -1.0112    2.0273    3.2700 N   0  3  0  0  0  0  0  0  0  0  0  0
   -1.6504    2.8209    3.2795 H   0  0  0  0  0  0  0  0  0  0  0  0
    0.0853    2.0658    3.9772 C   0  0  0  0  0  0  0  0  0  0  0  0
    0.9996    1.0318    3.9908 N   0  0  0  0  0  0  0  0  0  0  0  0
    1.9310    1.1903    4.3667 H   0  0  0  0  0  0  0  0  0  0  0  0
    0.8744    0.2374    3.3524 H   0  0  0  0  0  0  0  0  0  0  0  0
    0.3539    3.1796    4.7362 N   0  0  0  0  0  0  0  0  0  0  0  0
   -0.3878    3.8600    4.8867 H   0  0  0  0  0  0  0  0  0  0  0  0
    1.1005    3.1249    5.4264 H   0  0  0  0  0  0  0  0  0  0  0  0
   -0.0597   -1.9242    1.9866 C   0  0  0  0  0  0  0  0  0  0  0  0
    0.9896   -1.4822    2.4477 O   0  0  0  0  0  0  0  0  0  0  0  0
   -1.0792   -2.1254    2.9039 N   0  0  0  0  0  0  0  0  0  0  0  0
   -1.9192   -2.5330    2.4984 H   0  0  0  0  0  0  0  0  0  0  0  0
   -0.8147   -2.4238    4.3093 C   0  0  0  0  0  0  0  0  0  0  0  0
   -0.1779   -3.3111    4.3988 H   0  0  0  0  0  0  0  0  0  0  0  0
   -1.7539   -2.6192    4.8365 H   0  0  0  0  0  0  0  0  0  0  0  0
   -0.3158   -1.5822    4.8004 H   0  0  0  0  0  0  0  0  0  0  0  0
  1  2  1  0  0  0  0
  2  3  1  0  0  0  0
  2  4  1  0  0  0  0
  2  5  1  0  0  0  0
  5  6  2  0  0  0  0
  5  7  1  0  0  0  0
  7  8  1  0  0  0  0
  7  9  1  0  0  0  0
  9 10  1  0  0  0  0
  9 11  1  0  0  0  0
  9 29  1  0  0  0  0
 11 12  1  0  0  0  0
 11 13  1  0  0  0  0
 11 14  1  0  0  0  0
 14 15  1  0  0  0  0
 14 16  1  0  0  0  0
 14 17  1  0  0  0  0
 17 18  1  0  0  0  0
 17 19  1  0  0  0  0
 17 20  1  0  0  0  0
 20 21  1  0  0  0  0
 20 22  2  0  0  0  0
 22 23  1  0  0  0  0
 22 26  1  0  0  0  0
 23 24  1  0  0  0  0
 23 25  1  0  0  0  0
 26 27  1  0  0  0  0
 26 28  1  0  0  0  0
 29 30  2  0  0  0  0
 29 31  1  0  0  0  0
 31 32  1  0  0  0  0
 31 33  1  0  0  0  0
 33 34  1  0  0  0  0
 33 35  1  0  0  0  0
 33 36  1  0  0  0  0
M  CHG  1  20   1
M  END
$$$$

  -OEChem-04042215563D

 36 35  0     1  0  0  0  0  0999 V2000
   -4.1195   -4.4294    0.4368 H   0  0  0  0  0  0  0  0  0  0  0  0
   -3.7999   -3.4312    0.1227 C   0  0  0  0  0  0  0  0  0  0  0  0
   -4.4901   -2.6947    0.5403 H   0  0  0  0  0  0  0  0  0  0  0  0
   -3.8371   -3.3805   -0.9683 H   0  0  0  0  0  0  0  0  0  0  0  0
   -2.3884   -3.1612    0.6074 C   0  0  0  0  0  0  0  0  0  0  0  0
   -1.7991   -4.0017    1.2616 O   0  0  0  0  0  0  0  0  0  0  0  0
   -1.7891   -1.9386    0.3576 N   0  0  0  0  0  0  0  0  0  0  0  0
   -2.3056   -1.3419   -0.2832 H   0  0  0  0  0  0  0  0  0  0  0  0
   -0.3272   -1.7294    0.4313 C   0  0  1  0  0  0  0  0  0  0  0  0
    0.0769   -2.5593   -0.1626 H   0  0  0  0  0  0  0  0  0  0  0  0
    0.1037   -0.4774   -0.3905 C   0  0  0  0  0  0  0  0  0  0  0  0
    0.9917   -0.8113   -0.9401 H   0  0  0  0  0  0  0  0  0  0  0  0
   -0.6609   -0.2899   -1.1517 H   0  0  0  0  0  0  0  0  0  0  0  0
    0.5161    0.8984    0.2020 C   0  0  0  0  0  0  0  0  0  0  0  0
    1.4011    1.2269   -0.3552 H   0  0  0  0  0  0  0  0  0  0  0  0
   -0.2728    1.6208   -0.0318 H   0  0  0  0  0  0  0  0  0  0  0  0
    0.8600    1.0270    1.6854 C   0  0  0  0  0  0  0  0  0  0  0  0
    1.6199    1.8103    1.7834 H   0  0  0  0  0  0  0  0  0  0  0  0
    1.3080    0.0979    2.0466 H   0  0  0  0  0  0  0  0  0  0  0  0
   -0.3060    1.4177    2.4992 N   0  3  0  0  0  0  0  0  0  0  0  0
   -1.1776    1.6139    2.0115 H   0  0  0  0  0  0  0  0  0  0  0  0
   -0.2329    1.5724    3.7898 C   0  0  0  0  0  0  0  0  0  0  0  0
    0.9254    1.2952    4.4799 N   0  0  0  0  0  0  0  0  0  0  0  0
    1.6336    0.7492    3.9898 H   0  0  0  0  0  0  0  0  0  0  0  0
    0.8779    1.2056    5.4921 H   0  0  0  0  0  0  0  0  0  0  0  0
   -1.3277    2.0194    4.4902 N   0  0  0  0  0  0  0  0  0  0  0  0
   -2.1031    2.4240    3.9696 H   0  0  0  0  0  0  0  0  0  0  0  0
   -1.1849    2.3367    5.4475 H   0  0  0  0  0  0  0  0  0  0  0  0
    0.2964   -2.0251    1.8160 C   0  0  0  0  0  0  0  0  0  0  0  0
    1.4922   -2.2734    1.8833 O   0  0  0  0  0  0  0  0  0  0  0  0
   -0.3183   -1.5722    2.9711 N   0  0  0  0  0  0  0  0  0  0  0  0
   -1.3282   -1.5169    2.8675 H   0  0  0  0  0  0  0  0  0  0  0  0
    0.1694   -2.0194    4.2741 C   0  0  0  0  0  0  0  0  0  0  0  0
    0.1470   -3.1136    4.3325 H   0  0  0  0  0  0  0  0  0  0  0  0
   -0.4604   -1.6187    5.0740 H   0  0  0  0  0  0  0  0  0  0  0  0
    1.1985   -1.6856    4.4440 H   0  0  0  0  0  0  0  0  0  0  0  0
  1  2  1  0  0  0  0
  2  3  1  0  0  0  0
  2  4  1  0  0  0  0
  2  5  1  0  0  0  0
  5  6  2  0  0  0  0
  5  7  1  0  0  0  0
  7  8  1  0  0  0  0
  7  9  1  0  0  0  0
  9 10  1  0  0  0  0
  9 11  1  0  0  0  0
  9 29  1  0  0  0  0
 11 12  1  0  0  0  0
 11 13  1  0  0  0  0
 11 14  1  0  0  0  0
 14 15  1  0  0  0  0
 14 16  1  0  0  0  0
 14 17  1  0  0  0  0
 17 18  1  0  0  0  0
 17 19  1  0  0  0  0
 17 20  1  0  0  0  0
 20 21  1  0  0  0  0
 20 22  2  0  0  0  0
 22 23  1  0  0  0  0
 22 26  1  0  0  0  0
 23 24  1  0  0  0  0
 23 25  1  0  0  0  0
 26 27  1  0  0  0  0
 26 28  1  0  0  0  0
 29 30  2  0  0  0  0
 29 31  1  0  0  0  0
 31 32  1  0  0  0  0
 31 33  1  0  0  0  0
 33 34  1  0  0  0  0
 33 35  1  0  0  0  0
 33 36  1  0  0  0  0
M  CHG  1  20   1
M  END
$$$$

  -OEChem-04042215563D

 36 35  0     1  0  0  0  0  0999 V2000
   -2.0586   -5.7104   -0.2721 H   0  0  0  0  0  0  0  0  0  0  0  0
   -2.3614   -4.6623   -0.3563 C   0  0  0  0  0  0  0  0  0  0  0  0
   -3.3043   -4.5257    0.1782 H   0  0  0  0  0  0  0  0  0  0  0  0
   -2.5107   -4.4263   -1.4127 H   0  0  0  0  0  0  0  0  0  0  0  0
   -1.2910   -3.7630    0.2326 C   0  0  0  0  0  0  0  0  0  0  0  0
   -0.3110   -4.2510    0.7661 O   0  0  0  0  0  0  0  0  0  0  0  0
   -1.4342   -2.3866    0.1839 N   0  0  0  0  0  0  0  0  0  0  0  0
   -2.2227   -2.0414   -0.3575 H   0  0  0  0  0  0  0  0  0  0  0  0
   -0.3677   -1.4310    0.5519 C   0  0  1  0  0  0  0  0  0  0  0  0
    0.5144   -1.7328   -0.0263 H   0  0  0  0  0  0  0  0  0  0  0  0
   -0.7478   -0.0152    0.0171 C   0  0  0  0  0  0  0  0  0  0  0  0
    0.1839    0.3611   -0.4194 H   0  0  0  0  0  0  0  0  0  0  0  0
   -1.4415   -0.1371   -0.8219 H   0  0  0  0  0  0  0  0  0  0  0  0
   -1.2653    1.1719    0.8776 C   0  0  0  0  0  0  0  0  0  0  0  0
   -1.0901    2.1029    0.3276 H   0  0  0  0  0  0  0  0  0  0  0  0
   -2.3523    1.0430    0.9184 H   0  0  0  0  0  0  0  0  0  0  0  0
   -0.8360    1.3496    2.3431 C   0  0  0  0  0  0  0  0  0  0  0  0
   -0.6111    0.4070    2.8282 H   0  0  0  0  0  0  0  0  0  0  0  0
   -1.6673    1.8020    2.8950 H   0  0  0  0  0  0  0  0  0  0  0  0
    0.3232    2.2666    2.4008 N   0  3  0  0  0  0  0  0  0  0  0  0
    0.2491    3.1225    1.8546 H   0  0  0  0  0  0  0  0  0  0  0  0
    1.3597    2.1226    3.1785 C   0  0  0  0  0  0  0  0  0  0  0  0
    1.5667    1.0063    3.9489 N   0  0  0  0  0  0  0  0  0  0  0  0
    1.1698    0.1413    3.5680 H   0  0  0  0  0  0  0  0  0  0  0  0
    2.4863    0.9057    4.3695 H   0  0  0  0  0  0  0  0  0  0  0  0
    2.2898    3.1330    3.2460 N   0  0  0  0  0  0  0  0  0  0  0  0
    2.0703    4.0354    2.8303 H   0  0  0  0  0  0  0  0  0  0  0  0
    2.9890    3.1018    3.9855 H   0  0  0  0  0  0  0  0  0  0  0  0
    0.0698   -1.6160    2.0205 C   0  0  0  0  0  0  0  0  0  0  0  0
    1.1885   -1.2590    2.3698 O   0  0  0  0  0  0  0  0  0  0  0  0
   -0.8902   -1.7753    3.0065 N   0  0  0  0  0  0  0  0  0  0  0  0
   -1.7748   -2.1463    2.6670 H   0  0  0  0  0  0  0  0  0  0  0  0
   -0.5412   -2.0644    4.3945 C   0  0  0  0  0  0  0  0  0  0  0  0
   -0.0549   -1.2037    4.8631 H   0  0  0  0  0  0  0  0  0  0  0  0
   -1.4424   -2.3014    4.9685 H   0  0  0  0  0  0  0  0  0  0  0  0
    0.1357   -2.9247    4.4483 H   0  0  0  0  0  0  0  0  0  0  0  0
  1  2  1  0  0  0  0
  2  3  1  0  0  0  0
  2  4  1  0  0  0  0
  2  5  1  0  0  0  0
  5  6  2  0  0  0  0
  5  7  1  0  0  0  0
  7  8  1  0  0  0  0
  7  9  1  0  0  0  0
  9 10  1  0  0  0  0
  9 11  1  0  0  0  0
  9 29  1  0  0  0  0
 11 12  1  0  0  0  0
 11 13  1  0  0  0  0
 11 14  1  0  0  0  0
 14 15  1  0  0  0  0
 14 16  1  0  0  0  0
 14 17  1  0  0  0  0
 17 18  1  0  0  0  0
 17 19  1  0  0  0  0
 17 20  1  0  0  0  0
 20 21  1  0  0  0  0
 20 22  2  0  0  0  0
 22 23  1  0  0  0  0
 22 26  1  0  0  0  0
 23 24  1  0  0  0  0
 23 25  1  0  0  0  0
 26 27  1  0  0  0  0
 26 28  1  0  0  0  0
 29 30  2  0  0  0  0
 29 31  1  0  0  0  0
 31 32  1  0  0  0  0
 31 33  1  0  0  0  0
 33 34  1  0  0  0  0
 33 35  1  0  0  0  0
 33 36  1  0  0  0  0
M  CHG  1  20   1
M  END
$$$$

  -OEChem-04042215563D

 36 35  0     1  0  0  0  0  0999 V2000
   -2.8527   -5.5873    0.0278 H   0  0  0  0  0  0  0  0  0  0  0  0
   -2.9226   -4.5176   -0.1901 C   0  0  0  0  0  0  0  0  0  0  0  0
   -3.8182   -4.1194    0.2925 H   0  0  0  0  0  0  0  0  0  0  0  0
   -3.0085   -4.3865   -1.2713 H   0  0  0  0  0  0  0  0  0  0  0  0
   -1.6891   -3.8007    0.3245 C   0  0  0  0  0  0  0  0  0  0  0  0
   -0.8186   -4.4253    0.9032 O   0  0  0  0  0  0  0  0  0  0  0  0
   -1.5628   -2.4321    0.1621 N   0  0  0  0  0  0  0  0  0  0  0  0
   -2.2731   -1.9859   -0.4123 H   0  0  0  0  0  0  0  0  0  0  0  0
   -0.3207   -1.6821    0.4409 C   0  0  1  0  0  0  0  0  0  0  0  0
    0.4665   -2.1977   -0.1228 H   0  0  0  0  0  0  0  0  0  0  0  0
   -0.4204   -0.2603   -0.2033 C   0  0  0  0  0  0  0  0  0  0  0  0
    0.5456   -0.0965   -0.6939 H   0  0  0  0  0  0  0  0  0  0  0  0
   -1.1666   -0.2870   -1.0045 H   0  0  0  0  0  0  0  0  0  0  0  0
   -0.6725    1.0167    0.6393 C   0  0  0  0  0  0  0  0  0  0  0  0
   -0.4680    1.8850    0.0039 H   0  0  0  0  0  0  0  0  0  0  0  0
   -1.7278    1.0593    0.9290 H   0  0  0  0  0  0  0  0  0  0  0  0
    0.1828    1.0896    1.8990 C   0  0  0  0  0  0  0  0  0  0  0  0
   -0.3337    0.5781    2.7165 H   0  0  0  0  0  0  0  0  0  0  0  0
    1.1129    0.5542    1.6849 H   0  0  0  0  0  0  0  0  0  0  0  0
    0.5361    2.4509    2.3257 N   0  3  0  0  0  0  0  0  0  0  0  0
   -0.1150    3.2060    2.1173 H   0  0  0  0  0  0  0  0  0  0  0  0
    1.6026    2.6728    3.0410 C   0  0  0  0  0  0  0  0  0  0  0  0
    2.4637    1.6505    3.3854 N   0  0  0  0  0  0  0  0  0  0  0  0
    2.1974    0.6895    3.1561 H   0  0  0  0  0  0  0  0  0  0  0  0
    3.1500    1.7986    4.1215 H   0  0  0  0  0  0  0  0  0  0  0  0
    1.8835    3.9470    3.4723 N   0  0  0  0  0  0  0  0  0  0  0  0
    1.3695    4.7245    3.0634 H   0  0  0  0  0  0  0  0  0  0  0  0
    2.8107    4.1339    3.8496 H   0  0  0  0  0  0  0  0  0  0  0  0
    0.1370   -1.8144    1.9168 C   0  0  0  0  0  0  0  0  0  0  0  0
    1.3155   -1.6279    2.2093 O   0  0  0  0  0  0  0  0  0  0  0  0
   -0.8016   -1.6915    2.9277 N   0  0  0  0  0  0  0  0  0  0  0  0
   -1.7450   -1.9558    2.6536 H   0  0  0  0  0  0  0  0  0  0  0  0
   -0.4476   -1.8456    4.3354 C   0  0  0  0  0  0  0  0  0  0  0  0
    0.2728   -1.0805    4.6421 H   0  0  0  0  0  0  0  0  0  0  0  0
   -1.3396   -1.7478    4.9619 H   0  0  0  0  0  0  0  0  0  0  0  0
   -0.0073   -2.8333    4.5121 H   0  0  0  0  0  0  0  0  0  0  0  0
  1  2  1  0  0  0  0
  2  3  1  0  0  0  0
  2  4  1  0  0  0  0
  2  5  1  0  0  0  0
  5  6  2  0  0  0  0
  5  7  1  0  0  0  0
  7  8  1  0  0  0  0
  7  9  1  0  0  0  0
  9 10  1  0  0  0  0
  9 11  1  0  0  0  0
  9 29  1  0  0  0  0
 11 12  1  0  0  0  0
 11 13  1  0  0  0  0
 11 14  1  0  0  0  0
 14 15  1  0  0  0  0
 14 16  1  0  0  0  0
 14 17  1  0  0  0  0
 17 18  1  0  0  0  0
 17 19  1  0  0  0  0
 17 20  1  0  0  0  0
 20 21  1  0  0  0  0
 20 22  2  0  0  0  0
 22 23  1  0  0  0  0
 22 26  1  0  0  0  0
 23 24  1  0  0  0  0
 23 25  1  0  0  0  0
 26 27  1  0  0  0  0
 26 28  1  0  0  0  0
 29 30  2  0  0  0  0
 29 31  1  0  0  0  0
 31 32  1  0  0  0  0
 31 33  1  0  0  0  0
 33 34  1  0  0  0  0
 33 35  1  0  0  0  0
 33 36  1  0  0  0  0
M  CHG  1  20   1
M  END
$$$$

  -OEChem-04042215563D

 36 35  0     1  0  0  0  0  0999 V2000
   -2.9569   -5.1706    1.2770 H   0  0  0  0  0  0  0  0  0  0  0  0
   -2.9697   -4.2172    0.7407 C   0  0  0  0  0  0  0  0  0  0  0  0
   -3.7954   -3.6117    1.1219 H   0  0  0  0  0  0  0  0  0  0  0  0
   -3.1310   -4.4167   -0.3215 H   0  0  0  0  0  0  0  0  0  0  0  0
   -1.6534   -3.4905    0.9404 C   0  0  0  0  0  0  0  0  0  0  0  0
   -0.7930   -3.9791    1.6500 O   0  0  0  0  0  0  0  0  0  0  0  0
   -1.4427   -2.2606    0.3390 N   0  0  0  0  0  0  0  0  0  0  0  0
   -2.1530   -1.9780   -0.3319 H   0  0  0  0  0  0  0  0  0  0  0  0
   -0.1273   -1.5852    0.2719 C   0  0  1  0  0  0  0  0  0  0  0  0
    0.5813   -2.2838   -0.1892 H   0  0  0  0  0  0  0  0  0  0  0  0
   -0.2701   -0.3657   -0.6921 C   0  0  0  0  0  0  0  0  0  0  0  0
    0.5987   -0.3988   -1.3588 H   0  0  0  0  0  0  0  0  0  0  0  0
   -1.1470   -0.5181   -1.3303 H   0  0  0  0  0  0  0  0  0  0  0  0
   -0.3360    1.0770   -0.1417 C   0  0  0  0  0  0  0  0  0  0  0  0
   -0.4731    1.7755   -0.9743 H   0  0  0  0  0  0  0  0  0  0  0  0
   -1.2193    1.1564    0.5004 H   0  0  0  0  0  0  0  0  0  0  0  0
    0.9183    1.4854    0.6457 C   0  0  0  0  0  0  0  0  0  0  0  0
    1.5374    0.6071    0.8278 H   0  0  0  0  0  0  0  0  0  0  0  0
    1.5126    2.1520    0.0108 H   0  0  0  0  0  0  0  0  0  0  0  0
    0.6194    2.1802    1.9115 N   0  3  0  0  0  0  0  0  0  0  0  0
   -0.1453    2.8522    1.9063 H   0  0  0  0  0  0  0  0  0  0  0  0
    1.3938    2.0977    2.9574 C   0  0  0  0  0  0  0  0  0  0  0  0
    2.4590    1.2274    3.0143 N   0  0  0  0  0  0  0  0  0  0  0  0
    2.3881    0.3926    2.4208 H   0  0  0  0  0  0  0  0  0  0  0  0
    2.9133    1.0932    3.9132 H   0  0  0  0  0  0  0  0  0  0  0  0
    1.1562    2.9087    4.0415 N   0  0  0  0  0  0  0  0  0  0  0  0
    0.5071    3.6851    3.9346 H   0  0  0  0  0  0  0  0  0  0  0  0
    1.8870    2.9937    4.7454 H   0  0  0  0  0  0  0  0  0  0  0  0
    0.4040   -1.3221    1.7042 C   0  0  0  0  0  0  0  0  0  0  0  0
    1.6082   -1.2946    1.9383 O   0  0  0  0  0  0  0  0  0  0  0  0
   -0.4606   -0.8158    2.6608 N   0  0  0  0  0  0  0  0  0  0  0  0
   -1.4378   -0.9347    2.4043 H   0  0  0  0  0  0  0  0  0  0  0  0
   -0.1589   -0.9425    4.0844 C   0  0  0  0  0  0  0  0  0  0  0  0
    0.8376   -0.5598    4.3213 H   0  0  0  0  0  0  0  0  0  0  0  0
   -0.8891   -0.3815    4.6761 H   0  0  0  0  0  0  0  0  0  0  0  0
   -0.2027   -1.9953    4.3858 H   0  0  0  0  0  0  0  0  0  0  0  0
  1  2  1  0  0  0  0
  2  3  1  0  0  0  0
  2  4  1  0  0  0  0
  2  5  1  0  0  0  0
  5  6  2  0  0  0  0
  5  7  1  0  0  0  0
  7  8  1  0  0  0  0
  7  9  1  0  0  0  0
  9 10  1  0  0  0  0
  9 11  1  0  0  0  0
  9 29  1  0  0  0  0
 11 12  1  0  0  0  0
 11 13  1  0  0  0  0
 11 14  1  0  0  0  0
 14 15  1  0  0  0  0
 14 16  1  0  0  0  0
 14 17  1  0  0  0  0
 17 18  1  0  0  0  0
 17 19  1  0  0  0  0
 17 20  1  0  0  0  0
 20 21  1  0  0  0  0
 20 22  2  0  0  0  0
 22 23  1  0  0  0  0
 22 26  1  0  0  0  0
 23 24  1  0  0  0  0
 23 25  1  0  0  0  0
 26 27  1  0  0  0  0
 26 28  1  0  0  0  0
 29 30  2  0  0  0  0
 29 31  1  0  0  0  0
 31 32  1  0  0  0  0
 31 33  1  0  0  0  0
 33 34  1  0  0  0  0
 33 35  1  0  0  0  0
 33 36  1  0  0  0  0
M  CHG  1  20   1
M  END
$$$$

  -OEChem-04042215563D

 36 35  0     1  0  0  0  0  0999 V2000
   -2.7568   -5.2721    1.2391 H   0  0  0  0  0  0  0  0  0  0  0  0
   -2.8324   -4.3262    0.6946 C   0  0  0  0  0  0  0  0  0  0  0  0
   -3.6974   -3.7740    1.0692 H   0  0  0  0  0  0  0  0  0  0  0  0
   -2.9779   -4.5448   -0.3661 H   0  0  0  0  0  0  0  0  0  0  0  0
   -1.5679   -3.5118    0.8886 C   0  0  0  0  0  0  0  0  0  0  0  0
   -0.6681   -3.9425    1.5870 O   0  0  0  0  0  0  0  0  0  0  0  0
   -1.4460   -2.2680    0.2929 N   0  0  0  0  0  0  0  0  0  0  0  0
   -2.1827   -2.0259   -0.3651 H   0  0  0  0  0  0  0  0  0  0  0  0
   -0.1756   -1.5163    0.2109 C   0  0  1  0  0  0  0  0  0  0  0  0
    0.5575   -2.1756   -0.2697 H   0  0  0  0  0  0  0  0  0  0  0  0
   -0.3803   -0.2970   -0.7371 C   0  0  0  0  0  0  0  0  0  0  0  0
    0.4661   -0.2704   -1.4326 H   0  0  0  0  0  0  0  0  0  0  0  0
   -1.2722   -0.4703   -1.3487 H   0  0  0  0  0  0  0  0  0  0  0  0
   -0.5047    1.1005   -0.0987 C   0  0  0  0  0  0  0  0  0  0  0  0
   -0.9094    1.8053   -0.8330 H   0  0  0  0  0  0  0  0  0  0  0  0
   -1.2118    1.0560    0.7356 H   0  0  0  0  0  0  0  0  0  0  0  0
    0.8665    1.6082    0.3695 C   0  0  0  0  0  0  0  0  0  0  0  0
    1.5213    0.7592    0.5726 H   0  0  0  0  0  0  0  0  0  0  0  0
    1.3281    2.1703   -0.4500 H   0  0  0  0  0  0  0  0  0  0  0  0
    0.7652    2.4697    1.5619 N   0  3  0  0  0  0  0  0  0  0  0  0
    0.0641    3.2081    1.5433 H   0  0  0  0  0  0  0  0  0  0  0  0
    1.6095    2.4148    2.5543 C   0  0  0  0  0  0  0  0  0  0  0  0
    2.5913    1.4539    2.6377 N   0  0  0  0  0  0  0  0  0  0  0  0
    2.4217    0.5831    2.1209 H   0  0  0  0  0  0  0  0  0  0  0  0
    3.0914    1.3592    3.5171 H   0  0  0  0  0  0  0  0  0  0  0  0
    1.5334    3.3532    3.5557 N   0  0  0  0  0  0  0  0  0  0  0  0
    0.9586    4.1791    3.4039 H   0  0  0  0  0  0  0  0  0  0  0  0
    2.3222    3.4354    4.1944 H   0  0  0  0  0  0  0  0  0  0  0  0
    0.3966   -1.2124    1.6201 C   0  0  0  0  0  0  0  0  0  0  0  0
    1.6058   -1.0901    1.7908 O   0  0  0  0  0  0  0  0  0  0  0  0
   -0.4500   -0.7517    2.6143 N   0  0  0  0  0  0  0  0  0  0  0  0
   -1.4283   -0.9708    2.4400 H   0  0  0  0  0  0  0  0  0  0  0  0
   -0.0332   -0.7227    4.0127 C   0  0  0  0  0  0  0  0  0  0  0  0
    0.8161   -0.0500    4.1578 H   0  0  0  0  0  0  0  0  0  0  0  0
   -0.8565   -0.3755    4.6447 H   0  0  0  0  0  0  0  0  0  0  0  0
    0.2559   -1.7268    4.3429 H   0  0  0  0  0  0  0  0  0  0  0  0
  1  2  1  0  0  0  0
  2  3  1  0  0  0  0
  2  4  1  0  0  0  0
  2  5  1  0  0  0  0
  5  6  2  0  0  0  0
  5  7  1  0  0  0  0
  7  8  1  0  0  0  0
  7  9  1  0  0  0  0
  9 10  1  0  0  0  0
  9 11  1  0  0  0  0
  9 29  1  0  0  0  0
 11 12  1  0  0  0  0
 11 13  1  0  0  0  0
 11 14  1  0  0  0  0
 14 15  1  0  0  0  0
 14 16  1  0  0  0  0
 14 17  1  0  0  0  0
 17 18  1  0  0  0  0
 17 19  1  0  0  0  0
 17 20  1  0  0  0  0
 20 21  1  0  0  0  0
 20 22  2  0  0  0  0
 22 23  1  0  0  0  0
 22 26  1  0  0  0  0
 23 24  1  0  0  0  0
 23 25  1  0  0  0  0
 26 27  1  0  0  0  0
 26 28  1  0  0  0  0
 29 30  2  0  0  0  0
 29 31  1  0  0  0  0
 31 32  1  0  0  0  0
 31 33  1  0  0  0  0
 33 34  1  0  0  0  0
 33 35  1  0  0  0  0
 33 36  1  0  0  0  0
M  CHG  1  20   1
M  END
$$$$

  -OEChem-04042215563D

 36 35  0     1  0  0  0  0  0999 V2000
   -2.5979   -5.3533    1.1983 H   0  0  0  0  0  0  0  0  0  0  0  0
   -2.7381   -4.4095    0.6633 C   0  0  0  0  0  0  0  0  0  0  0  0
   -3.6196   -3.9060    1.0667 H   0  0  0  0  0  0  0  0  0  0  0  0
   -2.9028   -4.6289   -0.3943 H   0  0  0  0  0  0  0  0  0  0  0  0
   -1.5122   -3.5313    0.8269 C   0  0  0  0  0  0  0  0  0  0  0  0
   -0.5586   -3.9293    1.4718 O   0  0  0  0  0  0  0  0  0  0  0  0
   -1.4823   -2.2658    0.2672 N   0  0  0  0  0  0  0  0  0  0  0  0
   -2.2626   -2.0355   -0.3429 H   0  0  0  0  0  0  0  0  0  0  0  0
   -0.2560   -1.4495    0.1608 C   0  0  1  0  0  0  0  0  0  0  0  0
    0.4784   -2.0821   -0.3526 H   0  0  0  0  0  0  0  0  0  0  0  0
   -0.4884   -0.2291   -0.7720 C   0  0  0  0  0  0  0  0  0  0  0  0
    0.3437   -0.1722   -1.4831 H   0  0  0  0  0  0  0  0  0  0  0  0
   -1.3874   -0.4141   -1.3695 H   0  0  0  0  0  0  0  0  0  0  0  0
   -0.6445    1.1390   -0.0814 C   0  0  0  0  0  0  0  0  0  0  0  0
   -1.2715    1.7897   -0.7002 H   0  0  0  0  0  0  0  0  0  0  0  0
   -1.1482    1.0363    0.8832 H   0  0  0  0  0  0  0  0  0  0  0  0
    0.7364    1.7897    0.0593 C   0  0  0  0  0  0  0  0  0  0  0  0
    1.4837    1.0107    0.2352 H   0  0  0  0  0  0  0  0  0  0  0  0
    0.9995    2.2799   -0.8846 H   0  0  0  0  0  0  0  0  0  0  0  0
    0.7631    2.7704    1.1598 N   0  3  0  0  0  0  0  0  0  0  0  0
    0.1101    3.5499    1.1020 H   0  0  0  0  0  0  0  0  0  0  0  0
    1.6424    2.7443    2.1224 C   0  0  0  0  0  0  0  0  0  0  0  0
    2.5600    1.7281    2.2622 N   0  0  0  0  0  0  0  0  0  0  0  0
    2.3362    0.8351    1.8073 H   0  0  0  0  0  0  0  0  0  0  0  0
    3.0845    1.6702    3.1305 H   0  0  0  0  0  0  0  0  0  0  0  0
    1.6708    3.7727    3.0341 N   0  0  0  0  0  0  0  0  0  0  0  0
    1.1520    4.6224    2.8227 H   0  0  0  0  0  0  0  0  0  0  0  0
    2.4865    3.8534    3.6382 H   0  0  0  0  0  0  0  0  0  0  0  0
    0.3943   -1.1350    1.5329 C   0  0  0  0  0  0  0  0  0  0  0  0
    1.5906   -0.8662    1.5911 O   0  0  0  0  0  0  0  0  0  0  0  0
   -0.4002   -0.7331    2.5928 N   0  0  0  0  0  0  0  0  0  0  0  0
   -1.3641   -1.0519    2.5228 H   0  0  0  0  0  0  0  0  0  0  0  0
    0.1380   -0.5636    3.9383 C   0  0  0  0  0  0  0  0  0  0  0  0
    0.8456    0.2693    3.9735 H   0  0  0  0  0  0  0  0  0  0  0  0
   -0.6714   -0.3554    4.6452 H   0  0  0  0  0  0  0  0  0  0  0  0
    0.6517   -1.4761    4.2616 H   0  0  0  0  0  0  0  0  0  0  0  0
  1  2  1  0  0  0  0
  2  3  1  0  0  0  0
  2  4  1  0  0  0  0
  2  5  1  0  0  0  0
  5  6  2  0  0  0  0
  5  7  1  0  0  0  0
  7  8  1  0  0  0  0
  7  9  1  0  0  0  0
  9 10  1  0  0  0  0
  9 11  1  0  0  0  0
  9 29  1  0  0  0  0
 11 12  1  0  0  0  0
 11 13  1  0  0  0  0
 11 14  1  0  0  0  0
 14 15  1  0  0  0  0
 14 16  1  0  0  0  0
 14 17  1  0  0  0  0
 17 18  1  0  0  0  0
 17 19  1  0  0  0  0
 17 20  1  0  0  0  0
 20 21  1  0  0  0  0
 20 22  2  0  0  0  0
 22 23  1  0  0  0  0
 22 26  1  0  0  0  0
 23 24  1  0  0  0  0
 23 25  1  0  0  0  0
 26 27  1  0  0  0  0
 26 28  1  0  0  0  0
 29 30  2  0  0  0  0
 29 31  1  0  0  0  0
 31 32  1  0  0  0  0
 31 33  1  0  0  0  0
 33 34  1  0  0  0  0
 33 35  1  0  0  0  0
 33 36  1  0  0  0  0
M  CHG  1  20   1
M  END
$$$$

  -OEChem-04042215563D

 36 35  0     1  0  0  0  0  0999 V2000
   -2.4665   -5.4082    1.1734 H   0  0  0  0  0  0  0  0  0  0  0  0
   -2.6689   -4.4614    0.6639 C   0  0  0  0  0  0  0  0  0  0  0  0
   -3.5420   -3.9945    1.1257 H   0  0  0  0  0  0  0  0  0  0  0  0
   -2.8866   -4.6691   -0.3865 H   0  0  0  0  0  0  0  0  0  0  0  0
   -1.4660   -3.5440    0.7733 C   0  0  0  0  0  0  0  0  0  0  0  0
   -0.4575   -3.9227    1.3418 O   0  0  0  0  0  0  0  0  0  0  0  0
   -1.5188   -2.2599    0.2608 N   0  0  0  0  0  0  0  0  0  0  0  0
   -2.3470   -2.0334   -0.2840 H   0  0  0  0  0  0  0  0  0  0  0  0
   -0.3340   -1.3910    0.1195 C   0  0  1  0  0  0  0  0  0  0  0  0
    0.3888   -1.9987   -0.4386 H   0  0  0  0  0  0  0  0  0  0  0  0
   -0.6082   -0.1674   -0.7927 C   0  0  0  0  0  0  0  0  0  0  0  0
    0.2081   -0.0907   -1.5203 H   0  0  0  0  0  0  0  0  0  0  0  0
   -1.5142   -0.3671   -1.3745 H   0  0  0  0  0  0  0  0  0  0  0  0
   -0.7839    1.1887   -0.0777 C   0  0  0  0  0  0  0  0  0  0  0  0
   -1.6213    1.7288   -0.5320 H   0  0  0  0  0  0  0  0  0  0  0  0
   -1.0298    1.0722    0.9790 H   0  0  0  0  0  0  0  0  0  0  0  0
    0.4871    2.0183   -0.2770 C   0  0  0  0  0  0  0  0  0  0  0  0
    1.3573    1.3546   -0.2309 H   0  0  0  0  0  0  0  0  0  0  0  0
    0.4757    2.4688   -1.2757 H   0  0  0  0  0  0  0  0  0  0  0  0
    0.6065    3.0655    0.7542 N   0  3  0  0  0  0  0  0  0  0  0  0
   -0.0189    3.8659    0.6769 H   0  0  0  0  0  0  0  0  0  0  0  0
    1.5196    3.0559    1.6853 C   0  0  0  0  0  0  0  0  0  0  0  0
    2.3989    2.0104    1.8525 N   0  0  0  0  0  0  0  0  0  0  0  0
    2.1406    1.1044    1.4441 H   0  0  0  0  0  0  0  0  0  0  0  0
    2.9554    1.9787    2.7019 H   0  0  0  0  0  0  0  0  0  0  0  0
    1.6260    4.1313    2.5349 N   0  0  0  0  0  0  0  0  0  0  0  0
    1.1312    4.9885    2.2975 H   0  0  0  0  0  0  0  0  0  0  0  0
    2.4694    4.2116    3.0999 H   0  0  0  0  0  0  0  0  0  0  0  0
    0.4016   -1.0800    1.4479 C   0  0  0  0  0  0  0  0  0  0  0  0
    1.5605   -0.6763    1.3985 O   0  0  0  0  0  0  0  0  0  0  0  0
   -0.3300   -0.7387    2.5728 N   0  0  0  0  0  0  0  0  0  0  0  0
   -1.2630   -1.1448    2.5962 H   0  0  0  0  0  0  0  0  0  0  0  0
    0.3013   -0.4575    3.8580 C   0  0  0  0  0  0  0  0  0  0  0  0
    0.9071    0.4515    3.8025 H   0  0  0  0  0  0  0  0  0  0  0  0
   -0.4616   -0.3143    4.6297 H   0  0  0  0  0  0  0  0  0  0  0  0
    0.9438   -1.2920    4.1603 H   0  0  0  0  0  0  0  0  0  0  0  0
  1  2  1  0  0  0  0
  2  3  1  0  0  0  0
  2  4  1  0  0  0  0
  2  5  1  0  0  0  0
  5  6  2  0  0  0  0
  5  7  1  0  0  0  0
  7  8  1  0  0  0  0
  7  9  1  0  0  0  0
  9 10  1  0  0  0  0
  9 11  1  0  0  0  0
  9 29  1  0  0  0  0
 11 12  1  0  0  0  0
 11 13  1  0  0  0  0
 11 14  1  0  0  0  0
 14 15  1  0  0  0  0
 14 16  1  0  0  0  0
 14 17  1  0  0  0  0
 17 18  1  0  0  0  0
 17 19  1  0  0  0  0
 17 20  1  0  0  0  0
 20 21  1  0  0  0  0
 20 22  2  0  0  0  0
 22 23  1  0  0  0  0
 22 26  1  0  0  0  0
 23 24  1  0  0  0  0
 23 25  1  0  0  0  0
 26 27  1  0  0  0  0
 26 28  1  0  0  0  0
 29 30  2  0  0  0  0
 29 31  1  0  0  0  0
 31 32  1  0  0  0  0
 31 33  1  0  0  0  0
 33 34  1  0  0  0  0
 33 35  1  0  0  0  0
 33 36  1  0  0  0  0
M  CHG  1  20   1
M  END
$$$$

  -OEChem-04042215563D

 36 35  0     1  0  0  0  0  0999 V2000
   -2.3842   -5.4393    1.1286 H   0  0  0  0  0  0  0  0  0  0  0  0
   -2.6285   -4.4822    0.6586 C   0  0  0  0  0  0  0  0  0  0  0  0
   -3.5044   -4.0604    1.1571 H   0  0  0  0  0  0  0  0  0  0  0  0
   -2.8649   -4.6603   -0.3933 H   0  0  0  0  0  0  0  0  0  0  0  0
   -1.4528   -3.5311    0.7736 C   0  0  0  0  0  0  0  0  0  0  0  0
   -0.4338   -3.8838    1.3405 O   0  0  0  0  0  0  0  0  0  0  0  0
   -1.5381   -2.2494    0.2599 N   0  0  0  0  0  0  0  0  0  0  0  0
   -2.3739   -2.0393   -0.2799 H   0  0  0  0  0  0  0  0  0  0  0  0
   -0.3767   -1.3491    0.1285 C   0  0  1  0  0  0  0  0  0  0  0  0
    0.3654   -1.9486   -0.4133 H   0  0  0  0  0  0  0  0  0  0  0  0
   -0.6590   -0.1468   -0.8081 C   0  0  0  0  0  0  0  0  0  0  0  0
    0.1895   -0.0690   -1.4972 H   0  0  0  0  0  0  0  0  0  0  0  0
   -1.5307   -0.3780   -1.4295 H   0  0  0  0  0  0  0  0  0  0  0  0
   -0.8887    1.2254   -0.1324 C   0  0  0  0  0  0  0  0  0  0  0  0
   -1.8798    1.6036   -0.4051 H   0  0  0  0  0  0  0  0  0  0  0  0
   -0.8738    1.1669    0.9555 H   0  0  0  0  0  0  0  0  0  0  0  0
    0.1746    2.2112   -0.6231 C   0  0  0  0  0  0  0  0  0  0  0  0
    1.1221    1.6819   -0.7745 H   0  0  0  0  0  0  0  0  0  0  0  0
   -0.1275    2.6206   -1.5935 H   0  0  0  0  0  0  0  0  0  0  0  0
    0.3770    3.2980    0.3521 N   0  3  0  0  0  0  0  0  0  0  0  0
   -0.2247    4.1158    0.2659 H   0  0  0  0  0  0  0  0  0  0  0  0
    1.3356    3.3002    1.2367 C   0  0  0  0  0  0  0  0  0  0  0  0
    2.1842    2.2313    1.4222 N   0  0  0  0  0  0  0  0  0  0  0  0
    1.8775    1.3108    1.0879 H   0  0  0  0  0  0  0  0  0  0  0  0
    2.7864    2.2300    2.2409 H   0  0  0  0  0  0  0  0  0  0  0  0
    1.5229    4.4167    2.0158 N   0  0  0  0  0  0  0  0  0  0  0  0
    1.0495    5.2776    1.7498 H   0  0  0  0  0  0  0  0  0  0  0  0
    2.3965    4.4968    2.5330 H   0  0  0  0  0  0  0  0  0  0  0  0
    0.3479   -1.0090    1.4545 C   0  0  0  0  0  0  0  0  0  0  0  0
    1.4806   -0.5383    1.3887 O   0  0  0  0  0  0  0  0  0  0  0  0
   -0.3962   -0.6821    2.5755 N   0  0  0  0  0  0  0  0  0  0  0  0
   -1.3089   -1.1306    2.6144 H   0  0  0  0  0  0  0  0  0  0  0  0
    0.2221   -0.3201    3.8468 C   0  0  0  0  0  0  0  0  0  0  0  0
    0.7862    0.6128    3.7519 H   0  0  0  0  0  0  0  0  0  0  0  0
   -0.5464   -0.1799    4.6136 H   0  0  0  0  0  0  0  0  0  0  0  0
    0.9022   -1.1116    4.1807 H   0  0  0  0  0  0  0  0  0  0  0  0
  1  2  1  0  0  0  0
  2  3  1  0  0  0  0
  2  4  1  0  0  0  0
  2  5  1  0  0  0  0
  5  6  2  0  0  0  0
  5  7  1  0  0  0  0
  7  8  1  0  0  0  0
  7  9  1  0  0  0  0
  9 10  1  0  0  0  0
  9 11  1  0  0  0  0
  9 29  1  0  0  0  0
 11 12  1  0  0  0  0
 11 13  1  0  0  0  0
 11 14  1  0  0  0  0
 14 15  1  0  0  0  0
 14 16  1  0  0  0  0
 14 17  1  0  0  0  0
 17 18  1  0  0  0  0
 17 19  1  0  0  0  0
 17 20  1  0  0  0  0
 20 21  1  0  0  0  0
 20 22  2  0  0  0  0
 22 23  1  0  0  0  0
 22 26  1  0  0  0  0
 23 24  1  0  0  0  0
 23 25  1  0  0  0  0
 26 27  1  0  0  0  0
 26 28  1  0  0  0  0
 29 30  2  0  0  0  0
 29 31  1  0  0  0  0
 31 32  1  0  0  0  0
 31 33  1  0  0  0  0
 33 34  1  0  0  0  0
 33 35  1  0  0  0  0
 33 36  1  0  0  0  0
M  CHG  1  20   1
M  END
$$$$

  -OEChem-04042215563D

 36 35  0     1  0  0  0  0  0999 V2000
   -2.2119   -5.4964    1.0878 H   0  0  0  0  0  0  0  0  0  0  0  0
   -2.5160   -4.5416    0.6486 C   0  0  0  0  0  0  0  0  0  0  0  0
   -3.3994   -4.1775    1.1781 H   0  0  0  0  0  0  0  0  0  0  0  0
   -2.7689   -4.7049   -0.4018 H   0  0  0  0  0  0  0  0  0  0  0  0
   -1.3880   -3.5341    0.7626 C   0  0  0  0  0  0  0  0  0  0  0  0
   -0.3539   -3.8351    1.3319 O   0  0  0  0  0  0  0  0  0  0  0  0
   -1.5367   -2.2570    0.2519 N   0  0  0  0  0  0  0  0  0  0  0  0
   -2.3814   -2.0855   -0.2875 H   0  0  0  0  0  0  0  0  0  0  0  0
   -0.4238   -1.2958    0.1357 C   0  0  1  0  0  0  0  0  0  0  0  0
    0.3531   -1.8548   -0.4007 H   0  0  0  0  0  0  0  0  0  0  0  0
   -0.7604   -0.1059   -0.7999 C   0  0  0  0  0  0  0  0  0  0  0  0
    0.1100    0.0202   -1.4533 H   0  0  0  0  0  0  0  0  0  0  0  0
   -1.5949   -0.3774   -1.4547 H   0  0  0  0  0  0  0  0  0  0  0  0
   -1.0722    1.2539   -0.1274 C   0  0  0  0  0  0  0  0  0  0  0  0
   -2.1510    1.4413   -0.1569 H   0  0  0  0  0  0  0  0  0  0  0  0
   -0.7867    1.2746    0.9232 H   0  0  0  0  0  0  0  0  0  0  0  0
   -0.3284    2.3743   -0.8614 C   0  0  0  0  0  0  0  0  0  0  0  0
    0.5995    1.9844   -1.2943 H   0  0  0  0  0  0  0  0  0  0  0  0
   -0.9455    2.7381   -1.6906 H   0  0  0  0  0  0  0  0  0  0  0  0
    0.0044    3.4799    0.0579 N   0  3  0  0  0  0  0  0  0  0  0  0
   -0.5931    4.3047    0.0227 H   0  0  0  0  0  0  0  0  0  0  0  0
    1.0666    3.4943    0.8169 C   0  0  0  0  0  0  0  0  0  0  0  0
    1.9221    2.4197    0.9284 N   0  0  0  0  0  0  0  0  0  0  0  0
    1.5600    1.4918    0.6873 H   0  0  0  0  0  0  0  0  0  0  0  0
    2.6200    2.4392    1.6676 H   0  0  0  0  0  0  0  0  0  0  0  0
    1.3592    4.6269    1.5387 N   0  0  0  0  0  0  0  0  0  0  0  0
    0.8627    5.4877    1.3186 H   0  0  0  0  0  0  0  0  0  0  0  0
    2.2857    4.7052    1.9541 H   0  0  0  0  0  0  0  0  0  0  0  0
    0.2719   -0.9187    1.4650 C   0  0  0  0  0  0  0  0  0  0  0  0
    1.3707   -0.3728    1.3963 O   0  0  0  0  0  0  0  0  0  0  0  0
   -0.4986   -0.6332    2.5789 N   0  0  0  0  0  0  0  0  0  0  0  0
   -1.3799   -1.1403    2.6212 H   0  0  0  0  0  0  0  0  0  0  0  0
    0.0870   -0.2027    3.8442 C   0  0  0  0  0  0  0  0  0  0  0  0
    0.5854    0.7651    3.7308 H   0  0  0  0  0  0  0  0  0  0  0  0
   -0.6922   -0.1000    4.6058 H   0  0  0  0  0  0  0  0  0  0  0  0
    0.8193   -0.9373    4.1965 H   0  0  0  0  0  0  0  0  0  0  0  0
  1  2  1  0  0  0  0
  2  3  1  0  0  0  0
  2  4  1  0  0  0  0
  2  5  1  0  0  0  0
  5  6  2  0  0  0  0
  5  7  1  0  0  0  0
  7  8  1  0  0  0  0
  7  9  1  0  0  0  0
  9 10  1  0  0  0  0
  9 11  1  0  0  0  0
  9 29  1  0  0  0  0
 11 12  1  0  0  0  0
 11 13  1  0  0  0  0
 11 14  1  0  0  0  0
 14 15  1  0  0  0  0
 14 16  1  0  0  0  0
 14 17  1  0  0  0  0
 17 18  1  0  0  0  0
 17 19  1  0  0  0  0
 17 20  1  0  0  0  0
 20 21  1  0  0  0  0
 20 22  2  0  0  0  0
 22 23  1  0  0  0  0
 22 26  1  0  0  0  0
 23 24  1  0  0  0  0
 23 25  1  0  0  0  0
 26 27  1  0  0  0  0
 26 28  1  0  0  0  0
 29 30  2  0  0  0  0
 29 31  1  0  0  0  0
 31 32  1  0  0  0  0
 31 33  1  0  0  0  0
 33 34  1  0  0  0  0
 33 35  1  0  0  0  0
 33 36  1  0  0  0  0
M  CHG  1  20   1
M  END
$$$$

  -OEChem-04042215563D

 36 35  0     1  0  0  0  0  0999 V2000
   -2.9075   -5.4977    0.5860 H   0  0  0  0  0  0  0  0  0  0  0  0
   -2.9830   -4.4718    0.2135 C   0  0  0  0  0  0  0  0  0  0  0  0
   -3.8556   -3.9974    0.6681 H   0  0  0  0  0  0  0  0  0  0  0  0
   -3.1145   -4.5025   -0.8708 H   0  0  0  0  0  0  0  0  0  0  0  0
   -1.7264   -3.6979    0.5634 C   0  0  0  0  0  0  0  0  0  0  0  0
   -0.8296   -4.2410    1.1820 O   0  0  0  0  0  0  0  0  0  0  0  0
   -1.6045   -2.3699    0.1958 N   0  0  0  0  0  0  0  0  0  0  0  0
   -2.3429   -2.0006   -0.3962 H   0  0  0  0  0  0  0  0  0  0  0  0
   -0.3482   -1.6030    0.3090 C   0  0  1  0  0  0  0  0  0  0  0  0
    0.4025   -2.1997   -0.2239 H   0  0  0  0  0  0  0  0  0  0  0  0
   -0.4571   -0.2688   -0.4768 C   0  0  0  0  0  0  0  0  0  0  0  0
    0.4860   -0.1750   -1.0271 H   0  0  0  0  0  0  0  0  0  0  0  0
   -1.2508   -0.3365   -1.2279 H   0  0  0  0  0  0  0  0  0  0  0  0
   -0.6423    1.0254    0.3467 C   0  0  0  0  0  0  0  0  0  0  0  0
   -1.7071    1.1980    0.5362 H   0  0  0  0  0  0  0  0  0  0  0  0
   -0.1363    0.9562    1.3124 H   0  0  0  0  0  0  0  0  0  0  0  0
   -0.0146    2.2037   -0.3977 C   0  0  0  0  0  0  0  0  0  0  0  0
    1.0158    1.9436   -0.6660 H   0  0  0  0  0  0  0  0  0  0  0  0
   -0.5783    2.3911   -1.3182 H   0  0  0  0  0  0  0  0  0  0  0  0
   -0.0148    3.4031    0.4598 N   0  3  0  0  0  0  0  0  0  0  0  0
   -0.3751    3.2956    1.4073 H   0  0  0  0  0  0  0  0  0  0  0  0
    0.4987    4.5439    0.0998 C   0  0  0  0  0  0  0  0  0  0  0  0
    1.0511    4.7293   -1.1472 N   0  0  0  0  0  0  0  0  0  0  0  0
    1.2091    3.9041   -1.7219 H   0  0  0  0  0  0  0  0  0  0  0  0
    1.6537    5.5361   -1.2965 H   0  0  0  0  0  0  0  0  0  0  0  0
    0.4991    5.5973    0.9823 N   0  0  0  0  0  0  0  0  0  0  0  0
   -0.0423    5.5224    1.8411 H   0  0  0  0  0  0  0  0  0  0  0  0
    0.7203    6.5279    0.6332 H   0  0  0  0  0  0  0  0  0  0  0  0
    0.2177   -1.4917    1.7443 C   0  0  0  0  0  0  0  0  0  0  0  0
    1.4109   -1.2560    1.8834 O   0  0  0  0  0  0  0  0  0  0  0  0
   -0.6338   -1.1944    2.7952 N   0  0  0  0  0  0  0  0  0  0  0  0
   -1.5886   -1.5190    2.6694 H   0  0  0  0  0  0  0  0  0  0  0  0
   -0.1461   -1.0460    4.1630 C   0  0  0  0  0  0  0  0  0  0  0  0
    0.5725   -0.2226    4.2306 H   0  0  0  0  0  0  0  0  0  0  0  0
   -0.9776   -0.8315    4.8413 H   0  0  0  0  0  0  0  0  0  0  0  0
    0.3449   -1.9672    4.4957 H   0  0  0  0  0  0  0  0  0  0  0  0
  1  2  1  0  0  0  0
  2  3  1  0  0  0  0
  2  4  1  0  0  0  0
  2  5  1  0  0  0  0
  5  6  2  0  0  0  0
  5  7  1  0  0  0  0
  7  8  1  0  0  0  0
  7  9  1  0  0  0  0
  9 10  1  0  0  0  0
  9 11  1  0  0  0  0
  9 29  1  0  0  0  0
 11 12  1  0  0  0  0
 11 13  1  0  0  0  0
 11 14  1  0  0  0  0
 14 15  1  0  0  0  0
 14 16  1  0  0  0  0
 14 17  1  0  0  0  0
 17 18  1  0  0  0  0
 17 19  1  0  0  0  0
 17 20  1  0  0  0  0
 20 21  1  0  0  0  0
 20 22  2  0  0  0  0
 22 23  1  0  0  0  0
 22 26  1  0  0  0  0
 23 24  1  0  0  0  0
 23 25  1  0  0  0  0
 26 27  1  0  0  0  0
 26 28  1  0  0  0  0
 29 30  2  0  0  0  0
 29 31  1  0  0  0  0
 31 32  1  0  0  0  0
 31 33  1  0  0  0  0
 33 34  1  0  0  0  0
 33 35  1  0  0  0  0
 33 36  1  0  0  0  0
M  CHG  1  20   1
M  END
$$$$

  -OEChem-04042215563D

 36 35  0     1  0  0  0  0  0999 V2000
   -2.9300   -5.4894    0.6286 H   0  0  0  0  0  0  0  0  0  0  0  0
   -3.0037   -4.4644    0.2532 C   0  0  0  0  0  0  0  0  0  0  0  0
   -3.8682   -3.9831    0.7163 H   0  0  0  0  0  0  0  0  0  0  0  0
   -3.1481   -4.4980   -0.8292 H   0  0  0  0  0  0  0  0  0  0  0  0
   -1.7386   -3.6968    0.5858 C   0  0  0  0  0  0  0  0  0  0  0  0
   -0.8543   -4.2324    1.2283 O   0  0  0  0  0  0  0  0  0  0  0  0
   -1.6023   -2.3788    0.1874 N   0  0  0  0  0  0  0  0  0  0  0  0
   -2.3276   -2.0241   -0.4290 H   0  0  0  0  0  0  0  0  0  0  0  0
   -0.3368   -1.6233    0.2828 C   0  0  1  0  0  0  0  0  0  0  0  0
    0.4103   -2.2261   -0.2482 H   0  0  0  0  0  0  0  0  0  0  0  0
   -0.4494   -0.2872   -0.5005 C   0  0  0  0  0  0  0  0  0  0  0  0
    0.4795   -0.1835   -1.0728 H   0  0  0  0  0  0  0  0  0  0  0  0
   -1.2655   -0.3461   -1.2279 H   0  0  0  0  0  0  0  0  0  0  0  0
   -0.6107    0.9876    0.3514 C   0  0  0  0  0  0  0  0  0  0  0  0
   -1.6155    1.0222    0.7853 H   0  0  0  0  0  0  0  0  0  0  0  0
    0.1164    0.9924    1.1696 H   0  0  0  0  0  0  0  0  0  0  0  0
   -0.3410    2.2282   -0.4983 C   0  0  0  0  0  0  0  0  0  0  0  0
    0.6300    2.1171   -0.9940 H   0  0  0  0  0  0  0  0  0  0  0  0
   -1.1174    2.3184   -1.2662 H   0  0  0  0  0  0  0  0  0  0  0  0
   -0.3280    3.4218    0.3678 N   0  3  0  0  0  0  0  0  0  0  0  0
   -0.4103    3.2637    1.3716 H   0  0  0  0  0  0  0  0  0  0  0  0
   -0.1463    4.6342   -0.0694 C   0  0  0  0  0  0  0  0  0  0  0  0
    0.0294    4.9054   -1.4073 N   0  0  0  0  0  0  0  0  0  0  0  0
    0.2007    4.1191   -2.0305 H   0  0  0  0  0  0  0  0  0  0  0  0
    0.4017    5.8146   -1.6740 H   0  0  0  0  0  0  0  0  0  0  0  0
   -0.1239    5.6792    0.8236 N   0  0  0  0  0  0  0  0  0  0  0  0
   -0.4019    5.5104    1.7886 H   0  0  0  0  0  0  0  0  0  0  0  0
   -0.1828    6.6311    0.4663 H   0  0  0  0  0  0  0  0  0  0  0  0
    0.2240   -1.4903    1.7189 C   0  0  0  0  0  0  0  0  0  0  0  0
    1.4219   -1.2849    1.8634 O   0  0  0  0  0  0  0  0  0  0  0  0
   -0.6289   -1.1616    2.7593 N   0  0  0  0  0  0  0  0  0  0  0  0
   -1.5879   -1.4728    2.6323 H   0  0  0  0  0  0  0  0  0  0  0  0
   -0.1452   -1.0029    4.1270 C   0  0  0  0  0  0  0  0  0  0  0  0
    0.5815   -0.1860    4.1876 H   0  0  0  0  0  0  0  0  0  0  0  0
   -0.9771   -0.7738    4.7998 H   0  0  0  0  0  0  0  0  0  0  0  0
    0.3356   -1.9251    4.4708 H   0  0  0  0  0  0  0  0  0  0  0  0
  1  2  1  0  0  0  0
  2  3  1  0  0  0  0
  2  4  1  0  0  0  0
  2  5  1  0  0  0  0
  5  6  2  0  0  0  0
  5  7  1  0  0  0  0
  7  8  1  0  0  0  0
  7  9  1  0  0  0  0
  9 10  1  0  0  0  0
  9 11  1  0  0  0  0
  9 29  1  0  0  0  0
 11 12  1  0  0  0  0
 11 13  1  0  0  0  0
 11 14  1  0  0  0  0
 14 15  1  0  0  0  0
 14 16  1  0  0  0  0
 14 17  1  0  0  0  0
 17 18  1  0  0  0  0
 17 19  1  0  0  0  0
 17 20  1  0  0  0  0
 20 21  1  0  0  0  0
 20 22  2  0  0  0  0
 22 23  1  0  0  0  0
 22 26  1  0  0  0  0
 23 24  1  0  0  0  0
 23 25  1  0  0  0  0
 26 27  1  0  0  0  0
 26 28  1  0  0  0  0
 29 30  2  0  0  0  0
 29 31  1  0  0  0  0
 31 32  1  0  0  0  0
 31 33  1  0  0  0  0
 33 34  1  0  0  0  0
 33 35  1  0  0  0  0
 33 36  1  0  0  0  0
M  CHG  1  20   1
M  END
$$$$

  -OEChem-04042215563D

 36 35  0     1  0  0  0  0  0999 V2000
   -2.9504   -5.4626    0.6842 H   0  0  0  0  0  0  0  0  0  0  0  0
   -3.0157   -4.4430    0.2927 C   0  0  0  0  0  0  0  0  0  0  0  0
   -3.8728   -3.9450    0.7521 H   0  0  0  0  0  0  0  0  0  0  0  0
   -3.1656   -4.4934   -0.7883 H   0  0  0  0  0  0  0  0  0  0  0  0
   -1.7413   -3.6828    0.6065 C   0  0  0  0  0  0  0  0  0  0  0  0
   -0.8582   -4.2180    1.2508 O   0  0  0  0  0  0  0  0  0  0  0  0
   -1.5921   -2.3747    0.1812 N   0  0  0  0  0  0  0  0  0  0  0  0
   -2.3168   -2.0237   -0.4380 H   0  0  0  0  0  0  0  0  0  0  0  0
   -0.3205   -1.6275    0.2647 C   0  0  1  0  0  0  0  0  0  0  0  0
    0.4306   -2.2391   -0.2496 H   0  0  0  0  0  0  0  0  0  0  0  0
   -0.4267   -0.2984   -0.5356 C   0  0  0  0  0  0  0  0  0  0  0  0
    0.3269   -0.3258   -1.3307 H   0  0  0  0  0  0  0  0  0  0  0  0
   -1.4054   -0.2426   -1.0235 H   0  0  0  0  0  0  0  0  0  0  0  0
   -0.2120    0.9856    0.2854 C   0  0  0  0  0  0  0  0  0  0  0  0
   -0.9489    1.0405    1.0936 H   0  0  0  0  0  0  0  0  0  0  0  0
    0.7893    0.9708    0.7311 H   0  0  0  0  0  0  0  0  0  0  0  0
   -0.3381    2.2216   -0.6005 C   0  0  0  0  0  0  0  0  0  0  0  0
    0.3440    2.1240   -1.4525 H   0  0  0  0  0  0  0  0  0  0  0  0
   -1.3637    2.2963   -0.9790 H   0  0  0  0  0  0  0  0  0  0  0  0
    0.0117    3.4138    0.1935 N   0  3  0  0  0  0  0  0  0  0  0  0
    0.3841    3.2495    1.1287 H   0  0  0  0  0  0  0  0  0  0  0  0
   -0.0764    4.6346   -0.2486 C   0  0  0  0  0  0  0  0  0  0  0  0
   -0.5221    4.9152   -1.5200 N   0  0  0  0  0  0  0  0  0  0  0  0
   -0.6094    4.1389   -2.1726 H   0  0  0  0  0  0  0  0  0  0  0  0
   -0.3462    5.8422   -1.9025 H   0  0  0  0  0  0  0  0  0  0  0  0
    0.2856    5.6783    0.5690 N   0  0  0  0  0  0  0  0  0  0  0  0
    0.4616    5.4927    1.5547 H   0  0  0  0  0  0  0  0  0  0  0  0
    0.0199    6.6238    0.3002 H   0  0  0  0  0  0  0  0  0  0  0  0
    0.2241   -1.4773    1.7078 C   0  0  0  0  0  0  0  0  0  0  0  0
    1.4260   -1.3126    1.8725 O   0  0  0  0  0  0  0  0  0  0  0  0
   -0.6347   -1.1243    2.7351 N   0  0  0  0  0  0  0  0  0  0  0  0
   -1.6010   -1.4049    2.5934 H   0  0  0  0  0  0  0  0  0  0  0  0
   -0.1694   -0.9754    4.1106 C   0  0  0  0  0  0  0  0  0  0  0  0
    0.5773   -0.1777    4.1825 H   0  0  0  0  0  0  0  0  0  0  0  0
   -1.0063   -0.7228    4.7687 H   0  0  0  0  0  0  0  0  0  0  0  0
    0.2805   -1.9094    4.4651 H   0  0  0  0  0  0  0  0  0  0  0  0
  1  2  1  0  0  0  0
  2  3  1  0  0  0  0
  2  4  1  0  0  0  0
  2  5  1  0  0  0  0
  5  6  2  0  0  0  0
  5  7  1  0  0  0  0
  7  8  1  0  0  0  0
  7  9  1  0  0  0  0
  9 10  1  0  0  0  0
  9 11  1  0  0  0  0
  9 29  1  0  0  0  0
 11 12  1  0  0  0  0
 11 13  1  0  0  0  0
 11 14  1  0  0  0  0
 14 15  1  0  0  0  0
 14 16  1  0  0  0  0
 14 17  1  0  0  0  0
 17 18  1  0  0  0  0
 17 19  1  0  0  0  0
 17 20  1  0  0  0  0
 20 21  1  0  0  0  0
 20 22  2  0  0  0  0
 22 23  1  0  0  0  0
 22 26  1  0  0  0  0
 23 24  1  0  0  0  0
 23 25  1  0  0  0  0
 26 27  1  0  0  0  0
 26 28  1  0  0  0  0
 29 30  2  0  0  0  0
 29 31  1  0  0  0  0
 31 32  1  0  0  0  0
 31 33  1  0  0  0  0
 33 34  1  0  0  0  0
 33 35  1  0  0  0  0
 33 36  1  0  0  0  0
M  CHG  1  20   1
M  END
$$$$

  -OEChem-04042215563D

 36 35  0     1  0  0  0  0  0999 V2000
   -2.9478   -5.4844    0.6517 H   0  0  0  0  0  0  0  0  0  0  0  0
   -3.0231   -4.4602    0.2749 C   0  0  0  0  0  0  0  0  0  0  0  0
   -3.8907   -3.9806    0.7339 H   0  0  0  0  0  0  0  0  0  0  0  0
   -3.1627   -4.4959   -0.8081 H   0  0  0  0  0  0  0  0  0  0  0  0
   -1.7614   -3.6891    0.6124 C   0  0  0  0  0  0  0  0  0  0  0  0
   -0.8799   -4.2216    1.2612 O   0  0  0  0  0  0  0  0  0  0  0  0
   -1.6212   -2.3746    0.2035 N   0  0  0  0  0  0  0  0  0  0  0  0
   -2.3430   -2.0265   -0.4207 H   0  0  0  0  0  0  0  0  0  0  0  0
   -0.3490   -1.6274    0.2845 C   0  0  1  0  0  0  0  0  0  0  0  0
    0.3932   -2.2453   -0.2362 H   0  0  0  0  0  0  0  0  0  0  0  0
   -0.4337   -0.3000   -0.5204 C   0  0  0  0  0  0  0  0  0  0  0  0
    0.3153   -0.3322   -1.3191 H   0  0  0  0  0  0  0  0  0  0  0  0
   -1.4142   -0.2437   -1.0043 H   0  0  0  0  0  0  0  0  0  0  0  0
   -0.2127    0.9875    0.2942 C   0  0  0  0  0  0  0  0  0  0  0  0
   -0.7919    0.9513    1.2217 H   0  0  0  0  0  0  0  0  0  0  0  0
    0.8490    1.0715    0.5549 H   0  0  0  0  0  0  0  0  0  0  0  0
   -0.6687    2.2158   -0.4878 C   0  0  0  0  0  0  0  0  0  0  0  0
   -0.1512    2.2398   -1.4535 H   0  0  0  0  0  0  0  0  0  0  0  0
   -1.7475    2.1540   -0.6688 H   0  0  0  0  0  0  0  0  0  0  0  0
   -0.3408    3.4224    0.2939 N   0  3  0  0  0  0  0  0  0  0  0  0
    0.2425    3.2890    1.1199 H   0  0  0  0  0  0  0  0  0  0  0  0
   -0.7098    4.6265   -0.0331 C   0  0  0  0  0  0  0  0  0  0  0  0
   -1.4540    4.8760   -1.1635 N   0  0  0  0  0  0  0  0  0  0  0  0
   -1.5569    4.1209   -1.8380 H   0  0  0  0  0  0  0  0  0  0  0  0
   -1.5091    5.8329   -1.5068 H   0  0  0  0  0  0  0  0  0  0  0  0
   -0.3474    5.6842    0.7660 N   0  0  0  0  0  0  0  0  0  0  0  0
    0.0532    5.4917    1.6822 H   0  0  0  0  0  0  0  0  0  0  0  0
   -0.8063    6.5822    0.6245 H   0  0  0  0  0  0  0  0  0  0  0  0
    0.2208   -1.4913    1.7193 C   0  0  0  0  0  0  0  0  0  0  0  0
    1.4227   -1.3053    1.8577 O   0  0  0  0  0  0  0  0  0  0  0  0
   -0.6180   -1.1516    2.7679 N   0  0  0  0  0  0  0  0  0  0  0  0
   -1.5830   -1.4467    2.6489 H   0  0  0  0  0  0  0  0  0  0  0  0
   -0.1205   -1.0079    4.1327 C   0  0  0  0  0  0  0  0  0  0  0  0
    0.6145   -0.1985    4.1940 H   0  0  0  0  0  0  0  0  0  0  0  0
   -0.9442   -0.7765    4.8148 H   0  0  0  0  0  0  0  0  0  0  0  0
    0.3544   -1.9374    4.4652 H   0  0  0  0  0  0  0  0  0  0  0  0
  1  2  1  0  0  0  0
  2  3  1  0  0  0  0
  2  4  1  0  0  0  0
  2  5  1  0  0  0  0
  5  6  2  0  0  0  0
  5  7  1  0  0  0  0
  7  8  1  0  0  0  0
  7  9  1  0  0  0  0
  9 10  1  0  0  0  0
  9 11  1  0  0  0  0
  9 29  1  0  0  0  0
 11 12  1  0  0  0  0
 11 13  1  0  0  0  0
 11 14  1  0  0  0  0
 14 15  1  0  0  0  0
 14 16  1  0  0  0  0
 14 17  1  0  0  0  0
 17 18  1  0  0  0  0
 17 19  1  0  0  0  0
 17 20  1  0  0  0  0
 20 21  1  0  0  0  0
 20 22  2  0  0  0  0
 22 23  1  0  0  0  0
 22 26  1  0  0  0  0
 23 24  1  0  0  0  0
 23 25  1  0  0  0  0
 26 27  1  0  0  0  0
 26 28  1  0  0  0  0
 29 30  2  0  0  0  0
 29 31  1  0  0  0  0
 31 32  1  0  0  0  0
 31 33  1  0  0  0  0
 33 34  1  0  0  0  0
 33 35  1  0  0  0  0
 33 36  1  0  0  0  0
M  CHG  1  20   1
M  END
$$$$

  -OEChem-04042215563D

 36 35  0     1  0  0  0  0  0999 V2000
   -2.9716   -5.4860    0.6483 H   0  0  0  0  0  0  0  0  0  0  0  0
   -3.0376   -4.4611    0.2709 C   0  0  0  0  0  0  0  0  0  0  0  0
   -3.8985   -3.9724    0.7329 H   0  0  0  0  0  0  0  0  0  0  0  0
   -3.1821   -4.4957   -0.8116 H   0  0  0  0  0  0  0  0  0  0  0  0
   -1.7663   -3.7030    0.6022 C   0  0  0  0  0  0  0  0  0  0  0  0
   -0.8772   -4.2512    1.2269 O   0  0  0  0  0  0  0  0  0  0  0  0
   -1.6288   -2.3802    0.2206 N   0  0  0  0  0  0  0  0  0  0  0  0
   -2.3586   -2.0165   -0.3849 H   0  0  0  0  0  0  0  0  0  0  0  0
   -0.3555   -1.6352    0.3034 C   0  0  1  0  0  0  0  0  0  0  0  0
    0.3783   -2.2524   -0.2293 H   0  0  0  0  0  0  0  0  0  0  0  0
   -0.4299   -0.3030   -0.4965 C   0  0  0  0  0  0  0  0  0  0  0  0
    0.3141   -0.3391   -1.3000 H   0  0  0  0  0  0  0  0  0  0  0  0
   -1.4108   -0.2500   -0.9794 H   0  0  0  0  0  0  0  0  0  0  0  0
   -0.2063    0.9972    0.3043 C   0  0  0  0  0  0  0  0  0  0  0  0
   -0.5731    0.8898    1.3275 H   0  0  0  0  0  0  0  0  0  0  0  0
    0.8684    1.2085    0.3527 H   0  0  0  0  0  0  0  0  0  0  0  0
   -0.9725    2.1670   -0.3082 C   0  0  0  0  0  0  0  0  0  0  0  0
   -0.6684    2.2895   -1.3538 H   0  0  0  0  0  0  0  0  0  0  0  0
   -2.0468    1.9544   -0.2777 H   0  0  0  0  0  0  0  0  0  0  0  0
   -0.6651    3.3885    0.4590 N   0  3  0  0  0  0  0  0  0  0  0  0
    0.0862    3.3223    1.1457 H   0  0  0  0  0  0  0  0  0  0  0  0
   -1.2777    4.5251    0.2975 C   0  0  0  0  0  0  0  0  0  0  0  0
   -2.2748    4.6855   -0.6374 N   0  0  0  0  0  0  0  0  0  0  0  0
   -2.3929    3.9513   -1.3323 H   0  0  0  0  0  0  0  0  0  0  0  0
   -2.5542    5.6310   -0.8911 H   0  0  0  0  0  0  0  0  0  0  0  0
   -0.9236    5.6002    1.0774 N   0  0  0  0  0  0  0  0  0  0  0  0
   -0.3050    5.4486    1.8724 H   0  0  0  0  0  0  0  0  0  0  0  0
   -1.5366    6.4132    1.0964 H   0  0  0  0  0  0  0  0  0  0  0  0
    0.2331   -1.5281    1.7325 C   0  0  0  0  0  0  0  0  0  0  0  0
    1.4335   -1.3228    1.8560 O   0  0  0  0  0  0  0  0  0  0  0  0
   -0.5948   -1.2103    2.7965 N   0  0  0  0  0  0  0  0  0  0  0  0
   -1.5565   -1.5206    2.6896 H   0  0  0  0  0  0  0  0  0  0  0  0
   -0.0795   -1.0627    4.1543 C   0  0  0  0  0  0  0  0  0  0  0  0
    0.6493   -0.2468    4.2051 H   0  0  0  0  0  0  0  0  0  0  0  0
   -0.8960   -0.8371    4.8469 H   0  0  0  0  0  0  0  0  0  0  0  0
    0.4076   -1.9880    4.4813 H   0  0  0  0  0  0  0  0  0  0  0  0
  1  2  1  0  0  0  0
  2  3  1  0  0  0  0
  2  4  1  0  0  0  0
  2  5  1  0  0  0  0
  5  6  2  0  0  0  0
  5  7  1  0  0  0  0
  7  8  1  0  0  0  0
  7  9  1  0  0  0  0
  9 10  1  0  0  0  0
  9 11  1  0  0  0  0
  9 29  1  0  0  0  0
 11 12  1  0  0  0  0
 11 13  1  0  0  0  0
 11 14  1  0  0  0  0
 14 15  1  0  0  0  0
 14 16  1  0  0  0  0
 14 17  1  0  0  0  0
 17 18  1  0  0  0  0
 17 19  1  0  0  0  0
 17 20  1  0  0  0  0
 20 21  1  0  0  0  0
 20 22  2  0  0  0  0
 22 23  1  0  0  0  0
 22 26  1  0  0  0  0
 23 24  1  0  0  0  0
 23 25  1  0  0  0  0
 26 27  1  0  0  0  0
 26 28  1  0  0  0  0
 29 30  2  0  0  0  0
 29 31  1  0  0  0  0
 31 32  1  0  0  0  0
 31 33  1  0  0  0  0
 33 34  1  0  0  0  0
 33 35  1  0  0  0  0
 33 36  1  0  0  0  0
M  CHG  1  20   1
M  END
$$$$

  -OEChem-04042215563D

 36 35  0     1  0  0  0  0  0999 V2000
   -2.9595   -5.5068    0.6500 H   0  0  0  0  0  0  0  0  0  0  0  0
   -3.0087   -4.4949    0.2371 C   0  0  0  0  0  0  0  0  0  0  0  0
   -3.8863   -3.9915    0.6485 H   0  0  0  0  0  0  0  0  0  0  0  0
   -3.1098   -4.5645   -0.8486 H   0  0  0  0  0  0  0  0  0  0  0  0
   -1.7500   -3.7274    0.5933 C   0  0  0  0  0  0  0  0  0  0  0  0
   -0.8517   -4.2828    1.1980 O   0  0  0  0  0  0  0  0  0  0  0  0
   -1.6311   -2.3926    0.2484 N   0  0  0  0  0  0  0  0  0  0  0  0
   -2.3632   -2.0293   -0.3544 H   0  0  0  0  0  0  0  0  0  0  0  0
   -0.3607   -1.6416    0.3254 C   0  0  1  0  0  0  0  0  0  0  0  0
    0.3658   -2.2372   -0.2410 H   0  0  0  0  0  0  0  0  0  0  0  0
   -0.4708   -0.2898   -0.4398 C   0  0  0  0  0  0  0  0  0  0  0  0
    0.2616   -0.3060   -1.2546 H   0  0  0  0  0  0  0  0  0  0  0  0
   -1.4558   -0.2472   -0.9160 H   0  0  0  0  0  0  0  0  0  0  0  0
   -0.2484    1.0179    0.3587 C   0  0  0  0  0  0  0  0  0  0  0  0
   -0.3012    0.8535    1.4360 H   0  0  0  0  0  0  0  0  0  0  0  0
    0.7563    1.3959    0.1376 H   0  0  0  0  0  0  0  0  0  0  0  0
   -1.3051    2.0670    0.0172 C   0  0  0  0  0  0  0  0  0  0  0  0
   -1.3056    2.2385   -1.0652 H   0  0  0  0  0  0  0  0  0  0  0  0
   -2.2924    1.6963    0.3142 H   0  0  0  0  0  0  0  0  0  0  0  0
   -0.9879    3.3183    0.7309 N   0  3  0  0  0  0  0  0  0  0  0  0
   -0.1215    3.3333    1.2686 H   0  0  0  0  0  0  0  0  0  0  0  0
   -1.7282    4.3880    0.6928 C   0  0  0  0  0  0  0  0  0  0  0  0
   -2.8951    4.4378   -0.0351 N   0  0  0  0  0  0  0  0  0  0  0  0
   -3.0794    3.6794   -0.6878 H   0  0  0  0  0  0  0  0  0  0  0  0
   -3.3095    5.3474   -0.2291 H   0  0  0  0  0  0  0  0  0  0  0  0
   -1.3411    5.5054    1.3940 N   0  0  0  0  0  0  0  0  0  0  0  0
   -0.5711    5.4289    2.0562 H   0  0  0  0  0  0  0  0  0  0  0  0
   -2.0168    6.2551    1.5310 H   0  0  0  0  0  0  0  0  0  0  0  0
    0.2551   -1.5762    1.7448 C   0  0  0  0  0  0  0  0  0  0  0  0
    1.4572   -1.3735    1.8512 O   0  0  0  0  0  0  0  0  0  0  0  0
   -0.5540   -1.2973    2.8341 N   0  0  0  0  0  0  0  0  0  0  0  0
   -1.5147   -1.6120    2.7335 H   0  0  0  0  0  0  0  0  0  0  0  0
   -0.0131   -1.2074    4.1872 C   0  0  0  0  0  0  0  0  0  0  0  0
    0.7347   -0.4101    4.2532 H   0  0  0  0  0  0  0  0  0  0  0  0
   -0.8119   -0.9878    4.9021 H   0  0  0  0  0  0  0  0  0  0  0  0
    0.4587   -2.1535    4.4741 H   0  0  0  0  0  0  0  0  0  0  0  0
  1  2  1  0  0  0  0
  2  3  1  0  0  0  0
  2  4  1  0  0  0  0
  2  5  1  0  0  0  0
  5  6  2  0  0  0  0
  5  7  1  0  0  0  0
  7  8  1  0  0  0  0
  7  9  1  0  0  0  0
  9 10  1  0  0  0  0
  9 11  1  0  0  0  0
  9 29  1  0  0  0  0
 11 12  1  0  0  0  0
 11 13  1  0  0  0  0
 11 14  1  0  0  0  0
 14 15  1  0  0  0  0
 14 16  1  0  0  0  0
 14 17  1  0  0  0  0
 17 18  1  0  0  0  0
 17 19  1  0  0  0  0
 17 20  1  0  0  0  0
 20 21  1  0  0  0  0
 20 22  2  0  0  0  0
 22 23  1  0  0  0  0
 22 26  1  0  0  0  0
 23 24  1  0  0  0  0
 23 25  1  0  0  0  0
 26 27  1  0  0  0  0
 26 28  1  0  0  0  0
 29 30  2  0  0  0  0
 29 31  1  0  0  0  0
 31 32  1  0  0  0  0
 31 33  1  0  0  0  0
 33 34  1  0  0  0  0
 33 35  1  0  0  0  0
 33 36  1  0  0  0  0
M  CHG  1  20   1
M  END
$$$$

  -OEChem-04042215563D

 36 35  0     1  0  0  0  0  0999 V2000
   -2.9573   -5.5108    0.6749 H   0  0  0  0  0  0  0  0  0  0  0  0
   -3.0002   -4.5018    0.2539 C   0  0  0  0  0  0  0  0  0  0  0  0
   -3.8860   -3.9963    0.6449 H   0  0  0  0  0  0  0  0  0  0  0  0
   -3.0808   -4.5793   -0.8330 H   0  0  0  0  0  0  0  0  0  0  0  0
   -1.7494   -3.7297    0.6276 C   0  0  0  0  0  0  0  0  0  0  0  0
   -0.8754   -4.2714    1.2785 O   0  0  0  0  0  0  0  0  0  0  0  0
   -1.6150   -2.4050    0.2489 N   0  0  0  0  0  0  0  0  0  0  0  0
   -2.3209   -2.0684   -0.3990 H   0  0  0  0  0  0  0  0  0  0  0  0
   -0.3351   -1.6671    0.3119 C   0  0  1  0  0  0  0  0  0  0  0  0
    0.3918   -2.2692   -0.2469 H   0  0  0  0  0  0  0  0  0  0  0  0
   -0.4622   -0.3185   -0.4597 C   0  0  0  0  0  0  0  0  0  0  0  0
    0.2783   -0.3483   -1.2669 H   0  0  0  0  0  0  0  0  0  0  0  0
   -1.4399   -0.2788   -0.9510 H   0  0  0  0  0  0  0  0  0  0  0  0
   -0.2307    1.0059    0.3133 C   0  0  0  0  0  0  0  0  0  0  0  0
    0.0590    0.8486    1.3528 H   0  0  0  0  0  0  0  0  0  0  0  0
    0.6051    1.5306   -0.1628 H   0  0  0  0  0  0  0  0  0  0  0  0
   -1.4649    1.9044    0.2813 C   0  0  0  0  0  0  0  0  0  0  0  0
   -1.7279    2.1212   -0.7600 H   0  0  0  0  0  0  0  0  0  0  0  0
   -2.3038    1.3831    0.7555 H   0  0  0  0  0  0  0  0  0  0  0  0
   -1.1644    3.1534    1.0063 N   0  3  0  0  0  0  0  0  0  0  0  0
   -0.2077    3.2727    1.3396 H   0  0  0  0  0  0  0  0  0  0  0  0
   -2.0394    4.0868    1.2452 C   0  0  0  0  0  0  0  0  0  0  0  0
   -3.3411    3.9902    0.8088 N   0  0  0  0  0  0  0  0  0  0  0  0
   -3.5638    3.2549    0.1418 H   0  0  0  0  0  0  0  0  0  0  0  0
   -3.9155    4.8308    0.8031 H   0  0  0  0  0  0  0  0  0  0  0  0
   -1.6621    5.2053    1.9497 N   0  0  0  0  0  0  0  0  0  0  0  0
   -0.7561    5.2108    2.4150 H   0  0  0  0  0  0  0  0  0  0  0  0
   -2.3870    5.8245    2.3080 H   0  0  0  0  0  0  0  0  0  0  0  0
    0.2642   -1.5814    1.7368 C   0  0  0  0  0  0  0  0  0  0  0  0
    1.4693   -1.4089    1.8599 O   0  0  0  0  0  0  0  0  0  0  0  0
   -0.5584   -1.2685    2.8067 N   0  0  0  0  0  0  0  0  0  0  0  0
   -1.5212   -1.5724    2.6934 H   0  0  0  0  0  0  0  0  0  0  0  0
   -0.0376   -1.1799    4.1675 C   0  0  0  0  0  0  0  0  0  0  0  0
    0.7160   -0.3889    4.2433 H   0  0  0  0  0  0  0  0  0  0  0  0
   -0.8455   -0.9532    4.8696 H   0  0  0  0  0  0  0  0  0  0  0  0
    0.4215   -2.1298    4.4625 H   0  0  0  0  0  0  0  0  0  0  0  0
  1  2  1  0  0  0  0
  2  3  1  0  0  0  0
  2  4  1  0  0  0  0
  2  5  1  0  0  0  0
  5  6  2  0  0  0  0
  5  7  1  0  0  0  0
  7  8  1  0  0  0  0
  7  9  1  0  0  0  0
  9 10  1  0  0  0  0
  9 11  1  0  0  0  0
  9 29  1  0  0  0  0
 11 12  1  0  0  0  0
 11 13  1  0  0  0  0
 11 14  1  0  0  0  0
 14 15  1  0  0  0  0
 14 16  1  0  0  0  0
 14 17  1  0  0  0  0
 17 18  1  0  0  0  0
 17 19  1  0  0  0  0
 17 20  1  0  0  0  0
 20 21  1  0  0  0  0
 20 22  2  0  0  0  0
 22 23  1  0  0  0  0
 22 26  1  0  0  0  0
 23 24  1  0  0  0  0
 23 25  1  0  0  0  0
 26 27  1  0  0  0  0
 26 28  1  0  0  0  0
 29 30  2  0  0  0  0
 29 31  1  0  0  0  0
 31 32  1  0  0  0  0
 31 33  1  0  0  0  0
 33 34  1  0  0  0  0
 33 35  1  0  0  0  0
 33 36  1  0  0  0  0
M  CHG  1  20   1
M  END
$$$$

  -OEChem-04042215563D

 36 35  0     1  0  0  0  0  0999 V2000
   -2.9391   -5.5144    0.6954 H   0  0  0  0  0  0  0  0  0  0  0  0
   -2.9904   -4.5035    0.2799 C   0  0  0  0  0  0  0  0  0  0  0  0
   -3.8817   -4.0085    0.6721 H   0  0  0  0  0  0  0  0  0  0  0  0
   -3.0685   -4.5770   -0.8074 H   0  0  0  0  0  0  0  0  0  0  0  0
   -1.7475   -3.7217    0.6608 C   0  0  0  0  0  0  0  0  0  0  0  0
   -0.9027   -4.2365    1.3692 O   0  0  0  0  0  0  0  0  0  0  0  0
   -1.5928   -2.4155    0.2292 N   0  0  0  0  0  0  0  0  0  0  0  0
   -2.2701   -2.1118   -0.4641 H   0  0  0  0  0  0  0  0  0  0  0  0
   -0.3078   -1.6855    0.2897 C   0  0  1  0  0  0  0  0  0  0  0  0
    0.4304   -2.3001   -0.2400 H   0  0  0  0  0  0  0  0  0  0  0  0
   -0.4434   -0.3526   -0.5077 C   0  0  0  0  0  0  0  0  0  0  0  0
    0.3167   -0.3962   -1.2960 H   0  0  0  0  0  0  0  0  0  0  0  0
   -1.4090   -0.3185   -1.0225 H   0  0  0  0  0  0  0  0  0  0  0  0
   -0.2171    0.9814    0.2458 C   0  0  0  0  0  0  0  0  0  0  0  0
    0.3600    0.8613    1.1649 H   0  0  0  0  0  0  0  0  0  0  0  0
    0.3850    1.6274   -0.4026 H   0  0  0  0  0  0  0  0  0  0  0  0
   -1.5330    1.7018    0.5274 C   0  0  0  0  0  0  0  0  0  0  0  0
   -2.0180    1.9612   -0.4200 H   0  0  0  0  0  0  0  0  0  0  0  0
   -2.1936    1.0338    1.0908 H   0  0  0  0  0  0  0  0  0  0  0  0
   -1.2482    2.9162    1.3141 N   0  3  0  0  0  0  0  0  0  0  0  0
   -0.2659    3.1493    1.4586 H   0  0  0  0  0  0  0  0  0  0  0  0
   -2.1620    3.6642    1.8607 C   0  0  0  0  0  0  0  0  0  0  0  0
   -3.5043    3.4082    1.6992 N   0  0  0  0  0  0  0  0  0  0  0  0
   -3.7744    2.7396    0.9814 H   0  0  0  0  0  0  0  0  0  0  0  0
   -4.1701    4.1377    1.9465 H   0  0  0  0  0  0  0  0  0  0  0  0
   -1.7851    4.7445    2.6219 N   0  0  0  0  0  0  0  0  0  0  0  0
   -0.8060    4.8397    2.8856 H   0  0  0  0  0  0  0  0  0  0  0  0
   -2.4836    5.1908    3.2134 H   0  0  0  0  0  0  0  0  0  0  0  0
    0.2542   -1.5479    1.7258 C   0  0  0  0  0  0  0  0  0  0  0  0
    1.4586   -1.3966    1.8803 O   0  0  0  0  0  0  0  0  0  0  0  0
   -0.5951   -1.1844    2.7579 N   0  0  0  0  0  0  0  0  0  0  0  0
   -1.5518   -1.5023    2.6332 H   0  0  0  0  0  0  0  0  0  0  0  0
   -0.1088   -1.0413    4.1267 C   0  0  0  0  0  0  0  0  0  0  0  0
    0.6539   -0.2578    4.1866 H   0  0  0  0  0  0  0  0  0  0  0  0
   -0.9312   -0.7716    4.7960 H   0  0  0  0  0  0  0  0  0  0  0  0
    0.3290   -1.9828    4.4763 H   0  0  0  0  0  0  0  0  0  0  0  0
  1  2  1  0  0  0  0
  2  3  1  0  0  0  0
  2  4  1  0  0  0  0
  2  5  1  0  0  0  0
  5  6  2  0  0  0  0
  5  7  1  0  0  0  0
  7  8  1  0  0  0  0
  7  9  1  0  0  0  0
  9 10  1  0  0  0  0
  9 11  1  0  0  0  0
  9 29  1  0  0  0  0
 11 12  1  0  0  0  0
 11 13  1  0  0  0  0
 11 14  1  0  0  0  0
 14 15  1  0  0  0  0
 14 16  1  0  0  0  0
 14 17  1  0  0  0  0
 17 18  1  0  0  0  0
 17 19  1  0  0  0  0
 17 20  1  0  0  0  0
 20 21  1  0  0  0  0
 20 22  2  0  0  0  0
 22 23  1  0  0  0  0
 22 26  1  0  0  0  0
 23 24  1  0  0  0  0
 23 25  1  0  0  0  0
 26 27  1  0  0  0  0
 26 28  1  0  0  0  0
 29 30  2  0  0  0  0
 29 31  1  0  0  0  0
 31 32  1  0  0  0  0
 31 33  1  0  0  0  0
 33 34  1  0  0  0  0
 33 35  1  0  0  0  0
 33 36  1  0  0  0  0
M  CHG  1  20   1
M  END
$$$$

  -OEChem-04042215563D

 36 35  0     1  0  0  0  0  0999 V2000
   -2.8921   -5.5563    0.6948 H   0  0  0  0  0  0  0  0  0  0  0  0
   -2.9194   -4.5755    0.2107 C   0  0  0  0  0  0  0  0  0  0  0  0
   -3.8472   -4.0725    0.4915 H   0  0  0  0  0  0  0  0  0  0  0  0
   -2.9022   -4.7193   -0.8725 H   0  0  0  0  0  0  0  0  0  0  0  0
   -1.7234   -3.7494    0.6435 C   0  0  0  0  0  0  0  0  0  0  0  0
   -0.8938   -4.2322    1.3914 O   0  0  0  0  0  0  0  0  0  0  0  0
   -1.5973   -2.4386    0.2165 N   0  0  0  0  0  0  0  0  0  0  0  0
   -2.2628   -2.1647   -0.5008 H   0  0  0  0  0  0  0  0  0  0  0  0
   -0.3228   -1.6893    0.2698 C   0  0  1  0  0  0  0  0  0  0  0  0
    0.4212   -2.2826   -0.2758 H   0  0  0  0  0  0  0  0  0  0  0  0
   -0.4913   -0.3468   -0.5027 C   0  0  0  0  0  0  0  0  0  0  0  0
    0.2551   -0.3612   -1.3047 H   0  0  0  0  0  0  0  0  0  0  0  0
   -1.4692   -0.3102   -0.9941 H   0  0  0  0  0  0  0  0  0  0  0  0
   -0.2695    0.9637    0.2838 C   0  0  0  0  0  0  0  0  0  0  0  0
    0.5310    0.8654    1.0224 H   0  0  0  0  0  0  0  0  0  0  0  0
    0.0692    1.7249   -0.4278 H   0  0  0  0  0  0  0  0  0  0  0  0
   -1.5573    1.4731    0.9258 C   0  0  0  0  0  0  0  0  0  0  0  0
   -2.2722    1.7534    0.1443 H   0  0  0  0  0  0  0  0  0  0  0  0
   -1.9955    0.6744    1.5339 H   0  0  0  0  0  0  0  0  0  0  0  0
   -1.2281    2.6324    1.7755 N   0  3  0  0  0  0  0  0  0  0  0  0
   -0.2379    2.8472    1.8916 H   0  0  0  0  0  0  0  0  0  0  0  0
   -2.1077    3.3427    2.4193 C   0  0  0  0  0  0  0  0  0  0  0  0
   -3.4552    3.0736    2.3470 N   0  0  0  0  0  0  0  0  0  0  0  0
   -3.7425    2.1997    1.9127 H   0  0  0  0  0  0  0  0  0  0  0  0
   -4.0733    3.4915    3.0398 H   0  0  0  0  0  0  0  0  0  0  0  0
   -1.6863    4.3919    3.2007 N   0  0  0  0  0  0  0  0  0  0  0  0
   -0.7198    4.7037    3.1227 H   0  0  0  0  0  0  0  0  0  0  0  0
   -2.3785    5.0608    3.5332 H   0  0  0  0  0  0  0  0  0  0  0  0
    0.2464   -1.5535    1.7046 C   0  0  0  0  0  0  0  0  0  0  0  0
    1.4494   -1.3886    1.8550 O   0  0  0  0  0  0  0  0  0  0  0  0
   -0.6021   -1.2108    2.7449 N   0  0  0  0  0  0  0  0  0  0  0  0
   -1.5460   -1.5675    2.6262 H   0  0  0  0  0  0  0  0  0  0  0  0
   -0.1068   -1.0894    4.1128 C   0  0  0  0  0  0  0  0  0  0  0  0
    0.6411   -0.2928    4.1843 H   0  0  0  0  0  0  0  0  0  0  0  0
   -0.9282   -0.8511    4.7949 H   0  0  0  0  0  0  0  0  0  0  0  0
    0.3516   -2.0301    4.4379 H   0  0  0  0  0  0  0  0  0  0  0  0
  1  2  1  0  0  0  0
  2  3  1  0  0  0  0
  2  4  1  0  0  0  0
  2  5  1  0  0  0  0
  5  6  2  0  0  0  0
  5  7  1  0  0  0  0
  7  8  1  0  0  0  0
  7  9  1  0  0  0  0
  9 10  1  0  0  0  0
  9 11  1  0  0  0  0
  9 29  1  0  0  0  0
 11 12  1  0  0  0  0
 11 13  1  0  0  0  0
 11 14  1  0  0  0  0
 14 15  1  0  0  0  0
 14 16  1  0  0  0  0
 14 17  1  0  0  0  0
 17 18  1  0  0  0  0
 17 19  1  0  0  0  0
 17 20  1  0  0  0  0
 20 21  1  0  0  0  0
 20 22  2  0  0  0  0
 22 23  1  0  0  0  0
 22 26  1  0  0  0  0
 23 24  1  0  0  0  0
 23 25  1  0  0  0  0
 26 27  1  0  0  0  0
 26 28  1  0  0  0  0
 29 30  2  0  0  0  0
 29 31  1  0  0  0  0
 31 32  1  0  0  0  0
 31 33  1  0  0  0  0
 33 34  1  0  0  0  0
 33 35  1  0  0  0  0
 33 36  1  0  0  0  0
M  CHG  1  20   1
M  END
$$$$

  -OEChem-04042215563D

 36 35  0     1  0  0  0  0  0999 V2000
   -2.8247   -5.6010    0.5901 H   0  0  0  0  0  0  0  0  0  0  0  0
   -2.9117   -4.5865    0.1896 C   0  0  0  0  0  0  0  0  0  0  0  0
   -3.8553   -4.1543    0.5302 H   0  0  0  0  0  0  0  0  0  0  0  0
   -2.9148   -4.6416   -0.9018 H   0  0  0  0  0  0  0  0  0  0  0  0
   -1.7467   -3.7390    0.6636 C   0  0  0  0  0  0  0  0  0  0  0  0
   -0.9488   -4.1953    1.4613 O   0  0  0  0  0  0  0  0  0  0  0  0
   -1.6216   -2.4303    0.2313 N   0  0  0  0  0  0  0  0  0  0  0  0
   -2.2617   -2.1724   -0.5151 H   0  0  0  0  0  0  0  0  0  0  0  0
   -0.3552   -1.6722    0.3136 C   0  0  1  0  0  0  0  0  0  0  0  0
    0.3978   -2.2937   -0.1868 H   0  0  0  0  0  0  0  0  0  0  0  0
   -0.4573   -0.3678   -0.5298 C   0  0  0  0  0  0  0  0  0  0  0  0
    0.3277   -0.4216   -1.2923 H   0  0  0  0  0  0  0  0  0  0  0  0
   -1.4113   -0.3434   -1.0669 H   0  0  0  0  0  0  0  0  0  0  0  0
   -0.2711    0.9707    0.2089 C   0  0  0  0  0  0  0  0  0  0  0  0
    0.6312    0.9295    0.8281 H   0  0  0  0  0  0  0  0  0  0  0  0
   -0.1049    1.7576   -0.5348 H   0  0  0  0  0  0  0  0  0  0  0  0
   -1.4894    1.3529    1.0482 C   0  0  0  0  0  0  0  0  0  0  0  0
   -2.2986    1.6841    0.3877 H   0  0  0  0  0  0  0  0  0  0  0  0
   -1.8365    0.4807    1.6086 H   0  0  0  0  0  0  0  0  0  0  0  0
   -1.1010    2.4284    1.9785 N   0  3  0  0  0  0  0  0  0  0  0  0
   -0.1526    2.7917    1.8881 H   0  0  0  0  0  0  0  0  0  0  0  0
   -1.8555    2.8648    2.9438 C   0  0  0  0  0  0  0  0  0  0  0  0
   -3.1253    2.3766    3.1503 N   0  0  0  0  0  0  0  0  0  0  0  0
   -3.4077    1.5508    2.6278 H   0  0  0  0  0  0  0  0  0  0  0  0
   -3.5826    2.5635    4.0404 H   0  0  0  0  0  0  0  0  0  0  0  0
   -1.3768    3.8398    3.7861 N   0  0  0  0  0  0  0  0  0  0  0  0
   -0.5098    4.3156    3.5424 H   0  0  0  0  0  0  0  0  0  0  0  0
   -2.0337    4.3254    4.3941 H   0  0  0  0  0  0  0  0  0  0  0  0
    0.1987   -1.5090    1.7528 C   0  0  0  0  0  0  0  0  0  0  0  0
    1.3959   -1.3058    1.9020 O   0  0  0  0  0  0  0  0  0  0  0  0
   -0.6528   -1.1605    2.7890 N   0  0  0  0  0  0  0  0  0  0  0  0
   -1.5774   -1.5721    2.6924 H   0  0  0  0  0  0  0  0  0  0  0  0
   -0.1465   -0.9870    4.1478 C   0  0  0  0  0  0  0  0  0  0  0  0
    0.5786   -0.1671    4.1884 H   0  0  0  0  0  0  0  0  0  0  0  0
   -0.9667   -0.7556    4.8339 H   0  0  0  0  0  0  0  0  0  0  0  0
    0.3448   -1.9041    4.4920 H   0  0  0  0  0  0  0  0  0  0  0  0
  1  2  1  0  0  0  0
  2  3  1  0  0  0  0
  2  4  1  0  0  0  0
  2  5  1  0  0  0  0
  5  6  2  0  0  0  0
  5  7  1  0  0  0  0
  7  8  1  0  0  0  0
  7  9  1  0  0  0  0
  9 10  1  0  0  0  0
  9 11  1  0  0  0  0
  9 29  1  0  0  0  0
 11 12  1  0  0  0  0
 11 13  1  0  0  0  0
 11 14  1  0  0  0  0
 14 15  1  0  0  0  0
 14 16  1  0  0  0  0
 14 17  1  0  0  0  0
 17 18  1  0  0  0  0
 17 19  1  0  0  0  0
 17 20  1  0  0  0  0
 20 21  1  0  0  0  0
 20 22  2  0  0  0  0
 22 23  1  0  0  0  0
 22 26  1  0  0  0  0
 23 24  1  0  0  0  0
 23 25  1  0  0  0  0
 26 27  1  0  0  0  0
 26 28  1  0  0  0  0
 29 30  2  0  0  0  0
 29 31  1  0  0  0  0
 31 32  1  0  0  0  0
 31 33  1  0  0  0  0
 33 34  1  0  0  0  0
 33 35  1  0  0  0  0
 33 36  1  0  0  0  0
M  CHG  1  20   1
M  END
$$$$

  -OEChem-04042215563D

 36 35  0     1  0  0  0  0  0999 V2000
   -2.4528   -5.7625    0.3057 H   0  0  0  0  0  0  0  0  0  0  0  0
   -2.5659   -4.7506   -0.0947 C   0  0  0  0  0  0  0  0  0  0  0  0
   -3.5815   -4.4039    0.1097 H   0  0  0  0  0  0  0  0  0  0  0  0
   -2.4089   -4.7840   -1.1756 H   0  0  0  0  0  0  0  0  0  0  0  0
   -1.5562   -3.8199    0.5493 C   0  0  0  0  0  0  0  0  0  0  0  0
   -0.7901   -4.2434    1.3960 O   0  0  0  0  0  0  0  0  0  0  0  0
   -1.5269   -2.4789    0.2057 N   0  0  0  0  0  0  0  0  0  0  0  0
   -2.1151   -2.2218   -0.5831 H   0  0  0  0  0  0  0  0  0  0  0  0
   -0.4140   -1.5705    0.5532 C   0  0  1  0  0  0  0  0  0  0  0  0
    0.4905   -2.0934    0.2184 H   0  0  0  0  0  0  0  0  0  0  0  0
   -0.4297   -0.2624   -0.2902 C   0  0  0  0  0  0  0  0  0  0  0  0
    0.5004   -0.2395   -0.8691 H   0  0  0  0  0  0  0  0  0  0  0  0
   -1.2451   -0.3295   -1.0180 H   0  0  0  0  0  0  0  0  0  0  0  0
   -0.5476    1.1002    0.4153 C   0  0  0  0  0  0  0  0  0  0  0  0
    0.3441    1.2238    1.0374 H   0  0  0  0  0  0  0  0  0  0  0  0
   -0.5070    1.8844   -0.3487 H   0  0  0  0  0  0  0  0  0  0  0  0
   -1.8063    1.3205    1.2563 C   0  0  0  0  0  0  0  0  0  0  0  0
   -2.6715    1.4054    0.5894 H   0  0  0  0  0  0  0  0  0  0  0  0
   -1.9974    0.4793    1.9185 H   0  0  0  0  0  0  0  0  0  0  0  0
   -1.6614    2.5557    2.0530 N   0  3  0  0  0  0  0  0  0  0  0  0
   -2.1518    3.3806    1.7101 H   0  0  0  0  0  0  0  0  0  0  0  0
   -0.9330    2.6612    3.1316 C   0  0  0  0  0  0  0  0  0  0  0  0
   -0.2061    1.6158    3.6563 N   0  0  0  0  0  0  0  0  0  0  0  0
   -0.1175    0.7527    3.1097 H   0  0  0  0  0  0  0  0  0  0  0  0
    0.5449    1.8236    4.3099 H   0  0  0  0  0  0  0  0  0  0  0  0
   -0.8672    3.8735    3.7759 N   0  0  0  0  0  0  0  0  0  0  0  0
   -1.5290    4.6030    3.5199 H   0  0  0  0  0  0  0  0  0  0  0  0
   -0.4565    3.9046    4.7074 H   0  0  0  0  0  0  0  0  0  0  0  0
   -0.1947   -1.4611    2.0858 C   0  0  0  0  0  0  0  0  0  0  0  0
    0.8465   -0.9679    2.5028 O   0  0  0  0  0  0  0  0  0  0  0  0
   -1.2829   -1.3149    2.9295 N   0  0  0  0  0  0  0  0  0  0  0  0
   -2.1308   -1.7145    2.5318 H   0  0  0  0  0  0  0  0  0  0  0  0
   -1.1341   -1.4922    4.3745 C   0  0  0  0  0  0  0  0  0  0  0  0
   -0.3382   -0.8613    4.7820 H   0  0  0  0  0  0  0  0  0  0  0  0
   -2.0675   -1.2329    4.8838 H   0  0  0  0  0  0  0  0  0  0  0  0
   -0.8936   -2.5366    4.6031 H   0  0  0  0  0  0  0  0  0  0  0  0
  1  2  1  0  0  0  0
  2  3  1  0  0  0  0
  2  4  1  0  0  0  0
  2  5  1  0  0  0  0
  5  6  2  0  0  0  0
  5  7  1  0  0  0  0
  7  8  1  0  0  0  0
  7  9  1  0  0  0  0
  9 10  1  0  0  0  0
  9 11  1  0  0  0  0
  9 29  1  0  0  0  0
 11 12  1  0  0  0  0
 11 13  1  0  0  0  0
 11 14  1  0  0  0  0
 14 15  1  0  0  0  0
 14 16  1  0  0  0  0
 14 17  1  0  0  0  0
 17 18  1  0  0  0  0
 17 19  1  0  0  0  0
 17 20  1  0  0  0  0
 20 21  1  0  0  0  0
 20 22  2  0  0  0  0
 22 23  1  0  0  0  0
 22 26  1  0  0  0  0
 23 24  1  0  0  0  0
 23 25  1  0  0  0  0
 26 27  1  0  0  0  0
 26 28  1  0  0  0  0
 29 30  2  0  0  0  0
 29 31  1  0  0  0  0
 31 32  1  0  0  0  0
 31 33  1  0  0  0  0
 33 34  1  0  0  0  0
 33 35  1  0  0  0  0
 33 36  1  0  0  0  0
M  CHG  1  20   1
M  END
$$$$

  -OEChem-04042215563D

 36 35  0     1  0  0  0  0  0999 V2000
   -2.0020   -5.9255    0.2543 H   0  0  0  0  0  0  0  0  0  0  0  0
   -2.2867   -4.9111   -0.0405 C   0  0  0  0  0  0  0  0  0  0  0  0
   -3.2732   -4.6896    0.3736 H   0  0  0  0  0  0  0  0  0  0  0  0
   -2.3367   -4.8665   -1.1311 H   0  0  0  0  0  0  0  0  0  0  0  0
   -1.2670   -3.9131    0.4746 C   0  0  0  0  0  0  0  0  0  0  0  0
   -0.3403   -4.2921    1.1679 O   0  0  0  0  0  0  0  0  0  0  0  0
   -1.4095   -2.5650    0.1918 N   0  0  0  0  0  0  0  0  0  0  0  0
   -2.1400   -2.3366   -0.4778 H   0  0  0  0  0  0  0  0  0  0  0  0
   -0.3533   -1.5552    0.4241 C   0  0  1  0  0  0  0  0  0  0  0  0
    0.5482   -1.9605   -0.0516 H   0  0  0  0  0  0  0  0  0  0  0  0
   -0.6358   -0.2265   -0.3429 C   0  0  0  0  0  0  0  0  0  0  0  0
    0.1725   -0.1016   -1.0721 H   0  0  0  0  0  0  0  0  0  0  0  0
   -1.5499   -0.3796   -0.9257 H   0  0  0  0  0  0  0  0  0  0  0  0
   -0.7996    1.1375    0.3677 C   0  0  0  0  0  0  0  0  0  0  0  0
    0.2055    1.5103    0.5982 H   0  0  0  0  0  0  0  0  0  0  0  0
   -1.2207    1.8335   -0.3658 H   0  0  0  0  0  0  0  0  0  0  0  0
   -1.6679    1.2187    1.6231 C   0  0  0  0  0  0  0  0  0  0  0  0
   -2.2806    0.3157    1.7168 H   0  0  0  0  0  0  0  0  0  0  0  0
   -2.3415    2.0779    1.5493 H   0  0  0  0  0  0  0  0  0  0  0  0
   -0.7616    1.3627    2.7794 N   0  3  0  0  0  0  0  0  0  0  0  0
   -0.0811    0.6015    2.8962 H   0  0  0  0  0  0  0  0  0  0  0  0
   -0.6968    2.3754    3.5878 C   0  0  0  0  0  0  0  0  0  0  0  0
   -1.5617    3.4419    3.5066 N   0  0  0  0  0  0  0  0  0  0  0  0
   -2.3844    3.3389    2.9175 H   0  0  0  0  0  0  0  0  0  0  0  0
   -1.6166    4.0807    4.2971 H   0  0  0  0  0  0  0  0  0  0  0  0
    0.2800    2.3734    4.5528 N   0  0  0  0  0  0  0  0  0  0  0  0
    1.0299    1.6878    4.4633 H   0  0  0  0  0  0  0  0  0  0  0  0
    0.4968    3.2508    5.0206 H   0  0  0  0  0  0  0  0  0  0  0  0
    0.0373   -1.4977    1.9235 C   0  0  0  0  0  0  0  0  0  0  0  0
    1.0612   -0.9120    2.2609 O   0  0  0  0  0  0  0  0  0  0  0  0
   -0.9670   -1.5062    2.8781 N   0  0  0  0  0  0  0  0  0  0  0  0
   -1.7991   -2.0011    2.5636 H   0  0  0  0  0  0  0  0  0  0  0  0
   -0.6561   -1.6222    4.3018 C   0  0  0  0  0  0  0  0  0  0  0  0
   -0.0960   -0.7524    4.6579 H   0  0  0  0  0  0  0  0  0  0  0  0
   -1.5800   -1.6955    4.8841 H   0  0  0  0  0  0  0  0  0  0  0  0
   -0.0586   -2.5216    4.4886 H   0  0  0  0  0  0  0  0  0  0  0  0
  1  2  1  0  0  0  0
  2  3  1  0  0  0  0
  2  4  1  0  0  0  0
  2  5  1  0  0  0  0
  5  6  2  0  0  0  0
  5  7  1  0  0  0  0
  7  8  1  0  0  0  0
  7  9  1  0  0  0  0
  9 10  1  0  0  0  0
  9 11  1  0  0  0  0
  9 29  1  0  0  0  0
 11 12  1  0  0  0  0
 11 13  1  0  0  0  0
 11 14  1  0  0  0  0
 14 15  1  0  0  0  0
 14 16  1  0  0  0  0
 14 17  1  0  0  0  0
 17 18  1  0  0  0  0
 17 19  1  0  0  0  0
 17 20  1  0  0  0  0
 20 21  1  0  0  0  0
 20 22  2  0  0  0  0
 22 23  1  0  0  0  0
 22 26  1  0  0  0  0
 23 24  1  0  0  0  0
 23 25  1  0  0  0  0
 26 27  1  0  0  0  0
 26 28  1  0  0  0  0
 29 30  2  0  0  0  0
 29 31  1  0  0  0  0
 31 32  1  0  0  0  0
 31 33  1  0  0  0  0
 33 34  1  0  0  0  0
 33 35  1  0  0  0  0
 33 36  1  0  0  0  0
M  CHG  1  20   1
M  END
$$$$

  -OEChem-04042215563D

 36 35  0     1  0  0  0  0  0999 V2000
   -2.7481   -5.7613    0.0086 H   0  0  0  0  0  0  0  0  0  0  0  0
   -2.7049   -4.7298   -0.3533 C   0  0  0  0  0  0  0  0  0  0  0  0
   -3.6921   -4.2759   -0.2383 H   0  0  0  0  0  0  0  0  0  0  0  0
   -2.4370   -4.7421   -1.4127 H   0  0  0  0  0  0  0  0  0  0  0  0
   -1.6729   -3.9456    0.4341 C   0  0  0  0  0  0  0  0  0  0  0  0
   -1.0064   -4.5002    1.2896 O   0  0  0  0  0  0  0  0  0  0  0  0
   -1.5017   -2.5916    0.2037 N   0  0  0  0  0  0  0  0  0  0  0  0
   -2.0208   -2.2095   -0.5829 H   0  0  0  0  0  0  0  0  0  0  0  0
   -0.3652   -1.8066    0.7293 C   0  0  1  0  0  0  0  0  0  0  0  0
    0.5130   -2.4096    0.4662 H   0  0  0  0  0  0  0  0  0  0  0  0
   -0.1242   -0.4810   -0.0583 C   0  0  0  0  0  0  0  0  0  0  0  0
    0.8585   -0.5665   -0.5358 H   0  0  0  0  0  0  0  0  0  0  0  0
   -0.8538   -0.4677   -0.8747 H   0  0  0  0  0  0  0  0  0  0  0  0
   -0.1787    0.9295    0.5811 C   0  0  0  0  0  0  0  0  0  0  0  0
    0.8450    1.1381    0.9107 H   0  0  0  0  0  0  0  0  0  0  0  0
   -0.4115    1.6565   -0.2045 H   0  0  0  0  0  0  0  0  0  0  0  0
   -1.0964    1.1937    1.7752 C   0  0  0  0  0  0  0  0  0  0  0  0
   -2.1354    1.2716    1.4372 H   0  0  0  0  0  0  0  0  0  0  0  0
   -1.0426    0.3884    2.4949 H   0  0  0  0  0  0  0  0  0  0  0  0
   -0.6719    2.4256    2.4647 N   0  3  0  0  0  0  0  0  0  0  0  0
   -1.0766    3.3045    2.1452 H   0  0  0  0  0  0  0  0  0  0  0  0
    0.1973    2.4315    3.4385 C   0  0  0  0  0  0  0  0  0  0  0  0
    0.8052    1.2835    3.9017 N   0  0  0  0  0  0  0  0  0  0  0  0
    0.6763    0.4071    3.3824 H   0  0  0  0  0  0  0  0  0  0  0  0
    1.6414    1.3636    4.4747 H   0  0  0  0  0  0  0  0  0  0  0  0
    0.5369    3.6247    4.0300 N   0  0  0  0  0  0  0  0  0  0  0  0
   -0.0311    4.4467    3.8366 H   0  0  0  0  0  0  0  0  0  0  0  0
    1.0544    3.5974    4.9066 H   0  0  0  0  0  0  0  0  0  0  0  0
   -0.2914   -1.8174    2.2766 C   0  0  0  0  0  0  0  0  0  0  0  0
    0.7411   -1.4192    2.8086 O   0  0  0  0  0  0  0  0  0  0  0  0
   -1.4509   -1.6371    3.0144 N   0  0  0  0  0  0  0  0  0  0  0  0
   -2.2831   -2.0056    2.5582 H   0  0  0  0  0  0  0  0  0  0  0  0
   -1.4489   -1.6458    4.4750 C   0  0  0  0  0  0  0  0  0  0  0  0
   -2.4753   -1.6078    4.8539 H   0  0  0  0  0  0  0  0  0  0  0  0
   -0.9765   -2.5600    4.8515 H   0  0  0  0  0  0  0  0  0  0  0  0
   -0.9064   -0.7822    4.8709 H   0  0  0  0  0  0  0  0  0  0  0  0
  1  2  1  0  0  0  0
  2  3  1  0  0  0  0
  2  4  1  0  0  0  0
  2  5  1  0  0  0  0
  5  6  2  0  0  0  0
  5  7  1  0  0  0  0
  7  8  1  0  0  0  0
  7  9  1  0  0  0  0
  9 10  1  0  0  0  0
  9 11  1  0  0  0  0
  9 29  1  0  0  0  0
 11 12  1  0  0  0  0
 11 13  1  0  0  0  0
 11 14  1  0  0  0  0
 14 15  1  0  0  0  0
 14 16  1  0  0  0  0
 14 17  1  0  0  0  0
 17 18  1  0  0  0  0
 17 19  1  0  0  0  0
 17 20  1  0  0  0  0
 20 21  1  0  0  0  0
 20 22  2  0  0  0  0
 22 23  1  0  0  0  0
 22 26  1  0  0  0  0
 23 24  1  0  0  0  0
 23 25  1  0  0  0  0
 26 27  1  0  0  0  0
 26 28  1  0  0  0  0
 29 30  2  0  0  0  0
 29 31  1  0  0  0  0
 31 32  1  0  0  0  0
 31 33  1  0  0  0  0
 33 34  1  0  0  0  0
 33 35  1  0  0  0  0
 33 36  1  0  0  0  0
M  CHG  1  20   1
M  END
$$$$

  -OEChem-04042215563D

 36 35  0     1  0  0  0  0  0999 V2000
   -2.4942   -5.6308   -0.5997 H   0  0  0  0  0  0  0  0  0  0  0  0
   -2.6194   -4.5510   -0.7224 C   0  0  0  0  0  0  0  0  0  0  0  0
   -3.6056   -4.2673   -0.3476 H   0  0  0  0  0  0  0  0  0  0  0  0
   -2.5571   -4.3114   -1.7866 H   0  0  0  0  0  0  0  0  0  0  0  0
   -1.5373   -3.8120    0.0413 C   0  0  0  0  0  0  0  0  0  0  0  0
   -0.7179   -4.4329    0.6942 O   0  0  0  0  0  0  0  0  0  0  0  0
   -1.4906   -2.4289    0.0196 N   0  0  0  0  0  0  0  0  0  0  0  0
   -2.1420   -1.9731   -0.6141 H   0  0  0  0  0  0  0  0  0  0  0  0
   -0.3568   -1.6374    0.5406 C   0  0  1  0  0  0  0  0  0  0  0  0
    0.5248   -2.1027    0.0822 H   0  0  0  0  0  0  0  0  0  0  0  0
   -0.3405   -0.1878   -0.0439 C   0  0  0  0  0  0  0  0  0  0  0  0
    0.5757   -0.1048   -0.6398 H   0  0  0  0  0  0  0  0  0  0  0  0
   -1.1642   -0.1339   -0.7635 H   0  0  0  0  0  0  0  0  0  0  0  0
   -0.4311    1.1205    0.7955 C   0  0  0  0  0  0  0  0  0  0  0  0
    0.5834    1.5350    0.7920 H   0  0  0  0  0  0  0  0  0  0  0  0
   -1.0612    1.8356    0.2552 H   0  0  0  0  0  0  0  0  0  0  0  0
   -0.8884    1.0887    2.2577 C   0  0  0  0  0  0  0  0  0  0  0  0
   -1.9829    1.0752    2.3020 H   0  0  0  0  0  0  0  0  0  0  0  0
   -0.5295    0.2031    2.7644 H   0  0  0  0  0  0  0  0  0  0  0  0
   -0.3458    2.2473    2.9890 N   0  3  0  0  0  0  0  0  0  0  0  0
   -0.8198    3.1416    2.8730 H   0  0  0  0  0  0  0  0  0  0  0  0
    0.7095    2.1674    3.7528 C   0  0  0  0  0  0  0  0  0  0  0  0
    1.4116    0.9937    3.9318 N   0  0  0  0  0  0  0  0  0  0  0  0
    1.1830    0.1826    3.3446 H   0  0  0  0  0  0  0  0  0  0  0  0
    2.3464    1.0312    4.3298 H   0  0  0  0  0  0  0  0  0  0  0  0
    1.1518    3.2920    4.4074 N   0  0  0  0  0  0  0  0  0  0  0  0
    0.5394    4.1038    4.4516 H   0  0  0  0  0  0  0  0  0  0  0  0
    1.8437    3.1768    5.1456 H   0  0  0  0  0  0  0  0  0  0  0  0
   -0.0850   -1.8719    2.0445 C   0  0  0  0  0  0  0  0  0  0  0  0
    0.9986   -1.5135    2.4992 O   0  0  0  0  0  0  0  0  0  0  0  0
   -1.1578   -1.9033    2.9229 N   0  0  0  0  0  0  0  0  0  0  0  0
   -2.0297   -2.2123    2.4986 H   0  0  0  0  0  0  0  0  0  0  0  0
   -1.0264   -2.0870    4.3683 C   0  0  0  0  0  0  0  0  0  0  0  0
    0.0199   -2.1152    4.6900 H   0  0  0  0  0  0  0  0  0  0  0  0
   -1.5265   -1.2716    4.8999 H   0  0  0  0  0  0  0  0  0  0  0  0
   -1.4888   -3.0339    4.6652 H   0  0  0  0  0  0  0  0  0  0  0  0
  1  2  1  0  0  0  0
  2  3  1  0  0  0  0
  2  4  1  0  0  0  0
  2  5  1  0  0  0  0
  5  6  2  0  0  0  0
  5  7  1  0  0  0  0
  7  8  1  0  0  0  0
  7  9  1  0  0  0  0
  9 10  1  0  0  0  0
  9 11  1  0  0  0  0
  9 29  1  0  0  0  0
 11 12  1  0  0  0  0
 11 13  1  0  0  0  0
 11 14  1  0  0  0  0
 14 15  1  0  0  0  0
 14 16  1  0  0  0  0
 14 17  1  0  0  0  0
 17 18  1  0  0  0  0
 17 19  1  0  0  0  0
 17 20  1  0  0  0  0
 20 21  1  0  0  0  0
 20 22  2  0  0  0  0
 22 23  1  0  0  0  0
 22 26  1  0  0  0  0
 23 24  1  0  0  0  0
 23 25  1  0  0  0  0
 26 27  1  0  0  0  0
 26 28  1  0  0  0  0
 29 30  2  0  0  0  0
 29 31  1  0  0  0  0
 31 32  1  0  0  0  0
 31 33  1  0  0  0  0
 33 34  1  0  0  0  0
 33 35  1  0  0  0  0
 33 36  1  0  0  0  0
M  CHG  1  20   1
M  END
$$$$

  -OEChem-04042215563D

 36 35  0     1  0  0  0  0  0999 V2000
   -2.7474   -5.4911   -0.5875 H   0  0  0  0  0  0  0  0  0  0  0  0
   -2.6965   -4.4188   -0.7975 C   0  0  0  0  0  0  0  0  0  0  0  0
   -3.6732   -3.9748   -0.5917 H   0  0  0  0  0  0  0  0  0  0  0  0
   -2.4547   -4.2807   -1.8542 H   0  0  0  0  0  0  0  0  0  0  0  0
   -1.6339   -3.7683    0.0672 C   0  0  0  0  0  0  0  0  0  0  0  0
   -0.9752   -4.4424    0.8387 O   0  0  0  0  0  0  0  0  0  0  0  0
   -1.4213   -2.4026   -0.0024 N   0  0  0  0  0  0  0  0  0  0  0  0
   -1.9364   -1.9085   -0.7266 H   0  0  0  0  0  0  0  0  0  0  0  0
   -0.2764   -1.7171    0.6316 C   0  0  1  0  0  0  0  0  0  0  0  0
    0.6012   -2.2860    0.3001 H   0  0  0  0  0  0  0  0  0  0  0  0
   -0.0719   -0.3018   -0.0013 C   0  0  0  0  0  0  0  0  0  0  0  0
    0.9232   -0.3356   -0.4590 H   0  0  0  0  0  0  0  0  0  0  0  0
   -0.7731   -0.2146   -0.8380 H   0  0  0  0  0  0  0  0  0  0  0  0
   -0.1322    1.0633    0.7541 C   0  0  0  0  0  0  0  0  0  0  0  0
    0.8353    1.5447    0.5711 H   0  0  0  0  0  0  0  0  0  0  0  0
   -0.8821    1.6878    0.2559 H   0  0  0  0  0  0  0  0  0  0  0  0
   -0.4132    1.1458    2.2626 C   0  0  0  0  0  0  0  0  0  0  0  0
   -1.4833    1.3179    2.4224 H   0  0  0  0  0  0  0  0  0  0  0  0
   -0.1597    0.2274    2.7726 H   0  0  0  0  0  0  0  0  0  0  0  0
    0.3832    2.2214    2.8808 N   0  3  0  0  0  0  0  0  0  0  0  0
    0.0956    3.1816    2.6980 H   0  0  0  0  0  0  0  0  0  0  0  0
    1.4360    1.9920    3.6171 C   0  0  0  0  0  0  0  0  0  0  0  0
    1.8930    0.7207    3.8917 N   0  0  0  0  0  0  0  0  0  0  0  0
    1.4677   -0.0792    3.4083 H   0  0  0  0  0  0  0  0  0  0  0  0
    2.8306    0.5975    4.2646 H   0  0  0  0  0  0  0  0  0  0  0  0
    2.1296    3.0545    4.1449 N   0  0  0  0  0  0  0  0  0  0  0  0
    1.7000    3.9767    4.1246 H   0  0  0  0  0  0  0  0  0  0  0  0
    2.8183    2.8651    4.8707 H   0  0  0  0  0  0  0  0  0  0  0  0
   -0.2181   -1.8934    2.1635 C   0  0  0  0  0  0  0  0  0  0  0  0
    0.8569   -1.7290    2.7365 O   0  0  0  0  0  0  0  0  0  0  0  0
   -1.3749   -1.7534    2.9106 N   0  0  0  0  0  0  0  0  0  0  0  0
   -2.2297   -1.9832    2.4082 H   0  0  0  0  0  0  0  0  0  0  0  0
   -1.3872   -1.9121    4.3616 C   0  0  0  0  0  0  0  0  0  0  0  0
   -2.4138   -1.8609    4.7384 H   0  0  0  0  0  0  0  0  0  0  0  0
   -0.8047   -1.1203    4.8434 H   0  0  0  0  0  0  0  0  0  0  0  0
   -0.9640   -2.8822    4.6449 H   0  0  0  0  0  0  0  0  0  0  0  0
  1  2  1  0  0  0  0
  2  3  1  0  0  0  0
  2  4  1  0  0  0  0
  2  5  1  0  0  0  0
  5  6  2  0  0  0  0
  5  7  1  0  0  0  0
  7  8  1  0  0  0  0
  7  9  1  0  0  0  0
  9 10  1  0  0  0  0
  9 11  1  0  0  0  0
  9 29  1  0  0  0  0
 11 12  1  0  0  0  0
 11 13  1  0  0  0  0
 11 14  1  0  0  0  0
 14 15  1  0  0  0  0
 14 16  1  0  0  0  0
 14 17  1  0  0  0  0
 17 18  1  0  0  0  0
 17 19  1  0  0  0  0
 17 20  1  0  0  0  0
 20 21  1  0  0  0  0
 20 22  2  0  0  0  0
 22 23  1  0  0  0  0
 22 26  1  0  0  0  0
 23 24  1  0  0  0  0
 23 25  1  0  0  0  0
 26 27  1  0  0  0  0
 26 28  1  0  0  0  0
 29 30  2  0  0  0  0
 29 31  1  0  0  0  0
 31 32  1  0  0  0  0
 31 33  1  0  0  0  0
 33 34  1  0  0  0  0
 33 35  1  0  0  0  0
 33 36  1  0  0  0  0
M  CHG  1  20   1
M  END
$$$$

  -OEChem-04042215563D

 36 35  0     1  0  0  0  0  0999 V2000
   -2.9262   -5.5955   -0.0324 H   0  0  0  0  0  0  0  0  0  0  0  0
   -2.9818   -4.5184   -0.2159 C   0  0  0  0  0  0  0  0  0  0  0  0
   -3.8689   -4.1222    0.2837 H   0  0  0  0  0  0  0  0  0  0  0  0
   -3.0710   -4.3514   -1.2919 H   0  0  0  0  0  0  0  0  0  0  0  0
   -1.7350   -3.8363    0.3138 C   0  0  0  0  0  0  0  0  0  0  0  0
   -0.8779   -4.4903    0.8799 O   0  0  0  0  0  0  0  0  0  0  0  0
   -1.5759   -2.4690    0.1664 N   0  0  0  0  0  0  0  0  0  0  0  0
   -2.2760   -2.0005   -0.4026 H   0  0  0  0  0  0  0  0  0  0  0  0
   -0.3194   -1.7472    0.4602 C   0  0  1  0  0  0  0  0  0  0  0  0
    0.4697   -2.2674   -0.0963 H   0  0  0  0  0  0  0  0  0  0  0  0
   -0.4150   -0.3159   -0.1846 C   0  0  0  0  0  0  0  0  0  0  0  0
    0.4152   -0.2824   -0.8991 H   0  0  0  0  0  0  0  0  0  0  0  0
   -1.3251   -0.2664   -0.7921 H   0  0  0  0  0  0  0  0  0  0  0  0
   -0.3270    1.0311    0.5960 C   0  0  0  0  0  0  0  0  0  0  0  0
    0.2940    1.7155    0.0071 H   0  0  0  0  0  0  0  0  0  0  0  0
   -1.3298    1.4686    0.6449 H   0  0  0  0  0  0  0  0  0  0  0  0
    0.2160    0.9660    2.0146 C   0  0  0  0  0  0  0  0  0  0  0  0
    1.0385    0.2556    1.9964 H   0  0  0  0  0  0  0  0  0  0  0  0
   -0.5612    0.5987    2.6929 H   0  0  0  0  0  0  0  0  0  0  0  0
    0.7708    2.2323    2.5129 N   0  3  0  0  0  0  0  0  0  0  0  0
    0.3053    3.0997    2.2504 H   0  0  0  0  0  0  0  0  0  0  0  0
    1.8340    2.2503    3.2686 C   0  0  0  0  0  0  0  0  0  0  0  0
    2.4830    1.0888    3.6416 N   0  0  0  0  0  0  0  0  0  0  0  0
    2.1882    0.2065    3.2128 H   0  0  0  0  0  0  0  0  0  0  0  0
    3.4336    1.1466    3.9993 H   0  0  0  0  0  0  0  0  0  0  0  0
    2.3346    3.4514    3.7108 N   0  0  0  0  0  0  0  0  0  0  0  0
    1.7649    4.2880    3.6042 H   0  0  0  0  0  0  0  0  0  0  0  0
    3.0327    3.4391    4.4522 H   0  0  0  0  0  0  0  0  0  0  0  0
    0.1046   -1.9180    1.9439 C   0  0  0  0  0  0  0  0  0  0  0  0
    1.2888   -1.8391    2.2644 O   0  0  0  0  0  0  0  0  0  0  0  0
   -0.8475   -1.7886    2.9410 N   0  0  0  0  0  0  0  0  0  0  0  0
   -1.7997   -1.9804    2.6391 H   0  0  0  0  0  0  0  0  0  0  0  0
   -0.5336   -2.0088    4.3492 C   0  0  0  0  0  0  0  0  0  0  0  0
    0.1955   -1.2733    4.7038 H   0  0  0  0  0  0  0  0  0  0  0  0
   -1.4388   -1.9161    4.9576 H   0  0  0  0  0  0  0  0  0  0  0  0
   -0.1206   -3.0131    4.4958 H   0  0  0  0  0  0  0  0  0  0  0  0
  1  2  1  0  0  0  0
  2  3  1  0  0  0  0
  2  4  1  0  0  0  0
  2  5  1  0  0  0  0
  5  6  2  0  0  0  0
  5  7  1  0  0  0  0
  7  8  1  0  0  0  0
  7  9  1  0  0  0  0
  9 10  1  0  0  0  0
  9 11  1  0  0  0  0
  9 29  1  0  0  0  0
 11 12  1  0  0  0  0
 11 13  1  0  0  0  0
 11 14  1  0  0  0  0
 14 15  1  0  0  0  0
 14 16  1  0  0  0  0
 14 17  1  0  0  0  0
 17 18  1  0  0  0  0
 17 19  1  0  0  0  0
 17 20  1  0  0  0  0
 20 21  1  0  0  0  0
 20 22  2  0  0  0  0
 22 23  1  0  0  0  0
 22 26  1  0  0  0  0
 23 24  1  0  0  0  0
 23 25  1  0  0  0  0
 26 27  1  0  0  0  0
 26 28  1  0  0  0  0
 29 30  2  0  0  0  0
 29 31  1  0  0  0  0
 31 32  1  0  0  0  0
 31 33  1  0  0  0  0
 33 34  1  0  0  0  0
 33 35  1  0  0  0  0
 33 36  1  0  0  0  0
M  CHG  1  20   1
M  END
$$$$

  -OEChem-04042215563D

 36 35  0     1  0  0  0  0  0999 V2000
   -3.1002   -5.4749    0.1732 H   0  0  0  0  0  0  0  0  0  0  0  0
   -3.0713   -4.4200   -0.1149 C   0  0  0  0  0  0  0  0  0  0  0  0
   -3.9408   -3.9158    0.3135 H   0  0  0  0  0  0  0  0  0  0  0  0
   -3.1186   -4.3542   -1.2045 H   0  0  0  0  0  0  0  0  0  0  0  0
   -1.7933   -3.7775    0.3894 C   0  0  0  0  0  0  0  0  0  0  0  0
   -0.9835   -4.4411    1.0111 O   0  0  0  0  0  0  0  0  0  0  0  0
   -1.5515   -2.4350    0.1528 N   0  0  0  0  0  0  0  0  0  0  0  0
   -2.2152   -1.9653   -0.4577 H   0  0  0  0  0  0  0  0  0  0  0  0
   -0.2630   -1.7651    0.4325 C   0  0  1  0  0  0  0  0  0  0  0  0
    0.5140   -2.3512   -0.0734 H   0  0  0  0  0  0  0  0  0  0  0  0
   -0.2834   -0.3622   -0.2756 C   0  0  0  0  0  0  0  0  0  0  0  0
    0.5572   -0.3935   -0.9776 H   0  0  0  0  0  0  0  0  0  0  0  0
   -1.1844   -0.2878   -0.8938 H   0  0  0  0  0  0  0  0  0  0  0  0
   -0.1355    0.9937    0.4738 C   0  0  0  0  0  0  0  0  0  0  0  0
    0.2939    1.7207   -0.2242 H   0  0  0  0  0  0  0  0  0  0  0  0
   -1.1318    1.3543    0.7512 H   0  0  0  0  0  0  0  0  0  0  0  0
    0.7119    0.9393    1.7360 C   0  0  0  0  0  0  0  0  0  0  0  0
    0.1109    0.5331    2.5552 H   0  0  0  0  0  0  0  0  0  0  0  0
    1.5390    0.2523    1.5323 H   0  0  0  0  0  0  0  0  0  0  0  0
    1.2925    2.2205    2.1594 N   0  3  0  0  0  0  0  0  0  0  0  0
    0.8204    3.0814    1.8878 H   0  0  0  0  0  0  0  0  0  0  0  0
    2.3328    2.2494    2.9440 C   0  0  0  0  0  0  0  0  0  0  0  0
    2.9473    1.0867    3.3644 N   0  0  0  0  0  0  0  0  0  0  0  0
    2.5089    0.1900    3.1353 H   0  0  0  0  0  0  0  0  0  0  0  0
    3.6098    1.1174    4.1357 H   0  0  0  0  0  0  0  0  0  0  0  0
    2.8351    3.4550    3.3716 N   0  0  0  0  0  0  0  0  0  0  0  0
    2.5132    4.3066    2.9166 H   0  0  0  0  0  0  0  0  0  0  0  0
    3.7546    3.4656    3.8092 H   0  0  0  0  0  0  0  0  0  0  0  0
    0.1050   -1.8588    1.9379 C   0  0  0  0  0  0  0  0  0  0  0  0
    1.2812   -1.8358    2.2949 O   0  0  0  0  0  0  0  0  0  0  0  0
   -0.8684   -1.6075    2.8899 N   0  0  0  0  0  0  0  0  0  0  0  0
   -1.8217   -1.7459    2.5640 H   0  0  0  0  0  0  0  0  0  0  0  0
   -0.6168   -1.7671    4.3186 C   0  0  0  0  0  0  0  0  0  0  0  0
    0.1650   -1.0786    4.6550 H   0  0  0  0  0  0  0  0  0  0  0  0
   -1.5271   -1.5577    4.8890 H   0  0  0  0  0  0  0  0  0  0  0  0
   -0.2997   -2.7929    4.5379 H   0  0  0  0  0  0  0  0  0  0  0  0
  1  2  1  0  0  0  0
  2  3  1  0  0  0  0
  2  4  1  0  0  0  0
  2  5  1  0  0  0  0
  5  6  2  0  0  0  0
  5  7  1  0  0  0  0
  7  8  1  0  0  0  0
  7  9  1  0  0  0  0
  9 10  1  0  0  0  0
  9 11  1  0  0  0  0
  9 29  1  0  0  0  0
 11 12  1  0  0  0  0
 11 13  1  0  0  0  0
 11 14  1  0  0  0  0
 14 15  1  0  0  0  0
 14 16  1  0  0  0  0
 14 17  1  0  0  0  0
 17 18  1  0  0  0  0
 17 19  1  0  0  0  0
 17 20  1  0  0  0  0
 20 21  1  0  0  0  0
 20 22  2  0  0  0  0
 22 23  1  0  0  0  0
 22 26  1  0  0  0  0
 23 24  1  0  0  0  0
 23 25  1  0  0  0  0
 26 27  1  0  0  0  0
 26 28  1  0  0  0  0
 29 30  2  0  0  0  0
 29 31  1  0  0  0  0
 31 32  1  0  0  0  0
 31 33  1  0  0  0  0
 33 34  1  0  0  0  0
 33 35  1  0  0  0  0
 33 36  1  0  0  0  0
M  CHG  1  20   1
M  END
$$$$

  -OEChem-04042215563D

 36 35  0     1  0  0  0  0  0999 V2000
   -3.0424   -5.4711    0.2516 H   0  0  0  0  0  0  0  0  0  0  0  0
   -3.0502   -4.4146   -0.0319 C   0  0  0  0  0  0  0  0  0  0  0  0
   -3.9069   -3.9305    0.4426 H   0  0  0  0  0  0  0  0  0  0  0  0
   -3.1548   -4.3457   -1.1172 H   0  0  0  0  0  0  0  0  0  0  0  0
   -1.7617   -3.7479    0.4100 C   0  0  0  0  0  0  0  0  0  0  0  0
   -0.9152   -4.3929    1.0016 O   0  0  0  0  0  0  0  0  0  0  0  0
   -1.5511   -2.4044    0.1513 N   0  0  0  0  0  0  0  0  0  0  0  0
   -2.2474   -1.9492   -0.4330 H   0  0  0  0  0  0  0  0  0  0  0  0
   -0.2615   -1.7152    0.3704 C   0  0  1  0  0  0  0  0  0  0  0  0
    0.5012   -2.2832   -0.1761 H   0  0  0  0  0  0  0  0  0  0  0  0
   -0.3454   -0.3066   -0.3114 C   0  0  0  0  0  0  0  0  0  0  0  0
    0.4430   -0.2989   -1.0720 H   0  0  0  0  0  0  0  0  0  0  0  0
   -1.2918   -0.2282   -0.8570 H   0  0  0  0  0  0  0  0  0  0  0  0
   -0.1749    1.0089    0.4933 C   0  0  0  0  0  0  0  0  0  0  0  0
   -0.0394    1.8267   -0.2227 H   0  0  0  0  0  0  0  0  0  0  0  0
   -1.0913    1.2107    1.0584 H   0  0  0  0  0  0  0  0  0  0  0  0
    1.0006    0.9798    1.4648 C   0  0  0  0  0  0  0  0  0  0  0  0
    0.6736    0.5017    2.3934 H   0  0  0  0  0  0  0  0  0  0  0  0
    1.7895    0.3634    1.0181 H   0  0  0  0  0  0  0  0  0  0  0  0
    1.5671    2.2937    1.7981 N   0  3  0  0  0  0  0  0  0  0  0  0
    1.0616    3.1289    1.5078 H   0  0  0  0  0  0  0  0  0  0  0  0
    2.6577    2.3865    2.5046 C   0  0  0  0  0  0  0  0  0  0  0  0
    3.3247    1.2597    2.9399 N   0  0  0  0  0  0  0  0  0  0  0  0
    2.8799    0.3490    2.7991 H   0  0  0  0  0  0  0  0  0  0  0  0
    4.0246    1.3450    3.6732 H   0  0  0  0  0  0  0  0  0  0  0  0
    3.1610    3.6227    2.8326 N   0  0  0  0  0  0  0  0  0  0  0  0
    2.7923    4.4418    2.3540 H   0  0  0  0  0  0  0  0  0  0  0  0
    4.1084    3.6735    3.2023 H   0  0  0  0  0  0  0  0  0  0  0  0
    0.1847   -1.7815    1.8539 C   0  0  0  0  0  0  0  0  0  0  0  0
    1.3794   -1.7651    2.1434 O   0  0  0  0  0  0  0  0  0  0  0  0
   -0.7392   -1.5302    2.8529 N   0  0  0  0  0  0  0  0  0  0  0  0
   -1.7079   -1.6749    2.5793 H   0  0  0  0  0  0  0  0  0  0  0  0
   -0.4114   -1.6715    4.2678 C   0  0  0  0  0  0  0  0  0  0  0  0
    0.4008   -0.9933    4.5484 H   0  0  0  0  0  0  0  0  0  0  0  0
   -1.2840   -1.4337    4.8841 H   0  0  0  0  0  0  0  0  0  0  0  0
   -0.1027   -2.6998    4.4866 H   0  0  0  0  0  0  0  0  0  0  0  0
  1  2  1  0  0  0  0
  2  3  1  0  0  0  0
  2  4  1  0  0  0  0
  2  5  1  0  0  0  0
  5  6  2  0  0  0  0
  5  7  1  0  0  0  0
  7  8  1  0  0  0  0
  7  9  1  0  0  0  0
  9 10  1  0  0  0  0
  9 11  1  0  0  0  0
  9 29  1  0  0  0  0
 11 12  1  0  0  0  0
 11 13  1  0  0  0  0
 11 14  1  0  0  0  0
 14 15  1  0  0  0  0
 14 16  1  0  0  0  0
 14 17  1  0  0  0  0
 17 18  1  0  0  0  0
 17 19  1  0  0  0  0
 17 20  1  0  0  0  0
 20 21  1  0  0  0  0
 20 22  2  0  0  0  0
 22 23  1  0  0  0  0
 22 26  1  0  0  0  0
 23 24  1  0  0  0  0
 23 25  1  0  0  0  0
 26 27  1  0  0  0  0
 26 28  1  0  0  0  0
 29 30  2  0  0  0  0
 29 31  1  0  0  0  0
 31 32  1  0  0  0  0
 31 33  1  0  0  0  0
 33 34  1  0  0  0  0
 33 35  1  0  0  0  0
 33 36  1  0  0  0  0
M  CHG  1  20   1
M  END
$$$$

  -OEChem-04042215563D

 36 35  0     1  0  0  0  0  0999 V2000
   -2.9192   -5.2162    1.2370 H   0  0  0  0  0  0  0  0  0  0  0  0
   -2.9500   -4.2598    0.7065 C   0  0  0  0  0  0  0  0  0  0  0  0
   -3.7534   -3.6512    1.1283 H   0  0  0  0  0  0  0  0  0  0  0  0
   -3.1612   -4.4523   -0.3481 H   0  0  0  0  0  0  0  0  0  0  0  0
   -1.6208   -3.5429    0.8482 C   0  0  0  0  0  0  0  0  0  0  0  0
   -0.7218   -4.0547    1.4905 O   0  0  0  0  0  0  0  0  0  0  0  0
   -1.4368   -2.3017    0.2617 N   0  0  0  0  0  0  0  0  0  0  0  0
   -2.1827   -1.9972   -0.3589 H   0  0  0  0  0  0  0  0  0  0  0  0
   -0.1269   -1.6207    0.1564 C   0  0  1  0  0  0  0  0  0  0  0  0
    0.5718   -2.2855   -0.3651 H   0  0  0  0  0  0  0  0  0  0  0  0
   -0.3425   -0.3473   -0.7254 C   0  0  0  0  0  0  0  0  0  0  0  0
    0.2830   -0.4694   -1.6166 H   0  0  0  0  0  0  0  0  0  0  0  0
   -1.3783   -0.3264   -1.0807 H   0  0  0  0  0  0  0  0  0  0  0  0
   -0.0385    1.0540   -0.1476 C   0  0  0  0  0  0  0  0  0  0  0  0
   -0.2889    1.8166   -0.8930 H   0  0  0  0  0  0  0  0  0  0  0  0
   -0.6956    1.2137    0.7140 H   0  0  0  0  0  0  0  0  0  0  0  0
    1.4254    1.2393    0.2804 C   0  0  0  0  0  0  0  0  0  0  0  0
    1.8789    0.2755    0.5039 H   0  0  0  0  0  0  0  0  0  0  0  0
    1.9831    1.6511   -0.5681 H   0  0  0  0  0  0  0  0  0  0  0  0
    1.5483    2.1521    1.4334 N   0  3  0  0  0  0  0  0  0  0  0  0
    1.0149    3.0186    1.3955 H   0  0  0  0  0  0  0  0  0  0  0  0
    2.3931    1.9690    2.4097 C   0  0  0  0  0  0  0  0  0  0  0  0
    3.1594    0.8329    2.5239 N   0  0  0  0  0  0  0  0  0  0  0  0
    2.8059   -0.0044    2.0465 H   0  0  0  0  0  0  0  0  0  0  0  0
    3.6456    0.6724    3.4016 H   0  0  0  0  0  0  0  0  0  0  0  0
    2.5429    2.9472    3.3632 N   0  0  0  0  0  0  0  0  0  0  0  0
    2.1478    3.8669    3.1805 H   0  0  0  0  0  0  0  0  0  0  0  0
    3.3524    2.8929    3.9784 H   0  0  0  0  0  0  0  0  0  0  0  0
    0.4604   -1.3806    1.5718 C   0  0  0  0  0  0  0  0  0  0  0  0
    1.6687   -1.4508    1.7741 O   0  0  0  0  0  0  0  0  0  0  0  0
   -0.3526   -0.8914    2.5795 N   0  0  0  0  0  0  0  0  0  0  0  0
   -1.3473   -1.0029    2.3981 H   0  0  0  0  0  0  0  0  0  0  0  0
    0.0689   -0.8885    3.9762 C   0  0  0  0  0  0  0  0  0  0  0  0
    0.9265   -0.2257    4.1226 H   0  0  0  0  0  0  0  0  0  0  0  0
   -0.7476   -0.5402    4.6166 H   0  0  0  0  0  0  0  0  0  0  0  0
    0.3472   -1.9004    4.2919 H   0  0  0  0  0  0  0  0  0  0  0  0
  1  2  1  0  0  0  0
  2  3  1  0  0  0  0
  2  4  1  0  0  0  0
  2  5  1  0  0  0  0
  5  6  2  0  0  0  0
  5  7  1  0  0  0  0
  7  8  1  0  0  0  0
  7  9  1  0  0  0  0
  9 10  1  0  0  0  0
  9 11  1  0  0  0  0
  9 29  1  0  0  0  0
 11 12  1  0  0  0  0
 11 13  1  0  0  0  0
 11 14  1  0  0  0  0
 14 15  1  0  0  0  0
 14 16  1  0  0  0  0
 14 17  1  0  0  0  0
 17 18  1  0  0  0  0
 17 19  1  0  0  0  0
 17 20  1  0  0  0  0
 20 21  1  0  0  0  0
 20 22  2  0  0  0  0
 22 23  1  0  0  0  0
 22 26  1  0  0  0  0
 23 24  1  0  0  0  0
 23 25  1  0  0  0  0
 26 27  1  0  0  0  0
 26 28  1  0  0  0  0
 29 30  2  0  0  0  0
 29 31  1  0  0  0  0
 31 32  1  0  0  0  0
 31 33  1  0  0  0  0
 33 34  1  0  0  0  0
 33 35  1  0  0  0  0
 33 36  1  0  0  0  0
M  CHG  1  20   1
M  END
$$$$

  -OEChem-04042215563D

 36 35  0     1  0  0  0  0  0999 V2000
   -2.7553   -5.3005    1.1724 H   0  0  0  0  0  0  0  0  0  0  0  0
   -2.8409   -4.3481    0.6408 C   0  0  0  0  0  0  0  0  0  0  0  0
   -3.6684   -3.7798    1.0719 H   0  0  0  0  0  0  0  0  0  0  0  0
   -3.0561   -4.5530   -0.4108 H   0  0  0  0  0  0  0  0  0  0  0  0
   -1.5479   -3.5647    0.7641 C   0  0  0  0  0  0  0  0  0  0  0  0
   -0.5974   -4.0480    1.3524 O   0  0  0  0  0  0  0  0  0  0  0  0
   -1.4525   -2.2938    0.2238 N   0  0  0  0  0  0  0  0  0  0  0  0
   -2.2381   -1.9993   -0.3510 H   0  0  0  0  0  0  0  0  0  0  0  0
   -0.1857   -1.5406    0.1088 C   0  0  1  0  0  0  0  0  0  0  0  0
    0.5216   -2.1676   -0.4470 H   0  0  0  0  0  0  0  0  0  0  0  0
   -0.4438   -0.2622   -0.7476 C   0  0  0  0  0  0  0  0  0  0  0  0
    0.1644   -0.3355   -1.6560 H   0  0  0  0  0  0  0  0  0  0  0  0
   -1.4888   -0.2626   -1.0766 H   0  0  0  0  0  0  0  0  0  0  0  0
   -0.1735    1.1098   -0.0962 C   0  0  0  0  0  0  0  0  0  0  0  0
   -0.6399    1.8947   -0.7012 H   0  0  0  0  0  0  0  0  0  0  0  0
   -0.6360    1.1511    0.8945 H   0  0  0  0  0  0  0  0  0  0  0  0
    1.3331    1.3878   -0.0105 C   0  0  0  0  0  0  0  0  0  0  0  0
    1.8707    0.4652    0.2148 H   0  0  0  0  0  0  0  0  0  0  0  0
    1.6862    1.7259   -0.9911 H   0  0  0  0  0  0  0  0  0  0  0  0
    1.6286    2.4160    1.0056 N   0  3  0  0  0  0  0  0  0  0  0  0
    1.1588    3.3137    0.9028 H   0  0  0  0  0  0  0  0  0  0  0  0
    2.5261    2.2734    1.9412 C   0  0  0  0  0  0  0  0  0  0  0  0
    3.2129    1.0982    2.1408 N   0  0  0  0  0  0  0  0  0  0  0  0
    2.7935    0.2435    1.7564 H   0  0  0  0  0  0  0  0  0  0  0  0
    3.7440    0.9917    3.0004 H   0  0  0  0  0  0  0  0  0  0  0  0
    2.8155    3.3379    2.7618 N   0  0  0  0  0  0  0  0  0  0  0  0
    2.4721    4.2598    2.5013 H   0  0  0  0  0  0  0  0  0  0  0  0
    3.6609    3.2892    3.3273 H   0  0  0  0  0  0  0  0  0  0  0  0
    0.4647   -1.3052    1.4975 C   0  0  0  0  0  0  0  0  0  0  0  0
    1.6848   -1.2297    1.6072 O   0  0  0  0  0  0  0  0  0  0  0  0
   -0.3151   -0.8901    2.5629 N   0  0  0  0  0  0  0  0  0  0  0  0
   -1.3071   -1.0906    2.4590 H   0  0  0  0  0  0  0  0  0  0  0  0
    0.2091   -0.7999    3.9216 C   0  0  0  0  0  0  0  0  0  0  0  0
    1.0038   -0.0500    3.9821 H   0  0  0  0  0  0  0  0  0  0  0  0
   -0.5873   -0.5132    4.6157 H   0  0  0  0  0  0  0  0  0  0  0  0
    0.6126   -1.7675    4.2404 H   0  0  0  0  0  0  0  0  0  0  0  0
  1  2  1  0  0  0  0
  2  3  1  0  0  0  0
  2  4  1  0  0  0  0
  2  5  1  0  0  0  0
  5  6  2  0  0  0  0
  5  7  1  0  0  0  0
  7  8  1  0  0  0  0
  7  9  1  0  0  0  0
  9 10  1  0  0  0  0
  9 11  1  0  0  0  0
  9 29  1  0  0  0  0
 11 12  1  0  0  0  0
 11 13  1  0  0  0  0
 11 14  1  0  0  0  0
 14 15  1  0  0  0  0
 14 16  1  0  0  0  0
 14 17  1  0  0  0  0
 17 18  1  0  0  0  0
 17 19  1  0  0  0  0
 17 20  1  0  0  0  0
 20 21  1  0  0  0  0
 20 22  2  0  0  0  0
 22 23  1  0  0  0  0
 22 26  1  0  0  0  0
 23 24  1  0  0  0  0
 23 25  1  0  0  0  0
 26 27  1  0  0  0  0
 26 28  1  0  0  0  0
 29 30  2  0  0  0  0
 29 31  1  0  0  0  0
 31 32  1  0  0  0  0
 31 33  1  0  0  0  0
 33 34  1  0  0  0  0
 33 35  1  0  0  0  0
 33 36  1  0  0  0  0
M  CHG  1  20   1
M  END
$$$$

  -OEChem-04042215563D

 36 35  0     1  0  0  0  0  0999 V2000
   -2.6078   -5.3726    1.1055 H   0  0  0  0  0  0  0  0  0  0  0  0
   -2.7574   -4.4148    0.5986 C   0  0  0  0  0  0  0  0  0  0  0  0
   -3.6000   -3.8993    1.0655 H   0  0  0  0  0  0  0  0  0  0  0  0
   -2.9915   -4.6075   -0.4512 H   0  0  0  0  0  0  0  0  0  0  0  0
   -1.5026   -3.5694    0.7034 C   0  0  0  0  0  0  0  0  0  0  0  0
   -0.5038   -4.0233    1.2330 O   0  0  0  0  0  0  0  0  0  0  0  0
   -1.4920   -2.2750    0.2143 N   0  0  0  0  0  0  0  0  0  0  0  0
   -2.3176   -1.9889   -0.3059 H   0  0  0  0  0  0  0  0  0  0  0  0
   -0.2653   -1.4646    0.0782 C   0  0  1  0  0  0  0  0  0  0  0  0
    0.4335   -2.0707   -0.5113 H   0  0  0  0  0  0  0  0  0  0  0  0
   -0.5429   -0.1899   -0.7707 C   0  0  0  0  0  0  0  0  0  0  0  0
    0.0517   -0.2439   -1.6896 H   0  0  0  0  0  0  0  0  0  0  0  0
   -1.5920   -0.2075   -1.0845 H   0  0  0  0  0  0  0  0  0  0  0  0
   -0.2936    1.1700   -0.0863 C   0  0  0  0  0  0  0  0  0  0  0  0
   -0.9509    1.9207   -0.5377 H   0  0  0  0  0  0  0  0  0  0  0  0
   -0.5374    1.1413    0.9784 H   0  0  0  0  0  0  0  0  0  0  0  0
    1.1567    1.5993   -0.3262 C   0  0  0  0  0  0  0  0  0  0  0  0
    1.8168    0.7374   -0.1867 H   0  0  0  0  0  0  0  0  0  0  0  0
    1.2688    1.9273   -1.3657 H   0  0  0  0  0  0  0  0  0  0  0  0
    1.5431    2.6882    0.5909 N   0  3  0  0  0  0  0  0  0  0  0  0
    1.0822    3.5870    0.4606 H   0  0  0  0  0  0  0  0  0  0  0  0
    2.4870    2.5814    1.4844 C   0  0  0  0  0  0  0  0  0  0  0  0
    3.1561    1.4034    1.7224 N   0  0  0  0  0  0  0  0  0  0  0  0
    2.7064    0.5369    1.4046 H   0  0  0  0  0  0  0  0  0  0  0  0
    3.7275    1.3339    2.5597 H   0  0  0  0  0  0  0  0  0  0  0  0
    2.8429    3.6866    2.2200 N   0  0  0  0  0  0  0  0  0  0  0  0
    2.5073    4.5991    1.9192 H   0  0  0  0  0  0  0  0  0  0  0  0
    3.7146    3.6509    2.7450 H   0  0  0  0  0  0  0  0  0  0  0  0
    0.4695   -1.2339    1.4236 C   0  0  0  0  0  0  0  0  0  0  0  0
    1.6739   -0.9947    1.4186 O   0  0  0  0  0  0  0  0  0  0  0  0
   -0.2529   -0.8848    2.5512 N   0  0  0  0  0  0  0  0  0  0  0  0
   -1.2253   -1.1839    2.5370 H   0  0  0  0  0  0  0  0  0  0  0  0
    0.3731   -0.7021    3.8562 C   0  0  0  0  0  0  0  0  0  0  0  0
    1.0665    0.1443    3.8384 H   0  0  0  0  0  0  0  0  0  0  0  0
   -0.3893   -0.5051    4.6164 H   0  0  0  0  0  0  0  0  0  0  0  0
    0.9237   -1.6040    4.1458 H   0  0  0  0  0  0  0  0  0  0  0  0
  1  2  1  0  0  0  0
  2  3  1  0  0  0  0
  2  4  1  0  0  0  0
  2  5  1  0  0  0  0
  5  6  2  0  0  0  0
  5  7  1  0  0  0  0
  7  8  1  0  0  0  0
  7  9  1  0  0  0  0
  9 10  1  0  0  0  0
  9 11  1  0  0  0  0
  9 29  1  0  0  0  0
 11 12  1  0  0  0  0
 11 13  1  0  0  0  0
 11 14  1  0  0  0  0
 14 15  1  0  0  0  0
 14 16  1  0  0  0  0
 14 17  1  0  0  0  0
 17 18  1  0  0  0  0
 17 19  1  0  0  0  0
 17 20  1  0  0  0  0
 20 21  1  0  0  0  0
 20 22  2  0  0  0  0
 22 23  1  0  0  0  0
 22 26  1  0  0  0  0
 23 24  1  0  0  0  0
 23 25  1  0  0  0  0
 26 27  1  0  0  0  0
 26 28  1  0  0  0  0
 29 30  2  0  0  0  0
 29 31  1  0  0  0  0
 31 32  1  0  0  0  0
 31 33  1  0  0  0  0
 33 34  1  0  0  0  0
 33 35  1  0  0  0  0
 33 36  1  0  0  0  0
M  CHG  1  20   1
M  END
$$$$

  -OEChem-04042215563D

 36 35  0     1  0  0  0  0  0999 V2000
   -2.4974   -5.3990    1.0966 H   0  0  0  0  0  0  0  0  0  0  0  0
   -2.6891   -4.4495    0.5883 C   0  0  0  0  0  0  0  0  0  0  0  0
   -3.5362   -3.9582    1.0727 H   0  0  0  0  0  0  0  0  0  0  0  0
   -2.9420   -4.6553   -0.4546 H   0  0  0  0  0  0  0  0  0  0  0  0
   -1.4596   -3.5642    0.6594 C   0  0  0  0  0  0  0  0  0  0  0  0
   -0.4216   -3.9958    1.1289 O   0  0  0  0  0  0  0  0  0  0  0  0
   -1.5157   -2.2557    0.2137 N   0  0  0  0  0  0  0  0  0  0  0  0
   -2.3756   -1.9790   -0.2533 H   0  0  0  0  0  0  0  0  0  0  0  0
   -0.3253   -1.3976    0.0547 C   0  0  1  0  0  0  0  0  0  0  0  0
    0.3650   -1.9805   -0.5669 H   0  0  0  0  0  0  0  0  0  0  0  0
   -0.6458   -0.1260   -0.7812 C   0  0  0  0  0  0  0  0  0  0  0  0
   -0.0628   -0.1661   -1.7083 H   0  0  0  0  0  0  0  0  0  0  0  0
   -1.6972   -0.1725   -1.0844 H   0  0  0  0  0  0  0  0  0  0  0  0
   -0.4257    1.2416   -0.0933 C   0  0  0  0  0  0  0  0  0  0  0  0
   -1.2670    1.8991   -0.3372 H   0  0  0  0  0  0  0  0  0  0  0  0
   -0.4002    1.1739    0.9952 H   0  0  0  0  0  0  0  0  0  0  0  0
    0.8514    1.8802   -0.6426 C   0  0  0  0  0  0  0  0  0  0  0  0
    1.6346    1.1172   -0.7145 H   0  0  0  0  0  0  0  0  0  0  0  0
    0.6663    2.2528   -1.6562 H   0  0  0  0  0  0  0  0  0  0  0  0
    1.3049    2.9791    0.2299 N   0  3  0  0  0  0  0  0  0  0  0  0
    0.8387    3.8783    0.1210 H   0  0  0  0  0  0  0  0  0  0  0  0
    2.3060    2.8761    1.0592 C   0  0  0  0  0  0  0  0  0  0  0  0
    2.9806    1.6950    1.2682 N   0  0  0  0  0  0  0  0  0  0  0  0
    2.5047    0.8242    1.0052 H   0  0  0  0  0  0  0  0  0  0  0  0
    3.6172    1.6365    2.0582 H   0  0  0  0  0  0  0  0  0  0  0  0
    2.7195    3.9876    1.7539 N   0  0  0  0  0  0  0  0  0  0  0  0
    2.3711    4.8993    1.4651 H   0  0  0  0  0  0  0  0  0  0  0  0
    3.6229    3.9504    2.2223 H   0  0  0  0  0  0  0  0  0  0  0  0
    0.4761   -1.1663    1.3594 C   0  0  0  0  0  0  0  0  0  0  0  0
    1.6498   -0.8132    1.2720 O   0  0  0  0  0  0  0  0  0  0  0  0
   -0.1952   -0.8708    2.5331 N   0  0  0  0  0  0  0  0  0  0  0  0
   -1.1436   -1.2363    2.5811 H   0  0  0  0  0  0  0  0  0  0  0  0
    0.4987   -0.6376    3.7952 C   0  0  0  0  0  0  0  0  0  0  0  0
    1.1288    0.2550    3.7314 H   0  0  0  0  0  0  0  0  0  0  0  0
   -0.2252   -0.4896    4.6028 H   0  0  0  0  0  0  0  0  0  0  0  0
    1.1282   -1.4973    4.0503 H   0  0  0  0  0  0  0  0  0  0  0  0
  1  2  1  0  0  0  0
  2  3  1  0  0  0  0
  2  4  1  0  0  0  0
  2  5  1  0  0  0  0
  5  6  2  0  0  0  0
  5  7  1  0  0  0  0
  7  8  1  0  0  0  0
  7  9  1  0  0  0  0
  9 10  1  0  0  0  0
  9 11  1  0  0  0  0
  9 29  1  0  0  0  0
 11 12  1  0  0  0  0
 11 13  1  0  0  0  0
 11 14  1  0  0  0  0
 14 15  1  0  0  0  0
 14 16  1  0  0  0  0
 14 17  1  0  0  0  0
 17 18  1  0  0  0  0
 17 19  1  0  0  0  0
 17 20  1  0  0  0  0
 20 21  1  0  0  0  0
 20 22  2  0  0  0  0
 22 23  1  0  0  0  0
 22 26  1  0  0  0  0
 23 24  1  0  0  0  0
 23 25  1  0  0  0  0
 26 27  1  0  0  0  0
 26 28  1  0  0  0  0
 29 30  2  0  0  0  0
 29 31  1  0  0  0  0
 31 32  1  0  0  0  0
 31 33  1  0  0  0  0
 33 34  1  0  0  0  0
 33 35  1  0  0  0  0
 33 36  1  0  0  0  0
M  CHG  1  20   1
M  END
$$$$

  -OEChem-04042215563D

 36 35  0     1  0  0  0  0  0999 V2000
   -2.3950   -5.4377    1.0435 H   0  0  0  0  0  0  0  0  0  0  0  0
   -2.6408   -4.4621    0.6140 C   0  0  0  0  0  0  0  0  0  0  0  0
   -3.4652   -4.0264    1.1832 H   0  0  0  0  0  0  0  0  0  0  0  0
   -2.9569   -4.6061   -0.4220 H   0  0  0  0  0  0  0  0  0  0  0  0
   -1.4302   -3.5497    0.6667 C   0  0  0  0  0  0  0  0  0  0  0  0
   -0.3788   -3.9530    1.1313 O   0  0  0  0  0  0  0  0  0  0  0  0
   -1.5200   -2.2461    0.2124 N   0  0  0  0  0  0  0  0  0  0  0  0
   -2.3937   -1.9855   -0.2378 H   0  0  0  0  0  0  0  0  0  0  0  0
   -0.3553   -1.3527    0.0606 C   0  0  1  0  0  0  0  0  0  0  0  0
    0.3575   -1.9243   -0.5464 H   0  0  0  0  0  0  0  0  0  0  0  0
   -0.7016   -0.1034   -0.7990 C   0  0  0  0  0  0  0  0  0  0  0  0
   -0.0813   -0.1466   -1.7014 H   0  0  0  0  0  0  0  0  0  0  0  0
   -1.7373   -0.1911   -1.1439 H   0  0  0  0  0  0  0  0  0  0  0  0
   -0.5424    1.2909   -0.1383 C   0  0  0  0  0  0  0  0  0  0  0  0
   -1.5077    1.8078   -0.1615 H   0  0  0  0  0  0  0  0  0  0  0  0
   -0.2537    1.2443    0.9114 H   0  0  0  0  0  0  0  0  0  0  0  0
    0.4773    2.1167   -0.9249 C   0  0  0  0  0  0  0  0  0  0  0  0
    1.3069    1.4723   -1.2372 H   0  0  0  0  0  0  0  0  0  0  0  0
    0.0076    2.5071   -1.8346 H   0  0  0  0  0  0  0  0  0  0  0  0
    1.0050    3.2223   -0.1030 N   0  3  0  0  0  0  0  0  0  0  0  0
    0.5506    4.1292   -0.2008 H   0  0  0  0  0  0  0  0  0  0  0  0
    2.0632    3.1176    0.6533 C   0  0  0  0  0  0  0  0  0  0  0  0
    2.7260    1.9264    0.8483 N   0  0  0  0  0  0  0  0  0  0  0  0
    2.2140    1.0573    0.6612 H   0  0  0  0  0  0  0  0  0  0  0  0
    3.4195    1.8799    1.5899 H   0  0  0  0  0  0  0  0  0  0  0  0
    2.5513    4.2376    1.2833 N   0  0  0  0  0  0  0  0  0  0  0  0
    2.2027    5.1497    0.9959 H   0  0  0  0  0  0  0  0  0  0  0  0
    3.4841    4.1911    1.6892 H   0  0  0  0  0  0  0  0  0  0  0  0
    0.4316   -1.0818    1.3644 C   0  0  0  0  0  0  0  0  0  0  0  0
    1.5837   -0.6639    1.2691 O   0  0  0  0  0  0  0  0  0  0  0  0
   -0.2580   -0.7959    2.5292 N   0  0  0  0  0  0  0  0  0  0  0  0
   -1.1851   -1.2106    2.5863 H   0  0  0  0  0  0  0  0  0  0  0  0
    0.4174   -0.4790    3.7831 C   0  0  0  0  0  0  0  0  0  0  0  0
    1.0038    0.4403    3.6859 H   0  0  0  0  0  0  0  0  0  0  0  0
   -0.3171   -0.3340    4.5816 H   0  0  0  0  0  0  0  0  0  0  0  0
    1.0875   -1.2958    4.0731 H   0  0  0  0  0  0  0  0  0  0  0  0
  1  2  1  0  0  0  0
  2  3  1  0  0  0  0
  2  4  1  0  0  0  0
  2  5  1  0  0  0  0
  5  6  2  0  0  0  0
  5  7  1  0  0  0  0
  7  8  1  0  0  0  0
  7  9  1  0  0  0  0
  9 10  1  0  0  0  0
  9 11  1  0  0  0  0
  9 29  1  0  0  0  0
 11 12  1  0  0  0  0
 11 13  1  0  0  0  0
 11 14  1  0  0  0  0
 14 15  1  0  0  0  0
 14 16  1  0  0  0  0
 14 17  1  0  0  0  0
 17 18  1  0  0  0  0
 17 19  1  0  0  0  0
 17 20  1  0  0  0  0
 20 21  1  0  0  0  0
 20 22  2  0  0  0  0
 22 23  1  0  0  0  0
 22 26  1  0  0  0  0
 23 24  1  0  0  0  0
 23 25  1  0  0  0  0
 26 27  1  0  0  0  0
 26 28  1  0  0  0  0
 29 30  2  0  0  0  0
 29 31  1  0  0  0  0
 31 32  1  0  0  0  0
 31 33  1  0  0  0  0
 33 34  1  0  0  0  0
 33 35  1  0  0  0  0
 33 36  1  0  0  0  0
M  CHG  1  20   1
M  END
$$$$

  -OEChem-04042215563D

 36 35  0     1  0  0  0  0  0999 V2000
   -2.9308   -5.4583    0.6322 H   0  0  0  0  0  0  0  0  0  0  0  0
   -2.9917   -4.4350    0.2499 C   0  0  0  0  0  0  0  0  0  0  0  0
   -3.8485   -3.9392    0.7117 H   0  0  0  0  0  0  0  0  0  0  0  0
   -3.1391   -4.4742   -0.8320 H   0  0  0  0  0  0  0  0  0  0  0  0
   -1.7156   -3.6818    0.5740 C   0  0  0  0  0  0  0  0  0  0  0  0
   -0.8215   -4.2353    1.1874 O   0  0  0  0  0  0  0  0  0  0  0  0
   -1.5693   -2.3632    0.1821 N   0  0  0  0  0  0  0  0  0  0  0  0
   -2.3098   -1.9825   -0.4000 H   0  0  0  0  0  0  0  0  0  0  0  0
   -0.3064   -1.6069    0.2998 C   0  0  1  0  0  0  0  0  0  0  0  0
    0.4547   -2.2150   -0.2041 H   0  0  0  0  0  0  0  0  0  0  0  0
   -0.4043   -0.2832   -0.5148 C   0  0  0  0  0  0  0  0  0  0  0  0
    0.3783   -0.3451   -1.2790 H   0  0  0  0  0  0  0  0  0  0  0  0
   -1.3555   -0.2515   -1.0563 H   0  0  0  0  0  0  0  0  0  0  0  0
   -0.2365    1.0600    0.2418 C   0  0  0  0  0  0  0  0  0  0  0  0
   -1.2181    1.5238    0.3861 H   0  0  0  0  0  0  0  0  0  0  0  0
    0.2054    0.9270    1.2305 H   0  0  0  0  0  0  0  0  0  0  0  0
    0.6881    1.9916   -0.5433 C   0  0  0  0  0  0  0  0  0  0  0  0
    1.6072    1.4483   -0.7905 H   0  0  0  0  0  0  0  0  0  0  0  0
    0.1962    2.2895   -1.4759 H   0  0  0  0  0  0  0  0  0  0  0  0
    1.0203    3.1768    0.2687 N   0  3  0  0  0  0  0  0  0  0  0  0
    0.6615    3.1987    1.2227 H   0  0  0  0  0  0  0  0  0  0  0  0
    1.8246    4.1199   -0.1294 C   0  0  0  0  0  0  0  0  0  0  0  0
    2.3966    4.1057   -1.3812 N   0  0  0  0  0  0  0  0  0  0  0  0
    2.3168    3.2505   -1.9272 H   0  0  0  0  0  0  0  0  0  0  0  0
    3.1977    4.7091   -1.5556 H   0  0  0  0  0  0  0  0  0  0  0  0
    2.1219    5.1607    0.7177 N   0  0  0  0  0  0  0  0  0  0  0  0
    1.5871    5.2657    1.5777 H   0  0  0  0  0  0  0  0  0  0  0  0
    2.5894    5.9822    0.3388 H   0  0  0  0  0  0  0  0  0  0  0  0
    0.2199   -1.4824    1.7494 C   0  0  0  0  0  0  0  0  0  0  0  0
    1.4169   -1.2893    1.9252 O   0  0  0  0  0  0  0  0  0  0  0  0
   -0.6567   -1.1590    2.7709 N   0  0  0  0  0  0  0  0  0  0  0  0
   -1.6201   -1.4404    2.6109 H   0  0  0  0  0  0  0  0  0  0  0  0
   -0.2132   -1.0169    4.1540 C   0  0  0  0  0  0  0  0  0  0  0  0
    0.5263   -0.2142    4.2425 H   0  0  0  0  0  0  0  0  0  0  0  0
   -1.0617   -0.7740    4.8011 H   0  0  0  0  0  0  0  0  0  0  0  0
    0.2381   -1.9501    4.5088 H   0  0  0  0  0  0  0  0  0  0  0  0
  1  2  1  0  0  0  0
  2  3  1  0  0  0  0
  2  4  1  0  0  0  0
  2  5  1  0  0  0  0
  5  6  2  0  0  0  0
  5  7  1  0  0  0  0
  7  8  1  0  0  0  0
  7  9  1  0  0  0  0
  9 10  1  0  0  0  0
  9 11  1  0  0  0  0
  9 29  1  0  0  0  0
 11 12  1  0  0  0  0
 11 13  1  0  0  0  0
 11 14  1  0  0  0  0
 14 15  1  0  0  0  0
 14 16  1  0  0  0  0
 14 17  1  0  0  0  0
 17 18  1  0  0  0  0
 17 19  1  0  0  0  0
 17 20  1  0  0  0  0
 20 21  1  0  0  0  0
 20 22  2  0  0  0  0
 22 23  1  0  0  0  0
 22 26  1  0  0  0  0
 23 24  1  0  0  0  0
 23 25  1  0  0  0  0
 26 27  1  0  0  0  0
 26 28  1  0  0  0  0
 29 30  2  0  0  0  0
 29 31  1  0  0  0  0
 31 32  1  0  0  0  0
 31 33  1  0  0  0  0
 33 34  1  0  0  0  0
 33 35  1  0  0  0  0
 33 36  1  0  0  0  0
M  CHG  1  20   1
M  END
$$$$

  -OEChem-04042215563D

 36 35  0     1  0  0  0  0  0999 V2000
   -2.9508   -5.4423    0.6497 H   0  0  0  0  0  0  0  0  0  0  0  0
   -3.0034   -4.4217    0.2597 C   0  0  0  0  0  0  0  0  0  0  0  0
   -3.8551   -3.9145    0.7189 H   0  0  0  0  0  0  0  0  0  0  0  0
   -3.1525   -4.4685   -0.8217 H   0  0  0  0  0  0  0  0  0  0  0  0
   -1.7200   -3.6780    0.5769 C   0  0  0  0  0  0  0  0  0  0  0  0
   -0.8327   -4.2346    1.1971 O   0  0  0  0  0  0  0  0  0  0  0  0
   -1.5622   -2.3635    0.1746 N   0  0  0  0  0  0  0  0  0  0  0  0
   -2.2958   -1.9845   -0.4176 H   0  0  0  0  0  0  0  0  0  0  0  0
   -0.2927   -1.6166    0.2873 C   0  0  1  0  0  0  0  0  0  0  0  0
    0.4677   -2.2198   -0.2235 H   0  0  0  0  0  0  0  0  0  0  0  0
   -0.4068   -0.2822   -0.5070 C   0  0  0  0  0  0  0  0  0  0  0  0
    0.3725   -0.3238   -1.2760 H   0  0  0  0  0  0  0  0  0  0  0  0
   -1.3640   -0.2388   -1.0369 H   0  0  0  0  0  0  0  0  0  0  0  0
   -0.2235    1.0356    0.2811 C   0  0  0  0  0  0  0  0  0  0  0  0
   -1.1809    1.3514    0.7087 H   0  0  0  0  0  0  0  0  0  0  0  0
    0.4853    0.9091    1.1027 H   0  0  0  0  0  0  0  0  0  0  0  0
    0.3599    2.1171   -0.6276 C   0  0  0  0  0  0  0  0  0  0  0  0
    1.2583    1.7240   -1.1168 H   0  0  0  0  0  0  0  0  0  0  0  0
   -0.3731    2.3771   -1.3995 H   0  0  0  0  0  0  0  0  0  0  0  0
    0.7095    3.3030    0.1762 N   0  3  0  0  0  0  0  0  0  0  0  0
    0.5951    3.2259    1.1863 H   0  0  0  0  0  0  0  0  0  0  0  0
    1.2296    4.3870   -0.3225 C   0  0  0  0  0  0  0  0  0  0  0  0
    1.4617    4.5258   -1.6719 N   0  0  0  0  0  0  0  0  0  0  0  0
    1.3868    3.6934   -2.2528 H   0  0  0  0  0  0  0  0  0  0  0  0
    2.0792    5.2722   -1.9850 H   0  0  0  0  0  0  0  0  0  0  0  0
    1.5632    5.4253    0.5141 N   0  0  0  0  0  0  0  0  0  0  0  0
    1.2619    5.3934    1.4862 H   0  0  0  0  0  0  0  0  0  0  0  0
    1.7796    6.3334    0.1070 H   0  0  0  0  0  0  0  0  0  0  0  0
    0.2258   -1.4903    1.7406 C   0  0  0  0  0  0  0  0  0  0  0  0
    1.4261   -1.3376    1.9293 O   0  0  0  0  0  0  0  0  0  0  0  0
   -0.6522   -1.1539    2.7566 N   0  0  0  0  0  0  0  0  0  0  0  0
   -1.6192   -1.4162    2.5883 H   0  0  0  0  0  0  0  0  0  0  0  0
   -0.2159   -1.0253    4.1433 C   0  0  0  0  0  0  0  0  0  0  0  0
    0.5384   -0.2374    4.2400 H   0  0  0  0  0  0  0  0  0  0  0  0
   -1.0639   -0.7685    4.7855 H   0  0  0  0  0  0  0  0  0  0  0  0
    0.2150   -1.9682    4.4978 H   0  0  0  0  0  0  0  0  0  0  0  0
  1  2  1  0  0  0  0
  2  3  1  0  0  0  0
  2  4  1  0  0  0  0
  2  5  1  0  0  0  0
  5  6  2  0  0  0  0
  5  7  1  0  0  0  0
  7  8  1  0  0  0  0
  7  9  1  0  0  0  0
  9 10  1  0  0  0  0
  9 11  1  0  0  0  0
  9 29  1  0  0  0  0
 11 12  1  0  0  0  0
 11 13  1  0  0  0  0
 11 14  1  0  0  0  0
 14 15  1  0  0  0  0
 14 16  1  0  0  0  0
 14 17  1  0  0  0  0
 17 18  1  0  0  0  0
 17 19  1  0  0  0  0
 17 20  1  0  0  0  0
 20 21  1  0  0  0  0
 20 22  2  0  0  0  0
 22 23  1  0  0  0  0
 22 26  1  0  0  0  0
 23 24  1  0  0  0  0
 23 25  1  0  0  0  0
 26 27  1  0  0  0  0
 26 28  1  0  0  0  0
 29 30  2  0  0  0  0
 29 31  1  0  0  0  0
 31 32  1  0  0  0  0
 31 33  1  0  0  0  0
 33 34  1  0  0  0  0
 33 35  1  0  0  0  0
 33 36  1  0  0  0  0
M  CHG  1  20   1
M  END
$$$$

  -OEChem-04042215563D

 36 35  0     1  0  0  0  0  0999 V2000
   -2.9520   -5.4467    0.6799 H   0  0  0  0  0  0  0  0  0  0  0  0
   -3.0110   -4.4265    0.2889 C   0  0  0  0  0  0  0  0  0  0  0  0
   -3.8630   -3.9222    0.7509 H   0  0  0  0  0  0  0  0  0  0  0  0
   -3.1634   -4.4753   -0.7920 H   0  0  0  0  0  0  0  0  0  0  0  0
   -1.7304   -3.6760    0.6001 C   0  0  0  0  0  0  0  0  0  0  0  0
   -0.8496   -4.2185    1.2416 O   0  0  0  0  0  0  0  0  0  0  0  0
   -1.5715   -2.3693    0.1733 N   0  0  0  0  0  0  0  0  0  0  0  0
   -2.2969   -2.0089   -0.4401 H   0  0  0  0  0  0  0  0  0  0  0  0
   -0.2980   -1.6263    0.2661 C   0  0  1  0  0  0  0  0  0  0  0  0
    0.4581   -2.2344   -0.2451 H   0  0  0  0  0  0  0  0  0  0  0  0
   -0.4155   -0.2930   -0.5275 C   0  0  0  0  0  0  0  0  0  0  0  0
    0.3472   -0.3252   -1.3133 H   0  0  0  0  0  0  0  0  0  0  0  0
   -1.3865   -0.2395   -1.0306 H   0  0  0  0  0  0  0  0  0  0  0  0
   -0.2095    1.0024    0.2831 C   0  0  0  0  0  0  0  0  0  0  0  0
   -1.0719    1.1784    0.9347 H   0  0  0  0  0  0  0  0  0  0  0  0
    0.6830    0.9151    0.9109 H   0  0  0  0  0  0  0  0  0  0  0  0
    0.0141    2.1885   -0.6519 C   0  0  0  0  0  0  0  0  0  0  0  0
    0.8257    1.9488   -1.3480 H   0  0  0  0  0  0  0  0  0  0  0  0
   -0.8984    2.3749   -1.2290 H   0  0  0  0  0  0  0  0  0  0  0  0
    0.3724    3.3730    0.1500 N   0  3  0  0  0  0  0  0  0  0  0  0
    0.5128    3.2258    1.1493 H   0  0  0  0  0  0  0  0  0  0  0  0
    0.5810    4.5558   -0.3513 C   0  0  0  0  0  0  0  0  0  0  0  0
    0.4627    4.8043   -1.6998 N   0  0  0  0  0  0  0  0  0  0  0  0
    0.3881    4.0034   -2.3235 H   0  0  0  0  0  0  0  0  0  0  0  0
    0.8625    5.6633   -2.0722 H   0  0  0  0  0  0  0  0  0  0  0  0
    0.9331    5.5904    0.4828 N   0  0  0  0  0  0  0  0  0  0  0  0
    0.8719    5.4541    1.4903 H   0  0  0  0  0  0  0  0  0  0  0  0
    0.8971    6.5430    0.1242 H   0  0  0  0  0  0  0  0  0  0  0  0
    0.2265   -1.4795    1.7161 C   0  0  0  0  0  0  0  0  0  0  0  0
    1.4286   -1.3398    1.9016 O   0  0  0  0  0  0  0  0  0  0  0  0
   -0.6456   -1.1227    2.7305 N   0  0  0  0  0  0  0  0  0  0  0  0
   -1.6141   -1.3848    2.5697 H   0  0  0  0  0  0  0  0  0  0  0  0
   -0.2012   -0.9902    4.1142 C   0  0  0  0  0  0  0  0  0  0  0  0
    0.5542   -0.2027    4.2039 H   0  0  0  0  0  0  0  0  0  0  0  0
   -1.0451   -0.7319    4.7610 H   0  0  0  0  0  0  0  0  0  0  0  0
    0.2314   -1.9322    4.4684 H   0  0  0  0  0  0  0  0  0  0  0  0
  1  2  1  0  0  0  0
  2  3  1  0  0  0  0
  2  4  1  0  0  0  0
  2  5  1  0  0  0  0
  5  6  2  0  0  0  0
  5  7  1  0  0  0  0
  7  8  1  0  0  0  0
  7  9  1  0  0  0  0
  9 10  1  0  0  0  0
  9 11  1  0  0  0  0
  9 29  1  0  0  0  0
 11 12  1  0  0  0  0
 11 13  1  0  0  0  0
 11 14  1  0  0  0  0
 14 15  1  0  0  0  0
 14 16  1  0  0  0  0
 14 17  1  0  0  0  0
 17 18  1  0  0  0  0
 17 19  1  0  0  0  0
 17 20  1  0  0  0  0
 20 21  1  0  0  0  0
 20 22  2  0  0  0  0
 22 23  1  0  0  0  0
 22 26  1  0  0  0  0
 23 24  1  0  0  0  0
 23 25  1  0  0  0  0
 26 27  1  0  0  0  0
 26 28  1  0  0  0  0
 29 30  2  0  0  0  0
 29 31  1  0  0  0  0
 31 32  1  0  0  0  0
 31 33  1  0  0  0  0
 33 34  1  0  0  0  0
 33 35  1  0  0  0  0
 33 36  1  0  0  0  0
M  CHG  1  20   1
M  END
$$$$

  -OEChem-04042215563D

 36 35  0     1  0  0  0  0  0999 V2000
   -2.9491   -5.4399    0.7442 H   0  0  0  0  0  0  0  0  0  0  0  0
   -3.0095   -4.4281    0.3324 C   0  0  0  0  0  0  0  0  0  0  0  0
   -3.8611   -3.9154    0.7856 H   0  0  0  0  0  0  0  0  0  0  0  0
   -3.1652   -4.4985   -0.7469 H   0  0  0  0  0  0  0  0  0  0  0  0
   -1.7284   -3.6717    0.6269 C   0  0  0  0  0  0  0  0  0  0  0  0
   -0.8456   -4.2037    1.2744 O   0  0  0  0  0  0  0  0  0  0  0  0
   -1.5675   -2.3759    0.1689 N   0  0  0  0  0  0  0  0  0  0  0  0
   -2.2911   -2.0324   -0.4559 H   0  0  0  0  0  0  0  0  0  0  0  0
   -0.2918   -1.6334    0.2384 C   0  0  1  0  0  0  0  0  0  0  0  0
    0.4707   -2.2426   -0.2614 H   0  0  0  0  0  0  0  0  0  0  0  0
   -0.4155   -0.3084   -0.5674 C   0  0  0  0  0  0  0  0  0  0  0  0
    0.0932   -0.4429   -1.5281 H   0  0  0  0  0  0  0  0  0  0  0  0
   -1.4718   -0.1173   -0.7842 H   0  0  0  0  0  0  0  0  0  0  0  0
    0.1517    0.9415    0.1293 C   0  0  0  0  0  0  0  0  0  0  0  0
   -0.3594    1.1077    1.0834 H   0  0  0  0  0  0  0  0  0  0  0  0
    1.2181    0.7864    0.3315 H   0  0  0  0  0  0  0  0  0  0  0  0
   -0.0192    2.1795   -0.7452 C   0  0  0  0  0  0  0  0  0  0  0  0
    0.4326    1.9929   -1.7257 H   0  0  0  0  0  0  0  0  0  0  0  0
   -1.0866    2.3851   -0.8828 H   0  0  0  0  0  0  0  0  0  0  0  0
    0.6485    3.3166   -0.0861 N   0  3  0  0  0  0  0  0  0  0  0  0
    1.1919    3.1067    0.7513 H   0  0  0  0  0  0  0  0  0  0  0  0
    0.6127    4.5395   -0.5290 C   0  0  0  0  0  0  0  0  0  0  0  0
   -0.0664    4.8765   -1.6777 N   0  0  0  0  0  0  0  0  0  0  0  0
   -0.3920    4.1188   -2.2740 H   0  0  0  0  0  0  0  0  0  0  0  0
    0.1353    5.7736   -2.1148 H   0  0  0  0  0  0  0  0  0  0  0  0
    1.2713    5.5279    0.1628 N   0  0  0  0  0  0  0  0  0  0  0  0
    1.6316    5.3184    1.0922 H   0  0  0  0  0  0  0  0  0  0  0  0
    1.0641    6.4997   -0.0608 H   0  0  0  0  0  0  0  0  0  0  0  0
    0.2277   -1.4602    1.6893 C   0  0  0  0  0  0  0  0  0  0  0  0
    1.4295   -1.3222    1.8806 O   0  0  0  0  0  0  0  0  0  0  0  0
   -0.6480   -1.0818    2.6928 N   0  0  0  0  0  0  0  0  0  0  0  0
   -1.6177   -1.3375    2.5298 H   0  0  0  0  0  0  0  0  0  0  0  0
   -0.2127   -0.9242    4.0769 C   0  0  0  0  0  0  0  0  0  0  0  0
    0.5474   -0.1400    4.1560 H   0  0  0  0  0  0  0  0  0  0  0  0
   -1.0594   -0.6471    4.7126 H   0  0  0  0  0  0  0  0  0  0  0  0
    0.2109   -1.8619    4.4533 H   0  0  0  0  0  0  0  0  0  0  0  0
  1  2  1  0  0  0  0
  2  3  1  0  0  0  0
  2  4  1  0  0  0  0
  2  5  1  0  0  0  0
  5  6  2  0  0  0  0
  5  7  1  0  0  0  0
  7  8  1  0  0  0  0
  7  9  1  0  0  0  0
  9 10  1  0  0  0  0
  9 11  1  0  0  0  0
  9 29  1  0  0  0  0
 11 12  1  0  0  0  0
 11 13  1  0  0  0  0
 11 14  1  0  0  0  0
 14 15  1  0  0  0  0
 14 16  1  0  0  0  0
 14 17  1  0  0  0  0
 17 18  1  0  0  0  0
 17 19  1  0  0  0  0
 17 20  1  0  0  0  0
 20 21  1  0  0  0  0
 20 22  2  0  0  0  0
 22 23  1  0  0  0  0
 22 26  1  0  0  0  0
 23 24  1  0  0  0  0
 23 25  1  0  0  0  0
 26 27  1  0  0  0  0
 26 28  1  0  0  0  0
 29 30  2  0  0  0  0
 29 31  1  0  0  0  0
 31 32  1  0  0  0  0
 31 33  1  0  0  0  0
 33 34  1  0  0  0  0
 33 35  1  0  0  0  0
 33 36  1  0  0  0  0
M  CHG  1  20   1
M  END
$$$$

  -OEChem-04042215563D

 36 35  0     1  0  0  0  0  0999 V2000
   -2.9664   -5.4486    0.7125 H   0  0  0  0  0  0  0  0  0  0  0  0
   -3.0213   -4.4342    0.3067 C   0  0  0  0  0  0  0  0  0  0  0  0
   -3.8790   -3.9244    0.7512 H   0  0  0  0  0  0  0  0  0  0  0  0
   -3.1613   -4.4979   -0.7750 H   0  0  0  0  0  0  0  0  0  0  0  0
   -1.7448   -3.6789    0.6224 C   0  0  0  0  0  0  0  0  0  0  0  0
   -0.8647   -4.2172    1.2682 O   0  0  0  0  0  0  0  0  0  0  0  0
   -1.5869   -2.3750    0.1871 N   0  0  0  0  0  0  0  0  0  0  0  0
   -2.3079   -2.0261   -0.4378 H   0  0  0  0  0  0  0  0  0  0  0  0
   -0.3094   -1.6361    0.2606 C   0  0  1  0  0  0  0  0  0  0  0  0
    0.4447   -2.2488   -0.2481 H   0  0  0  0  0  0  0  0  0  0  0  0
   -0.4161   -0.3081   -0.5437 C   0  0  0  0  0  0  0  0  0  0  0  0
    0.0839   -0.4419   -1.5089 H   0  0  0  0  0  0  0  0  0  0  0  0
   -1.4740   -0.1181   -0.7538 H   0  0  0  0  0  0  0  0  0  0  0  0
    0.1532    0.9474    0.1467 C   0  0  0  0  0  0  0  0  0  0  0  0
   -0.1855    1.0022    1.1857 H   0  0  0  0  0  0  0  0  0  0  0  0
    1.2481    0.8896    0.1474 H   0  0  0  0  0  0  0  0  0  0  0  0
   -0.3196    2.2209   -0.5478 C   0  0  0  0  0  0  0  0  0  0  0  0
   -0.0460    2.1771   -1.6079 H   0  0  0  0  0  0  0  0  0  0  0  0
   -1.4097    2.2966   -0.4690 H   0  0  0  0  0  0  0  0  0  0  0  0
    0.3276    3.3775    0.0981 N   0  3  0  0  0  0  0  0  0  0  0  0
    1.0438    3.1726    0.7951 H   0  0  0  0  0  0  0  0  0  0  0  0
    0.0525    4.6176   -0.1834 C   0  0  0  0  0  0  0  0  0  0  0  0
   -0.8800    4.9550   -1.1376 N   0  0  0  0  0  0  0  0  0  0  0  0
   -1.2171    4.2163   -1.7510 H   0  0  0  0  0  0  0  0  0  0  0  0
   -0.8899    5.9098   -1.4904 H   0  0  0  0  0  0  0  0  0  0  0  0
    0.7074    5.6244    0.4848 N   0  0  0  0  0  0  0  0  0  0  0  0
    1.2752    5.3865    1.2962 H   0  0  0  0  0  0  0  0  0  0  0  0
    0.3396    6.5719    0.4211 H   0  0  0  0  0  0  0  0  0  0  0  0
    0.2291   -1.4866    1.7063 C   0  0  0  0  0  0  0  0  0  0  0  0
    1.4306   -1.3218    1.8761 O   0  0  0  0  0  0  0  0  0  0  0  0
   -0.6344   -1.1239    2.7263 N   0  0  0  0  0  0  0  0  0  0  0  0
   -1.6008   -1.4018    2.5811 H   0  0  0  0  0  0  0  0  0  0  0  0
   -0.1758   -0.9659    4.1028 C   0  0  0  0  0  0  0  0  0  0  0  0
    0.5776   -0.1741    4.1705 H   0  0  0  0  0  0  0  0  0  0  0  0
   -1.0140   -0.6993    4.7540 H   0  0  0  0  0  0  0  0  0  0  0  0
    0.2639   -1.9004    4.4686 H   0  0  0  0  0  0  0  0  0  0  0  0
  1  2  1  0  0  0  0
  2  3  1  0  0  0  0
  2  4  1  0  0  0  0
  2  5  1  0  0  0  0
  5  6  2  0  0  0  0
  5  7  1  0  0  0  0
  7  8  1  0  0  0  0
  7  9  1  0  0  0  0
  9 10  1  0  0  0  0
  9 11  1  0  0  0  0
  9 29  1  0  0  0  0
 11 12  1  0  0  0  0
 11 13  1  0  0  0  0
 11 14  1  0  0  0  0
 14 15  1  0  0  0  0
 14 16  1  0  0  0  0
 14 17  1  0  0  0  0
 17 18  1  0  0  0  0
 17 19  1  0  0  0  0
 17 20  1  0  0  0  0
 20 21  1  0  0  0  0
 20 22  2  0  0  0  0
 22 23  1  0  0  0  0
 22 26  1  0  0  0  0
 23 24  1  0  0  0  0
 23 25  1  0  0  0  0
 26 27  1  0  0  0  0
 26 28  1  0  0  0  0
 29 30  2  0  0  0  0
 29 31  1  0  0  0  0
 31 32  1  0  0  0  0
 31 33  1  0  0  0  0
 33 34  1  0  0  0  0
 33 35  1  0  0  0  0
 33 36  1  0  0  0  0
M  CHG  1  20   1
M  END
$$$$

  -OEChem-04042215563D

 36 35  0     1  0  0  0  0  0999 V2000
   -2.9890   -5.4461    0.6940 H   0  0  0  0  0  0  0  0  0  0  0  0
   -3.0371   -4.4273    0.2980 C   0  0  0  0  0  0  0  0  0  0  0  0
   -3.8952   -3.9184    0.7434 H   0  0  0  0  0  0  0  0  0  0  0  0
   -3.1717   -4.4790   -0.7851 H   0  0  0  0  0  0  0  0  0  0  0  0
   -1.7587   -3.6808    0.6273 C   0  0  0  0  0  0  0  0  0  0  0  0
   -0.8866   -4.2282    1.2760 O   0  0  0  0  0  0  0  0  0  0  0  0
   -1.5928   -2.3733    0.2058 N   0  0  0  0  0  0  0  0  0  0  0  0
   -2.3055   -2.0209   -0.4264 H   0  0  0  0  0  0  0  0  0  0  0  0
   -0.3079   -1.6467    0.2798 C   0  0  1  0  0  0  0  0  0  0  0  0
    0.4382   -2.2629   -0.2362 H   0  0  0  0  0  0  0  0  0  0  0  0
   -0.4051   -0.3143   -0.5222 C   0  0  0  0  0  0  0  0  0  0  0  0
    0.0803   -0.4525   -1.4943 H   0  0  0  0  0  0  0  0  0  0  0  0
   -1.4649   -0.1263   -0.7236 H   0  0  0  0  0  0  0  0  0  0  0  0
    0.1694    0.9569    0.1458 C   0  0  0  0  0  0  0  0  0  0  0  0
    0.0615    0.9203    1.2323 H   0  0  0  0  0  0  0  0  0  0  0  0
    1.2397    1.0256   -0.0801 H   0  0  0  0  0  0  0  0  0  0  0  0
   -0.5722    2.2113   -0.3089 C   0  0  0  0  0  0  0  0  0  0  0  0
   -0.5082    2.2938   -1.3996 H   0  0  0  0  0  0  0  0  0  0  0  0
   -1.6270    2.1344   -0.0232 H   0  0  0  0  0  0  0  0  0  0  0  0
    0.0511    3.3844    0.3315 N   0  3  0  0  0  0  0  0  0  0  0  0
    0.9139    3.2192    0.8501 H   0  0  0  0  0  0  0  0  0  0  0  0
   -0.4315    4.5913    0.2710 C   0  0  0  0  0  0  0  0  0  0  0  0
   -1.5779    4.8788   -0.4337 N   0  0  0  0  0  0  0  0  0  0  0  0
   -1.9384    4.1636   -1.0616 H   0  0  0  0  0  0  0  0  0  0  0  0
   -1.7843    5.8520   -0.6497 H   0  0  0  0  0  0  0  0  0  0  0  0
    0.2159    5.6123    0.9248 N   0  0  0  0  0  0  0  0  0  0  0  0
    0.9633    5.3810    1.5769 H   0  0  0  0  0  0  0  0  0  0  0  0
   -0.2738    6.4957    1.0541 H   0  0  0  0  0  0  0  0  0  0  0  0
    0.2391   -1.5201    1.7236 C   0  0  0  0  0  0  0  0  0  0  0  0
    1.4419   -1.3596    1.8875 O   0  0  0  0  0  0  0  0  0  0  0  0
   -0.6170   -1.1622    2.7514 N   0  0  0  0  0  0  0  0  0  0  0  0
   -1.5846   -1.4374    2.6091 H   0  0  0  0  0  0  0  0  0  0  0  0
   -0.1495   -1.0249    4.1272 C   0  0  0  0  0  0  0  0  0  0  0  0
    0.6058   -0.2357    4.2023 H   0  0  0  0  0  0  0  0  0  0  0  0
   -0.9829   -0.7659    4.7873 H   0  0  0  0  0  0  0  0  0  0  0  0
    0.2909   -1.9654    4.4766 H   0  0  0  0  0  0  0  0  0  0  0  0
  1  2  1  0  0  0  0
  2  3  1  0  0  0  0
  2  4  1  0  0  0  0
  2  5  1  0  0  0  0
  5  6  2  0  0  0  0
  5  7  1  0  0  0  0
  7  8  1  0  0  0  0
  7  9  1  0  0  0  0
  9 10  1  0  0  0  0
  9 11  1  0  0  0  0
  9 29  1  0  0  0  0
 11 12  1  0  0  0  0
 11 13  1  0  0  0  0
 11 14  1  0  0  0  0
 14 15  1  0  0  0  0
 14 16  1  0  0  0  0
 14 17  1  0  0  0  0
 17 18  1  0  0  0  0
 17 19  1  0  0  0  0
 17 20  1  0  0  0  0
 20 21  1  0  0  0  0
 20 22  2  0  0  0  0
 22 23  1  0  0  0  0
 22 26  1  0  0  0  0
 23 24  1  0  0  0  0
 23 25  1  0  0  0  0
 26 27  1  0  0  0  0
 26 28  1  0  0  0  0
 29 30  2  0  0  0  0
 29 31  1  0  0  0  0
 31 32  1  0  0  0  0
 31 33  1  0  0  0  0
 33 34  1  0  0  0  0
 33 35  1  0  0  0  0
 33 36  1  0  0  0  0
M  CHG  1  20   1
M  END
$$$$

  -OEChem-04042215563D

 36 35  0     1  0  0  0  0  0999 V2000
   -3.0005   -5.4448    0.6940 H   0  0  0  0  0  0  0  0  0  0  0  0
   -3.0395   -4.4264    0.2958 C   0  0  0  0  0  0  0  0  0  0  0  0
   -3.9015   -3.9135    0.7284 H   0  0  0  0  0  0  0  0  0  0  0  0
   -3.1597   -4.4804   -0.7888 H   0  0  0  0  0  0  0  0  0  0  0  0
   -1.7632   -3.6837    0.6418 C   0  0  0  0  0  0  0  0  0  0  0  0
   -0.9040   -4.2331    1.3057 O   0  0  0  0  0  0  0  0  0  0  0  0
   -1.5859   -2.3780    0.2181 N   0  0  0  0  0  0  0  0  0  0  0  0
   -2.2862   -2.0306   -0.4304 H   0  0  0  0  0  0  0  0  0  0  0  0
   -0.2934   -1.6627    0.2885 C   0  0  1  0  0  0  0  0  0  0  0  0
    0.4489   -2.2793   -0.2324 H   0  0  0  0  0  0  0  0  0  0  0  0
   -0.4006   -0.3253   -0.5083 C   0  0  0  0  0  0  0  0  0  0  0  0
    0.0790   -0.4691   -1.4829 H   0  0  0  0  0  0  0  0  0  0  0  0
   -1.4616   -0.1457   -0.7119 H   0  0  0  0  0  0  0  0  0  0  0  0
    0.1751    0.9651    0.1329 C   0  0  0  0  0  0  0  0  0  0  0  0
    0.3658    0.8516    1.2010 H   0  0  0  0  0  0  0  0  0  0  0  0
    1.1376    1.1893   -0.3402 H   0  0  0  0  0  0  0  0  0  0  0  0
   -0.7809    2.1469   -0.0161 C   0  0  0  0  0  0  0  0  0  0  0  0
   -0.9615    2.3356   -1.0801 H   0  0  0  0  0  0  0  0  0  0  0  0
   -1.7349    1.9050    0.4655 H   0  0  0  0  0  0  0  0  0  0  0  0
   -0.1715    3.3298    0.6192 N   0  3  0  0  0  0  0  0  0  0  0  0
    0.7941    3.2353    0.9341 H   0  0  0  0  0  0  0  0  0  0  0  0
   -0.7937    4.4562    0.8117 C   0  0  0  0  0  0  0  0  0  0  0  0
   -2.0900    4.6497    0.3926 N   0  0  0  0  0  0  0  0  0  0  0  0
   -2.4916    3.9580   -0.2363 H   0  0  0  0  0  0  0  0  0  0  0  0
   -2.4505    5.6009    0.3497 H   0  0  0  0  0  0  0  0  0  0  0  0
   -0.1454    5.4870    1.4493 N   0  0  0  0  0  0  0  0  0  0  0  0
    0.7412    5.2948    1.9127 H   0  0  0  0  0  0  0  0  0  0  0  0
   -0.6973    6.2742    1.7855 H   0  0  0  0  0  0  0  0  0  0  0  0
    0.2501   -1.5440    1.7339 C   0  0  0  0  0  0  0  0  0  0  0  0
    1.4558   -1.4195    1.9059 O   0  0  0  0  0  0  0  0  0  0  0  0
   -0.6043   -1.1785    2.7606 N   0  0  0  0  0  0  0  0  0  0  0  0
   -1.5749   -1.4396    2.6122 H   0  0  0  0  0  0  0  0  0  0  0  0
   -0.1384   -1.0679    4.1396 C   0  0  0  0  0  0  0  0  0  0  0  0
    0.6337   -0.2963    4.2265 H   0  0  0  0  0  0  0  0  0  0  0  0
   -0.9677   -0.7992    4.8010 H   0  0  0  0  0  0  0  0  0  0  0  0
    0.2811   -2.0215    4.4787 H   0  0  0  0  0  0  0  0  0  0  0  0
  1  2  1  0  0  0  0
  2  3  1  0  0  0  0
  2  4  1  0  0  0  0
  2  5  1  0  0  0  0
  5  6  2  0  0  0  0
  5  7  1  0  0  0  0
  7  8  1  0  0  0  0
  7  9  1  0  0  0  0
  9 10  1  0  0  0  0
  9 11  1  0  0  0  0
  9 29  1  0  0  0  0
 11 12  1  0  0  0  0
 11 13  1  0  0  0  0
 11 14  1  0  0  0  0
 14 15  1  0  0  0  0
 14 16  1  0  0  0  0
 14 17  1  0  0  0  0
 17 18  1  0  0  0  0
 17 19  1  0  0  0  0
 17 20  1  0  0  0  0
 20 21  1  0  0  0  0
 20 22  2  0  0  0  0
 22 23  1  0  0  0  0
 22 26  1  0  0  0  0
 23 24  1  0  0  0  0
 23 25  1  0  0  0  0
 26 27  1  0  0  0  0
 26 28  1  0  0  0  0
 29 30  2  0  0  0  0
 29 31  1  0  0  0  0
 31 32  1  0  0  0  0
 31 33  1  0  0  0  0
 33 34  1  0  0  0  0
 33 35  1  0  0  0  0
 33 36  1  0  0  0  0
M  CHG  1  20   1
M  END
$$$$

  -OEChem-04042215563D

 36 35  0     1  0  0  0  0  0999 V2000
   -2.9815   -5.4590    0.7151 H   0  0  0  0  0  0  0  0  0  0  0  0
   -2.9960   -4.4637    0.2613 C   0  0  0  0  0  0  0  0  0  0  0  0
   -3.8741   -3.9262    0.6266 H   0  0  0  0  0  0  0  0  0  0  0  0
   -3.0676   -4.5752   -0.8234 H   0  0  0  0  0  0  0  0  0  0  0  0
   -1.7310   -3.7088    0.6232 C   0  0  0  0  0  0  0  0  0  0  0  0
   -0.8720   -4.2545    1.2903 O   0  0  0  0  0  0  0  0  0  0  0  0
   -1.5655   -2.3982    0.2082 N   0  0  0  0  0  0  0  0  0  0  0  0
   -2.2604   -2.0639   -0.4531 H   0  0  0  0  0  0  0  0  0  0  0  0
   -0.2773   -1.6736    0.2742 C   0  0  1  0  0  0  0  0  0  0  0  0
    0.4712   -2.2621   -0.2695 H   0  0  0  0  0  0  0  0  0  0  0  0
   -0.4378   -0.3145   -0.4763 C   0  0  0  0  0  0  0  0  0  0  0  0
    0.0427   -0.4285   -1.4545 H   0  0  0  0  0  0  0  0  0  0  0  0
   -1.5012   -0.1490   -0.6780 H   0  0  0  0  0  0  0  0  0  0  0  0
    0.1294    0.9713    0.1830 C   0  0  0  0  0  0  0  0  0  0  0  0
    0.6599    0.7777    1.1160 H   0  0  0  0  0  0  0  0  0  0  0  0
    0.8696    1.3998   -0.5019 H   0  0  0  0  0  0  0  0  0  0  0  0
   -0.9601    2.0106    0.4389 C   0  0  0  0  0  0  0  0  0  0  0  0
   -1.4186    2.3014   -0.5127 H   0  0  0  0  0  0  0  0  0  0  0  0
   -1.7306    1.5719    1.0822 H   0  0  0  0  0  0  0  0  0  0  0  0
   -0.3512    3.1799    1.1002 N   0  3  0  0  0  0  0  0  0  0  0  0
    0.6277    3.0931    1.3742 H   0  0  0  0  0  0  0  0  0  0  0  0
   -0.9910    4.2782    1.3791 C   0  0  0  0  0  0  0  0  0  0  0  0
   -2.3223    4.4408    1.0711 N   0  0  0  0  0  0  0  0  0  0  0  0
   -2.8454    3.6200    0.7745 H   0  0  0  0  0  0  0  0  0  0  0  0
   -2.8346    5.2037    1.5092 H   0  0  0  0  0  0  0  0  0  0  0  0
   -0.3273    5.3083    2.0023 N   0  0  0  0  0  0  0  0  0  0  0  0
    0.6877    5.2644    2.0759 H   0  0  0  0  0  0  0  0  0  0  0  0
   -0.7680    6.2259    2.0301 H   0  0  0  0  0  0  0  0  0  0  0  0
    0.2609   -1.5714    1.7234 C   0  0  0  0  0  0  0  0  0  0  0  0
    1.4673   -1.4820    1.9115 O   0  0  0  0  0  0  0  0  0  0  0  0
   -0.6009   -1.2243    2.7501 N   0  0  0  0  0  0  0  0  0  0  0  0
   -1.5699   -1.4792    2.5826 H   0  0  0  0  0  0  0  0  0  0  0  0
   -0.1500   -1.1720    4.1374 C   0  0  0  0  0  0  0  0  0  0  0  0
    0.6377   -0.4211    4.2602 H   0  0  0  0  0  0  0  0  0  0  0  0
   -0.9819   -0.9093    4.7980 H   0  0  0  0  0  0  0  0  0  0  0  0
    0.2441   -2.1460    4.4479 H   0  0  0  0  0  0  0  0  0  0  0  0
  1  2  1  0  0  0  0
  2  3  1  0  0  0  0
  2  4  1  0  0  0  0
  2  5  1  0  0  0  0
  5  6  2  0  0  0  0
  5  7  1  0  0  0  0
  7  8  1  0  0  0  0
  7  9  1  0  0  0  0
  9 10  1  0  0  0  0
  9 11  1  0  0  0  0
  9 29  1  0  0  0  0
 11 12  1  0  0  0  0
 11 13  1  0  0  0  0
 11 14  1  0  0  0  0
 14 15  1  0  0  0  0
 14 16  1  0  0  0  0
 14 17  1  0  0  0  0
 17 18  1  0  0  0  0
 17 19  1  0  0  0  0
 17 20  1  0  0  0  0
 20 21  1  0  0  0  0
 20 22  2  0  0  0  0
 22 23  1  0  0  0  0
 22 26  1  0  0  0  0
 23 24  1  0  0  0  0
 23 25  1  0  0  0  0
 26 27  1  0  0  0  0
 26 28  1  0  0  0  0
 29 30  2  0  0  0  0
 29 31  1  0  0  0  0
 31 32  1  0  0  0  0
 31 33  1  0  0  0  0
 33 34  1  0  0  0  0
 33 35  1  0  0  0  0
 33 36  1  0  0  0  0
M  CHG  1  20   1
M  END
$$$$

  -OEChem-04042215563D

 36 35  0     1  0  0  0  0  0999 V2000
   -2.9654   -5.4636    0.7782 H   0  0  0  0  0  0  0  0  0  0  0  0
   -2.9636   -4.4967    0.2667 C   0  0  0  0  0  0  0  0  0  0  0  0
   -3.8514   -3.9379    0.5710 H   0  0  0  0  0  0  0  0  0  0  0  0
   -3.0003   -4.6713   -0.8114 H   0  0  0  0  0  0  0  0  0  0  0  0
   -1.7098   -3.7230    0.6255 C   0  0  0  0  0  0  0  0  0  0  0  0
   -0.8503   -4.2490    1.3074 O   0  0  0  0  0  0  0  0  0  0  0  0
   -1.5594   -2.4155    0.1963 N   0  0  0  0  0  0  0  0  0  0  0  0
   -2.2508   -2.1049   -0.4806 H   0  0  0  0  0  0  0  0  0  0  0  0
   -0.2775   -1.6786    0.2465 C   0  0  1  0  0  0  0  0  0  0  0  0
    0.4758   -2.2539   -0.3053 H   0  0  0  0  0  0  0  0  0  0  0  0
   -0.4758   -0.3169   -0.4860 C   0  0  0  0  0  0  0  0  0  0  0  0
    0.0065   -0.4169   -1.4645 H   0  0  0  0  0  0  0  0  0  0  0  0
   -1.5405   -0.1554   -0.6853 H   0  0  0  0  0  0  0  0  0  0  0  0
    0.0920    0.9568    0.1868 C   0  0  0  0  0  0  0  0  0  0  0  0
    0.8828    0.7375    0.9073 H   0  0  0  0  0  0  0  0  0  0  0  0
    0.5640    1.5589   -0.5974 H   0  0  0  0  0  0  0  0  0  0  0  0
   -1.0047    1.8094    0.8205 C   0  0  0  0  0  0  0  0  0  0  0  0
   -1.6876    2.1638    0.0407 H   0  0  0  0  0  0  0  0  0  0  0  0
   -1.5695    1.1976    1.5328 H   0  0  0  0  0  0  0  0  0  0  0  0
   -0.3762    2.9452    1.5202 N   0  3  0  0  0  0  0  0  0  0  0  0
    0.6301    2.8862    1.6767 H   0  0  0  0  0  0  0  0  0  0  0  0
   -1.0299    3.9708    1.9832 C   0  0  0  0  0  0  0  0  0  0  0  0
   -2.3952    4.0815    1.8511 N   0  0  0  0  0  0  0  0  0  0  0  0
   -2.9079    3.2604    1.5381 H   0  0  0  0  0  0  0  0  0  0  0  0
   -2.8857    4.7588    2.4317 H   0  0  0  0  0  0  0  0  0  0  0  0
   -0.3468    4.9745    2.6276 N   0  0  0  0  0  0  0  0  0  0  0  0
    0.6708    4.9822    2.5825 H   0  0  0  0  0  0  0  0  0  0  0  0
   -0.8237    5.8584    2.7960 H   0  0  0  0  0  0  0  0  0  0  0  0
    0.2615   -1.5623    1.6955 C   0  0  0  0  0  0  0  0  0  0  0  0
    1.4674   -1.4803    1.8889 O   0  0  0  0  0  0  0  0  0  0  0  0
   -0.6023   -1.2155    2.7211 N   0  0  0  0  0  0  0  0  0  0  0  0
   -1.5670   -1.4871    2.5536 H   0  0  0  0  0  0  0  0  0  0  0  0
   -0.1504   -1.1757    4.1089 C   0  0  0  0  0  0  0  0  0  0  0  0
    0.6243   -0.4134    4.2417 H   0  0  0  0  0  0  0  0  0  0  0  0
   -0.9859   -0.9370    4.7741 H   0  0  0  0  0  0  0  0  0  0  0  0
    0.2613   -2.1470    4.4055 H   0  0  0  0  0  0  0  0  0  0  0  0
  1  2  1  0  0  0  0
  2  3  1  0  0  0  0
  2  4  1  0  0  0  0
  2  5  1  0  0  0  0
  5  6  2  0  0  0  0
  5  7  1  0  0  0  0
  7  8  1  0  0  0  0
  7  9  1  0  0  0  0
  9 10  1  0  0  0  0
  9 11  1  0  0  0  0
  9 29  1  0  0  0  0
 11 12  1  0  0  0  0
 11 13  1  0  0  0  0
 11 14  1  0  0  0  0
 14 15  1  0  0  0  0
 14 16  1  0  0  0  0
 14 17  1  0  0  0  0
 17 18  1  0  0  0  0
 17 19  1  0  0  0  0
 17 20  1  0  0  0  0
 20 21  1  0  0  0  0
 20 22  2  0  0  0  0
 22 23  1  0  0  0  0
 22 26  1  0  0  0  0
 23 24  1  0  0  0  0
 23 25  1  0  0  0  0
 26 27  1  0  0  0  0
 26 28  1  0  0  0  0
 29 30  2  0  0  0  0
 29 31  1  0  0  0  0
 31 32  1  0  0  0  0
 31 33  1  0  0  0  0
 33 34  1  0  0  0  0
 33 35  1  0  0  0  0
 33 36  1  0  0  0  0
M  CHG  1  20   1
M  END
$$$$

  -OEChem-04042215563D

 36 35  0     1  0  0  0  0  0999 V2000
   -2.8614   -5.5275    0.7187 H   0  0  0  0  0  0  0  0  0  0  0  0
   -2.9253   -4.5260    0.2828 C   0  0  0  0  0  0  0  0  0  0  0  0
   -3.8405   -4.0464    0.6375 H   0  0  0  0  0  0  0  0  0  0  0  0
   -2.9683   -4.6218   -0.8050 H   0  0  0  0  0  0  0  0  0  0  0  0
   -1.7150   -3.7053    0.6857 C   0  0  0  0  0  0  0  0  0  0  0  0
   -0.8941   -4.1741    1.4518 O   0  0  0  0  0  0  0  0  0  0  0  0
   -1.5621   -2.4172    0.2024 N   0  0  0  0  0  0  0  0  0  0  0  0
   -2.2219   -2.1554   -0.5250 H   0  0  0  0  0  0  0  0  0  0  0  0
   -0.2882   -1.6674    0.2589 C   0  0  1  0  0  0  0  0  0  0  0  0
    0.4833   -2.2697   -0.2361 H   0  0  0  0  0  0  0  0  0  0  0  0
   -0.4524   -0.3504   -0.5577 C   0  0  0  0  0  0  0  0  0  0  0  0
    0.0731   -0.5004   -1.5072 H   0  0  0  0  0  0  0  0  0  0  0  0
   -1.5071   -0.1935   -0.8069 H   0  0  0  0  0  0  0  0  0  0  0  0
    0.0908    0.9466    0.0780 C   0  0  0  0  0  0  0  0  0  0  0  0
    1.0086    0.7536    0.6404 H   0  0  0  0  0  0  0  0  0  0  0  0
    0.3703    1.6269   -0.7338 H   0  0  0  0  0  0  0  0  0  0  0  0
   -0.9518    1.6607    0.9368 C   0  0  0  0  0  0  0  0  0  0  0  0
   -1.7272    2.0898    0.2925 H   0  0  0  0  0  0  0  0  0  0  0  0
   -1.4198    0.9398    1.6144 H   0  0  0  0  0  0  0  0  0  0  0  0
   -0.2756    2.7135    1.7163 N   0  3  0  0  0  0  0  0  0  0  0  0
    0.7339    2.7944    1.5969 H   0  0  0  0  0  0  0  0  0  0  0  0
   -0.8697    3.4646    2.5964 C   0  0  0  0  0  0  0  0  0  0  0  0
   -2.2183    3.3589    2.8483 N   0  0  0  0  0  0  0  0  0  0  0  0
   -2.7131    2.5634    2.4512 H   0  0  0  0  0  0  0  0  0  0  0  0
   -2.5905    3.7814    3.6965 H   0  0  0  0  0  0  0  0  0  0  0  0
   -0.1363    4.3894    3.3003 N   0  0  0  0  0  0  0  0  0  0  0  0
    0.8205    4.5815    3.0088 H   0  0  0  0  0  0  0  0  0  0  0  0
   -0.6306    5.1091    3.8244 H   0  0  0  0  0  0  0  0  0  0  0  0
    0.2121   -1.4763    1.7155 C   0  0  0  0  0  0  0  0  0  0  0  0
    1.4098   -1.3473    1.9325 O   0  0  0  0  0  0  0  0  0  0  0  0
   -0.6808   -1.0903    2.7022 N   0  0  0  0  0  0  0  0  0  0  0  0
   -1.6284   -1.4184    2.5356 H   0  0  0  0  0  0  0  0  0  0  0  0
   -0.2559   -0.9649    4.0933 C   0  0  0  0  0  0  0  0  0  0  0  0
    0.5189   -0.1975    4.1935 H   0  0  0  0  0  0  0  0  0  0  0  0
   -1.1027   -0.6843    4.7266 H   0  0  0  0  0  0  0  0  0  0  0  0
    0.1467   -1.9172    4.4562 H   0  0  0  0  0  0  0  0  0  0  0  0
  1  2  1  0  0  0  0
  2  3  1  0  0  0  0
  2  4  1  0  0  0  0
  2  5  1  0  0  0  0
  5  6  2  0  0  0  0
  5  7  1  0  0  0  0
  7  8  1  0  0  0  0
  7  9  1  0  0  0  0
  9 10  1  0  0  0  0
  9 11  1  0  0  0  0
  9 29  1  0  0  0  0
 11 12  1  0  0  0  0
 11 13  1  0  0  0  0
 11 14  1  0  0  0  0
 14 15  1  0  0  0  0
 14 16  1  0  0  0  0
 14 17  1  0  0  0  0
 17 18  1  0  0  0  0
 17 19  1  0  0  0  0
 17 20  1  0  0  0  0
 20 21  1  0  0  0  0
 20 22  2  0  0  0  0
 22 23  1  0  0  0  0
 22 26  1  0  0  0  0
 23 24  1  0  0  0  0
 23 25  1  0  0  0  0
 26 27  1  0  0  0  0
 26 28  1  0  0  0  0
 29 30  2  0  0  0  0
 29 31  1  0  0  0  0
 31 32  1  0  0  0  0
 31 33  1  0  0  0  0
 33 34  1  0  0  0  0
 33 35  1  0  0  0  0
 33 36  1  0  0  0  0
M  CHG  1  20   1
M  END
$$$$

  -OEChem-04042215563D

 36 35  0     1  0  0  0  0  0999 V2000
   -2.5613   -5.6424    0.5935 H   0  0  0  0  0  0  0  0  0  0  0  0
   -2.6359   -4.6588    0.1203 C   0  0  0  0  0  0  0  0  0  0  0  0
   -3.6358   -4.2578    0.3009 H   0  0  0  0  0  0  0  0  0  0  0  0
   -2.4854   -4.7775   -0.9555 H   0  0  0  0  0  0  0  0  0  0  0  0
   -1.5864   -3.7256    0.6930 C   0  0  0  0  0  0  0  0  0  0  0  0
   -0.8545   -4.1114    1.5865 O   0  0  0  0  0  0  0  0  0  0  0  0
   -1.4699   -2.4313    0.2134 N   0  0  0  0  0  0  0  0  0  0  0  0
   -2.0281   -2.2217   -0.6105 H   0  0  0  0  0  0  0  0  0  0  0  0
   -0.3256   -1.5427    0.5120 C   0  0  1  0  0  0  0  0  0  0  0  0
    0.5886   -2.0863    0.2446 H   0  0  0  0  0  0  0  0  0  0  0  0
   -0.3599   -0.2746   -0.3914 C   0  0  0  0  0  0  0  0  0  0  0  0
    0.3820   -0.4230   -1.1836 H   0  0  0  0  0  0  0  0  0  0  0  0
   -1.3356   -0.2147   -0.8846 H   0  0  0  0  0  0  0  0  0  0  0  0
   -0.0880    1.0972    0.2574 C   0  0  0  0  0  0  0  0  0  0  0  0
    0.8341    1.0315    0.8421 H   0  0  0  0  0  0  0  0  0  0  0  0
    0.1098    1.8106   -0.5502 H   0  0  0  0  0  0  0  0  0  0  0  0
   -1.2279    1.6694    1.1025 C   0  0  0  0  0  0  0  0  0  0  0  0
   -2.0895    1.8703    0.4564 H   0  0  0  0  0  0  0  0  0  0  0  0
   -1.5529    0.9584    1.8612 H   0  0  0  0  0  0  0  0  0  0  0  0
   -0.7846    2.9164    1.7568 N   0  3  0  0  0  0  0  0  0  0  0  0
   -1.0908    3.7904    1.3318 H   0  0  0  0  0  0  0  0  0  0  0  0
   -0.0338    2.9635    2.8236 C   0  0  0  0  0  0  0  0  0  0  0  0
    0.4550    1.8392    3.4512 N   0  0  0  0  0  0  0  0  0  0  0  0
    0.3760    0.9356    2.9720 H   0  0  0  0  0  0  0  0  0  0  0  0
    1.2320    1.9434    4.0990 H   0  0  0  0  0  0  0  0  0  0  0  0
    0.3007    4.1881    3.3510 N   0  0  0  0  0  0  0  0  0  0  0  0
   -0.1966    5.0149    3.0268 H   0  0  0  0  0  0  0  0  0  0  0  0
    0.7209    4.2162    4.2783 H   0  0  0  0  0  0  0  0  0  0  0  0
   -0.2092   -1.3120    2.0436 C   0  0  0  0  0  0  0  0  0  0  0  0
    0.8444   -0.9097    2.5250 O   0  0  0  0  0  0  0  0  0  0  0  0
   -1.3522   -1.0427    2.7780 N   0  0  0  0  0  0  0  0  0  0  0  0
   -2.1944   -1.4127    2.3420 H   0  0  0  0  0  0  0  0  0  0  0  0
   -1.3336   -1.0662    4.2393 C   0  0  0  0  0  0  0  0  0  0  0  0
   -0.6607   -0.3055    4.6444 H   0  0  0  0  0  0  0  0  0  0  0  0
   -2.3374   -0.8764    4.6322 H   0  0  0  0  0  0  0  0  0  0  0  0
   -1.0037   -2.0479    4.5973 H   0  0  0  0  0  0  0  0  0  0  0  0
  1  2  1  0  0  0  0
  2  3  1  0  0  0  0
  2  4  1  0  0  0  0
  2  5  1  0  0  0  0
  5  6  2  0  0  0  0
  5  7  1  0  0  0  0
  7  8  1  0  0  0  0
  7  9  1  0  0  0  0
  9 10  1  0  0  0  0
  9 11  1  0  0  0  0
  9 29  1  0  0  0  0
 11 12  1  0  0  0  0
 11 13  1  0  0  0  0
 11 14  1  0  0  0  0
 14 15  1  0  0  0  0
 14 16  1  0  0  0  0
 14 17  1  0  0  0  0
 17 18  1  0  0  0  0
 17 19  1  0  0  0  0
 17 20  1  0  0  0  0
 20 21  1  0  0  0  0
 20 22  2  0  0  0  0
 22 23  1  0  0  0  0
 22 26  1  0  0  0  0
 23 24  1  0  0  0  0
 23 25  1  0  0  0  0
 26 27  1  0  0  0  0
 26 28  1  0  0  0  0
 29 30  2  0  0  0  0
 29 31  1  0  0  0  0
 31 32  1  0  0  0  0
 31 33  1  0  0  0  0
 33 34  1  0  0  0  0
 33 35  1  0  0  0  0
 33 36  1  0  0  0  0
M  CHG  1  20   1
M  END
$$$$

  -OEChem-04042215563D

 36 35  0     1  0  0  0  0  0999 V2000
   -2.4953   -5.7314    0.3643 H   0  0  0  0  0  0  0  0  0  0  0  0
   -2.5534   -4.7310   -0.0749 C   0  0  0  0  0  0  0  0  0  0  0  0
   -3.5569   -4.3328    0.0925 H   0  0  0  0  0  0  0  0  0  0  0  0
   -2.3734   -4.8105   -1.1497 H   0  0  0  0  0  0  0  0  0  0  0  0
   -1.5167   -3.8229    0.5586 C   0  0  0  0  0  0  0  0  0  0  0  0
   -0.7549   -4.2625    1.4009 O   0  0  0  0  0  0  0  0  0  0  0  0
   -1.4456   -2.4893    0.1932 N   0  0  0  0  0  0  0  0  0  0  0  0
   -2.0315   -2.2206   -0.5934 H   0  0  0  0  0  0  0  0  0  0  0  0
   -0.3238   -1.5958    0.5527 C   0  0  1  0  0  0  0  0  0  0  0  0
    0.5916   -2.1162    0.2457 H   0  0  0  0  0  0  0  0  0  0  0  0
   -0.3429   -0.2842   -0.2889 C   0  0  0  0  0  0  0  0  0  0  0  0
    0.4059   -0.3943   -1.0810 H   0  0  0  0  0  0  0  0  0  0  0  0
   -1.3158   -0.2190   -0.7870 H   0  0  0  0  0  0  0  0  0  0  0  0
   -0.1070    1.0857    0.3851 C   0  0  0  0  0  0  0  0  0  0  0  0
    0.9081    1.0718    0.7960 H   0  0  0  0  0  0  0  0  0  0  0  0
   -0.1224    1.8508   -0.3990 H   0  0  0  0  0  0  0  0  0  0  0  0
   -1.0807    1.5185    1.4833 C   0  0  0  0  0  0  0  0  0  0  0  0
   -2.0722    1.6820    1.0467 H   0  0  0  0  0  0  0  0  0  0  0  0
   -1.1845    0.7557    2.2484 H   0  0  0  0  0  0  0  0  0  0  0  0
   -0.5889    2.7562    2.1176 N   0  3  0  0  0  0  0  0  0  0  0  0
   -0.9494    3.6369    1.7533 H   0  0  0  0  0  0  0  0  0  0  0  0
    0.2716    2.7777    3.0984 C   0  0  0  0  0  0  0  0  0  0  0  0
    0.8326    1.6363    3.6270 N   0  0  0  0  0  0  0  0  0  0  0  0
    0.7055    0.7490    3.1267 H   0  0  0  0  0  0  0  0  0  0  0  0
    1.6679    1.7230    4.2003 H   0  0  0  0  0  0  0  0  0  0  0  0
    0.6494    3.9867    3.6319 N   0  0  0  0  0  0  0  0  0  0  0  0
    0.1094    4.8166    3.3962 H   0  0  0  0  0  0  0  0  0  0  0  0
    1.1642    3.9857    4.5105 H   0  0  0  0  0  0  0  0  0  0  0  0
   -0.1687   -1.4801    2.0910 C   0  0  0  0  0  0  0  0  0  0  0  0
    0.8831   -1.0494    2.5538 O   0  0  0  0  0  0  0  0  0  0  0  0
   -1.2971   -1.3046    2.8755 N   0  0  0  0  0  0  0  0  0  0  0  0
   -2.1375   -1.7066    2.4656 H   0  0  0  0  0  0  0  0  0  0  0  0
   -1.2289   -1.2950    4.3347 C   0  0  0  0  0  0  0  0  0  0  0  0
   -0.5864   -0.4871    4.6967 H   0  0  0  0  0  0  0  0  0  0  0  0
   -2.2280   -1.1499    4.7578 H   0  0  0  0  0  0  0  0  0  0  0  0
   -0.8326   -2.2481    4.7025 H   0  0  0  0  0  0  0  0  0  0  0  0
  1  2  1  0  0  0  0
  2  3  1  0  0  0  0
  2  4  1  0  0  0  0
  2  5  1  0  0  0  0
  5  6  2  0  0  0  0
  5  7  1  0  0  0  0
  7  8  1  0  0  0  0
  7  9  1  0  0  0  0
  9 10  1  0  0  0  0
  9 11  1  0  0  0  0
  9 29  1  0  0  0  0
 11 12  1  0  0  0  0
 11 13  1  0  0  0  0
 11 14  1  0  0  0  0
 14 15  1  0  0  0  0
 14 16  1  0  0  0  0
 14 17  1  0  0  0  0
 17 18  1  0  0  0  0
 17 19  1  0  0  0  0
 17 20  1  0  0  0  0
 20 21  1  0  0  0  0
 20 22  2  0  0  0  0
 22 23  1  0  0  0  0
 22 26  1  0  0  0  0
 23 24  1  0  0  0  0
 23 25  1  0  0  0  0
 26 27  1  0  0  0  0
 26 28  1  0  0  0  0
 29 30  2  0  0  0  0
 29 31  1  0  0  0  0
 31 32  1  0  0  0  0
 31 33  1  0  0  0  0
 33 34  1  0  0  0  0
 33 35  1  0  0  0  0
 33 36  1  0  0  0  0
M  CHG  1  20   1
M  END
$$$$

  -OEChem-04042215563D

 36 35  0     1  0  0  0  0  0999 V2000
   -2.4557   -5.7600    0.0785 H   0  0  0  0  0  0  0  0  0  0  0  0
   -2.5410   -4.7259   -0.2680 C   0  0  0  0  0  0  0  0  0  0  0  0
   -3.5386   -4.3552   -0.0209 H   0  0  0  0  0  0  0  0  0  0  0  0
   -2.4106   -4.7092   -1.3527 H   0  0  0  0  0  0  0  0  0  0  0  0
   -1.4833   -3.8645    0.3956 C   0  0  0  0  0  0  0  0  0  0  0  0
   -0.6858   -4.3641    1.1689 O   0  0  0  0  0  0  0  0  0  0  0  0
   -1.4346   -2.5046    0.1415 N   0  0  0  0  0  0  0  0  0  0  0  0
   -2.0593   -2.1701   -0.5878 H   0  0  0  0  0  0  0  0  0  0  0  0
   -0.3153   -1.6297    0.5505 C   0  0  1  0  0  0  0  0  0  0  0  0
    0.5954   -2.1227    0.1888 H   0  0  0  0  0  0  0  0  0  0  0  0
   -0.3487   -0.2685   -0.2120 C   0  0  0  0  0  0  0  0  0  0  0  0
    0.3784   -0.3332   -1.0294 H   0  0  0  0  0  0  0  0  0  0  0  0
   -1.3345   -0.1930   -0.6827 H   0  0  0  0  0  0  0  0  0  0  0  0
   -0.1261    1.0918    0.4972 C   0  0  0  0  0  0  0  0  0  0  0  0
    0.9513    1.1610    0.6836 H   0  0  0  0  0  0  0  0  0  0  0  0
   -0.3801    1.8885   -0.2101 H   0  0  0  0  0  0  0  0  0  0  0  0
   -0.8372    1.3797    1.8233 C   0  0  0  0  0  0  0  0  0  0  0  0
   -1.9096    1.5123    1.6431 H   0  0  0  0  0  0  0  0  0  0  0  0
   -0.7222    0.5618    2.5258 H   0  0  0  0  0  0  0  0  0  0  0  0
   -0.2603    2.5885    2.4395 N   0  3  0  0  0  0  0  0  0  0  0  0
   -0.6448    3.4872    2.1521 H   0  0  0  0  0  0  0  0  0  0  0  0
    0.7109    2.5541    3.3103 C   0  0  0  0  0  0  0  0  0  0  0  0
    1.2969    1.3784    3.7256 N   0  0  0  0  0  0  0  0  0  0  0  0
    1.0752    0.5131    3.2193 H   0  0  0  0  0  0  0  0  0  0  0  0
    2.1963    1.4181    4.1977 H   0  0  0  0  0  0  0  0  0  0  0  0
    1.1825    3.7323    3.8375 N   0  0  0  0  0  0  0  0  0  0  0  0
    0.6420    4.5830    3.6957 H   0  0  0  0  0  0  0  0  0  0  0  0
    1.7938    3.6848    4.6505 H   0  0  0  0  0  0  0  0  0  0  0  0
   -0.1141   -1.6285    2.0852 C   0  0  0  0  0  0  0  0  0  0  0  0
    0.9536   -1.2279    2.5409 O   0  0  0  0  0  0  0  0  0  0  0  0
   -1.2182   -1.5271    2.9166 N   0  0  0  0  0  0  0  0  0  0  0  0
   -2.0698   -1.9187    2.5200 H   0  0  0  0  0  0  0  0  0  0  0  0
   -1.0978   -1.5460    4.3719 C   0  0  0  0  0  0  0  0  0  0  0  0
   -0.5768   -0.6536    4.7318 H   0  0  0  0  0  0  0  0  0  0  0  0
   -2.0903   -1.5722    4.8329 H   0  0  0  0  0  0  0  0  0  0  0  0
   -0.5432   -2.4330    4.6982 H   0  0  0  0  0  0  0  0  0  0  0  0
  1  2  1  0  0  0  0
  2  3  1  0  0  0  0
  2  4  1  0  0  0  0
  2  5  1  0  0  0  0
  5  6  2  0  0  0  0
  5  7  1  0  0  0  0
  7  8  1  0  0  0  0
  7  9  1  0  0  0  0
  9 10  1  0  0  0  0
  9 11  1  0  0  0  0
  9 29  1  0  0  0  0
 11 12  1  0  0  0  0
 11 13  1  0  0  0  0
 11 14  1  0  0  0  0
 14 15  1  0  0  0  0
 14 16  1  0  0  0  0
 14 17  1  0  0  0  0
 17 18  1  0  0  0  0
 17 19  1  0  0  0  0
 17 20  1  0  0  0  0
 20 21  1  0  0  0  0
 20 22  2  0  0  0  0
 22 23  1  0  0  0  0
 22 26  1  0  0  0  0
 23 24  1  0  0  0  0
 23 25  1  0  0  0  0
 26 27  1  0  0  0  0
 26 28  1  0  0  0  0
 29 30  2  0  0  0  0
 29 31  1  0  0  0  0
 31 32  1  0  0  0  0
 31 33  1  0  0  0  0
 33 34  1  0  0  0  0
 33 35  1  0  0  0  0
 33 36  1  0  0  0  0
M  CHG  1  20   1
M  END
$$$$

  -OEChem-04042215563D

 36 35  0     1  0  0  0  0  0999 V2000
   -1.6986   -5.9272   -0.2946 H   0  0  0  0  0  0  0  0  0  0  0  0
   -2.0439   -4.9019   -0.4575 C   0  0  0  0  0  0  0  0  0  0  0  0
   -3.0215   -4.7825    0.0156 H   0  0  0  0  0  0  0  0  0  0  0  0
   -2.1421   -4.7331   -1.5326 H   0  0  0  0  0  0  0  0  0  0  0  0
   -1.0519   -3.9188    0.1345 C   0  0  0  0  0  0  0  0  0  0  0  0
   -0.0258   -4.3248    0.6500 O   0  0  0  0  0  0  0  0  0  0  0  0
   -1.3153   -2.5601    0.1054 N   0  0  0  0  0  0  0  0  0  0  0  0
   -2.1343   -2.2788   -0.4277 H   0  0  0  0  0  0  0  0  0  0  0  0
   -0.3207   -1.5232    0.4530 C   0  0  1  0  0  0  0  0  0  0  0  0
    0.5704   -1.7502   -0.1449 H   0  0  0  0  0  0  0  0  0  0  0  0
   -0.7943   -0.1240   -0.0575 C   0  0  0  0  0  0  0  0  0  0  0  0
   -0.2763    0.0676   -1.0037 H   0  0  0  0  0  0  0  0  0  0  0  0
   -1.8538   -0.2354   -0.3108 H   0  0  0  0  0  0  0  0  0  0  0  0
   -0.7310    1.1889    0.7760 C   0  0  0  0  0  0  0  0  0  0  0  0
    0.2512    1.6199    0.5520 H   0  0  0  0  0  0  0  0  0  0  0  0
   -1.4782    1.8840    0.3780 H   0  0  0  0  0  0  0  0  0  0  0  0
   -0.8579    1.1686    2.3061 C   0  0  0  0  0  0  0  0  0  0  0  0
   -1.9118    1.0525    2.5818 H   0  0  0  0  0  0  0  0  0  0  0  0
   -0.3168    0.3423    2.7509 H   0  0  0  0  0  0  0  0  0  0  0  0
   -0.3074    2.4140    2.8710 N   0  3  0  0  0  0  0  0  0  0  0  0
   -0.8984    3.2435    2.8395 H   0  0  0  0  0  0  0  0  0  0  0  0
    0.8916    2.4949    3.3796 C   0  0  0  0  0  0  0  0  0  0  0  0
    1.7493    1.4177    3.4383 N   0  0  0  0  0  0  0  0  0  0  0  0
    1.4920    0.5519    2.9497 H   0  0  0  0  0  0  0  0  0  0  0  0
    2.7384    1.5801    3.6084 H   0  0  0  0  0  0  0  0  0  0  0  0
    1.3324    3.6985    3.8756 N   0  0  0  0  0  0  0  0  0  0  0  0
    0.6585    4.4488    4.0122 H   0  0  0  0  0  0  0  0  0  0  0  0
    2.1758    3.7036    4.4463 H   0  0  0  0  0  0  0  0  0  0  0  0
    0.1952   -1.6613    1.9023 C   0  0  0  0  0  0  0  0  0  0  0  0
    1.2737   -1.1525    2.2001 O   0  0  0  0  0  0  0  0  0  0  0  0
   -0.7064   -1.8997    2.9263 N   0  0  0  0  0  0  0  0  0  0  0  0
   -1.5478   -2.3935    2.6369 H   0  0  0  0  0  0  0  0  0  0  0  0
   -0.2855   -2.0529    4.3158 C   0  0  0  0  0  0  0  0  0  0  0  0
    0.4387   -2.8699    4.4083 H   0  0  0  0  0  0  0  0  0  0  0  0
    0.1743   -1.1313    4.6865 H   0  0  0  0  0  0  0  0  0  0  0  0
   -1.1479   -2.2834    4.9494 H   0  0  0  0  0  0  0  0  0  0  0  0
  1  2  1  0  0  0  0
  2  3  1  0  0  0  0
  2  4  1  0  0  0  0
  2  5  1  0  0  0  0
  5  6  2  0  0  0  0
  5  7  1  0  0  0  0
  7  8  1  0  0  0  0
  7  9  1  0  0  0  0
  9 10  1  0  0  0  0
  9 11  1  0  0  0  0
  9 29  1  0  0  0  0
 11 12  1  0  0  0  0
 11 13  1  0  0  0  0
 11 14  1  0  0  0  0
 14 15  1  0  0  0  0
 14 16  1  0  0  0  0
 14 17  1  0  0  0  0
 17 18  1  0  0  0  0
 17 19  1  0  0  0  0
 17 20  1  0  0  0  0
 20 21  1  0  0  0  0
 20 22  2  0  0  0  0
 22 23  1  0  0  0  0
 22 26  1  0  0  0  0
 23 24  1  0  0  0  0
 23 25  1  0  0  0  0
 26 27  1  0  0  0  0
 26 28  1  0  0  0  0
 29 30  2  0  0  0  0
 29 31  1  0  0  0  0
 31 32  1  0  0  0  0
 31 33  1  0  0  0  0
 33 34  1  0  0  0  0
 33 35  1  0  0  0  0
 33 36  1  0  0  0  0
M  CHG  1  20   1
M  END
$$$$

  -OEChem-04042215563D

 36 35  0     1  0  0  0  0  0999 V2000
   -3.3540   -5.3234    0.0427 H   0  0  0  0  0  0  0  0  0  0  0  0
   -3.1716   -4.3038   -0.3097 C   0  0  0  0  0  0  0  0  0  0  0  0
   -4.0721   -3.7082   -0.1418 H   0  0  0  0  0  0  0  0  0  0  0  0
   -2.9578   -4.3376   -1.3807 H   0  0  0  0  0  0  0  0  0  0  0  0
   -1.9982   -3.6979    0.4364 C   0  0  0  0  0  0  0  0  0  0  0  0
   -1.4313   -4.3368    1.3045 O   0  0  0  0  0  0  0  0  0  0  0  0
   -1.5783   -2.4115    0.1458 N   0  0  0  0  0  0  0  0  0  0  0  0
   -2.0249   -1.9644   -0.6508 H   0  0  0  0  0  0  0  0  0  0  0  0
   -0.3450   -1.8063    0.6912 C   0  0  1  0  0  0  0  0  0  0  0  0
    0.4630   -2.5166    0.4768 H   0  0  0  0  0  0  0  0  0  0  0  0
    0.0088   -0.5274   -0.1387 C   0  0  0  0  0  0  0  0  0  0  0  0
    0.7756   -0.8262   -0.8623 H   0  0  0  0  0  0  0  0  0  0  0  0
   -0.8825   -0.2954   -0.7312 H   0  0  0  0  0  0  0  0  0  0  0  0
    0.4463    0.8542    0.4432 C   0  0  0  0  0  0  0  0  0  0  0  0
    1.5236    0.9068    0.2504 H   0  0  0  0  0  0  0  0  0  0  0  0
   -0.0144    1.6430   -0.1618 H   0  0  0  0  0  0  0  0  0  0  0  0
    0.2536    1.2224    1.9243 C   0  0  0  0  0  0  0  0  0  0  0  0
   -0.7252    1.6987    2.0480 H   0  0  0  0  0  0  0  0  0  0  0  0
    0.2628    0.3563    2.5696 H   0  0  0  0  0  0  0  0  0  0  0  0
    1.3257    2.1278    2.3779 N   0  3  0  0  0  0  0  0  0  0  0  0
    1.3113    3.0831    2.0243 H   0  0  0  0  0  0  0  0  0  0  0  0
    2.2789    1.7562    3.1880 C   0  0  0  0  0  0  0  0  0  0  0  0
    2.3702    0.4791    3.6982 N   0  0  0  0  0  0  0  0  0  0  0  0
    3.2423    0.1751    4.1232 H   0  0  0  0  0  0  0  0  0  0  0  0
    1.7496   -0.2491    3.3260 H   0  0  0  0  0  0  0  0  0  0  0  0
    3.2402    2.6672    3.5551 N   0  0  0  0  0  0  0  0  0  0  0  0
    3.0850    3.6516    3.3493 H   0  0  0  0  0  0  0  0  0  0  0  0
    3.8500    2.4333    4.3364 H   0  0  0  0  0  0  0  0  0  0  0  0
   -0.3446   -1.7346    2.2319 C   0  0  0  0  0  0  0  0  0  0  0  0
    0.7288   -1.7368    2.8314 O   0  0  0  0  0  0  0  0  0  0  0  0
   -1.4746   -1.3009    2.9019 N   0  0  0  0  0  0  0  0  0  0  0  0
   -2.3458   -1.4221    2.3908 H   0  0  0  0  0  0  0  0  0  0  0  0
   -1.5474   -1.2519    4.3587 C   0  0  0  0  0  0  0  0  0  0  0  0
   -2.5383   -0.9135    4.6772 H   0  0  0  0  0  0  0  0  0  0  0  0
   -1.3686   -2.2458    4.7836 H   0  0  0  0  0  0  0  0  0  0  0  0
   -0.8026   -0.5580    4.7617 H   0  0  0  0  0  0  0  0  0  0  0  0
  1  2  1  0  0  0  0
  2  3  1  0  0  0  0
  2  4  1  0  0  0  0
  2  5  1  0  0  0  0
  5  6  2  0  0  0  0
  5  7  1  0  0  0  0
  7  8  1  0  0  0  0
  7  9  1  0  0  0  0
  9 10  1  0  0  0  0
  9 11  1  0  0  0  0
  9 29  1  0  0  0  0
 11 12  1  0  0  0  0
 11 13  1  0  0  0  0
 11 14  1  0  0  0  0
 14 15  1  0  0  0  0
 14 16  1  0  0  0  0
 14 17  1  0  0  0  0
 17 18  1  0  0  0  0
 17 19  1  0  0  0  0
 17 20  1  0  0  0  0
 20 21  1  0  0  0  0
 20 22  2  0  0  0  0
 22 23  1  0  0  0  0
 22 26  1  0  0  0  0
 23 24  1  0  0  0  0
 23 25  1  0  0  0  0
 26 27  1  0  0  0  0
 26 28  1  0  0  0  0
 29 30  2  0  0  0  0
 29 31  1  0  0  0  0
 31 32  1  0  0  0  0
 31 33  1  0  0  0  0
 33 34  1  0  0  0  0
 33 35  1  0  0  0  0
 33 36  1  0  0  0  0
M  CHG  1  20   1
M  END
$$$$

  -OEChem-04042215563D

 36 35  0     1  0  0  0  0  0999 V2000
   -3.2285   -5.3909    0.3347 H   0  0  0  0  0  0  0  0  0  0  0  0
   -3.1468   -4.3538   -0.0039 C   0  0  0  0  0  0  0  0  0  0  0  0
   -3.9893   -3.7866    0.3984 H   0  0  0  0  0  0  0  0  0  0  0  0
   -3.1921   -4.3381   -1.0956 H   0  0  0  0  0  0  0  0  0  0  0  0
   -1.8382   -3.7518    0.4709 C   0  0  0  0  0  0  0  0  0  0  0  0
   -1.0662   -4.4201    1.1341 O   0  0  0  0  0  0  0  0  0  0  0  0
   -1.5260   -2.4406    0.1549 N   0  0  0  0  0  0  0  0  0  0  0  0
   -2.1606   -1.9775   -0.4905 H   0  0  0  0  0  0  0  0  0  0  0  0
   -0.2128   -1.8111    0.4157 C   0  0  1  0  0  0  0  0  0  0  0  0
    0.5648   -2.4325   -0.0444 H   0  0  0  0  0  0  0  0  0  0  0  0
   -0.2178   -0.4317   -0.3447 C   0  0  0  0  0  0  0  0  0  0  0  0
    0.3764   -0.6008   -1.2496 H   0  0  0  0  0  0  0  0  0  0  0  0
   -1.2373   -0.2314   -0.6914 H   0  0  0  0  0  0  0  0  0  0  0  0
    0.2874    0.9136    0.2609 C   0  0  0  0  0  0  0  0  0  0  0  0
    0.8652    1.4365   -0.5092 H   0  0  0  0  0  0  0  0  0  0  0  0
   -0.5797    1.5394    0.4979 H   0  0  0  0  0  0  0  0  0  0  0  0
    1.1301    0.7898    1.5166 C   0  0  0  0  0  0  0  0  0  0  0  0
    0.4794    0.5209    2.3550 H   0  0  0  0  0  0  0  0  0  0  0  0
    1.8371   -0.0267    1.3401 H   0  0  0  0  0  0  0  0  0  0  0  0
    1.9121    1.9757    1.8865 N   0  3  0  0  0  0  0  0  0  0  0  0
    1.6126    2.8864    1.5421 H   0  0  0  0  0  0  0  0  0  0  0  0
    2.9100    1.8675    2.7179 C   0  0  0  0  0  0  0  0  0  0  0  0
    3.2845    0.6411    3.2315 N   0  0  0  0  0  0  0  0  0  0  0  0
    2.6981   -0.1750    3.0292 H   0  0  0  0  0  0  0  0  0  0  0  0
    3.9025    0.6011    4.0382 H   0  0  0  0  0  0  0  0  0  0  0  0
    3.6075    2.9877    3.1017 N   0  0  0  0  0  0  0  0  0  0  0  0
    3.4640    3.8525    2.5846 H   0  0  0  0  0  0  0  0  0  0  0  0
    4.4977    2.8593    3.5792 H   0  0  0  0  0  0  0  0  0  0  0  0
    0.0944   -1.8382    1.9398 C   0  0  0  0  0  0  0  0  0  0  0  0
    1.2516   -1.9224    2.3492 O   0  0  0  0  0  0  0  0  0  0  0  0
   -0.8956   -1.4878    2.8415 N   0  0  0  0  0  0  0  0  0  0  0  0
   -1.8432   -1.5596    2.4796 H   0  0  0  0  0  0  0  0  0  0  0  0
   -0.7154   -1.6202    4.2837 C   0  0  0  0  0  0  0  0  0  0  0  0
    0.1230   -1.0066    4.6292 H   0  0  0  0  0  0  0  0  0  0  0  0
   -1.6180   -1.2934    4.8097 H   0  0  0  0  0  0  0  0  0  0  0  0
   -0.5194   -2.6652    4.5483 H   0  0  0  0  0  0  0  0  0  0  0  0
  1  2  1  0  0  0  0
  2  3  1  0  0  0  0
  2  4  1  0  0  0  0
  2  5  1  0  0  0  0
  5  6  2  0  0  0  0
  5  7  1  0  0  0  0
  7  8  1  0  0  0  0
  7  9  1  0  0  0  0
  9 10  1  0  0  0  0
  9 11  1  0  0  0  0
  9 29  1  0  0  0  0
 11 12  1  0  0  0  0
 11 13  1  0  0  0  0
 11 14  1  0  0  0  0
 14 15  1  0  0  0  0
 14 16  1  0  0  0  0
 14 17  1  0  0  0  0
 17 18  1  0  0  0  0
 17 19  1  0  0  0  0
 17 20  1  0  0  0  0
 20 21  1  0  0  0  0
 20 22  2  0  0  0  0
 22 23  1  0  0  0  0
 22 26  1  0  0  0  0
 23 24  1  0  0  0  0
 23 25  1  0  0  0  0
 26 27  1  0  0  0  0
 26 28  1  0  0  0  0
 29 30  2  0  0  0  0
 29 31  1  0  0  0  0
 31 32  1  0  0  0  0
 31 33  1  0  0  0  0
 33 34  1  0  0  0  0
 33 35  1  0  0  0  0
 33 36  1  0  0  0  0
M  CHG  1  20   1
M  END
$$$$

  -OEChem-04042215563D

 36 35  0     1  0  0  0  0  0999 V2000
   -3.2300   -5.3566    0.4592 H   0  0  0  0  0  0  0  0  0  0  0  0
   -3.1665   -4.3249    0.1010 C   0  0  0  0  0  0  0  0  0  0  0  0
   -3.9826   -3.7494    0.5441 H   0  0  0  0  0  0  0  0  0  0  0  0
   -3.2765   -4.3253   -0.9861 H   0  0  0  0  0  0  0  0  0  0  0  0
   -1.8306   -3.7201    0.4885 C   0  0  0  0  0  0  0  0  0  0  0  0
   -1.0164   -4.3862    1.1015 O   0  0  0  0  0  0  0  0  0  0  0  0
   -1.5399   -2.4092    0.1510 N   0  0  0  0  0  0  0  0  0  0  0  0
   -2.2134   -1.9456   -0.4534 H   0  0  0  0  0  0  0  0  0  0  0  0
   -0.2156   -1.7782    0.3396 C   0  0  1  0  0  0  0  0  0  0  0  0
    0.5358   -2.3940   -0.1685 H   0  0  0  0  0  0  0  0  0  0  0  0
   -0.2681   -0.3923   -0.3987 C   0  0  0  0  0  0  0  0  0  0  0  0
    0.2766   -0.5405   -1.3374 H   0  0  0  0  0  0  0  0  0  0  0  0
   -1.3051   -0.1802   -0.6802 H   0  0  0  0  0  0  0  0  0  0  0  0
    0.2784    0.9232    0.2253 C   0  0  0  0  0  0  0  0  0  0  0  0
    0.5761    1.5893   -0.5915 H   0  0  0  0  0  0  0  0  0  0  0  0
   -0.5290    1.4186    0.7752 H   0  0  0  0  0  0  0  0  0  0  0  0
    1.4470    0.7282    1.1794 C   0  0  0  0  0  0  0  0  0  0  0  0
    1.0464    0.3877    2.1390 H   0  0  0  0  0  0  0  0  0  0  0  0
    2.0902   -0.0591    0.7695 H   0  0  0  0  0  0  0  0  0  0  0  0
    2.2700    1.9160    1.4378 N   0  3  0  0  0  0  0  0  0  0  0  0
    2.1009    2.7576    0.8893 H   0  0  0  0  0  0  0  0  0  0  0  0
    3.2540    1.8568    2.2899 C   0  0  0  0  0  0  0  0  0  0  0  0
    3.5166    0.7006    2.9975 N   0  0  0  0  0  0  0  0  0  0  0  0
    2.9958   -0.1454    2.7470 H   0  0  0  0  0  0  0  0  0  0  0  0
    4.4272    0.5860    3.4359 H   0  0  0  0  0  0  0  0  0  0  0  0
    4.0553    2.9546    2.4927 N   0  0  0  0  0  0  0  0  0  0  0  0
    3.7549    3.8534    2.1219 H   0  0  0  0  0  0  0  0  0  0  0  0
    4.6783    2.9538    3.2982 H   0  0  0  0  0  0  0  0  0  0  0  0
    0.1858   -1.7926    1.8400 C   0  0  0  0  0  0  0  0  0  0  0  0
    1.3653   -1.9038    2.1724 O   0  0  0  0  0  0  0  0  0  0  0  0
   -0.7433   -1.4366    2.8010 N   0  0  0  0  0  0  0  0  0  0  0  0
   -1.7124   -1.4924    2.4988 H   0  0  0  0  0  0  0  0  0  0  0  0
   -0.4732   -1.5566    4.2299 C   0  0  0  0  0  0  0  0  0  0  0  0
    0.3933   -0.9509    4.5143 H   0  0  0  0  0  0  0  0  0  0  0  0
   -1.3365   -1.2123    4.8081 H   0  0  0  0  0  0  0  0  0  0  0  0
   -0.2735   -2.6011    4.4938 H   0  0  0  0  0  0  0  0  0  0  0  0
  1  2  1  0  0  0  0
  2  3  1  0  0  0  0
  2  4  1  0  0  0  0
  2  5  1  0  0  0  0
  5  6  2  0  0  0  0
  5  7  1  0  0  0  0
  7  8  1  0  0  0  0
  7  9  1  0  0  0  0
  9 10  1  0  0  0  0
  9 11  1  0  0  0  0
  9 29  1  0  0  0  0
 11 12  1  0  0  0  0
 11 13  1  0  0  0  0
 11 14  1  0  0  0  0
 14 15  1  0  0  0  0
 14 16  1  0  0  0  0
 14 17  1  0  0  0  0
 17 18  1  0  0  0  0
 17 19  1  0  0  0  0
 17 20  1  0  0  0  0
 20 21  1  0  0  0  0
 20 22  2  0  0  0  0
 22 23  1  0  0  0  0
 22 26  1  0  0  0  0
 23 24  1  0  0  0  0
 23 25  1  0  0  0  0
 26 27  1  0  0  0  0
 26 28  1  0  0  0  0
 29 30  2  0  0  0  0
 29 31  1  0  0  0  0
 31 32  1  0  0  0  0
 31 33  1  0  0  0  0
 33 34  1  0  0  0  0
 33 35  1  0  0  0  0
 33 36  1  0  0  0  0
M  CHG  1  20   1
M  END
$$$$

  -OEChem-04042215563D

 36 35  0     1  0  0  0  0  0999 V2000
   -3.1040   -5.1274    1.2616 H   0  0  0  0  0  0  0  0  0  0  0  0
   -3.0800   -4.1714    0.7302 C   0  0  0  0  0  0  0  0  0  0  0  0
   -3.8221   -3.5047    1.1755 H   0  0  0  0  0  0  0  0  0  0  0  0
   -3.3380   -4.3471   -0.3169 H   0  0  0  0  0  0  0  0  0  0  0  0
   -1.6974   -3.5557    0.8292 C   0  0  0  0  0  0  0  0  0  0  0  0
   -0.8172   -4.1357    1.4384 O   0  0  0  0  0  0  0  0  0  0  0  0
   -1.4441   -2.3304    0.2355 N   0  0  0  0  0  0  0  0  0  0  0  0
   -2.1843   -1.9735   -0.3635 H   0  0  0  0  0  0  0  0  0  0  0  0
   -0.0999   -1.7226    0.1127 C   0  0  1  0  0  0  0  0  0  0  0  0
    0.5720   -2.3971   -0.4311 H   0  0  0  0  0  0  0  0  0  0  0  0
   -0.3022   -0.4110   -0.7139 C   0  0  0  0  0  0  0  0  0  0  0  0
    0.0319   -0.6363   -1.7325 H   0  0  0  0  0  0  0  0  0  0  0  0
   -1.3734   -0.1903   -0.7828 H   0  0  0  0  0  0  0  0  0  0  0  0
    0.3757    0.9176   -0.2962 C   0  0  0  0  0  0  0  0  0  0  0  0
    0.2617    1.6509   -1.1020 H   0  0  0  0  0  0  0  0  0  0  0  0
   -0.1807    1.2989    0.5671 H   0  0  0  0  0  0  0  0  0  0  0  0
    1.8603    0.8223    0.0892 C   0  0  0  0  0  0  0  0  0  0  0  0
    2.1233   -0.1946    0.3680 H   0  0  0  0  0  0  0  0  0  0  0  0
    2.4587    1.0579   -0.7980 H   0  0  0  0  0  0  0  0  0  0  0  0
    2.1990    1.7702    1.1694 N   0  3  0  0  0  0  0  0  0  0  0  0
    1.8303    2.7155    1.0841 H   0  0  0  0  0  0  0  0  0  0  0  0
    3.0258    1.5003    2.1412 C   0  0  0  0  0  0  0  0  0  0  0  0
    3.5844    0.2567    2.3191 N   0  0  0  0  0  0  0  0  0  0  0  0
    3.0789   -0.5334    1.9019 H   0  0  0  0  0  0  0  0  0  0  0  0
    4.0525    0.0683    3.2010 H   0  0  0  0  0  0  0  0  0  0  0  0
    3.3702    2.4952    3.0250 N   0  0  0  0  0  0  0  0  0  0  0  0
    3.1303    3.4570    2.7944 H   0  0  0  0  0  0  0  0  0  0  0  0
    4.1701    2.3377    3.6351 H   0  0  0  0  0  0  0  0  0  0  0  0
    0.4890   -1.5194    1.5346 C   0  0  0  0  0  0  0  0  0  0  0  0
    1.6752   -1.7332    1.7646 O   0  0  0  0  0  0  0  0  0  0  0  0
   -0.2974   -0.9874    2.5415 N   0  0  0  0  0  0  0  0  0  0  0  0
   -1.2957   -1.0011    2.3476 H   0  0  0  0  0  0  0  0  0  0  0  0
    0.1135   -1.0127    3.9413 C   0  0  0  0  0  0  0  0  0  0  0  0
    1.0284   -0.4301    4.0871 H   0  0  0  0  0  0  0  0  0  0  0  0
   -0.6706   -0.5852    4.5741 H   0  0  0  0  0  0  0  0  0  0  0  0
    0.2962   -2.0433    4.2664 H   0  0  0  0  0  0  0  0  0  0  0  0
  1  2  1  0  0  0  0
  2  3  1  0  0  0  0
  2  4  1  0  0  0  0
  2  5  1  0  0  0  0
  5  6  2  0  0  0  0
  5  7  1  0  0  0  0
  7  8  1  0  0  0  0
  7  9  1  0  0  0  0
  9 10  1  0  0  0  0
  9 11  1  0  0  0  0
  9 29  1  0  0  0  0
 11 12  1  0  0  0  0
 11 13  1  0  0  0  0
 11 14  1  0  0  0  0
 14 15  1  0  0  0  0
 14 16  1  0  0  0  0
 14 17  1  0  0  0  0
 17 18  1  0  0  0  0
 17 19  1  0  0  0  0
 17 20  1  0  0  0  0
 20 21  1  0  0  0  0
 20 22  2  0  0  0  0
 22 23  1  0  0  0  0
 22 26  1  0  0  0  0
 23 24  1  0  0  0  0
 23 25  1  0  0  0  0
 26 27  1  0  0  0  0
 26 28  1  0  0  0  0
 29 30  2  0  0  0  0
 29 31  1  0  0  0  0
 31 32  1  0  0  0  0
 31 33  1  0  0  0  0
 33 34  1  0  0  0  0
 33 35  1  0  0  0  0
 33 36  1  0  0  0  0
M  CHG  1  20   1
M  END
$$$$

  -OEChem-04042215563D

 36 35  0     1  0  0  0  0  0999 V2000
   -2.8746   -5.2638    1.1709 H   0  0  0  0  0  0  0  0  0  0  0  0
   -2.9240   -4.3063    0.6441 C   0  0  0  0  0  0  0  0  0  0  0  0
   -3.7091   -3.6970    1.0977 H   0  0  0  0  0  0  0  0  0  0  0  0
   -3.1757   -4.4957   -0.4021 H   0  0  0  0  0  0  0  0  0  0  0  0
   -1.5887   -3.5931    0.7357 C   0  0  0  0  0  0  0  0  0  0  0  0
   -0.6486   -4.1340    1.2894 O   0  0  0  0  0  0  0  0  0  0  0  0
   -1.4386   -2.3302    0.1880 N   0  0  0  0  0  0  0  0  0  0  0  0
   -2.2205   -1.9941   -0.3684 H   0  0  0  0  0  0  0  0  0  0  0  0
   -0.1424   -1.6285    0.0656 C   0  0  1  0  0  0  0  0  0  0  0  0
    0.5550   -2.2459   -0.5128 H   0  0  0  0  0  0  0  0  0  0  0  0
   -0.4136   -0.3036   -0.7147 C   0  0  0  0  0  0  0  0  0  0  0  0
   -0.0949   -0.4593   -1.7510 H   0  0  0  0  0  0  0  0  0  0  0  0
   -1.4938   -0.1232   -0.7438 H   0  0  0  0  0  0  0  0  0  0  0  0
    0.2257    1.0059   -0.2033 C   0  0  0  0  0  0  0  0  0  0  0  0
   -0.0899    1.8382   -0.8416 H   0  0  0  0  0  0  0  0  0  0  0  0
   -0.1489    1.2094    0.8057 H   0  0  0  0  0  0  0  0  0  0  0  0
    1.7597    0.9421   -0.1831 C   0  0  0  0  0  0  0  0  0  0  0  0
    2.0967   -0.0573    0.0893 H   0  0  0  0  0  0  0  0  0  0  0  0
    2.1303    1.1286   -1.1971 H   0  0  0  0  0  0  0  0  0  0  0  0
    2.3195    1.9485    0.7400 N   0  3  0  0  0  0  0  0  0  0  0  0
    2.0030    2.9090    0.6210 H   0  0  0  0  0  0  0  0  0  0  0  0
    3.2584    1.6949    1.6091 C   0  0  0  0  0  0  0  0  0  0  0  0
    3.7453    0.4282    1.8296 N   0  0  0  0  0  0  0  0  0  0  0  0
    3.1355   -0.3499    1.5534 H   0  0  0  0  0  0  0  0  0  0  0  0
    4.3159    0.2748    2.6562 H   0  0  0  0  0  0  0  0  0  0  0  0
    3.7994    2.7297    2.3343 N   0  0  0  0  0  0  0  0  0  0  0  0
    3.6018    3.6842    2.0419 H   0  0  0  0  0  0  0  0  0  0  0  0
    4.6671    2.5575    2.8387 H   0  0  0  0  0  0  0  0  0  0  0  0
    0.4827   -1.4316    1.4740 C   0  0  0  0  0  0  0  0  0  0  0  0
    1.6968   -1.5012    1.6390 O   0  0  0  0  0  0  0  0  0  0  0  0
   -0.3050   -0.9893    2.5221 N   0  0  0  0  0  0  0  0  0  0  0  0
   -1.3060   -1.0973    2.3789 H   0  0  0  0  0  0  0  0  0  0  0  0
    0.1784   -0.9293    3.8971 C   0  0  0  0  0  0  0  0  0  0  0  0
    1.0523   -0.2745    3.9728 H   0  0  0  0  0  0  0  0  0  0  0  0
   -0.6024   -0.5355    4.5553 H   0  0  0  0  0  0  0  0  0  0  0  0
    0.4556   -1.9294    4.2482 H   0  0  0  0  0  0  0  0  0  0  0  0
  1  2  1  0  0  0  0
  2  3  1  0  0  0  0
  2  4  1  0  0  0  0
  2  5  1  0  0  0  0
  5  6  2  0  0  0  0
  5  7  1  0  0  0  0
  7  8  1  0  0  0  0
  7  9  1  0  0  0  0
  9 10  1  0  0  0  0
  9 11  1  0  0  0  0
  9 29  1  0  0  0  0
 11 12  1  0  0  0  0
 11 13  1  0  0  0  0
 11 14  1  0  0  0  0
 14 15  1  0  0  0  0
 14 16  1  0  0  0  0
 14 17  1  0  0  0  0
 17 18  1  0  0  0  0
 17 19  1  0  0  0  0
 17 20  1  0  0  0  0
 20 21  1  0  0  0  0
 20 22  2  0  0  0  0
 22 23  1  0  0  0  0
 22 26  1  0  0  0  0
 23 24  1  0  0  0  0
 23 25  1  0  0  0  0
 26 27  1  0  0  0  0
 26 28  1  0  0  0  0
 29 30  2  0  0  0  0
 29 31  1  0  0  0  0
 31 32  1  0  0  0  0
 31 33  1  0  0  0  0
 33 34  1  0  0  0  0
 33 35  1  0  0  0  0
 33 36  1  0  0  0  0
M  CHG  1  20   1
M  END
$$$$

  -OEChem-04042215563D

 36 35  0     1  0  0  0  0  0999 V2000
   -2.7312   -5.3415    1.0607 H   0  0  0  0  0  0  0  0  0  0  0  0
   -2.8447   -4.3664    0.5778 C   0  0  0  0  0  0  0  0  0  0  0  0
   -3.6356   -3.8126    1.0889 H   0  0  0  0  0  0  0  0  0  0  0  0
   -3.1328   -4.5236   -0.4645 H   0  0  0  0  0  0  0  0  0  0  0  0
   -1.5394   -3.5975    0.6474 C   0  0  0  0  0  0  0  0  0  0  0  0
   -0.5538   -4.1153    1.1415 O   0  0  0  0  0  0  0  0  0  0  0  0
   -1.4669   -2.3043    0.1590 N   0  0  0  0  0  0  0  0  0  0  0  0
   -2.2857   -1.9707   -0.3435 H   0  0  0  0  0  0  0  0  0  0  0  0
   -0.2060   -1.5458    0.0264 C   0  0  1  0  0  0  0  0  0  0  0  0
    0.4839   -2.1358   -0.5884 H   0  0  0  0  0  0  0  0  0  0  0  0
   -0.4964   -0.2181   -0.7354 C   0  0  0  0  0  0  0  0  0  0  0  0
   -0.1932   -0.3413   -1.7807 H   0  0  0  0  0  0  0  0  0  0  0  0
   -1.5794   -0.0536   -0.7413 H   0  0  0  0  0  0  0  0  0  0  0  0
    0.1344    1.0721   -0.1721 C   0  0  0  0  0  0  0  0  0  0  0  0
   -0.3459    1.9380   -0.6402 H   0  0  0  0  0  0  0  0  0  0  0  0
   -0.0396    1.1556    0.9051 H   0  0  0  0  0  0  0  0  0  0  0  0
    1.6328    1.1104   -0.4930 C   0  0  0  0  0  0  0  0  0  0  0  0
    2.0841    0.1398   -0.2709 H   0  0  0  0  0  0  0  0  0  0  0  0
    1.7641    1.2859   -1.5665 H   0  0  0  0  0  0  0  0  0  0  0  0
    2.3059    2.1771    0.2730 N   0  3  0  0  0  0  0  0  0  0  0  0
    2.0241    3.1351    0.0724 H   0  0  0  0  0  0  0  0  0  0  0  0
    3.2823    1.9663    1.1117 C   0  0  0  0  0  0  0  0  0  0  0  0
    3.7218    0.7056    1.4411 N   0  0  0  0  0  0  0  0  0  0  0  0
    3.0788   -0.0727    1.2551 H   0  0  0  0  0  0  0  0  0  0  0  0
    4.3271    0.6043    2.2510 H   0  0  0  0  0  0  0  0  0  0  0  0
    3.9132    3.0405    1.6925 N   0  0  0  0  0  0  0  0  0  0  0  0
    3.7444    3.9686    1.3110 H   0  0  0  0  0  0  0  0  0  0  0  0
    4.7995    2.8753    2.1656 H   0  0  0  0  0  0  0  0  0  0  0  0
    0.4969   -1.3713    1.3981 C   0  0  0  0  0  0  0  0  0  0  0  0
    1.7201   -1.2855    1.4538 O   0  0  0  0  0  0  0  0  0  0  0  0
   -0.2398   -1.0037    2.5100 N   0  0  0  0  0  0  0  0  0  0  0  0
   -1.2370   -1.1935    2.4466 H   0  0  0  0  0  0  0  0  0  0  0  0
    0.3469   -0.8994    3.8417 C   0  0  0  0  0  0  0  0  0  0  0  0
    1.0955   -0.1014    3.8730 H   0  0  0  0  0  0  0  0  0  0  0  0
   -0.4286   -0.6719    4.5799 H   0  0  0  0  0  0  0  0  0  0  0  0
    0.8254   -1.8436    4.1241 H   0  0  0  0  0  0  0  0  0  0  0  0
  1  2  1  0  0  0  0
  2  3  1  0  0  0  0
  2  4  1  0  0  0  0
  2  5  1  0  0  0  0
  5  6  2  0  0  0  0
  5  7  1  0  0  0  0
  7  8  1  0  0  0  0
  7  9  1  0  0  0  0
  9 10  1  0  0  0  0
  9 11  1  0  0  0  0
  9 29  1  0  0  0  0
 11 12  1  0  0  0  0
 11 13  1  0  0  0  0
 11 14  1  0  0  0  0
 14 15  1  0  0  0  0
 14 16  1  0  0  0  0
 14 17  1  0  0  0  0
 17 18  1  0  0  0  0
 17 19  1  0  0  0  0
 17 20  1  0  0  0  0
 20 21  1  0  0  0  0
 20 22  2  0  0  0  0
 22 23  1  0  0  0  0
 22 26  1  0  0  0  0
 23 24  1  0  0  0  0
 23 25  1  0  0  0  0
 26 27  1  0  0  0  0
 26 28  1  0  0  0  0
 29 30  2  0  0  0  0
 29 31  1  0  0  0  0
 31 32  1  0  0  0  0
 31 33  1  0  0  0  0
 33 34  1  0  0  0  0
 33 35  1  0  0  0  0
 33 36  1  0  0  0  0
M  CHG  1  20   1
M  END
$$$$

  -OEChem-04042215563D

 36 35  0     1  0  0  0  0  0999 V2000
   -2.6184   -5.3975    0.9613 H   0  0  0  0  0  0  0  0  0  0  0  0
   -2.7856   -4.4052    0.5320 C   0  0  0  0  0  0  0  0  0  0  0  0
   -3.5686   -3.9030    1.1051 H   0  0  0  0  0  0  0  0  0  0  0  0
   -3.1172   -4.5229   -0.5025 H   0  0  0  0  0  0  0  0  0  0  0  0
   -1.5039   -3.5957    0.5780 C   0  0  0  0  0  0  0  0  0  0  0  0
   -0.4794   -4.0983    1.0046 O   0  0  0  0  0  0  0  0  0  0  0  0
   -1.4948   -2.2802    0.1492 N   0  0  0  0  0  0  0  0  0  0  0  0
   -2.3499   -1.9430   -0.2856 H   0  0  0  0  0  0  0  0  0  0  0  0
   -0.2653   -1.4771   -0.0014 C   0  0  1  0  0  0  0  0  0  0  0  0
    0.4067   -2.0483   -0.6526 H   0  0  0  0  0  0  0  0  0  0  0  0
   -0.5794   -0.1523   -0.7553 C   0  0  0  0  0  0  0  0  0  0  0  0
   -0.2955   -0.2634   -1.8077 H   0  0  0  0  0  0  0  0  0  0  0  0
   -1.6652   -0.0096   -0.7418 H   0  0  0  0  0  0  0  0  0  0  0  0
    0.0348    1.1427   -0.1792 C   0  0  0  0  0  0  0  0  0  0  0  0
   -0.6070    1.9866   -0.4547 H   0  0  0  0  0  0  0  0  0  0  0  0
    0.0836    1.1383    0.9127 H   0  0  0  0  0  0  0  0  0  0  0  0
    1.4108    1.3692   -0.8085 C   0  0  0  0  0  0  0  0  0  0  0  0
    1.9925    0.4427   -0.7494 H   0  0  0  0  0  0  0  0  0  0  0  0
    1.2901    1.6105   -1.8704 H   0  0  0  0  0  0  0  0  0  0  0  0
    2.1277    2.4604   -0.1222 N   0  3  0  0  0  0  0  0  0  0  0  0
    1.8381    3.4119   -0.3423 H   0  0  0  0  0  0  0  0  0  0  0  0
    3.1446    2.2732    0.6728 C   0  0  0  0  0  0  0  0  0  0  0  0
    3.5933    1.0220    1.0259 N   0  0  0  0  0  0  0  0  0  0  0  0
    2.9453    0.2364    0.8972 H   0  0  0  0  0  0  0  0  0  0  0  0
    4.2442    0.9455    1.8024 H   0  0  0  0  0  0  0  0  0  0  0  0
    3.8094    3.3636    1.1806 N   0  0  0  0  0  0  0  0  0  0  0  0
    3.6274    4.2776    0.7718 H   0  0  0  0  0  0  0  0  0  0  0  0
    4.7176    3.2097    1.6145 H   0  0  0  0  0  0  0  0  0  0  0  0
    0.5236   -1.3194    1.3219 C   0  0  0  0  0  0  0  0  0  0  0  0
    1.7317   -1.0996    1.2729 O   0  0  0  0  0  0  0  0  0  0  0  0
   -0.1500   -1.0157    2.4913 N   0  0  0  0  0  0  0  0  0  0  0  0
   -1.1300   -1.2880    2.5050 H   0  0  0  0  0  0  0  0  0  0  0  0
    0.5294   -0.8662    3.7736 C   0  0  0  0  0  0  0  0  0  0  0  0
    1.2096   -0.0090    3.7524 H   0  0  0  0  0  0  0  0  0  0  0  0
   -0.2010   -0.7045    4.5727 H   0  0  0  0  0  0  0  0  0  0  0  0
    1.1043   -1.7684    4.0096 H   0  0  0  0  0  0  0  0  0  0  0  0
  1  2  1  0  0  0  0
  2  3  1  0  0  0  0
  2  4  1  0  0  0  0
  2  5  1  0  0  0  0
  5  6  2  0  0  0  0
  5  7  1  0  0  0  0
  7  8  1  0  0  0  0
  7  9  1  0  0  0  0
  9 10  1  0  0  0  0
  9 11  1  0  0  0  0
  9 29  1  0  0  0  0
 11 12  1  0  0  0  0
 11 13  1  0  0  0  0
 11 14  1  0  0  0  0
 14 15  1  0  0  0  0
 14 16  1  0  0  0  0
 14 17  1  0  0  0  0
 17 18  1  0  0  0  0
 17 19  1  0  0  0  0
 17 20  1  0  0  0  0
 20 21  1  0  0  0  0
 20 22  2  0  0  0  0
 22 23  1  0  0  0  0
 22 26  1  0  0  0  0
 23 24  1  0  0  0  0
 23 25  1  0  0  0  0
 26 27  1  0  0  0  0
 26 28  1  0  0  0  0
 29 30  2  0  0  0  0
 29 31  1  0  0  0  0
 31 32  1  0  0  0  0
 31 33  1  0  0  0  0
 33 34  1  0  0  0  0
 33 35  1  0  0  0  0
 33 36  1  0  0  0  0
M  CHG  1  20   1
M  END
$$$$

  -OEChem-04042215563D

 36 35  0     1  0  0  0  0  0999 V2000
   -2.4892   -5.4298    0.8794 H   0  0  0  0  0  0  0  0  0  0  0  0
   -2.7020   -4.4304    0.4887 C   0  0  0  0  0  0  0  0  0  0  0  0
   -3.4861   -3.9755    1.0986 H   0  0  0  0  0  0  0  0  0  0  0  0
   -3.0571   -4.5251   -0.5403 H   0  0  0  0  0  0  0  0  0  0  0  0
   -1.4482   -3.5781    0.5293 C   0  0  0  0  0  0  0  0  0  0  0  0
   -0.3985   -4.0518    0.9265 O   0  0  0  0  0  0  0  0  0  0  0  0
   -1.4944   -2.2539    0.1317 N   0  0  0  0  0  0  0  0  0  0  0  0
   -2.3704   -1.9369   -0.2761 H   0  0  0  0  0  0  0  0  0  0  0  0
   -0.2961   -1.4070   -0.0261 C   0  0  1  0  0  0  0  0  0  0  0  0
    0.3779   -1.9543   -0.6962 H   0  0  0  0  0  0  0  0  0  0  0  0
   -0.6577   -0.0914   -0.7749 C   0  0  0  0  0  0  0  0  0  0  0  0
   -0.3771   -0.1980   -1.8287 H   0  0  0  0  0  0  0  0  0  0  0  0
   -1.7483    0.0103   -0.7587 H   0  0  0  0  0  0  0  0  0  0  0  0
   -0.0899    1.2327   -0.2064 C   0  0  0  0  0  0  0  0  0  0  0  0
   -0.8771    1.9932   -0.2475 H   0  0  0  0  0  0  0  0  0  0  0  0
    0.2066    1.1699    0.8417 H   0  0  0  0  0  0  0  0  0  0  0  0
    1.0665    1.7102   -1.0843 C   0  0  0  0  0  0  0  0  0  0  0  0
    1.7294    0.8658   -1.3047 H   0  0  0  0  0  0  0  0  0  0  0  0
    0.6745    2.0758   -2.0397 H   0  0  0  0  0  0  0  0  0  0  0  0
    1.8299    2.7738   -0.4054 N   0  3  0  0  0  0  0  0  0  0  0  0
    1.5256    3.7333   -0.5626 H   0  0  0  0  0  0  0  0  0  0  0  0
    2.9008    2.5534    0.3060 C   0  0  0  0  0  0  0  0  0  0  0  0
    3.3672    1.2869    0.5760 N   0  0  0  0  0  0  0  0  0  0  0  0
    2.7032    0.5090    0.4913 H   0  0  0  0  0  0  0  0  0  0  0  0
    4.0832    1.1824    1.2898 H   0  0  0  0  0  0  0  0  0  0  0  0
    3.6051    3.6219    0.8075 N   0  0  0  0  0  0  0  0  0  0  0  0
    3.3964    4.5527    0.4525 H   0  0  0  0  0  0  0  0  0  0  0  0
    4.5402    3.4504    1.1725 H   0  0  0  0  0  0  0  0  0  0  0  0
    0.5303   -1.2409    1.2713 C   0  0  0  0  0  0  0  0  0  0  0  0
    1.7215   -0.9520    1.1747 O   0  0  0  0  0  0  0  0  0  0  0  0
   -0.1123   -0.9802    2.4676 N   0  0  0  0  0  0  0  0  0  0  0  0
   -1.0759   -1.3022    2.5176 H   0  0  0  0  0  0  0  0  0  0  0  0
    0.6094   -0.8028    3.7231 C   0  0  0  0  0  0  0  0  0  0  0  0
    1.2524    0.0821    3.6782 H   0  0  0  0  0  0  0  0  0  0  0  0
   -0.0965   -0.6725    4.5495 H   0  0  0  0  0  0  0  0  0  0  0  0
    1.2307   -1.6801    3.9347 H   0  0  0  0  0  0  0  0  0  0  0  0
  1  2  1  0  0  0  0
  2  3  1  0  0  0  0
  2  4  1  0  0  0  0
  2  5  1  0  0  0  0
  5  6  2  0  0  0  0
  5  7  1  0  0  0  0
  7  8  1  0  0  0  0
  7  9  1  0  0  0  0
  9 10  1  0  0  0  0
  9 11  1  0  0  0  0
  9 29  1  0  0  0  0
 11 12  1  0  0  0  0
 11 13  1  0  0  0  0
 11 14  1  0  0  0  0
 14 15  1  0  0  0  0
 14 16  1  0  0  0  0
 14 17  1  0  0  0  0
 17 18  1  0  0  0  0
 17 19  1  0  0  0  0
 17 20  1  0  0  0  0
 20 21  1  0  0  0  0
 20 22  2  0  0  0  0
 22 23  1  0  0  0  0
 22 26  1  0  0  0  0
 23 24  1  0  0  0  0
 23 25  1  0  0  0  0
 26 27  1  0  0  0  0
 26 28  1  0  0  0  0
 29 30  2  0  0  0  0
 29 31  1  0  0  0  0
 31 32  1  0  0  0  0
 31 33  1  0  0  0  0
 33 34  1  0  0  0  0
 33 35  1  0  0  0  0
 33 36  1  0  0  0  0
M  CHG  1  20   1
M  END
$$$$

  -OEChem-04042215563D

 36 35  0     1  0  0  0  0  0999 V2000
   -2.9317   -5.4280    0.7031 H   0  0  0  0  0  0  0  0  0  0  0  0
   -2.9827   -4.4132    0.2979 C   0  0  0  0  0  0  0  0  0  0  0  0
   -3.8329   -3.8971    0.7500 H   0  0  0  0  0  0  0  0  0  0  0  0
   -3.1329   -4.4752   -0.7825 H   0  0  0  0  0  0  0  0  0  0  0  0
   -1.6976   -3.6674    0.6014 C   0  0  0  0  0  0  0  0  0  0  0  0
   -0.8088   -4.2153    1.2275 O   0  0  0  0  0  0  0  0  0  0  0  0
   -1.5334   -2.3648    0.1653 N   0  0  0  0  0  0  0  0  0  0  0  0
   -2.2697   -1.9935   -0.4286 H   0  0  0  0  0  0  0  0  0  0  0  0
   -0.2634   -1.6167    0.2648 C   0  0  1  0  0  0  0  0  0  0  0  0
    0.5076   -2.2262   -0.2217 H   0  0  0  0  0  0  0  0  0  0  0  0
   -0.3804   -0.3022   -0.5648 C   0  0  0  0  0  0  0  0  0  0  0  0
    0.1220   -0.4740   -1.5230 H   0  0  0  0  0  0  0  0  0  0  0  0
   -1.4367   -0.1378   -0.8026 H   0  0  0  0  0  0  0  0  0  0  0  0
    0.1359    1.0195    0.0642 C   0  0  0  0  0  0  0  0  0  0  0  0
   -0.6928    1.7332    0.1255 H   0  0  0  0  0  0  0  0  0  0  0  0
    0.5144    0.8946    1.0791 H   0  0  0  0  0  0  0  0  0  0  0  0
    1.2455    1.6100   -0.8053 C   0  0  0  0  0  0  0  0  0  0  0  0
    1.9854    0.8275   -1.0085 H   0  0  0  0  0  0  0  0  0  0  0  0
    0.8216    1.9466   -1.7579 H   0  0  0  0  0  0  0  0  0  0  0  0
    1.8958    2.7304   -0.1017 N   0  3  0  0  0  0  0  0  0  0  0  0
    1.5782    2.9268    0.8467 H   0  0  0  0  0  0  0  0  0  0  0  0
    2.9118    3.3881   -0.5806 C   0  0  0  0  0  0  0  0  0  0  0  0
    3.4314    3.1145   -1.8250 N   0  0  0  0  0  0  0  0  0  0  0  0
    3.1215    2.2625   -2.2875 H   0  0  0  0  0  0  0  0  0  0  0  0
    4.3575    3.4704   -2.0527 H   0  0  0  0  0  0  0  0  0  0  0  0
    3.4918    4.3828    0.1697 N   0  0  0  0  0  0  0  0  0  0  0  0
    3.0262    4.6953    1.0195 H   0  0  0  0  0  0  0  0  0  0  0  0
    4.1499    5.0166   -0.2802 H   0  0  0  0  0  0  0  0  0  0  0  0
    0.2361   -1.4585    1.7214 C   0  0  0  0  0  0  0  0  0  0  0  0
    1.4376   -1.3226    1.9235 O   0  0  0  0  0  0  0  0  0  0  0  0
   -0.6530   -1.0967    2.7182 N   0  0  0  0  0  0  0  0  0  0  0  0
   -1.6244   -1.3325    2.5352 H   0  0  0  0  0  0  0  0  0  0  0  0
   -0.2397   -0.9434    4.1092 C   0  0  0  0  0  0  0  0  0  0  0  0
    0.5272   -0.1673    4.2019 H   0  0  0  0  0  0  0  0  0  0  0  0
   -1.0944   -0.6565    4.7296 H   0  0  0  0  0  0  0  0  0  0  0  0
    0.1666   -1.8857    4.4925 H   0  0  0  0  0  0  0  0  0  0  0  0
  1  2  1  0  0  0  0
  2  3  1  0  0  0  0
  2  4  1  0  0  0  0
  2  5  1  0  0  0  0
  5  6  2  0  0  0  0
  5  7  1  0  0  0  0
  7  8  1  0  0  0  0
  7  9  1  0  0  0  0
  9 10  1  0  0  0  0
  9 11  1  0  0  0  0
  9 29  1  0  0  0  0
 11 12  1  0  0  0  0
 11 13  1  0  0  0  0
 11 14  1  0  0  0  0
 14 15  1  0  0  0  0
 14 16  1  0  0  0  0
 14 17  1  0  0  0  0
 17 18  1  0  0  0  0
 17 19  1  0  0  0  0
 17 20  1  0  0  0  0
 20 21  1  0  0  0  0
 20 22  2  0  0  0  0
 22 23  1  0  0  0  0
 22 26  1  0  0  0  0
 23 24  1  0  0  0  0
 23 25  1  0  0  0  0
 26 27  1  0  0  0  0
 26 28  1  0  0  0  0
 29 30  2  0  0  0  0
 29 31  1  0  0  0  0
 31 32  1  0  0  0  0
 31 33  1  0  0  0  0
 33 34  1  0  0  0  0
 33 35  1  0  0  0  0
 33 36  1  0  0  0  0
M  CHG  1  20   1
M  END
$$$$

  -OEChem-04042215563D

 36 35  0     1  0  0  0  0  0999 V2000
   -2.9630   -5.4023    0.7216 H   0  0  0  0  0  0  0  0  0  0  0  0
   -3.0021   -4.3877    0.3141 C   0  0  0  0  0  0  0  0  0  0  0  0
   -3.8355   -3.8553    0.7783 H   0  0  0  0  0  0  0  0  0  0  0  0
   -3.1702   -4.4498   -0.7637 H   0  0  0  0  0  0  0  0  0  0  0  0
   -1.6993   -3.6646    0.5973 C   0  0  0  0  0  0  0  0  0  0  0  0
   -0.8152   -4.2263    1.2172 O   0  0  0  0  0  0  0  0  0  0  0  0
   -1.5167   -2.3660    0.1560 N   0  0  0  0  0  0  0  0  0  0  0  0
   -2.2506   -1.9828   -0.4329 H   0  0  0  0  0  0  0  0  0  0  0  0
   -0.2397   -1.6302    0.2615 C   0  0  1  0  0  0  0  0  0  0  0  0
    0.5345   -2.2348   -0.2259 H   0  0  0  0  0  0  0  0  0  0  0  0
   -0.3676   -0.3036   -0.5467 C   0  0  0  0  0  0  0  0  0  0  0  0
    0.1569   -0.4670   -1.4943 H   0  0  0  0  0  0  0  0  0  0  0  0
   -1.4185   -0.1325   -0.8026 H   0  0  0  0  0  0  0  0  0  0  0  0
    0.1583    1.0015    0.1042 C   0  0  0  0  0  0  0  0  0  0  0  0
   -0.6837    1.5887    0.4866 H   0  0  0  0  0  0  0  0  0  0  0  0
    0.8232    0.7994    0.9451 H   0  0  0  0  0  0  0  0  0  0  0  0
    0.9701    1.8114   -0.9062 C   0  0  0  0  0  0  0  0  0  0  0  0
    1.7257    1.1594   -1.3586 H   0  0  0  0  0  0  0  0  0  0  0  0
    0.3060    2.1791   -1.6963 H   0  0  0  0  0  0  0  0  0  0  0  0
    1.6317    2.9360   -0.2192 N   0  3  0  0  0  0  0  0  0  0  0  0
    1.5278    2.9825    0.7940 H   0  0  0  0  0  0  0  0  0  0  0  0
    2.4032    3.7967   -0.8174 C   0  0  0  0  0  0  0  0  0  0  0  0
    2.6336    3.7446   -2.1734 N   0  0  0  0  0  0  0  0  0  0  0  0
    2.3312    2.9106   -2.6722 H   0  0  0  0  0  0  0  0  0  0  0  0
    3.4200    4.2680   -2.5528 H   0  0  0  0  0  0  0  0  0  0  0  0
    3.0131    4.7858   -0.0828 N   0  0  0  0  0  0  0  0  0  0  0  0
    2.7312    4.9272    0.8855 H   0  0  0  0  0  0  0  0  0  0  0  0
    3.4498    5.5631   -0.5748 H   0  0  0  0  0  0  0  0  0  0  0  0
    0.2356   -1.4781    1.7280 C   0  0  0  0  0  0  0  0  0  0  0  0
    1.4353   -1.3954    1.9626 O   0  0  0  0  0  0  0  0  0  0  0  0
   -0.6652   -1.1061    2.7103 N   0  0  0  0  0  0  0  0  0  0  0  0
   -1.6382   -1.3112    2.5029 H   0  0  0  0  0  0  0  0  0  0  0  0
   -0.2783   -0.9846    4.1120 C   0  0  0  0  0  0  0  0  0  0  0  0
    0.4972   -0.2212    4.2343 H   0  0  0  0  0  0  0  0  0  0  0  0
   -1.1418   -0.6969    4.7198 H   0  0  0  0  0  0  0  0  0  0  0  0
    0.1071   -1.9393    4.4865 H   0  0  0  0  0  0  0  0  0  0  0  0
  1  2  1  0  0  0  0
  2  3  1  0  0  0  0
  2  4  1  0  0  0  0
  2  5  1  0  0  0  0
  5  6  2  0  0  0  0
  5  7  1  0  0  0  0
  7  8  1  0  0  0  0
  7  9  1  0  0  0  0
  9 10  1  0  0  0  0
  9 11  1  0  0  0  0
  9 29  1  0  0  0  0
 11 12  1  0  0  0  0
 11 13  1  0  0  0  0
 11 14  1  0  0  0  0
 14 15  1  0  0  0  0
 14 16  1  0  0  0  0
 14 17  1  0  0  0  0
 17 18  1  0  0  0  0
 17 19  1  0  0  0  0
 17 20  1  0  0  0  0
 20 21  1  0  0  0  0
 20 22  2  0  0  0  0
 22 23  1  0  0  0  0
 22 26  1  0  0  0  0
 23 24  1  0  0  0  0
 23 25  1  0  0  0  0
 26 27  1  0  0  0  0
 26 28  1  0  0  0  0
 29 30  2  0  0  0  0
 29 31  1  0  0  0  0
 31 32  1  0  0  0  0
 31 33  1  0  0  0  0
 33 34  1  0  0  0  0
 33 35  1  0  0  0  0
 33 36  1  0  0  0  0
M  CHG  1  20   1
M  END
$$$$

  -OEChem-04042215563D

 36 35  0     1  0  0  0  0  0999 V2000
   -2.9713   -5.3949    0.7517 H   0  0  0  0  0  0  0  0  0  0  0  0
   -3.0087   -4.3850    0.3329 C   0  0  0  0  0  0  0  0  0  0  0  0
   -3.8410   -3.8458    0.7913 H   0  0  0  0  0  0  0  0  0  0  0  0
   -3.1778   -4.4596   -0.7438 H   0  0  0  0  0  0  0  0  0  0  0  0
   -1.7042   -3.6620    0.6070 C   0  0  0  0  0  0  0  0  0  0  0  0
   -0.8220   -4.2192    1.2335 O   0  0  0  0  0  0  0  0  0  0  0  0
   -1.5194   -2.3690    0.1501 N   0  0  0  0  0  0  0  0  0  0  0  0
   -2.2497   -1.9964   -0.4498 H   0  0  0  0  0  0  0  0  0  0  0  0
   -0.2387   -1.6375    0.2410 C   0  0  1  0  0  0  0  0  0  0  0  0
    0.5334   -2.2399   -0.2527 H   0  0  0  0  0  0  0  0  0  0  0  0
   -0.3791   -0.3051   -0.5531 C   0  0  0  0  0  0  0  0  0  0  0  0
    0.1429   -0.4523   -1.5050 H   0  0  0  0  0  0  0  0  0  0  0  0
   -1.4316   -0.1229   -0.7952 H   0  0  0  0  0  0  0  0  0  0  0  0
    0.1683    0.9705    0.1245 C   0  0  0  0  0  0  0  0  0  0  0  0
   -0.5955    1.4078    0.7766 H   0  0  0  0  0  0  0  0  0  0  0  0
    1.0421    0.7340    0.7370 H   0  0  0  0  0  0  0  0  0  0  0  0
    0.6449    1.9740   -0.9235 C   0  0  0  0  0  0  0  0  0  0  0  0
    1.3452    1.4768   -1.6042 H   0  0  0  0  0  0  0  0  0  0  0  0
   -0.2136    2.3307   -1.5036 H   0  0  0  0  0  0  0  0  0  0  0  0
    1.3167    3.0980   -0.2462 N   0  3  0  0  0  0  0  0  0  0  0  0
    1.4399    3.0203    0.7632 H   0  0  0  0  0  0  0  0  0  0  0  0
    1.8186    4.1244   -0.8687 C   0  0  0  0  0  0  0  0  0  0  0  0
    1.7345    4.2555   -2.2361 N   0  0  0  0  0  0  0  0  0  0  0  0
    1.4288    3.4456   -2.7716 H   0  0  0  0  0  0  0  0  0  0  0  0
    2.3359    4.9348   -2.6978 H   0  0  0  0  0  0  0  0  0  0  0  0
    2.4555    5.1070   -0.1491 N   0  0  0  0  0  0  0  0  0  0  0  0
    2.3886    5.0959    0.8669 H   0  0  0  0  0  0  0  0  0  0  0  0
    2.6668    5.9916   -0.6073 H   0  0  0  0  0  0  0  0  0  0  0  0
    0.2398   -1.4743    1.7066 C   0  0  0  0  0  0  0  0  0  0  0  0
    1.4393   -1.4052    1.9449 O   0  0  0  0  0  0  0  0  0  0  0  0
   -0.6593   -1.0893    2.6858 N   0  0  0  0  0  0  0  0  0  0  0  0
   -1.6330   -1.2928    2.4801 H   0  0  0  0  0  0  0  0  0  0  0  0
   -0.2712   -0.9611    4.0868 C   0  0  0  0  0  0  0  0  0  0  0  0
    0.5099   -0.2028    4.2033 H   0  0  0  0  0  0  0  0  0  0  0  0
   -1.1320   -0.6631    4.6934 H   0  0  0  0  0  0  0  0  0  0  0  0
    0.1076   -1.9159    4.4677 H   0  0  0  0  0  0  0  0  0  0  0  0
  1  2  1  0  0  0  0
  2  3  1  0  0  0  0
  2  4  1  0  0  0  0
  2  5  1  0  0  0  0
  5  6  2  0  0  0  0
  5  7  1  0  0  0  0
  7  8  1  0  0  0  0
  7  9  1  0  0  0  0
  9 10  1  0  0  0  0
  9 11  1  0  0  0  0
  9 29  1  0  0  0  0
 11 12  1  0  0  0  0
 11 13  1  0  0  0  0
 11 14  1  0  0  0  0
 14 15  1  0  0  0  0
 14 16  1  0  0  0  0
 14 17  1  0  0  0  0
 17 18  1  0  0  0  0
 17 19  1  0  0  0  0
 17 20  1  0  0  0  0
 20 21  1  0  0  0  0
 20 22  2  0  0  0  0
 22 23  1  0  0  0  0
 22 26  1  0  0  0  0
 23 24  1  0  0  0  0
 23 25  1  0  0  0  0
 26 27  1  0  0  0  0
 26 28  1  0  0  0  0
 29 30  2  0  0  0  0
 29 31  1  0  0  0  0
 31 32  1  0  0  0  0
 31 33  1  0  0  0  0
 33 34  1  0  0  0  0
 33 35  1  0  0  0  0
 33 36  1  0  0  0  0
M  CHG  1  20   1
M  END
$$$$

  -OEChem-04042215563D

 36 35  0     1  0  0  0  0  0999 V2000
   -2.9646   -5.4118    0.7807 H   0  0  0  0  0  0  0  0  0  0  0  0
   -3.0138   -4.4016    0.3639 C   0  0  0  0  0  0  0  0  0  0  0  0
   -3.8438   -3.8686    0.8334 H   0  0  0  0  0  0  0  0  0  0  0  0
   -3.1962   -4.4759   -0.7107 H   0  0  0  0  0  0  0  0  0  0  0  0
   -1.7111   -3.6692    0.6226 C   0  0  0  0  0  0  0  0  0  0  0  0
   -0.8263   -4.2117    1.2584 O   0  0  0  0  0  0  0  0  0  0  0  0
   -1.5355   -2.3800    0.1507 N   0  0  0  0  0  0  0  0  0  0  0  0
   -2.2645   -2.0251   -0.4613 H   0  0  0  0  0  0  0  0  0  0  0  0
   -0.2569   -1.6427    0.2228 C   0  0  1  0  0  0  0  0  0  0  0  0
    0.5119   -2.2487   -0.2712 H   0  0  0  0  0  0  0  0  0  0  0  0
   -0.3973   -0.3147   -0.5767 C   0  0  0  0  0  0  0  0  0  0  0  0
    0.1155   -0.4536   -1.5344 H   0  0  0  0  0  0  0  0  0  0  0  0
   -1.4525   -0.1266   -0.8010 H   0  0  0  0  0  0  0  0  0  0  0  0
    0.1662    0.9422    0.1149 C   0  0  0  0  0  0  0  0  0  0  0  0
   -0.4788    1.2335    0.9513 H   0  0  0  0  0  0  0  0  0  0  0  0
    1.1645    0.7241    0.5091 H   0  0  0  0  0  0  0  0  0  0  0  0
    0.3126    2.0945   -0.8761 C   0  0  0  0  0  0  0  0  0  0  0  0
    0.9086    1.7593   -1.7323 H   0  0  0  0  0  0  0  0  0  0  0  0
   -0.6782    2.3952   -1.2344 H   0  0  0  0  0  0  0  0  0  0  0  0
    0.9845    3.2206   -0.2011 N   0  3  0  0  0  0  0  0  0  0  0  0
    1.3256    3.0506    0.7451 H   0  0  0  0  0  0  0  0  0  0  0  0
    1.2093    4.3756   -0.7571 C   0  0  0  0  0  0  0  0  0  0  0  0
    0.8221    4.6488   -2.0490 N   0  0  0  0  0  0  0  0  0  0  0  0
    0.5143    3.8688   -2.6256 H   0  0  0  0  0  0  0  0  0  0  0  0
    1.2291    5.4563   -2.5168 H   0  0  0  0  0  0  0  0  0  0  0  0
    1.8552    5.3550   -0.0412 N   0  0  0  0  0  0  0  0  0  0  0  0
    1.9980    5.2200    0.9580 H   0  0  0  0  0  0  0  0  0  0  0  0
    1.8450    6.3085   -0.3985 H   0  0  0  0  0  0  0  0  0  0  0  0
    0.2364   -1.4615    1.6819 C   0  0  0  0  0  0  0  0  0  0  0  0
    1.4368   -1.3649    1.9044 O   0  0  0  0  0  0  0  0  0  0  0  0
   -0.6556   -1.0699    2.6652 N   0  0  0  0  0  0  0  0  0  0  0  0
   -1.6278   -1.2965    2.4761 H   0  0  0  0  0  0  0  0  0  0  0  0
   -0.2502   -0.9219    4.0591 C   0  0  0  0  0  0  0  0  0  0  0  0
    0.5168   -0.1465    4.1575 H   0  0  0  0  0  0  0  0  0  0  0  0
   -1.1080   -0.6374    4.6762 H   0  0  0  0  0  0  0  0  0  0  0  0
    0.1543   -1.8656    4.4415 H   0  0  0  0  0  0  0  0  0  0  0  0
  1  2  1  0  0  0  0
  2  3  1  0  0  0  0
  2  4  1  0  0  0  0
  2  5  1  0  0  0  0
  5  6  2  0  0  0  0
  5  7  1  0  0  0  0
  7  8  1  0  0  0  0
  7  9  1  0  0  0  0
  9 10  1  0  0  0  0
  9 11  1  0  0  0  0
  9 29  1  0  0  0  0
 11 12  1  0  0  0  0
 11 13  1  0  0  0  0
 11 14  1  0  0  0  0
 14 15  1  0  0  0  0
 14 16  1  0  0  0  0
 14 17  1  0  0  0  0
 17 18  1  0  0  0  0
 17 19  1  0  0  0  0
 17 20  1  0  0  0  0
 20 21  1  0  0  0  0
 20 22  2  0  0  0  0
 22 23  1  0  0  0  0
 22 26  1  0  0  0  0
 23 24  1  0  0  0  0
 23 25  1  0  0  0  0
 26 27  1  0  0  0  0
 26 28  1  0  0  0  0
 29 30  2  0  0  0  0
 29 31  1  0  0  0  0
 31 32  1  0  0  0  0
 31 33  1  0  0  0  0
 33 34  1  0  0  0  0
 33 35  1  0  0  0  0
 33 36  1  0  0  0  0
M  CHG  1  20   1
M  END
$$$$

  -OEChem-04042215563D

 36 35  0     1  0  0  0  0  0999 V2000
   -2.9405   -5.4300    0.8038 H   0  0  0  0  0  0  0  0  0  0  0  0
   -3.0001   -4.4256    0.3740 C   0  0  0  0  0  0  0  0  0  0  0  0
   -3.8467   -3.9017    0.8239 H   0  0  0  0  0  0  0  0  0  0  0  0
   -3.1634   -4.5149   -0.7027 H   0  0  0  0  0  0  0  0  0  0  0  0
   -1.7149   -3.6675    0.6441 C   0  0  0  0  0  0  0  0  0  0  0  0
   -0.8283   -4.1893    1.2945 O   0  0  0  0  0  0  0  0  0  0  0  0
   -1.5516   -2.3841    0.1535 N   0  0  0  0  0  0  0  0  0  0  0  0
   -2.2802   -2.0485   -0.4702 H   0  0  0  0  0  0  0  0  0  0  0  0
   -0.2753   -1.6421    0.2042 C   0  0  1  0  0  0  0  0  0  0  0  0
    0.4927   -2.2472   -0.2917 H   0  0  0  0  0  0  0  0  0  0  0  0
   -0.4290   -0.3251   -0.6035 C   0  0  0  0  0  0  0  0  0  0  0  0
   -0.1997   -0.5314   -1.6544 H   0  0  0  0  0  0  0  0  0  0  0  0
   -1.4732    0.0014   -0.5516 H   0  0  0  0  0  0  0  0  0  0  0  0
    0.4449    0.8395   -0.1029 C   0  0  0  0  0  0  0  0  0  0  0  0
    0.1979    1.0801    0.9368 H   0  0  0  0  0  0  0  0  0  0  0  0
    1.4981    0.5368   -0.1433 H   0  0  0  0  0  0  0  0  0  0  0  0
    0.2371    2.0915   -0.9486 C   0  0  0  0  0  0  0  0  0  0  0  0
    0.4380    1.8552   -1.9994 H   0  0  0  0  0  0  0  0  0  0  0  0
   -0.8015    2.4277   -0.8557 H   0  0  0  0  0  0  0  0  0  0  0  0
    1.1645    3.1345   -0.4721 N   0  3  0  0  0  0  0  0  0  0  0  0
    1.8281    2.8613    0.2531 H   0  0  0  0  0  0  0  0  0  0  0  0
    1.1963    4.3502   -0.9343 C   0  0  0  0  0  0  0  0  0  0  0  0
    0.3478    4.7677   -1.9337 N   0  0  0  0  0  0  0  0  0  0  0  0
   -0.1841    4.0564   -2.4303 H   0  0  0  0  0  0  0  0  0  0  0  0
    0.5623    5.6337   -2.4239 H   0  0  0  0  0  0  0  0  0  0  0  0
    2.1012    5.2466   -0.4176 N   0  0  0  0  0  0  0  0  0  0  0  0
    2.6148    4.9944    0.4250 H   0  0  0  0  0  0  0  0  0  0  0  0
    1.9815    6.2361   -0.6263 H   0  0  0  0  0  0  0  0  0  0  0  0
    0.2379   -1.4368    1.6531 C   0  0  0  0  0  0  0  0  0  0  0  0
    1.4403   -1.3059    1.8490 O   0  0  0  0  0  0  0  0  0  0  0  0
   -0.6417   -1.0335    2.6426 N   0  0  0  0  0  0  0  0  0  0  0  0
   -1.6144   -1.2747    2.4755 H   0  0  0  0  0  0  0  0  0  0  0  0
   -0.2156   -0.8476    4.0261 C   0  0  0  0  0  0  0  0  0  0  0  0
    0.5496   -0.0672    4.0934 H   0  0  0  0  0  0  0  0  0  0  0  0
   -1.0654   -0.5496    4.6479 H   0  0  0  0  0  0  0  0  0  0  0  0
    0.1983   -1.7793    4.4273 H   0  0  0  0  0  0  0  0  0  0  0  0
  1  2  1  0  0  0  0
  2  3  1  0  0  0  0
  2  4  1  0  0  0  0
  2  5  1  0  0  0  0
  5  6  2  0  0  0  0
  5  7  1  0  0  0  0
  7  8  1  0  0  0  0
  7  9  1  0  0  0  0
  9 10  1  0  0  0  0
  9 11  1  0  0  0  0
  9 29  1  0  0  0  0
 11 12  1  0  0  0  0
 11 13  1  0  0  0  0
 11 14  1  0  0  0  0
 14 15  1  0  0  0  0
 14 16  1  0  0  0  0
 14 17  1  0  0  0  0
 17 18  1  0  0  0  0
 17 19  1  0  0  0  0
 17 20  1  0  0  0  0
 20 21  1  0  0  0  0
 20 22  2  0  0  0  0
 22 23  1  0  0  0  0
 22 26  1  0  0  0  0
 23 24  1  0  0  0  0
 23 25  1  0  0  0  0
 26 27  1  0  0  0  0
 26 28  1  0  0  0  0
 29 30  2  0  0  0  0
 29 31  1  0  0  0  0
 31 32  1  0  0  0  0
 31 33  1  0  0  0  0
 33 34  1  0  0  0  0
 33 35  1  0  0  0  0
 33 36  1  0  0  0  0
M  CHG  1  20   1
M  END
$$$$

  -OEChem-04042215563D

 36 35  0     1  0  0  0  0  0999 V2000
   -2.9649   -5.4279    0.7575 H   0  0  0  0  0  0  0  0  0  0  0  0
   -3.0172   -4.4176    0.3407 C   0  0  0  0  0  0  0  0  0  0  0  0
   -3.8725   -3.9002    0.7815 H   0  0  0  0  0  0  0  0  0  0  0  0
   -3.1597   -4.4929   -0.7401 H   0  0  0  0  0  0  0  0  0  0  0  0
   -1.7368   -3.6636    0.6453 C   0  0  0  0  0  0  0  0  0  0  0  0
   -0.8635   -4.1949    1.3061 O   0  0  0  0  0  0  0  0  0  0  0  0
   -1.5625   -2.3746    0.1725 N   0  0  0  0  0  0  0  0  0  0  0  0
   -2.2773   -2.0357   -0.4649 H   0  0  0  0  0  0  0  0  0  0  0  0
   -0.2783   -1.6458    0.2325 C   0  0  1  0  0  0  0  0  0  0  0  0
    0.4823   -2.2566   -0.2680 H   0  0  0  0  0  0  0  0  0  0  0  0
   -0.4127   -0.3241   -0.5745 C   0  0  0  0  0  0  0  0  0  0  0  0
   -0.1968   -0.5268   -1.6290 H   0  0  0  0  0  0  0  0  0  0  0  0
   -1.4563    0.0024   -0.5122 H   0  0  0  0  0  0  0  0  0  0  0  0
    0.4613    0.8503   -0.0866 C   0  0  0  0  0  0  0  0  0  0  0  0
    0.3936    0.9614    0.9997 H   0  0  0  0  0  0  0  0  0  0  0  0
    1.5080    0.6466   -0.3410 H   0  0  0  0  0  0  0  0  0  0  0  0
    0.0016    2.1730   -0.6924 C   0  0  0  0  0  0  0  0  0  0  0  0
    0.0283    2.0991   -1.7851 H   0  0  0  0  0  0  0  0  0  0  0  0
   -1.0275    2.3799   -0.3783 H   0  0  0  0  0  0  0  0  0  0  0  0
    0.9081    3.2395   -0.2284 N   0  3  0  0  0  0  0  0  0  0  0  0
    1.7177    2.9468    0.3189 H   0  0  0  0  0  0  0  0  0  0  0  0
    0.7410    4.5040   -0.4852 C   0  0  0  0  0  0  0  0  0  0  0  0
   -0.3146    4.9581   -1.2423 N   0  0  0  0  0  0  0  0  0  0  0  0
   -0.8701    4.2677   -1.7426 H   0  0  0  0  0  0  0  0  0  0  0  0
   -0.2701    5.9020   -1.6214 H   0  0  0  0  0  0  0  0  0  0  0  0
    1.6417    5.4178    0.0071 N   0  0  0  0  0  0  0  0  0  0  0  0
    2.3154    5.1119    0.7071 H   0  0  0  0  0  0  0  0  0  0  0  0
    1.3953    6.4056   -0.0168 H   0  0  0  0  0  0  0  0  0  0  0  0
    0.2404   -1.4650    1.6817 C   0  0  0  0  0  0  0  0  0  0  0  0
    1.4445   -1.3424    1.8718 O   0  0  0  0  0  0  0  0  0  0  0  0
   -0.6316   -1.0665    2.6800 N   0  0  0  0  0  0  0  0  0  0  0  0
   -1.6057   -1.3039    2.5158 H   0  0  0  0  0  0  0  0  0  0  0  0
   -0.1963   -0.9058    4.0637 C   0  0  0  0  0  0  0  0  0  0  0  0
    0.5732   -0.1305    4.1393 H   0  0  0  0  0  0  0  0  0  0  0  0
   -1.0404   -0.6144    4.6962 H   0  0  0  0  0  0  0  0  0  0  0  0
    0.2150   -1.8464    4.4464 H   0  0  0  0  0  0  0  0  0  0  0  0
  1  2  1  0  0  0  0
  2  3  1  0  0  0  0
  2  4  1  0  0  0  0
  2  5  1  0  0  0  0
  5  6  2  0  0  0  0
  5  7  1  0  0  0  0
  7  8  1  0  0  0  0
  7  9  1  0  0  0  0
  9 10  1  0  0  0  0
  9 11  1  0  0  0  0
  9 29  1  0  0  0  0
 11 12  1  0  0  0  0
 11 13  1  0  0  0  0
 11 14  1  0  0  0  0
 14 15  1  0  0  0  0
 14 16  1  0  0  0  0
 14 17  1  0  0  0  0
 17 18  1  0  0  0  0
 17 19  1  0  0  0  0
 17 20  1  0  0  0  0
 20 21  1  0  0  0  0
 20 22  2  0  0  0  0
 22 23  1  0  0  0  0
 22 26  1  0  0  0  0
 23 24  1  0  0  0  0
 23 25  1  0  0  0  0
 26 27  1  0  0  0  0
 26 28  1  0  0  0  0
 29 30  2  0  0  0  0
 29 31  1  0  0  0  0
 31 32  1  0  0  0  0
 31 33  1  0  0  0  0
 33 34  1  0  0  0  0
 33 35  1  0  0  0  0
 33 36  1  0  0  0  0
M  CHG  1  20   1
M  END
$$$$

  -OEChem-04042215563D

 36 35  0     1  0  0  0  0  0999 V2000
   -3.0089   -5.4100    0.7183 H   0  0  0  0  0  0  0  0  0  0  0  0
   -3.0256   -4.4067    0.2823 C   0  0  0  0  0  0  0  0  0  0  0  0
   -3.8876   -3.8665    0.6801 H   0  0  0  0  0  0  0  0  0  0  0  0
   -3.1284   -4.4985   -0.8015 H   0  0  0  0  0  0  0  0  0  0  0  0
   -1.7434   -3.6706    0.6218 C   0  0  0  0  0  0  0  0  0  0  0  0
   -0.8855   -4.2224    1.2854 O   0  0  0  0  0  0  0  0  0  0  0  0
   -1.5525   -2.3740    0.1772 N   0  0  0  0  0  0  0  0  0  0  0  0
   -2.2529   -2.0240   -0.4701 H   0  0  0  0  0  0  0  0  0  0  0  0
   -0.2604   -1.6600    0.2559 C   0  0  1  0  0  0  0  0  0  0  0  0
    0.4971   -2.2639   -0.2574 H   0  0  0  0  0  0  0  0  0  0  0  0
   -0.3956   -0.3195   -0.5245 C   0  0  0  0  0  0  0  0  0  0  0  0
   -0.1956   -0.5039   -1.5856 H   0  0  0  0  0  0  0  0  0  0  0  0
   -1.4416   -0.0049   -0.4455 H   0  0  0  0  0  0  0  0  0  0  0  0
    0.4701    0.8700   -0.0433 C   0  0  0  0  0  0  0  0  0  0  0  0
    0.6362    0.8381    1.0354 H   0  0  0  0  0  0  0  0  0  0  0  0
    1.4511    0.8166   -0.5286 H   0  0  0  0  0  0  0  0  0  0  0  0
   -0.2114    2.2067   -0.3281 C   0  0  0  0  0  0  0  0  0  0  0  0
   -0.3722    2.3109   -1.4070 H   0  0  0  0  0  0  0  0  0  0  0  0
   -1.1835    2.2314    0.1764 H   0  0  0  0  0  0  0  0  0  0  0  0
    0.6515    3.2934    0.1712 N   0  3  0  0  0  0  0  0  0  0  0  0
    1.5031    3.0155    0.6593 H   0  0  0  0  0  0  0  0  0  0  0  0
    0.3798    4.5595    0.0428 C   0  0  0  0  0  0  0  0  0  0  0  0
   -0.7647    4.9977   -0.5829 N   0  0  0  0  0  0  0  0  0  0  0  0
   -1.4789    4.3083   -0.8063 H   0  0  0  0  0  0  0  0  0  0  0  0
   -1.0550    5.9644   -0.4489 H   0  0  0  0  0  0  0  0  0  0  0  0
    1.2531    5.4933    0.5473 N   0  0  0  0  0  0  0  0  0  0  0  0
    2.1730    5.1865    0.8589 H   0  0  0  0  0  0  0  0  0  0  0  0
    1.1439    6.4658    0.2654 H   0  0  0  0  0  0  0  0  0  0  0  0
    0.2521   -1.5175    1.7111 C   0  0  0  0  0  0  0  0  0  0  0  0
    1.4568   -1.4245    1.9121 O   0  0  0  0  0  0  0  0  0  0  0  0
   -0.6207   -1.1315    2.7137 N   0  0  0  0  0  0  0  0  0  0  0  0
   -1.5951   -1.3630    2.5430 H   0  0  0  0  0  0  0  0  0  0  0  0
   -0.1884   -0.9911    4.1009 C   0  0  0  0  0  0  0  0  0  0  0  0
    0.6133   -0.2495    4.1834 H   0  0  0  0  0  0  0  0  0  0  0  0
   -1.0232   -0.6635    4.7282 H   0  0  0  0  0  0  0  0  0  0  0  0
    0.1799   -1.9489    4.4848 H   0  0  0  0  0  0  0  0  0  0  0  0
  1  2  1  0  0  0  0
  2  3  1  0  0  0  0
  2  4  1  0  0  0  0
  2  5  1  0  0  0  0
  5  6  2  0  0  0  0
  5  7  1  0  0  0  0
  7  8  1  0  0  0  0
  7  9  1  0  0  0  0
  9 10  1  0  0  0  0
  9 11  1  0  0  0  0
  9 29  1  0  0  0  0
 11 12  1  0  0  0  0
 11 13  1  0  0  0  0
 11 14  1  0  0  0  0
 14 15  1  0  0  0  0
 14 16  1  0  0  0  0
 14 17  1  0  0  0  0
 17 18  1  0  0  0  0
 17 19  1  0  0  0  0
 17 20  1  0  0  0  0
 20 21  1  0  0  0  0
 20 22  2  0  0  0  0
 22 23  1  0  0  0  0
 22 26  1  0  0  0  0
 23 24  1  0  0  0  0
 23 25  1  0  0  0  0
 26 27  1  0  0  0  0
 26 28  1  0  0  0  0
 29 30  2  0  0  0  0
 29 31  1  0  0  0  0
 31 32  1  0  0  0  0
 31 33  1  0  0  0  0
 33 34  1  0  0  0  0
 33 35  1  0  0  0  0
 33 36  1  0  0  0  0
M  CHG  1  20   1
M  END
$$$$

  -OEChem-04042215563D

 36 35  0     1  0  0  0  0  0999 V2000
   -3.0327   -5.3891    0.7605 H   0  0  0  0  0  0  0  0  0  0  0  0
   -3.0184   -4.4067    0.2792 C   0  0  0  0  0  0  0  0  0  0  0  0
   -3.8818   -3.8339    0.6256 H   0  0  0  0  0  0  0  0  0  0  0  0
   -3.0903   -4.5466   -0.8019 H   0  0  0  0  0  0  0  0  0  0  0  0
   -1.7340   -3.6771    0.6236 C   0  0  0  0  0  0  0  0  0  0  0  0
   -0.8838   -4.2324    1.2940 O   0  0  0  0  0  0  0  0  0  0  0  0
   -1.5373   -2.3809    0.1793 N   0  0  0  0  0  0  0  0  0  0  0  0
   -2.2265   -2.0399   -0.4847 H   0  0  0  0  0  0  0  0  0  0  0  0
   -0.2409   -1.6728    0.2529 C   0  0  1  0  0  0  0  0  0  0  0  0
    0.5173   -2.2649   -0.2730 H   0  0  0  0  0  0  0  0  0  0  0  0
   -0.4020   -0.3176   -0.4981 C   0  0  0  0  0  0  0  0  0  0  0  0
   -0.2218   -0.4865   -1.5652 H   0  0  0  0  0  0  0  0  0  0  0  0
   -1.4506   -0.0164   -0.4003 H   0  0  0  0  0  0  0  0  0  0  0  0
    0.4613    0.8826   -0.0273 C   0  0  0  0  0  0  0  0  0  0  0  0
    0.9159    0.7154    0.9495 H   0  0  0  0  0  0  0  0  0  0  0  0
    1.2851    1.0170   -0.7370 H   0  0  0  0  0  0  0  0  0  0  0  0
   -0.3614    2.1655    0.0729 C   0  0  0  0  0  0  0  0  0  0  0  0
   -0.7734    2.4112   -0.9121 H   0  0  0  0  0  0  0  0  0  0  0  0
   -1.1900    2.0086    0.7721 H   0  0  0  0  0  0  0  0  0  0  0  0
    0.5119    3.2521    0.5538 N   0  3  0  0  0  0  0  0  0  0  0  0
    1.4512    2.9882    0.8516 H   0  0  0  0  0  0  0  0  0  0  0  0
    0.1466    4.4979    0.6412 C   0  0  0  0  0  0  0  0  0  0  0  0
   -1.1210    4.9096    0.2978 N   0  0  0  0  0  0  0  0  0  0  0  0
   -1.8270    4.1930    0.1443 H   0  0  0  0  0  0  0  0  0  0  0  0
   -1.4318    5.8314    0.5983 H   0  0  0  0  0  0  0  0  0  0  0  0
    1.0460    5.4342    1.0918 N   0  0  0  0  0  0  0  0  0  0  0  0
    2.0256    5.1694    1.1794 H   0  0  0  0  0  0  0  0  0  0  0  0
    0.8283    6.4208    0.9638 H   0  0  0  0  0  0  0  0  0  0  0  0
    0.2629   -1.5433    1.7126 C   0  0  0  0  0  0  0  0  0  0  0  0
    1.4666   -1.4994    1.9336 O   0  0  0  0  0  0  0  0  0  0  0  0
   -0.6153   -1.1582    2.7110 N   0  0  0  0  0  0  0  0  0  0  0  0
   -1.5903   -1.3714    2.5217 H   0  0  0  0  0  0  0  0  0  0  0  0
   -0.2010   -1.0713    4.1079 C   0  0  0  0  0  0  0  0  0  0  0  0
    0.6296   -0.3668    4.2230 H   0  0  0  0  0  0  0  0  0  0  0  0
   -1.0323   -0.7250    4.7299 H   0  0  0  0  0  0  0  0  0  0  0  0
    0.1199   -2.0536    4.4717 H   0  0  0  0  0  0  0  0  0  0  0  0
  1  2  1  0  0  0  0
  2  3  1  0  0  0  0
  2  4  1  0  0  0  0
  2  5  1  0  0  0  0
  5  6  2  0  0  0  0
  5  7  1  0  0  0  0
  7  8  1  0  0  0  0
  7  9  1  0  0  0  0
  9 10  1  0  0  0  0
  9 11  1  0  0  0  0
  9 29  1  0  0  0  0
 11 12  1  0  0  0  0
 11 13  1  0  0  0  0
 11 14  1  0  0  0  0
 14 15  1  0  0  0  0
 14 16  1  0  0  0  0
 14 17  1  0  0  0  0
 17 18  1  0  0  0  0
 17 19  1  0  0  0  0
 17 20  1  0  0  0  0
 20 21  1  0  0  0  0
 20 22  2  0  0  0  0
 22 23  1  0  0  0  0
 22 26  1  0  0  0  0
 23 24  1  0  0  0  0
 23 25  1  0  0  0  0
 26 27  1  0  0  0  0
 26 28  1  0  0  0  0
 29 30  2  0  0  0  0
 29 31  1  0  0  0  0
 31 32  1  0  0  0  0
 31 33  1  0  0  0  0
 33 34  1  0  0  0  0
 33 35  1  0  0  0  0
 33 36  1  0  0  0  0
M  CHG  1  20   1
M  END
$$$$

  -OEChem-04042215563D

 36 35  0     1  0  0  0  0  0999 V2000
   -2.9631   -5.4259    0.8049 H   0  0  0  0  0  0  0  0  0  0  0  0
   -2.9852   -4.4350    0.3413 C   0  0  0  0  0  0  0  0  0  0  0  0
   -3.8586   -3.8937    0.7123 H   0  0  0  0  0  0  0  0  0  0  0  0
   -3.0719   -4.5585   -0.7409 H   0  0  0  0  0  0  0  0  0  0  0  0
   -1.7164   -3.6747    0.6776 C   0  0  0  0  0  0  0  0  0  0  0  0
   -0.8741   -4.1904    1.3886 O   0  0  0  0  0  0  0  0  0  0  0  0
   -1.5261   -2.3967    0.1795 N   0  0  0  0  0  0  0  0  0  0  0  0
   -2.2071   -2.0975   -0.5129 H   0  0  0  0  0  0  0  0  0  0  0  0
   -0.2331   -1.6788    0.2237 C   0  0  1  0  0  0  0  0  0  0  0  0
    0.5341   -2.2736   -0.2859 H   0  0  0  0  0  0  0  0  0  0  0  0
   -0.4224   -0.3408   -0.5499 C   0  0  0  0  0  0  0  0  0  0  0  0
   -0.2296   -0.5371   -1.6101 H   0  0  0  0  0  0  0  0  0  0  0  0
   -1.4744   -0.0447   -0.4748 H   0  0  0  0  0  0  0  0  0  0  0  0
    0.4410    0.8685   -0.1072 C   0  0  0  0  0  0  0  0  0  0  0  0
    1.1594    0.6120    0.6721 H   0  0  0  0  0  0  0  0  0  0  0  0
    1.0381    1.1877   -0.9687 H   0  0  0  0  0  0  0  0  0  0  0  0
   -0.4138    2.0481    0.3511 C   0  0  0  0  0  0  0  0  0  0  0  0
   -0.9909    2.4320   -0.4975 H   0  0  0  0  0  0  0  0  0  0  0  0
   -1.1095    1.7070    1.1258 H   0  0  0  0  0  0  0  0  0  0  0  0
    0.4746    3.0918    0.8956 N   0  3  0  0  0  0  0  0  0  0  0  0
    1.4635    2.8548    0.9762 H   0  0  0  0  0  0  0  0  0  0  0  0
    0.0646    4.2464    1.3339 C   0  0  0  0  0  0  0  0  0  0  0  0
   -1.2634    4.6056    1.3041 N   0  0  0  0  0  0  0  0  0  0  0  0
   -1.9455    3.8828    1.0859 H   0  0  0  0  0  0  0  0  0  0  0  0
   -1.5667    5.3959    1.8697 H   0  0  0  0  0  0  0  0  0  0  0  0
    0.9772    5.1368    1.8481 N   0  0  0  0  0  0  0  0  0  0  0  0
    1.9705    4.9461    1.7278 H   0  0  0  0  0  0  0  0  0  0  0  0
    0.6900    6.1037    1.9890 H   0  0  0  0  0  0  0  0  0  0  0  0
    0.2539   -1.4945    1.6855 C   0  0  0  0  0  0  0  0  0  0  0  0
    1.4533   -1.4636    1.9313 O   0  0  0  0  0  0  0  0  0  0  0  0
   -0.6395   -1.0779    2.6579 N   0  0  0  0  0  0  0  0  0  0  0  0
   -1.6097   -1.3031    2.4575 H   0  0  0  0  0  0  0  0  0  0  0  0
   -0.2476   -0.9758    4.0601 C   0  0  0  0  0  0  0  0  0  0  0  0
    0.5786   -0.2674    4.1807 H   0  0  0  0  0  0  0  0  0  0  0  0
   -1.0891   -0.6270    4.6660 H   0  0  0  0  0  0  0  0  0  0  0  0
    0.0718   -1.9528    4.4389 H   0  0  0  0  0  0  0  0  0  0  0  0
  1  2  1  0  0  0  0
  2  3  1  0  0  0  0
  2  4  1  0  0  0  0
  2  5  1  0  0  0  0
  5  6  2  0  0  0  0
  5  7  1  0  0  0  0
  7  8  1  0  0  0  0
  7  9  1  0  0  0  0
  9 10  1  0  0  0  0
  9 11  1  0  0  0  0
  9 29  1  0  0  0  0
 11 12  1  0  0  0  0
 11 13  1  0  0  0  0
 11 14  1  0  0  0  0
 14 15  1  0  0  0  0
 14 16  1  0  0  0  0
 14 17  1  0  0  0  0
 17 18  1  0  0  0  0
 17 19  1  0  0  0  0
 17 20  1  0  0  0  0
 20 21  1  0  0  0  0
 20 22  2  0  0  0  0
 22 23  1  0  0  0  0
 22 26  1  0  0  0  0
 23 24  1  0  0  0  0
 23 25  1  0  0  0  0
 26 27  1  0  0  0  0
 26 28  1  0  0  0  0
 29 30  2  0  0  0  0
 29 31  1  0  0  0  0
 31 32  1  0  0  0  0
 31 33  1  0  0  0  0
 33 34  1  0  0  0  0
 33 35  1  0  0  0  0
 33 36  1  0  0  0  0
M  CHG  1  20   1
M  END
$$$$

  -OEChem-04042215563D

 36 35  0     1  0  0  0  0  0999 V2000
   -2.8888   -5.4613    0.8363 H   0  0  0  0  0  0  0  0  0  0  0  0
   -2.9334   -4.4756    0.3635 C   0  0  0  0  0  0  0  0  0  0  0  0
   -3.8221   -3.9532    0.7252 H   0  0  0  0  0  0  0  0  0  0  0  0
   -3.0116   -4.6112   -0.7179 H   0  0  0  0  0  0  0  0  0  0  0  0
   -1.6858   -3.6802    0.6982 C   0  0  0  0  0  0  0  0  0  0  0  0
   -0.8438   -4.1583    1.4352 O   0  0  0  0  0  0  0  0  0  0  0  0
   -1.5161   -2.4108    0.1719 N   0  0  0  0  0  0  0  0  0  0  0  0
   -2.1965   -2.1434   -0.5342 H   0  0  0  0  0  0  0  0  0  0  0  0
   -0.2375   -1.6673    0.2039 C   0  0  1  0  0  0  0  0  0  0  0  0
    0.5436   -2.2525   -0.2951 H   0  0  0  0  0  0  0  0  0  0  0  0
   -0.4552   -0.3403   -0.5772 C   0  0  0  0  0  0  0  0  0  0  0  0
   -0.2388   -0.5438   -1.6316 H   0  0  0  0  0  0  0  0  0  0  0  0
   -1.5106   -0.0518   -0.5229 H   0  0  0  0  0  0  0  0  0  0  0  0
    0.3997    0.8665   -0.1266 C   0  0  0  0  0  0  0  0  0  0  0  0
    1.2955    0.5529    0.4146 H   0  0  0  0  0  0  0  0  0  0  0  0
    0.7609    1.3734   -1.0282 H   0  0  0  0  0  0  0  0  0  0  0  0
   -0.4104    1.8823    0.6760 C   0  0  0  0  0  0  0  0  0  0  0  0
   -1.1438    2.3676    0.0226 H   0  0  0  0  0  0  0  0  0  0  0  0
   -0.9435    1.3604    1.4784 H   0  0  0  0  0  0  0  0  0  0  0  0
    0.5170    2.8720    1.2539 N   0  3  0  0  0  0  0  0  0  0  0  0
    1.5135    2.6860    1.1408 H   0  0  0  0  0  0  0  0  0  0  0  0
    0.1427    3.8971    1.9617 C   0  0  0  0  0  0  0  0  0  0  0  0
   -1.1842    4.1595    2.2142 N   0  0  0  0  0  0  0  0  0  0  0  0
   -1.8609    3.4354    1.9839 H   0  0  0  0  0  0  0  0  0  0  0  0
   -1.4160    4.8107    2.9615 H   0  0  0  0  0  0  0  0  0  0  0  0
    1.0930    4.7449    2.4786 N   0  0  0  0  0  0  0  0  0  0  0  0
    2.0588    4.6456    2.1708 H   0  0  0  0  0  0  0  0  0  0  0  0
    0.7961    5.6500    2.8385 H   0  0  0  0  0  0  0  0  0  0  0  0
    0.2350   -1.4429    1.6661 C   0  0  0  0  0  0  0  0  0  0  0  0
    1.4296   -1.3696    1.9250 O   0  0  0  0  0  0  0  0  0  0  0  0
   -0.6777   -1.0236    2.6198 N   0  0  0  0  0  0  0  0  0  0  0  0
   -1.6363   -1.2917    2.4147 H   0  0  0  0  0  0  0  0  0  0  0  0
   -0.3037   -0.9026    4.0254 C   0  0  0  0  0  0  0  0  0  0  0  0
    0.5012   -0.1707    4.1507 H   0  0  0  0  0  0  0  0  0  0  0  0
   -1.1620   -0.5752    4.6200 H   0  0  0  0  0  0  0  0  0  0  0  0
    0.0389   -1.8684    4.4133 H   0  0  0  0  0  0  0  0  0  0  0  0
  1  2  1  0  0  0  0
  2  3  1  0  0  0  0
  2  4  1  0  0  0  0
  2  5  1  0  0  0  0
  5  6  2  0  0  0  0
  5  7  1  0  0  0  0
  7  8  1  0  0  0  0
  7  9  1  0  0  0  0
  9 10  1  0  0  0  0
  9 11  1  0  0  0  0
  9 29  1  0  0  0  0
 11 12  1  0  0  0  0
 11 13  1  0  0  0  0
 11 14  1  0  0  0  0
 14 15  1  0  0  0  0
 14 16  1  0  0  0  0
 14 17  1  0  0  0  0
 17 18  1  0  0  0  0
 17 19  1  0  0  0  0
 17 20  1  0  0  0  0
 20 21  1  0  0  0  0
 20 22  2  0  0  0  0
 22 23  1  0  0  0  0
 22 26  1  0  0  0  0
 23 24  1  0  0  0  0
 23 25  1  0  0  0  0
 26 27  1  0  0  0  0
 26 28  1  0  0  0  0
 29 30  2  0  0  0  0
 29 31  1  0  0  0  0
 31 32  1  0  0  0  0
 31 33  1  0  0  0  0
 33 34  1  0  0  0  0
 33 35  1  0  0  0  0
 33 36  1  0  0  0  0
M  CHG  1  20   1
M  END
$$$$

  -OEChem-04042215563D

 36 35  0     1  0  0  0  0  0999 V2000
   -2.1241   -5.5927    1.2298 H   0  0  0  0  0  0  0  0  0  0  0  0
   -2.3472   -4.6900    0.6532 C   0  0  0  0  0  0  0  0  0  0  0  0
   -3.3023   -4.2839    0.9944 H   0  0  0  0  0  0  0  0  0  0  0  0
   -2.4287   -4.9610   -0.4023 H   0  0  0  0  0  0  0  0  0  0  0  0
   -1.2445   -3.6661    0.8435 C   0  0  0  0  0  0  0  0  0  0  0  0
   -0.2824   -3.9344    1.5399 O   0  0  0  0  0  0  0  0  0  0  0  0
   -1.3417   -2.4222    0.2413 N   0  0  0  0  0  0  0  0  0  0  0  0
   -2.1039   -2.3213   -0.4248 H   0  0  0  0  0  0  0  0  0  0  0  0
   -0.2324   -1.4445    0.1655 C   0  0  1  0  0  0  0  0  0  0  0  0
    0.6355   -1.9060   -0.3201 H   0  0  0  0  0  0  0  0  0  0  0  0
   -0.6922   -0.2285   -0.6870 C   0  0  0  0  0  0  0  0  0  0  0  0
   -0.4724   -0.4661   -1.7336 H   0  0  0  0  0  0  0  0  0  0  0  0
   -1.7790   -0.1180   -0.6076 H   0  0  0  0  0  0  0  0  0  0  0  0
   -0.0553    1.1399   -0.3547 C   0  0  0  0  0  0  0  0  0  0  0  0
    1.0078    1.0198   -0.1178 H   0  0  0  0  0  0  0  0  0  0  0  0
   -0.0848    1.7273   -1.2787 H   0  0  0  0  0  0  0  0  0  0  0  0
   -0.7863    1.9786    0.6976 C   0  0  0  0  0  0  0  0  0  0  0  0
   -0.9539    2.9873    0.3063 H   0  0  0  0  0  0  0  0  0  0  0  0
   -1.7583    1.5308    0.9306 H   0  0  0  0  0  0  0  0  0  0  0  0
    0.0717    2.0206    1.8958 N   0  3  0  0  0  0  0  0  0  0  0  0
    0.5518    1.1424    2.1282 H   0  0  0  0  0  0  0  0  0  0  0  0
    0.3398    3.0725    2.6062 C   0  0  0  0  0  0  0  0  0  0  0  0
   -0.2531    4.2911    2.3698 N   0  0  0  0  0  0  0  0  0  0  0  0
   -1.0570    4.3110    1.7466 H   0  0  0  0  0  0  0  0  0  0  0  0
   -0.1878    5.0084    3.0890 H   0  0  0  0  0  0  0  0  0  0  0  0
    1.2521    2.9542    3.6261 N   0  0  0  0  0  0  0  0  0  0  0  0
    1.8249    2.1103    3.6489 H   0  0  0  0  0  0  0  0  0  0  0  0
    1.6530    3.8060    4.0131 H   0  0  0  0  0  0  0  0  0  0  0  0
    0.2020   -1.0782    1.6126 C   0  0  0  0  0  0  0  0  0  0  0  0
    1.3146   -0.6169    1.8500 O   0  0  0  0  0  0  0  0  0  0  0  0
   -0.7794   -0.8159    2.5548 N   0  0  0  0  0  0  0  0  0  0  0  0
   -1.6714   -1.2506    2.3286 H   0  0  0  0  0  0  0  0  0  0  0  0
   -0.4603   -0.7007    3.9759 C   0  0  0  0  0  0  0  0  0  0  0  0
    0.2138    0.1401    4.1639 H   0  0  0  0  0  0  0  0  0  0  0  0
   -1.3749   -0.5419    4.5561 H   0  0  0  0  0  0  0  0  0  0  0  0
    0.0198   -1.6190    4.3331 H   0  0  0  0  0  0  0  0  0  0  0  0
  1  2  1  0  0  0  0
  2  3  1  0  0  0  0
  2  4  1  0  0  0  0
  2  5  1  0  0  0  0
  5  6  2  0  0  0  0
  5  7  1  0  0  0  0
  7  8  1  0  0  0  0
  7  9  1  0  0  0  0
  9 10  1  0  0  0  0
  9 11  1  0  0  0  0
  9 29  1  0  0  0  0
 11 12  1  0  0  0  0
 11 13  1  0  0  0  0
 11 14  1  0  0  0  0
 14 15  1  0  0  0  0
 14 16  1  0  0  0  0
 14 17  1  0  0  0  0
 17 18  1  0  0  0  0
 17 19  1  0  0  0  0
 17 20  1  0  0  0  0
 20 21  1  0  0  0  0
 20 22  2  0  0  0  0
 22 23  1  0  0  0  0
 22 26  1  0  0  0  0
 23 24  1  0  0  0  0
 23 25  1  0  0  0  0
 26 27  1  0  0  0  0
 26 28  1  0  0  0  0
 29 30  2  0  0  0  0
 29 31  1  0  0  0  0
 31 32  1  0  0  0  0
 31 33  1  0  0  0  0
 33 34  1  0  0  0  0
 33 35  1  0  0  0  0
 33 36  1  0  0  0  0
M  CHG  1  20   1
M  END
$$$$

  -OEChem-04042215563D

 36 35  0     1  0  0  0  0  0999 V2000
   -2.6726   -5.5664    0.7578 H   0  0  0  0  0  0  0  0  0  0  0  0
   -2.6554   -4.6281    0.1955 C   0  0  0  0  0  0  0  0  0  0  0  0
   -3.6325   -4.1478    0.2859 H   0  0  0  0  0  0  0  0  0  0  0  0
   -2.4629   -4.8543   -0.8560 H   0  0  0  0  0  0  0  0  0  0  0  0
   -1.5707   -3.7167    0.7371 C   0  0  0  0  0  0  0  0  0  0  0  0
   -0.8513   -4.0986    1.6424 O   0  0  0  0  0  0  0  0  0  0  0  0
   -1.4059   -2.4462    0.2120 N   0  0  0  0  0  0  0  0  0  0  0  0
   -1.9556   -2.2411   -0.6187 H   0  0  0  0  0  0  0  0  0  0  0  0
   -0.2479   -1.5753    0.5047 C   0  0  1  0  0  0  0  0  0  0  0  0
    0.6673   -2.1285    0.2624 H   0  0  0  0  0  0  0  0  0  0  0  0
   -0.2887   -0.3278   -0.4222 C   0  0  0  0  0  0  0  0  0  0  0  0
    0.2210   -0.5946   -1.3543 H   0  0  0  0  0  0  0  0  0  0  0  0
   -1.3313   -0.1130   -0.6795 H   0  0  0  0  0  0  0  0  0  0  0  0
    0.3275    0.9862    0.1076 C   0  0  0  0  0  0  0  0  0  0  0  0
    1.3256    0.7676    0.5025 H   0  0  0  0  0  0  0  0  0  0  0  0
    0.4641    1.6565   -0.7477 H   0  0  0  0  0  0  0  0  0  0  0  0
   -0.4963    1.7384    1.1583 C   0  0  0  0  0  0  0  0  0  0  0  0
   -1.4530    2.0437    0.7205 H   0  0  0  0  0  0  0  0  0  0  0  0
   -0.7189    1.1016    2.0145 H   0  0  0  0  0  0  0  0  0  0  0  0
    0.2519    2.9238    1.6189 N   0  3  0  0  0  0  0  0  0  0  0  0
    0.0853    3.7967    1.1203 H   0  0  0  0  0  0  0  0  0  0  0  0
    1.1002    2.9112    2.6097 C   0  0  0  0  0  0  0  0  0  0  0  0
    1.4016    1.7717    3.3202 N   0  0  0  0  0  0  0  0  0  0  0  0
    1.1027    0.8678    2.9365 H   0  0  0  0  0  0  0  0  0  0  0  0
    2.2388    1.7665    3.8970 H   0  0  0  0  0  0  0  0  0  0  0  0
    1.7308    4.0790    2.9669 N   0  0  0  0  0  0  0  0  0  0  0  0
    1.3889    4.9584    2.5853 H   0  0  0  0  0  0  0  0  0  0  0  0
    2.2340    4.1046    3.8519 H   0  0  0  0  0  0  0  0  0  0  0  0
   -0.1582   -1.2826    2.0242 C   0  0  0  0  0  0  0  0  0  0  0  0
    0.9104   -0.9311    2.5154 O   0  0  0  0  0  0  0  0  0  0  0  0
   -1.3105   -0.9509    2.7171 N   0  0  0  0  0  0  0  0  0  0  0  0
   -2.1612   -1.3243    2.3019 H   0  0  0  0  0  0  0  0  0  0  0  0
   -1.3170   -0.7456    4.1622 C   0  0  0  0  0  0  0  0  0  0  0  0
   -0.6971    0.1124    4.4387 H   0  0  0  0  0  0  0  0  0  0  0  0
   -2.3368   -0.5563    4.5121 H   0  0  0  0  0  0  0  0  0  0  0  0
   -0.9356   -1.6356    4.6749 H   0  0  0  0  0  0  0  0  0  0  0  0
  1  2  1  0  0  0  0
  2  3  1  0  0  0  0
  2  4  1  0  0  0  0
  2  5  1  0  0  0  0
  5  6  2  0  0  0  0
  5  7  1  0  0  0  0
  7  8  1  0  0  0  0
  7  9  1  0  0  0  0
  9 10  1  0  0  0  0
  9 11  1  0  0  0  0
  9 29  1  0  0  0  0
 11 12  1  0  0  0  0
 11 13  1  0  0  0  0
 11 14  1  0  0  0  0
 14 15  1  0  0  0  0
 14 16  1  0  0  0  0
 14 17  1  0  0  0  0
 17 18  1  0  0  0  0
 17 19  1  0  0  0  0
 17 20  1  0  0  0  0
 20 21  1  0  0  0  0
 20 22  2  0  0  0  0
 22 23  1  0  0  0  0
 22 26  1  0  0  0  0
 23 24  1  0  0  0  0
 23 25  1  0  0  0  0
 26 27  1  0  0  0  0
 26 28  1  0  0  0  0
 29 30  2  0  0  0  0
 29 31  1  0  0  0  0
 31 32  1  0  0  0  0
 31 33  1  0  0  0  0
 33 34  1  0  0  0  0
 33 35  1  0  0  0  0
 33 36  1  0  0  0  0
M  CHG  1  20   1
M  END
$$$$

  -OEChem-04042215563D

 36 35  0     1  0  0  0  0  0999 V2000
   -2.5623   -5.6604    0.4480 H   0  0  0  0  0  0  0  0  0  0  0  0
   -2.5648   -4.6779   -0.0334 C   0  0  0  0  0  0  0  0  0  0  0  0
   -3.5503   -4.2251    0.0996 H   0  0  0  0  0  0  0  0  0  0  0  0
   -2.3724   -4.8112   -1.1007 H   0  0  0  0  0  0  0  0  0  0  0  0
   -1.4956   -3.7949    0.5807 C   0  0  0  0  0  0  0  0  0  0  0  0
   -0.7585   -4.2399    1.4420 O   0  0  0  0  0  0  0  0  0  0  0  0
   -1.3633   -2.4789    0.1726 N   0  0  0  0  0  0  0  0  0  0  0  0
   -1.9321   -2.2044   -0.6246 H   0  0  0  0  0  0  0  0  0  0  0  0
   -0.2266   -1.6110    0.5453 C   0  0  1  0  0  0  0  0  0  0  0  0
    0.6961   -2.1334    0.2652 H   0  0  0  0  0  0  0  0  0  0  0  0
   -0.2731   -0.3104   -0.3096 C   0  0  0  0  0  0  0  0  0  0  0  0
    0.2383   -0.5195   -1.2555 H   0  0  0  0  0  0  0  0  0  0  0  0
   -1.3219   -0.1109   -0.5538 H   0  0  0  0  0  0  0  0  0  0  0  0
    0.2897    1.0168    0.2568 C   0  0  0  0  0  0  0  0  0  0  0  0
    1.3597    0.8622    0.4340 H   0  0  0  0  0  0  0  0  0  0  0  0
    0.1990    1.7800   -0.5235 H   0  0  0  0  0  0  0  0  0  0  0  0
   -0.3418    1.5736    1.5404 C   0  0  0  0  0  0  0  0  0  0  0  0
   -1.3827    1.8484    1.3389 H   0  0  0  0  0  0  0  0  0  0  0  0
   -0.3516    0.8353    2.3391 H   0  0  0  0  0  0  0  0  0  0  0  0
    0.4122    2.7514    2.0085 N   0  3  0  0  0  0  0  0  0  0  0  0
    0.0533    3.6665    1.7408 H   0  0  0  0  0  0  0  0  0  0  0  0
    1.4403    2.6791    2.8084 C   0  0  0  0  0  0  0  0  0  0  0  0
    1.9667    1.4809    3.2369 N   0  0  0  0  0  0  0  0  0  0  0  0
    1.5084    0.6012    2.9722 H   0  0  0  0  0  0  0  0  0  0  0  0
    2.6360    1.4612    4.0019 H   0  0  0  0  0  0  0  0  0  0  0  0
    2.0342    3.8398    3.2437 N   0  0  0  0  0  0  0  0  0  0  0  0
    1.7833    4.7184    2.7952 H   0  0  0  0  0  0  0  0  0  0  0  0
    2.9423    3.7767    3.7002 H   0  0  0  0  0  0  0  0  0  0  0  0
   -0.1259   -1.4428    2.0796 C   0  0  0  0  0  0  0  0  0  0  0  0
    0.9473   -1.1192    2.5818 O   0  0  0  0  0  0  0  0  0  0  0  0
   -1.2750   -1.1950    2.8113 N   0  0  0  0  0  0  0  0  0  0  0  0
   -2.1274   -1.5511    2.3846 H   0  0  0  0  0  0  0  0  0  0  0  0
   -1.2601   -1.0621    4.2648 C   0  0  0  0  0  0  0  0  0  0  0  0
   -0.6682   -0.1934    4.5701 H   0  0  0  0  0  0  0  0  0  0  0  0
   -2.2792   -0.9321    4.6423 H   0  0  0  0  0  0  0  0  0  0  0  0
   -0.8328   -1.9596    4.7260 H   0  0  0  0  0  0  0  0  0  0  0  0
  1  2  1  0  0  0  0
  2  3  1  0  0  0  0
  2  4  1  0  0  0  0
  2  5  1  0  0  0  0
  5  6  2  0  0  0  0
  5  7  1  0  0  0  0
  7  8  1  0  0  0  0
  7  9  1  0  0  0  0
  9 10  1  0  0  0  0
  9 11  1  0  0  0  0
  9 29  1  0  0  0  0
 11 12  1  0  0  0  0
 11 13  1  0  0  0  0
 11 14  1  0  0  0  0
 14 15  1  0  0  0  0
 14 16  1  0  0  0  0
 14 17  1  0  0  0  0
 17 18  1  0  0  0  0
 17 19  1  0  0  0  0
 17 20  1  0  0  0  0
 20 21  1  0  0  0  0
 20 22  2  0  0  0  0
 22 23  1  0  0  0  0
 22 26  1  0  0  0  0
 23 24  1  0  0  0  0
 23 25  1  0  0  0  0
 26 27  1  0  0  0  0
 26 28  1  0  0  0  0
 29 30  2  0  0  0  0
 29 31  1  0  0  0  0
 31 32  1  0  0  0  0
 31 33  1  0  0  0  0
 33 34  1  0  0  0  0
 33 35  1  0  0  0  0
 33 36  1  0  0  0  0
M  CHG  1  20   1
M  END
$$$$

  -OEChem-04042215563D

 36 35  0     1  0  0  0  0  0999 V2000
   -2.5835   -5.6810    0.2767 H   0  0  0  0  0  0  0  0  0  0  0  0
   -2.5948   -4.6713   -0.1445 C   0  0  0  0  0  0  0  0  0  0  0  0
   -3.5758   -4.2266    0.0383 H   0  0  0  0  0  0  0  0  0  0  0  0
   -2.4272   -4.7400   -1.2220 H   0  0  0  0  0  0  0  0  0  0  0  0
   -1.5100   -3.8278    0.4980 C   0  0  0  0  0  0  0  0  0  0  0  0
   -0.7676   -4.3201    1.3286 O   0  0  0  0  0  0  0  0  0  0  0  0
   -1.3674   -2.4955    0.1507 N   0  0  0  0  0  0  0  0  0  0  0  0
   -1.9409   -2.1767   -0.6262 H   0  0  0  0  0  0  0  0  0  0  0  0
   -0.2206   -1.6582    0.5600 C   0  0  1  0  0  0  0  0  0  0  0  0
    0.6925   -2.1830    0.2545 H   0  0  0  0  0  0  0  0  0  0  0  0
   -0.2544   -0.3351   -0.2648 C   0  0  0  0  0  0  0  0  0  0  0  0
    0.2345   -0.5335   -1.2248 H   0  0  0  0  0  0  0  0  0  0  0  0
   -1.3079   -0.1332   -0.4862 H   0  0  0  0  0  0  0  0  0  0  0  0
    0.2977    1.0121    0.2794 C   0  0  0  0  0  0  0  0  0  0  0  0
    1.3886    0.9296    0.2188 H   0  0  0  0  0  0  0  0  0  0  0  0
   -0.0018    1.8067   -0.4125 H   0  0  0  0  0  0  0  0  0  0  0  0
   -0.0395    1.4673    1.7090 C   0  0  0  0  0  0  0  0  0  0  0  0
   -1.0739    1.8273    1.7354 H   0  0  0  0  0  0  0  0  0  0  0  0
    0.0321    0.6612    2.4313 H   0  0  0  0  0  0  0  0  0  0  0  0
    0.8849    2.5416    2.1181 N   0  3  0  0  0  0  0  0  0  0  0  0
    0.7118    3.4722    1.7410 H   0  0  0  0  0  0  0  0  0  0  0  0
    1.9065    2.3518    2.9071 C   0  0  0  0  0  0  0  0  0  0  0  0
    2.2161    1.1226    3.4446 N   0  0  0  0  0  0  0  0  0  0  0  0
    1.7221    0.2949    3.0917 H   0  0  0  0  0  0  0  0  0  0  0  0
    3.1417    0.9761    3.8387 H   0  0  0  0  0  0  0  0  0  0  0  0
    2.7197    3.4146    3.2200 N   0  0  0  0  0  0  0  0  0  0  0  0
    2.4047    4.3557    2.9952 H   0  0  0  0  0  0  0  0  0  0  0  0
    3.3861    3.3027    3.9818 H   0  0  0  0  0  0  0  0  0  0  0  0
   -0.0969   -1.5519    2.0948 C   0  0  0  0  0  0  0  0  0  0  0  0
    1.0036   -1.3299    2.5946 O   0  0  0  0  0  0  0  0  0  0  0  0
   -1.2258   -1.3187    2.8601 N   0  0  0  0  0  0  0  0  0  0  0  0
   -2.0984   -1.6138    2.4280 H   0  0  0  0  0  0  0  0  0  0  0  0
   -1.1825   -1.2612    4.3178 C   0  0  0  0  0  0  0  0  0  0  0  0
   -0.7809   -2.1955    4.7256 H   0  0  0  0  0  0  0  0  0  0  0  0
   -2.1898   -1.1139    4.7201 H   0  0  0  0  0  0  0  0  0  0  0  0
   -0.5540   -0.4311    4.6554 H   0  0  0  0  0  0  0  0  0  0  0  0
  1  2  1  0  0  0  0
  2  3  1  0  0  0  0
  2  4  1  0  0  0  0
  2  5  1  0  0  0  0
  5  6  2  0  0  0  0
  5  7  1  0  0  0  0
  7  8  1  0  0  0  0
  7  9  1  0  0  0  0
  9 10  1  0  0  0  0
  9 11  1  0  0  0  0
  9 29  1  0  0  0  0
 11 12  1  0  0  0  0
 11 13  1  0  0  0  0
 11 14  1  0  0  0  0
 14 15  1  0  0  0  0
 14 16  1  0  0  0  0
 14 17  1  0  0  0  0
 17 18  1  0  0  0  0
 17 19  1  0  0  0  0
 17 20  1  0  0  0  0
 20 21  1  0  0  0  0
 20 22  2  0  0  0  0
 22 23  1  0  0  0  0
 22 26  1  0  0  0  0
 23 24  1  0  0  0  0
 23 25  1  0  0  0  0
 26 27  1  0  0  0  0
 26 28  1  0  0  0  0
 29 30  2  0  0  0  0
 29 31  1  0  0  0  0
 31 32  1  0  0  0  0
 31 33  1  0  0  0  0
 33 34  1  0  0  0  0
 33 35  1  0  0  0  0
 33 36  1  0  0  0  0
M  CHG  1  20   1
M  END
$$$$

  -OEChem-04042215563D

 36 35  0     1  0  0  0  0  0999 V2000
   -2.8075   -5.5871    0.2496 H   0  0  0  0  0  0  0  0  0  0  0  0
   -2.7545   -4.5737   -0.1586 C   0  0  0  0  0  0  0  0  0  0  0  0
   -3.7105   -4.0748    0.0168 H   0  0  0  0  0  0  0  0  0  0  0  0
   -2.5759   -4.6391   -1.2346 H   0  0  0  0  0  0  0  0  0  0  0  0
   -1.6318   -3.8023    0.5085 C   0  0  0  0  0  0  0  0  0  0  0  0
   -0.9315   -4.3453    1.3438 O   0  0  0  0  0  0  0  0  0  0  0  0
   -1.4021   -2.4798    0.1708 N   0  0  0  0  0  0  0  0  0  0  0  0
   -1.9472   -2.1186   -0.6080 H   0  0  0  0  0  0  0  0  0  0  0  0
   -0.2228   -1.7089    0.6179 C   0  0  1  0  0  0  0  0  0  0  0  0
    0.6694   -2.2812    0.3368 H   0  0  0  0  0  0  0  0  0  0  0  0
   -0.1754   -0.3926   -0.2219 C   0  0  0  0  0  0  0  0  0  0  0  0
    0.3077   -0.6323   -1.1755 H   0  0  0  0  0  0  0  0  0  0  0  0
   -1.2181   -0.1538   -0.4571 H   0  0  0  0  0  0  0  0  0  0  0  0
    0.4116    0.9626    0.2762 C   0  0  0  0  0  0  0  0  0  0  0  0
    1.4696    0.9273   -0.0071 H   0  0  0  0  0  0  0  0  0  0  0  0
   -0.0427    1.7707   -0.3074 H   0  0  0  0  0  0  0  0  0  0  0  0
    0.3756    1.3642    1.7614 C   0  0  0  0  0  0  0  0  0  0  0  0
   -0.5853    1.8455    1.9742 H   0  0  0  0  0  0  0  0  0  0  0  0
    0.4495    0.5152    2.4263 H   0  0  0  0  0  0  0  0  0  0  0  0
    1.4853    2.2858    2.0693 N   0  3  0  0  0  0  0  0  0  0  0  0
    1.4198    3.2328    1.6996 H   0  0  0  0  0  0  0  0  0  0  0  0
    2.5325    1.9410    2.7674 C   0  0  0  0  0  0  0  0  0  0  0  0
    2.6959    0.6793    3.2956 N   0  0  0  0  0  0  0  0  0  0  0  0
    2.0343   -0.0594    3.0303 H   0  0  0  0  0  0  0  0  0  0  0  0
    3.6163    0.3894    3.6155 H   0  0  0  0  0  0  0  0  0  0  0  0
    3.5251    2.8652    2.9905 N   0  0  0  0  0  0  0  0  0  0  0  0
    3.3405    3.8437    2.7803 H   0  0  0  0  0  0  0  0  0  0  0  0
    4.2303    2.6523    3.6935 H   0  0  0  0  0  0  0  0  0  0  0  0
   -0.1376   -1.6095    2.1550 C   0  0  0  0  0  0  0  0  0  0  0  0
    0.9661   -1.5423    2.6923 O   0  0  0  0  0  0  0  0  0  0  0  0
   -1.2655   -1.3112    2.8974 N   0  0  0  0  0  0  0  0  0  0  0  0
   -2.1490   -1.5073    2.4331 H   0  0  0  0  0  0  0  0  0  0  0  0
   -1.2576   -1.2929    4.3566 C   0  0  0  0  0  0  0  0  0  0  0  0
   -2.2547   -1.0505    4.7377 H   0  0  0  0  0  0  0  0  0  0  0  0
   -0.5553   -0.5413    4.7314 H   0  0  0  0  0  0  0  0  0  0  0  0
   -0.9663   -2.2734    4.7493 H   0  0  0  0  0  0  0  0  0  0  0  0
  1  2  1  0  0  0  0
  2  3  1  0  0  0  0
  2  4  1  0  0  0  0
  2  5  1  0  0  0  0
  5  6  2  0  0  0  0
  5  7  1  0  0  0  0
  7  8  1  0  0  0  0
  7  9  1  0  0  0  0
  9 10  1  0  0  0  0
  9 11  1  0  0  0  0
  9 29  1  0  0  0  0
 11 12  1  0  0  0  0
 11 13  1  0  0  0  0
 11 14  1  0  0  0  0
 14 15  1  0  0  0  0
 14 16  1  0  0  0  0
 14 17  1  0  0  0  0
 17 18  1  0  0  0  0
 17 19  1  0  0  0  0
 17 20  1  0  0  0  0
 20 21  1  0  0  0  0
 20 22  2  0  0  0  0
 22 23  1  0  0  0  0
 22 26  1  0  0  0  0
 23 24  1  0  0  0  0
 23 25  1  0  0  0  0
 26 27  1  0  0  0  0
 26 28  1  0  0  0  0
 29 30  2  0  0  0  0
 29 31  1  0  0  0  0
 31 32  1  0  0  0  0
 31 33  1  0  0  0  0
 33 34  1  0  0  0  0
 33 35  1  0  0  0  0
 33 36  1  0  0  0  0
M  CHG  1  20   1
M  END
$$$$

  -OEChem-04042215563D

 36 35  0     1  0  0  0  0  0999 V2000
   -3.3014   -5.3480    0.4508 H   0  0  0  0  0  0  0  0  0  0  0  0
   -3.1870   -4.3295    0.0680 C   0  0  0  0  0  0  0  0  0  0  0  0
   -4.0238   -3.7248    0.4254 H   0  0  0  0  0  0  0  0  0  0  0  0
   -3.2087   -4.3619   -1.0240 H   0  0  0  0  0  0  0  0  0  0  0  0
   -1.8742   -3.7385    0.5455 C   0  0  0  0  0  0  0  0  0  0  0  0
   -1.1406   -4.3919    1.2645 O   0  0  0  0  0  0  0  0  0  0  0  0
   -1.5109   -2.4586    0.1611 N   0  0  0  0  0  0  0  0  0  0  0  0
   -2.1100   -2.0182   -0.5323 H   0  0  0  0  0  0  0  0  0  0  0  0
   -0.1884   -1.8502    0.4295 C   0  0  1  0  0  0  0  0  0  0  0  0
    0.5998   -2.4960    0.0251 H   0  0  0  0  0  0  0  0  0  0  0  0
   -0.1720   -0.5024   -0.3808 C   0  0  0  0  0  0  0  0  0  0  0  0
    0.1072   -0.7475   -1.4115 H   0  0  0  0  0  0  0  0  0  0  0  0
   -1.2109   -0.1563   -0.4190 H   0  0  0  0  0  0  0  0  0  0  0  0
    0.6310    0.7676    0.0386 C   0  0  0  0  0  0  0  0  0  0  0  0
    1.4987    0.8394   -0.6266 H   0  0  0  0  0  0  0  0  0  0  0  0
    0.0116    1.6529   -0.1410 H   0  0  0  0  0  0  0  0  0  0  0  0
    1.1495    0.8050    1.4635 C   0  0  0  0  0  0  0  0  0  0  0  0
    0.3054    0.7761    2.1615 H   0  0  0  0  0  0  0  0  0  0  0  0
    1.7537   -0.0927    1.5884 H   0  0  0  0  0  0  0  0  0  0  0  0
    2.0244    1.9396    1.7848 N   0  3  0  0  0  0  0  0  0  0  0  0
    1.9306    2.7968    1.2424 H   0  0  0  0  0  0  0  0  0  0  0  0
    2.9110    1.8410    2.7357 C   0  0  0  0  0  0  0  0  0  0  0  0
    3.0497    0.6817    3.4743 N   0  0  0  0  0  0  0  0  0  0  0  0
    2.5302   -0.1490    3.1730 H   0  0  0  0  0  0  0  0  0  0  0  0
    3.9041    0.5369    4.0068 H   0  0  0  0  0  0  0  0  0  0  0  0
    3.7331    2.9054    3.0184 N   0  0  0  0  0  0  0  0  0  0  0  0
    3.5159    3.8131    2.6125 H   0  0  0  0  0  0  0  0  0  0  0  0
    4.2673    2.8846    3.8852 H   0  0  0  0  0  0  0  0  0  0  0  0
    0.0496   -1.7973    1.9661 C   0  0  0  0  0  0  0  0  0  0  0  0
    1.1757   -1.9354    2.4409 O   0  0  0  0  0  0  0  0  0  0  0  0
   -0.9664   -1.3663    2.8012 N   0  0  0  0  0  0  0  0  0  0  0  0
   -1.8982   -1.4071    2.3963 H   0  0  0  0  0  0  0  0  0  0  0  0
   -0.8580   -1.4217    4.2554 C   0  0  0  0  0  0  0  0  0  0  0  0
   -0.0221   -0.8077    4.6056 H   0  0  0  0  0  0  0  0  0  0  0  0
   -1.7765   -1.0476    4.7182 H   0  0  0  0  0  0  0  0  0  0  0  0
   -0.6989   -2.4538    4.5870 H   0  0  0  0  0  0  0  0  0  0  0  0
  1  2  1  0  0  0  0
  2  3  1  0  0  0  0
  2  4  1  0  0  0  0
  2  5  1  0  0  0  0
  5  6  2  0  0  0  0
  5  7  1  0  0  0  0
  7  8  1  0  0  0  0
  7  9  1  0  0  0  0
  9 10  1  0  0  0  0
  9 11  1  0  0  0  0
  9 29  1  0  0  0  0
 11 12  1  0  0  0  0
 11 13  1  0  0  0  0
 11 14  1  0  0  0  0
 14 15  1  0  0  0  0
 14 16  1  0  0  0  0
 14 17  1  0  0  0  0
 17 18  1  0  0  0  0
 17 19  1  0  0  0  0
 17 20  1  0  0  0  0
 20 21  1  0  0  0  0
 20 22  2  0  0  0  0
 22 23  1  0  0  0  0
 22 26  1  0  0  0  0
 23 24  1  0  0  0  0
 23 25  1  0  0  0  0
 26 27  1  0  0  0  0
 26 28  1  0  0  0  0
 29 30  2  0  0  0  0
 29 31  1  0  0  0  0
 31 32  1  0  0  0  0
 31 33  1  0  0  0  0
 33 34  1  0  0  0  0
 33 35  1  0  0  0  0
 33 36  1  0  0  0  0
M  CHG  1  20   1
M  END
$$$$

  -OEChem-04042215563D

 36 35  0     1  0  0  0  0  0999 V2000
   -3.2749   -5.3334    0.5453 H   0  0  0  0  0  0  0  0  0  0  0  0
   -3.1768   -4.3195    0.1460 C   0  0  0  0  0  0  0  0  0  0  0  0
   -3.9980   -3.7106    0.5312 H   0  0  0  0  0  0  0  0  0  0  0  0
   -3.2439   -4.3653   -0.9436 H   0  0  0  0  0  0  0  0  0  0  0  0
   -1.8451   -3.7236    0.5608 C   0  0  0  0  0  0  0  0  0  0  0  0
   -1.0728   -4.3771    1.2382 O   0  0  0  0  0  0  0  0  0  0  0  0
   -1.5060   -2.4410    0.1633 N   0  0  0  0  0  0  0  0  0  0  0  0
   -2.1402   -1.9979   -0.4967 H   0  0  0  0  0  0  0  0  0  0  0  0
   -0.1772   -1.8262    0.3788 C   0  0  1  0  0  0  0  0  0  0  0  0
    0.5976   -2.4641   -0.0620 H   0  0  0  0  0  0  0  0  0  0  0  0
   -0.2075   -0.4704   -0.4196 C   0  0  0  0  0  0  0  0  0  0  0  0
    0.0545   -0.7122   -1.4556 H   0  0  0  0  0  0  0  0  0  0  0  0
   -1.2499   -0.1332   -0.4386 H   0  0  0  0  0  0  0  0  0  0  0  0
    0.6081    0.7982   -0.0172 C   0  0  0  0  0  0  0  0  0  0  0  0
    1.2612    1.0578   -0.8576 H   0  0  0  0  0  0  0  0  0  0  0  0
   -0.0822    1.6363    0.1282 H   0  0  0  0  0  0  0  0  0  0  0  0
    1.4643    0.6537    1.2244 C   0  0  0  0  0  0  0  0  0  0  0  0
    0.8054    0.5531    2.0937 H   0  0  0  0  0  0  0  0  0  0  0  0
    2.0366   -0.2709    1.1016 H   0  0  0  0  0  0  0  0  0  0  0  0
    2.4300    1.7262    1.4882 N   0  3  0  0  0  0  0  0  0  0  0  0
    2.3928    2.5731    0.9232 H   0  0  0  0  0  0  0  0  0  0  0  0
    3.3464    1.5615    2.4008 C   0  0  0  0  0  0  0  0  0  0  0  0
    3.4093    0.4017    3.1499 N   0  0  0  0  0  0  0  0  0  0  0  0
    2.7945   -0.3774    2.8900 H   0  0  0  0  0  0  0  0  0  0  0  0
    4.2659    0.1818    3.6523 H   0  0  0  0  0  0  0  0  0  0  0  0
    4.2746    2.5488    2.6300 N   0  0  0  0  0  0  0  0  0  0  0  0
    4.1213    3.4689    2.2229 H   0  0  0  0  0  0  0  0  0  0  0  0
    4.8477    2.4861    3.4694 H   0  0  0  0  0  0  0  0  0  0  0  0
    0.1189   -1.7761    1.9072 C   0  0  0  0  0  0  0  0  0  0  0  0
    1.2622   -1.9212    2.3401 O   0  0  0  0  0  0  0  0  0  0  0  0
   -0.8662   -1.3523    2.7814 N   0  0  0  0  0  0  0  0  0  0  0  0
   -1.8115   -1.3788    2.4085 H   0  0  0  0  0  0  0  0  0  0  0  0
   -0.7076   -1.4108    4.2309 C   0  0  0  0  0  0  0  0  0  0  0  0
    0.1507   -0.8119    4.5524 H   0  0  0  0  0  0  0  0  0  0  0  0
   -1.6022   -1.0192    4.7253 H   0  0  0  0  0  0  0  0  0  0  0  0
   -0.5568   -2.4456    4.5574 H   0  0  0  0  0  0  0  0  0  0  0  0
  1  2  1  0  0  0  0
  2  3  1  0  0  0  0
  2  4  1  0  0  0  0
  2  5  1  0  0  0  0
  5  6  2  0  0  0  0
  5  7  1  0  0  0  0
  7  8  1  0  0  0  0
  7  9  1  0  0  0  0
  9 10  1  0  0  0  0
  9 11  1  0  0  0  0
  9 29  1  0  0  0  0
 11 12  1  0  0  0  0
 11 13  1  0  0  0  0
 11 14  1  0  0  0  0
 14 15  1  0  0  0  0
 14 16  1  0  0  0  0
 14 17  1  0  0  0  0
 17 18  1  0  0  0  0
 17 19  1  0  0  0  0
 17 20  1  0  0  0  0
 20 21  1  0  0  0  0
 20 22  2  0  0  0  0
 22 23  1  0  0  0  0
 22 26  1  0  0  0  0
 23 24  1  0  0  0  0
 23 25  1  0  0  0  0
 26 27  1  0  0  0  0
 26 28  1  0  0  0  0
 29 30  2  0  0  0  0
 29 31  1  0  0  0  0
 31 32  1  0  0  0  0
 31 33  1  0  0  0  0
 33 34  1  0  0  0  0
 33 35  1  0  0  0  0
 33 36  1  0  0  0  0
M  CHG  1  20   1
M  END
$$$$

  -OEChem-04042215563D

 36 35  0     1  0  0  0  0  0999 V2000
   -3.2701   -5.3083    0.5863 H   0  0  0  0  0  0  0  0  0  0  0  0
   -3.1860   -4.2922    0.1898 C   0  0  0  0  0  0  0  0  0  0  0  0
   -3.9829   -3.6810    0.6200 H   0  0  0  0  0  0  0  0  0  0  0  0
   -3.3078   -4.3293   -0.8954 H   0  0  0  0  0  0  0  0  0  0  0  0
   -1.8321   -3.7073    0.5423 C   0  0  0  0  0  0  0  0  0  0  0  0
   -1.0300   -4.3701    1.1746 O   0  0  0  0  0  0  0  0  0  0  0  0
   -1.5088   -2.4211    0.1447 N   0  0  0  0  0  0  0  0  0  0  0  0
   -2.1725   -1.9645   -0.4758 H   0  0  0  0  0  0  0  0  0  0  0  0
   -0.1769   -1.8049    0.3270 C   0  0  1  0  0  0  0  0  0  0  0  0
    0.5842   -2.4374   -0.1451 H   0  0  0  0  0  0  0  0  0  0  0  0
   -0.2326   -0.4410   -0.4498 C   0  0  0  0  0  0  0  0  0  0  0  0
    0.0309   -0.6726   -1.4876 H   0  0  0  0  0  0  0  0  0  0  0  0
   -1.2741   -0.1009   -0.4652 H   0  0  0  0  0  0  0  0  0  0  0  0
    0.6007    0.8069   -0.0334 C   0  0  0  0  0  0  0  0  0  0  0  0
    1.0131    1.2603   -0.9412 H   0  0  0  0  0  0  0  0  0  0  0  0
   -0.0651    1.5449    0.4271 H   0  0  0  0  0  0  0  0  0  0  0  0
    1.7287    0.5157    0.9395 C   0  0  0  0  0  0  0  0  0  0  0  0
    1.2825    0.3493    1.9250 H   0  0  0  0  0  0  0  0  0  0  0  0
    2.2213   -0.4087    0.6161 H   0  0  0  0  0  0  0  0  0  0  0  0
    2.7526    1.5562    1.0858 N   0  3  0  0  0  0  0  0  0  0  0  0
    2.7367    2.3541    0.4528 H   0  0  0  0  0  0  0  0  0  0  0  0
    3.7168    1.3991    1.9484 C   0  0  0  0  0  0  0  0  0  0  0  0
    3.7649    0.2895    2.7699 N   0  0  0  0  0  0  0  0  0  0  0  0
    3.0927   -0.4663    2.6013 H   0  0  0  0  0  0  0  0  0  0  0  0
    4.6392    0.0529    3.2325 H   0  0  0  0  0  0  0  0  0  0  0  0
    4.7111    2.3427    2.0483 N   0  0  0  0  0  0  0  0  0  0  0  0
    4.5791    3.2417    1.5900 H   0  0  0  0  0  0  0  0  0  0  0  0
    5.3356    2.3025    2.8518 H   0  0  0  0  0  0  0  0  0  0  0  0
    0.1759   -1.7587    1.8420 C   0  0  0  0  0  0  0  0  0  0  0  0
    1.3335   -1.9280    2.2261 O   0  0  0  0  0  0  0  0  0  0  0  0
   -0.7729   -1.3415    2.7578 N   0  0  0  0  0  0  0  0  0  0  0  0
   -1.7332   -1.3585    2.4248 H   0  0  0  0  0  0  0  0  0  0  0  0
   -0.5512   -1.3981    4.1990 C   0  0  0  0  0  0  0  0  0  0  0  0
    0.3213   -0.7996    4.4806 H   0  0  0  0  0  0  0  0  0  0  0  0
   -1.4222   -1.0045    4.7324 H   0  0  0  0  0  0  0  0  0  0  0  0
   -0.3865   -2.4327    4.5193 H   0  0  0  0  0  0  0  0  0  0  0  0
  1  2  1  0  0  0  0
  2  3  1  0  0  0  0
  2  4  1  0  0  0  0
  2  5  1  0  0  0  0
  5  6  2  0  0  0  0
  5  7  1  0  0  0  0
  7  8  1  0  0  0  0
  7  9  1  0  0  0  0
  9 10  1  0  0  0  0
  9 11  1  0  0  0  0
  9 29  1  0  0  0  0
 11 12  1  0  0  0  0
 11 13  1  0  0  0  0
 11 14  1  0  0  0  0
 14 15  1  0  0  0  0
 14 16  1  0  0  0  0
 14 17  1  0  0  0  0
 17 18  1  0  0  0  0
 17 19  1  0  0  0  0
 17 20  1  0  0  0  0
 20 21  1  0  0  0  0
 20 22  2  0  0  0  0
 22 23  1  0  0  0  0
 22 26  1  0  0  0  0
 23 24  1  0  0  0  0
 23 25  1  0  0  0  0
 26 27  1  0  0  0  0
 26 28  1  0  0  0  0
 29 30  2  0  0  0  0
 29 31  1  0  0  0  0
 31 32  1  0  0  0  0
 31 33  1  0  0  0  0
 33 34  1  0  0  0  0
 33 35  1  0  0  0  0
 33 36  1  0  0  0  0
M  CHG  1  20   1
M  END
$$$$

  -OEChem-04042215563D

 36 35  0     1  0  0  0  0  0999 V2000
   -3.3690   -5.2077    0.7004 H   0  0  0  0  0  0  0  0  0  0  0  0
   -3.2761   -4.1982    0.2891 C   0  0  0  0  0  0  0  0  0  0  0  0
   -4.0231   -3.5569    0.7631 H   0  0  0  0  0  0  0  0  0  0  0  0
   -3.4679   -4.2394   -0.7858 H   0  0  0  0  0  0  0  0  0  0  0  0
   -1.8831   -3.6573    0.5488 C   0  0  0  0  0  0  0  0  0  0  0  0
   -1.0602   -4.3485    1.1211 O   0  0  0  0  0  0  0  0  0  0  0  0
   -1.5497   -2.3780    0.1382 N   0  0  0  0  0  0  0  0  0  0  0  0
   -2.2409   -1.8962   -0.4309 H   0  0  0  0  0  0  0  0  0  0  0  0
   -0.1919   -1.8011    0.2371 C   0  0  1  0  0  0  0  0  0  0  0  0
    0.5178   -2.4436   -0.2971 H   0  0  0  0  0  0  0  0  0  0  0  0
   -0.2648   -0.4215   -0.4981 C   0  0  0  0  0  0  0  0  0  0  0  0
   -0.0711   -0.6295   -1.5560 H   0  0  0  0  0  0  0  0  0  0  0  0
   -1.2923   -0.0459   -0.4376 H   0  0  0  0  0  0  0  0  0  0  0  0
    0.6429    0.7686   -0.0875 C   0  0  0  0  0  0  0  0  0  0  0  0
    0.7904    1.4077   -0.9647 H   0  0  0  0  0  0  0  0  0  0  0  0
    0.1237    1.3654    0.6705 H   0  0  0  0  0  0  0  0  0  0  0  0
    1.9938    0.3561    0.4826 C   0  0  0  0  0  0  0  0  0  0  0  0
    1.8195   -0.0066    1.4938 H   0  0  0  0  0  0  0  0  0  0  0  0
    2.4090   -0.4568   -0.1241 H   0  0  0  0  0  0  0  0  0  0  0  0
    2.9754    1.4438    0.5915 N   0  3  0  0  0  0  0  0  0  0  0  0
    2.9398    2.1989   -0.0914 H   0  0  0  0  0  0  0  0  0  0  0  0
    3.9406    1.3836    1.4657 C   0  0  0  0  0  0  0  0  0  0  0  0
    4.0443    0.3313    2.3536 N   0  0  0  0  0  0  0  0  0  0  0  0
    3.4154   -0.4676    2.2319 H   0  0  0  0  0  0  0  0  0  0  0  0
    4.9287    0.1719    2.8301 H   0  0  0  0  0  0  0  0  0  0  0  0
    4.8852    2.3805    1.5138 N   0  0  0  0  0  0  0  0  0  0  0  0
    4.7166    3.2399    0.9953 H   0  0  0  0  0  0  0  0  0  0  0  0
    5.4987    2.4242    2.3255 H   0  0  0  0  0  0  0  0  0  0  0  0
    0.2716   -1.7704    1.7199 C   0  0  0  0  0  0  0  0  0  0  0  0
    1.4384   -2.0207    2.0176 O   0  0  0  0  0  0  0  0  0  0  0  0
   -0.5922   -1.3311    2.7066 N   0  0  0  0  0  0  0  0  0  0  0  0
   -1.5727   -1.2975    2.4413 H   0  0  0  0  0  0  0  0  0  0  0  0
   -0.2749   -1.4355    4.1269 C   0  0  0  0  0  0  0  0  0  0  0  0
    0.6265   -0.8614    4.3650 H   0  0  0  0  0  0  0  0  0  0  0  0
   -1.1001   -1.0432    4.7293 H   0  0  0  0  0  0  0  0  0  0  0  0
   -0.1097   -2.4821    4.4057 H   0  0  0  0  0  0  0  0  0  0  0  0
  1  2  1  0  0  0  0
  2  3  1  0  0  0  0
  2  4  1  0  0  0  0
  2  5  1  0  0  0  0
  5  6  2  0  0  0  0
  5  7  1  0  0  0  0
  7  8  1  0  0  0  0
  7  9  1  0  0  0  0
  9 10  1  0  0  0  0
  9 11  1  0  0  0  0
  9 29  1  0  0  0  0
 11 12  1  0  0  0  0
 11 13  1  0  0  0  0
 11 14  1  0  0  0  0
 14 15  1  0  0  0  0
 14 16  1  0  0  0  0
 14 17  1  0  0  0  0
 17 18  1  0  0  0  0
 17 19  1  0  0  0  0
 17 20  1  0  0  0  0
 20 21  1  0  0  0  0
 20 22  2  0  0  0  0
 22 23  1  0  0  0  0
 22 26  1  0  0  0  0
 23 24  1  0  0  0  0
 23 25  1  0  0  0  0
 26 27  1  0  0  0  0
 26 28  1  0  0  0  0
 29 30  2  0  0  0  0
 29 31  1  0  0  0  0
 31 32  1  0  0  0  0
 31 33  1  0  0  0  0
 33 34  1  0  0  0  0
 33 35  1  0  0  0  0
 33 36  1  0  0  0  0
M  CHG  1  20   1
M  END
$$$$

  -OEChem-04042215563D

 36 35  0     1  0  0  0  0  0999 V2000
   -3.0329   -5.2098    1.1725 H   0  0  0  0  0  0  0  0  0  0  0  0
   -3.0446   -4.2418    0.6629 C   0  0  0  0  0  0  0  0  0  0  0  0
   -3.7780   -3.5971    1.1530 H   0  0  0  0  0  0  0  0  0  0  0  0
   -3.3415   -4.3983   -0.3768 H   0  0  0  0  0  0  0  0  0  0  0  0
   -1.6686   -3.6069    0.7211 C   0  0  0  0  0  0  0  0  0  0  0  0
   -0.7474   -4.2033    1.2487 O   0  0  0  0  0  0  0  0  0  0  0  0
   -1.4584   -2.3564    0.1641 N   0  0  0  0  0  0  0  0  0  0  0  0
   -2.2320   -1.9750   -0.3748 H   0  0  0  0  0  0  0  0  0  0  0  0
   -0.1312   -1.7169    0.0309 C   0  0  1  0  0  0  0  0  0  0  0  0
    0.5418   -2.3416   -0.5674 H   0  0  0  0  0  0  0  0  0  0  0  0
   -0.3798   -0.3574   -0.6858 C   0  0  0  0  0  0  0  0  0  0  0  0
   -0.3630   -0.5535   -1.7633 H   0  0  0  0  0  0  0  0  0  0  0  0
   -1.3893   -0.0077   -0.4425 H   0  0  0  0  0  0  0  0  0  0  0  0
    0.5672    0.8319   -0.4014 C   0  0  0  0  0  0  0  0  0  0  0  0
    0.3748    1.6337   -1.1223 H   0  0  0  0  0  0  0  0  0  0  0  0
    0.3178    1.2206    0.5924 H   0  0  0  0  0  0  0  0  0  0  0  0
    2.0608    0.4707   -0.4204 C   0  0  0  0  0  0  0  0  0  0  0  0
    2.2249   -0.5335   -0.0357 H   0  0  0  0  0  0  0  0  0  0  0  0
    2.4004    0.4599   -1.4621 H   0  0  0  0  0  0  0  0  0  0  0  0
    2.8525    1.4560    0.3426 N   0  3  0  0  0  0  0  0  0  0  0  0
    2.7146    2.4374    0.1087 H   0  0  0  0  0  0  0  0  0  0  0  0
    3.7731    1.1368    1.2096 C   0  0  0  0  0  0  0  0  0  0  0  0
    4.0321   -0.1632    1.5742 N   0  0  0  0  0  0  0  0  0  0  0  0
    3.2818   -0.8437    1.4084 H   0  0  0  0  0  0  0  0  0  0  0  0
    4.6049   -0.3223    2.3982 H   0  0  0  0  0  0  0  0  0  0  0  0
    4.5299    2.1308    1.7835 N   0  0  0  0  0  0  0  0  0  0  0  0
    4.4913    3.0664    1.3852 H   0  0  0  0  0  0  0  0  0  0  0  0
    5.3727    1.8616    2.2876 H   0  0  0  0  0  0  0  0  0  0  0  0
    0.4885   -1.5497    1.4477 C   0  0  0  0  0  0  0  0  0  0  0  0
    1.6872   -1.7253    1.6424 O   0  0  0  0  0  0  0  0  0  0  0  0
   -0.2872   -1.0686    2.4878 N   0  0  0  0  0  0  0  0  0  0  0  0
   -1.2905   -1.0899    2.3241 H   0  0  0  0  0  0  0  0  0  0  0  0
    0.1748   -1.0466    3.8719 C   0  0  0  0  0  0  0  0  0  0  0  0
    1.0633   -0.4153    3.9740 H   0  0  0  0  0  0  0  0  0  0  0  0
   -0.6068   -0.6456    4.5249 H   0  0  0  0  0  0  0  0  0  0  0  0
    0.4212   -2.0597    4.2091 H   0  0  0  0  0  0  0  0  0  0  0  0
  1  2  1  0  0  0  0
  2  3  1  0  0  0  0
  2  4  1  0  0  0  0
  2  5  1  0  0  0  0
  5  6  2  0  0  0  0
  5  7  1  0  0  0  0
  7  8  1  0  0  0  0
  7  9  1  0  0  0  0
  9 10  1  0  0  0  0
  9 11  1  0  0  0  0
  9 29  1  0  0  0  0
 11 12  1  0  0  0  0
 11 13  1  0  0  0  0
 11 14  1  0  0  0  0
 14 15  1  0  0  0  0
 14 16  1  0  0  0  0
 14 17  1  0  0  0  0
 17 18  1  0  0  0  0
 17 19  1  0  0  0  0
 17 20  1  0  0  0  0
 20 21  1  0  0  0  0
 20 22  2  0  0  0  0
 22 23  1  0  0  0  0
 22 26  1  0  0  0  0
 23 24  1  0  0  0  0
 23 25  1  0  0  0  0
 26 27  1  0  0  0  0
 26 28  1  0  0  0  0
 29 30  2  0  0  0  0
 29 31  1  0  0  0  0
 31 32  1  0  0  0  0
 31 33  1  0  0  0  0
 33 34  1  0  0  0  0
 33 35  1  0  0  0  0
 33 36  1  0  0  0  0
M  CHG  1  20   1
M  END
$$$$

  -OEChem-04042215563D

 36 35  0     1  0  0  0  0  0999 V2000
   -2.8656   -5.3046    1.0457 H   0  0  0  0  0  0  0  0  0  0  0  0
   -2.9399   -4.3216    0.5712 C   0  0  0  0  0  0  0  0  0  0  0  0
   -3.6943   -3.7337    1.0992 H   0  0  0  0  0  0  0  0  0  0  0  0
   -3.2522   -4.4572   -0.4671 H   0  0  0  0  0  0  0  0  0  0  0  0
   -1.5981   -3.6170    0.6220 C   0  0  0  0  0  0  0  0  0  0  0  0
   -0.6300   -4.1859    1.0941 O   0  0  0  0  0  0  0  0  0  0  0  0
   -1.4692   -2.3312    0.1252 N   0  0  0  0  0  0  0  0  0  0  0  0
   -2.2800   -1.9542   -0.3593 H   0  0  0  0  0  0  0  0  0  0  0  0
   -0.1789   -1.6245   -0.0085 C   0  0  1  0  0  0  0  0  0  0  0  0
    0.4962   -2.2106   -0.6424 H   0  0  0  0  0  0  0  0  0  0  0  0
   -0.4622   -0.2596   -0.6962 C   0  0  0  0  0  0  0  0  0  0  0  0
   -0.4530   -0.4122   -1.7808 H   0  0  0  0  0  0  0  0  0  0  0  0
   -1.4734    0.0643   -0.4262 H   0  0  0  0  0  0  0  0  0  0  0  0
    0.4796    0.9112   -0.3455 C   0  0  0  0  0  0  0  0  0  0  0  0
    0.1552    1.8091   -0.8823 H   0  0  0  0  0  0  0  0  0  0  0  0
    0.4114    1.1311    0.7256 H   0  0  0  0  0  0  0  0  0  0  0  0
    1.9325    0.5915   -0.7227 C   0  0  0  0  0  0  0  0  0  0  0  0
    2.1988   -0.4148   -0.3924 H   0  0  0  0  0  0  0  0  0  0  0  0
    2.0249    0.6017   -1.8143 H   0  0  0  0  0  0  0  0  0  0  0  0
    2.8530    1.5862   -0.1385 N   0  3  0  0  0  0  0  0  0  0  0  0
    2.7353    2.5526   -0.4373 H   0  0  0  0  0  0  0  0  0  0  0  0
    3.8437    1.2865    0.6550 C   0  0  0  0  0  0  0  0  0  0  0  0
    4.0749    0.0099    1.1096 N   0  0  0  0  0  0  0  0  0  0  0  0
    3.2847   -0.6439    1.0693 H   0  0  0  0  0  0  0  0  0  0  0  0
    4.7182   -0.1125    1.8865 H   0  0  0  0  0  0  0  0  0  0  0  0
    4.7066    2.2784    1.0552 N   0  0  0  0  0  0  0  0  0  0  0  0
    4.6754    3.1744    0.5740 H   0  0  0  0  0  0  0  0  0  0  0  0
    5.5859    2.0010    1.4871 H   0  0  0  0  0  0  0  0  0  0  0  0
    0.5030   -1.4819    1.3795 C   0  0  0  0  0  0  0  0  0  0  0  0
    1.7262   -1.5105    1.4769 O   0  0  0  0  0  0  0  0  0  0  0  0
   -0.2408   -1.0834    2.4756 N   0  0  0  0  0  0  0  0  0  0  0  0
   -1.2475   -1.1901    2.3798 H   0  0  0  0  0  0  0  0  0  0  0  0
    0.3125   -1.0219    3.8241 C   0  0  0  0  0  0  0  0  0  0  0  0
    1.1184   -0.2828    3.8781 H   0  0  0  0  0  0  0  0  0  0  0  0
   -0.4649   -0.7350    4.5393 H   0  0  0  0  0  0  0  0  0  0  0  0
    0.7096   -1.9993    4.1193 H   0  0  0  0  0  0  0  0  0  0  0  0
  1  2  1  0  0  0  0
  2  3  1  0  0  0  0
  2  4  1  0  0  0  0
  2  5  1  0  0  0  0
  5  6  2  0  0  0  0
  5  7  1  0  0  0  0
  7  8  1  0  0  0  0
  7  9  1  0  0  0  0
  9 10  1  0  0  0  0
  9 11  1  0  0  0  0
  9 29  1  0  0  0  0
 11 12  1  0  0  0  0
 11 13  1  0  0  0  0
 11 14  1  0  0  0  0
 14 15  1  0  0  0  0
 14 16  1  0  0  0  0
 14 17  1  0  0  0  0
 17 18  1  0  0  0  0
 17 19  1  0  0  0  0
 17 20  1  0  0  0  0
 20 21  1  0  0  0  0
 20 22  2  0  0  0  0
 22 23  1  0  0  0  0
 22 26  1  0  0  0  0
 23 24  1  0  0  0  0
 23 25  1  0  0  0  0
 26 27  1  0  0  0  0
 26 28  1  0  0  0  0
 29 30  2  0  0  0  0
 29 31  1  0  0  0  0
 31 32  1  0  0  0  0
 31 33  1  0  0  0  0
 33 34  1  0  0  0  0
 33 35  1  0  0  0  0
 33 36  1  0  0  0  0
M  CHG  1  20   1
M  END
$$$$

  -OEChem-04042215563D

 36 35  0     1  0  0  0  0  0999 V2000
   -2.7655   -5.3694    0.9030 H   0  0  0  0  0  0  0  0  0  0  0  0
   -2.8919   -4.3630    0.4930 C   0  0  0  0  0  0  0  0  0  0  0  0
   -3.6443   -3.8361    1.0844 H   0  0  0  0  0  0  0  0  0  0  0  0
   -3.2410   -4.4471   -0.5389 H   0  0  0  0  0  0  0  0  0  0  0  0
   -1.5733   -3.6145    0.5362 C   0  0  0  0  0  0  0  0  0  0  0  0
   -0.5701   -4.1696    0.9479 O   0  0  0  0  0  0  0  0  0  0  0  0
   -1.5024   -2.3015    0.1047 N   0  0  0  0  0  0  0  0  0  0  0  0
   -2.3418   -1.9223   -0.3265 H   0  0  0  0  0  0  0  0  0  0  0  0
   -0.2371   -1.5545   -0.0387 C   0  0  1  0  0  0  0  0  0  0  0  0
    0.4182   -2.1243   -0.7077 H   0  0  0  0  0  0  0  0  0  0  0  0
   -0.5353   -0.1935   -0.7248 C   0  0  0  0  0  0  0  0  0  0  0  0
   -0.5404   -0.3329   -1.8113 H   0  0  0  0  0  0  0  0  0  0  0  0
   -1.5458    0.1163   -0.4371 H   0  0  0  0  0  0  0  0  0  0  0  0
    0.3999    0.9751   -0.3520 C   0  0  0  0  0  0  0  0  0  0  0  0
   -0.0499    1.9102   -0.7023 H   0  0  0  0  0  0  0  0  0  0  0  0
    0.5179    1.0698    0.7320 H   0  0  0  0  0  0  0  0  0  0  0  0
    1.7538    0.7966   -1.0442 C   0  0  0  0  0  0  0  0  0  0  0  0
    2.1354   -0.2110   -0.8478 H   0  0  0  0  0  0  0  0  0  0  0  0
    1.6216    0.8886   -2.1281 H   0  0  0  0  0  0  0  0  0  0  0  0
    2.7179    1.8078   -0.5696 N   0  3  0  0  0  0  0  0  0  0  0  0
    2.5845    2.7619   -0.9002 H   0  0  0  0  0  0  0  0  0  0  0  0
    3.7522    1.5347    0.1765 C   0  0  0  0  0  0  0  0  0  0  0  0
    3.9996    0.2769    0.6742 N   0  0  0  0  0  0  0  0  0  0  0  0
    3.2095   -0.3779    0.7014 H   0  0  0  0  0  0  0  0  0  0  0  0
    4.6879    0.1806    1.4155 H   0  0  0  0  0  0  0  0  0  0  0  0
    4.6440    2.5358    0.4798 N   0  0  0  0  0  0  0  0  0  0  0  0
    4.5907    3.4089   -0.0401 H   0  0  0  0  0  0  0  0  0  0  0  0
    5.5453    2.2706    0.8725 H   0  0  0  0  0  0  0  0  0  0  0  0
    0.5359   -1.4377    1.2989 C   0  0  0  0  0  0  0  0  0  0  0  0
    1.7611   -1.3460    1.2792 O   0  0  0  0  0  0  0  0  0  0  0  0
   -0.1368   -1.1043    2.4600 N   0  0  0  0  0  0  0  0  0  0  0  0
   -1.1383   -1.2808    2.4503 H   0  0  0  0  0  0  0  0  0  0  0  0
    0.5266   -1.0042    3.7554 C   0  0  0  0  0  0  0  0  0  0  0  0
    1.2847   -0.2144    3.7411 H   0  0  0  0  0  0  0  0  0  0  0  0
   -0.2020   -0.7663    4.5369 H   0  0  0  0  0  0  0  0  0  0  0  0
    1.0105   -1.9529    4.0118 H   0  0  0  0  0  0  0  0  0  0  0  0
  1  2  1  0  0  0  0
  2  3  1  0  0  0  0
  2  4  1  0  0  0  0
  2  5  1  0  0  0  0
  5  6  2  0  0  0  0
  5  7  1  0  0  0  0
  7  8  1  0  0  0  0
  7  9  1  0  0  0  0
  9 10  1  0  0  0  0
  9 11  1  0  0  0  0
  9 29  1  0  0  0  0
 11 12  1  0  0  0  0
 11 13  1  0  0  0  0
 11 14  1  0  0  0  0
 14 15  1  0  0  0  0
 14 16  1  0  0  0  0
 14 17  1  0  0  0  0
 17 18  1  0  0  0  0
 17 19  1  0  0  0  0
 17 20  1  0  0  0  0
 20 21  1  0  0  0  0
 20 22  2  0  0  0  0
 22 23  1  0  0  0  0
 22 26  1  0  0  0  0
 23 24  1  0  0  0  0
 23 25  1  0  0  0  0
 26 27  1  0  0  0  0
 26 28  1  0  0  0  0
 29 30  2  0  0  0  0
 29 31  1  0  0  0  0
 31 32  1  0  0  0  0
 31 33  1  0  0  0  0
 33 34  1  0  0  0  0
 33 35  1  0  0  0  0
 33 36  1  0  0  0  0
M  CHG  1  20   1
M  END
$$$$

  -OEChem-04042215563D

 36 35  0     1  0  0  0  0  0999 V2000
   -2.6574   -5.3999    0.8055 H   0  0  0  0  0  0  0  0  0  0  0  0
   -2.8208   -4.3841    0.4336 C   0  0  0  0  0  0  0  0  0  0  0  0
   -3.5707   -3.8975    1.0618 H   0  0  0  0  0  0  0  0  0  0  0  0
   -3.1943   -4.4424   -0.5917 H   0  0  0  0  0  0  0  0  0  0  0  0
   -1.5219   -3.6020    0.4693 C   0  0  0  0  0  0  0  0  0  0  0  0
   -0.4939   -4.1388    0.8425 O   0  0  0  0  0  0  0  0  0  0  0  0
   -1.4977   -2.2762    0.0751 N   0  0  0  0  0  0  0  0  0  0  0  0
   -2.3599   -1.9047   -0.3158 H   0  0  0  0  0  0  0  0  0  0  0  0
   -0.2581   -1.4902   -0.0741 C   0  0  1  0  0  0  0  0  0  0  0  0
    0.3951   -2.0408   -0.7614 H   0  0  0  0  0  0  0  0  0  0  0  0
   -0.5928   -0.1392   -0.7631 C   0  0  0  0  0  0  0  0  0  0  0  0
   -0.6139   -0.2802   -1.8495 H   0  0  0  0  0  0  0  0  0  0  0  0
   -1.6084    0.1394   -0.4612 H   0  0  0  0  0  0  0  0  0  0  0  0
    0.3064    1.0622   -0.3959 C   0  0  0  0  0  0  0  0  0  0  0  0
   -0.2745    1.9811   -0.5287 H   0  0  0  0  0  0  0  0  0  0  0  0
    0.6264    1.0573    0.6488 H   0  0  0  0  0  0  0  0  0  0  0  0
    1.4955    1.1171   -1.3543 C   0  0  0  0  0  0  0  0  0  0  0  0
    1.9640    0.1281   -1.4092 H   0  0  0  0  0  0  0  0  0  0  0  0
    1.1427    1.3677   -2.3608 H   0  0  0  0  0  0  0  0  0  0  0  0
    2.4838    2.1137   -0.9014 N   0  3  0  0  0  0  0  0  0  0  0  0
    2.3409    3.0758   -1.2046 H   0  0  0  0  0  0  0  0  0  0  0  0
    3.5514    1.8154   -0.2140 C   0  0  0  0  0  0  0  0  0  0  0  0
    3.8091    0.5452    0.2478 N   0  0  0  0  0  0  0  0  0  0  0  0
    3.0157   -0.1020    0.3183 H   0  0  0  0  0  0  0  0  0  0  0  0
    4.5403    0.4284    0.9439 H   0  0  0  0  0  0  0  0  0  0  0  0
    4.4688    2.8013    0.0610 N   0  0  0  0  0  0  0  0  0  0  0  0
    4.3970    3.6853   -0.4381 H   0  0  0  0  0  0  0  0  0  0  0  0
    5.3874    2.5191    0.3977 H   0  0  0  0  0  0  0  0  0  0  0  0
    0.5585   -1.3757    1.2353 C   0  0  0  0  0  0  0  0  0  0  0  0
    1.7750   -1.2135    1.1601 O   0  0  0  0  0  0  0  0  0  0  0  0
   -0.0809   -1.0882    2.4265 N   0  0  0  0  0  0  0  0  0  0  0  0
   -1.0711   -1.3181    2.4556 H   0  0  0  0  0  0  0  0  0  0  0  0
    0.6306   -0.9741    3.6950 C   0  0  0  0  0  0  0  0  0  0  0  0
    1.3440   -0.1441    3.6646 H   0  0  0  0  0  0  0  0  0  0  0  0
   -0.0765   -0.7891    4.5100 H   0  0  0  0  0  0  0  0  0  0  0  0
    1.1751   -1.8993    3.9136 H   0  0  0  0  0  0  0  0  0  0  0  0
  1  2  1  0  0  0  0
  2  3  1  0  0  0  0
  2  4  1  0  0  0  0
  2  5  1  0  0  0  0
  5  6  2  0  0  0  0
  5  7  1  0  0  0  0
  7  8  1  0  0  0  0
  7  9  1  0  0  0  0
  9 10  1  0  0  0  0
  9 11  1  0  0  0  0
  9 29  1  0  0  0  0
 11 12  1  0  0  0  0
 11 13  1  0  0  0  0
 11 14  1  0  0  0  0
 14 15  1  0  0  0  0
 14 16  1  0  0  0  0
 14 17  1  0  0  0  0
 17 18  1  0  0  0  0
 17 19  1  0  0  0  0
 17 20  1  0  0  0  0
 20 21  1  0  0  0  0
 20 22  2  0  0  0  0
 22 23  1  0  0  0  0
 22 26  1  0  0  0  0
 23 24  1  0  0  0  0
 23 25  1  0  0  0  0
 26 27  1  0  0  0  0
 26 28  1  0  0  0  0
 29 30  2  0  0  0  0
 29 31  1  0  0  0  0
 31 32  1  0  0  0  0
 31 33  1  0  0  0  0
 33 34  1  0  0  0  0
 33 35  1  0  0  0  0
 33 36  1  0  0  0  0
M  CHG  1  20   1
M  END
$$$$

  -OEChem-04042215563D

 36 35  0     1  0  0  0  0  0999 V2000
   -2.4896   -5.4332    0.7312 H   0  0  0  0  0  0  0  0  0  0  0  0
   -2.6989   -4.4237    0.3648 C   0  0  0  0  0  0  0  0  0  0  0  0
   -3.4719   -3.9763    0.9941 H   0  0  0  0  0  0  0  0  0  0  0  0
   -3.0677   -4.4934   -0.6615 H   0  0  0  0  0  0  0  0  0  0  0  0
   -1.4376   -3.5821    0.4076 C   0  0  0  0  0  0  0  0  0  0  0  0
   -0.3842   -4.0766    0.7677 O   0  0  0  0  0  0  0  0  0  0  0  0
   -1.4752   -2.2502    0.0350 N   0  0  0  0  0  0  0  0  0  0  0  0
   -2.3546   -1.9119   -0.3476 H   0  0  0  0  0  0  0  0  0  0  0  0
   -0.2728   -1.4054   -0.0983 C   0  0  1  0  0  0  0  0  0  0  0  0
    0.4048   -1.9237   -0.7869 H   0  0  0  0  0  0  0  0  0  0  0  0
   -0.6620   -0.0707   -0.7936 C   0  0  0  0  0  0  0  0  0  0  0  0
   -0.6667   -0.2198   -1.8792 H   0  0  0  0  0  0  0  0  0  0  0  0
   -1.6951    0.1545   -0.5071 H   0  0  0  0  0  0  0  0  0  0  0  0
    0.1649    1.1858   -0.4245 C   0  0  0  0  0  0  0  0  0  0  0  0
   -0.5232    2.0311   -0.3143 H   0  0  0  0  0  0  0  0  0  0  0  0
    0.6860    1.1095    0.5300 H   0  0  0  0  0  0  0  0  0  0  0  0
    1.1271    1.5205   -1.5629 C   0  0  0  0  0  0  0  0  0  0  0  0
    1.5947    0.5993   -1.9284 H   0  0  0  0  0  0  0  0  0  0  0  0
    0.5683    1.9567   -2.3984 H   0  0  0  0  0  0  0  0  0  0  0  0
    2.1757    2.4517   -1.1042 N   0  3  0  0  0  0  0  0  0  0  0  0
    2.0437    3.4382   -1.3223 H   0  0  0  0  0  0  0  0  0  0  0  0
    3.2858    2.0708   -0.5329 C   0  0  0  0  0  0  0  0  0  0  0  0
    3.5385    0.7614   -0.1897 N   0  0  0  0  0  0  0  0  0  0  0  0
    2.7319    0.1433   -0.0542 H   0  0  0  0  0  0  0  0  0  0  0  0
    4.3375    0.5739    0.4102 H   0  0  0  0  0  0  0  0  0  0  0  0
    4.2558    3.0064   -0.2625 N   0  0  0  0  0  0  0  0  0  0  0  0
    4.1728    3.9319   -0.6777 H   0  0  0  0  0  0  0  0  0  0  0  0
    5.1866    2.6765   -0.0141 H   0  0  0  0  0  0  0  0  0  0  0  0
    0.5440   -1.2672    1.2080 C   0  0  0  0  0  0  0  0  0  0  0  0
    1.7527   -1.0568    1.1205 O   0  0  0  0  0  0  0  0  0  0  0  0
   -0.0967   -1.0247    2.4082 N   0  0  0  0  0  0  0  0  0  0  0  0
   -1.0762   -1.2952    2.4448 H   0  0  0  0  0  0  0  0  0  0  0  0
    0.6211   -0.8793    3.6700 C   0  0  0  0  0  0  0  0  0  0  0  0
    1.3102   -0.0295    3.6276 H   0  0  0  0  0  0  0  0  0  0  0  0
   -0.0849   -0.7070    4.4885 H   0  0  0  0  0  0  0  0  0  0  0  0
    1.1935   -1.7865    3.8922 H   0  0  0  0  0  0  0  0  0  0  0  0
  1  2  1  0  0  0  0
  2  3  1  0  0  0  0
  2  4  1  0  0  0  0
  2  5  1  0  0  0  0
  5  6  2  0  0  0  0
  5  7  1  0  0  0  0
  7  8  1  0  0  0  0
  7  9  1  0  0  0  0
  9 10  1  0  0  0  0
  9 11  1  0  0  0  0
  9 29  1  0  0  0  0
 11 12  1  0  0  0  0
 11 13  1  0  0  0  0
 11 14  1  0  0  0  0
 14 15  1  0  0  0  0
 14 16  1  0  0  0  0
 14 17  1  0  0  0  0
 17 18  1  0  0  0  0
 17 19  1  0  0  0  0
 17 20  1  0  0  0  0
 20 21  1  0  0  0  0
 20 22  2  0  0  0  0
 22 23  1  0  0  0  0
 22 26  1  0  0  0  0
 23 24  1  0  0  0  0
 23 25  1  0  0  0  0
 26 27  1  0  0  0  0
 26 28  1  0  0  0  0
 29 30  2  0  0  0  0
 29 31  1  0  0  0  0
 31 32  1  0  0  0  0
 31 33  1  0  0  0  0
 33 34  1  0  0  0  0
 33 35  1  0  0  0  0
 33 36  1  0  0  0  0
M  CHG  1  20   1
M  END
$$$$

  -OEChem-04042215563D

 36 35  0     1  0  0  0  0  0999 V2000
   -2.9739   -5.3740    0.8092 H   0  0  0  0  0  0  0  0  0  0  0  0
   -3.0038   -4.3693    0.3772 C   0  0  0  0  0  0  0  0  0  0  0  0
   -3.8129   -3.8081    0.8503 H   0  0  0  0  0  0  0  0  0  0  0  0
   -3.2039   -4.4544   -0.6935 H   0  0  0  0  0  0  0  0  0  0  0  0
   -1.6794   -3.6663    0.6052 C   0  0  0  0  0  0  0  0  0  0  0  0
   -0.7856   -4.2332    1.2063 O   0  0  0  0  0  0  0  0  0  0  0  0
   -1.4862   -2.3816    0.1291 N   0  0  0  0  0  0  0  0  0  0  0  0
   -2.2331   -1.9913   -0.4386 H   0  0  0  0  0  0  0  0  0  0  0  0
   -0.2066   -1.6491    0.2190 C   0  0  1  0  0  0  0  0  0  0  0  0
    0.5744   -2.2520   -0.2590 H   0  0  0  0  0  0  0  0  0  0  0  0
   -0.3579   -0.3343   -0.5983 C   0  0  0  0  0  0  0  0  0  0  0  0
   -0.1453   -0.5644   -1.6478 H   0  0  0  0  0  0  0  0  0  0  0  0
   -1.4087   -0.0277   -0.5554 H   0  0  0  0  0  0  0  0  0  0  0  0
    0.4685    0.8965   -0.1447 C   0  0  0  0  0  0  0  0  0  0  0  0
   -0.2145    1.7130    0.1146 H   0  0  0  0  0  0  0  0  0  0  0  0
    1.0721    0.6950    0.7406 H   0  0  0  0  0  0  0  0  0  0  0  0
    1.4046    1.3498   -1.2646 C   0  0  0  0  0  0  0  0  0  0  0  0
    1.9747    0.4845   -1.6208 H   0  0  0  0  0  0  0  0  0  0  0  0
    0.8127    1.7458   -2.0972 H   0  0  0  0  0  0  0  0  0  0  0  0
    2.3298    2.3754   -0.7487 N   0  3  0  0  0  0  0  0  0  0  0  0
    2.2754    2.5858    0.2476 H   0  0  0  0  0  0  0  0  0  0  0  0
    3.2585    2.9396   -1.4649 C   0  0  0  0  0  0  0  0  0  0  0  0
    3.4254    2.6462   -2.7992 N   0  0  0  0  0  0  0  0  0  0  0  0
    2.9242    1.8429   -3.1724 H   0  0  0  0  0  0  0  0  0  0  0  0
    4.2983    2.9144   -3.2492 H   0  0  0  0  0  0  0  0  0  0  0  0
    4.1034    3.8526   -0.8802 N   0  0  0  0  0  0  0  0  0  0  0  0
    3.8970    4.1860    0.0597 H   0  0  0  0  0  0  0  0  0  0  0  0
    4.6886    4.4324   -1.4786 H   0  0  0  0  0  0  0  0  0  0  0  0
    0.2540   -1.4627    1.6869 C   0  0  0  0  0  0  0  0  0  0  0  0
    1.4526   -1.4220    1.9396 O   0  0  0  0  0  0  0  0  0  0  0  0
   -0.6517   -1.0615    2.6528 N   0  0  0  0  0  0  0  0  0  0  0  0
   -1.6291   -1.2296    2.4335 H   0  0  0  0  0  0  0  0  0  0  0  0
   -0.2801   -0.9097    4.0557 C   0  0  0  0  0  0  0  0  0  0  0  0
    0.5102   -0.1600    4.1670 H   0  0  0  0  0  0  0  0  0  0  0  0
   -1.1442   -0.5865    4.6442 H   0  0  0  0  0  0  0  0  0  0  0  0
    0.0798   -1.8616    4.4612 H   0  0  0  0  0  0  0  0  0  0  0  0
  1  2  1  0  0  0  0
  2  3  1  0  0  0  0
  2  4  1  0  0  0  0
  2  5  1  0  0  0  0
  5  6  2  0  0  0  0
  5  7  1  0  0  0  0
  7  8  1  0  0  0  0
  7  9  1  0  0  0  0
  9 10  1  0  0  0  0
  9 11  1  0  0  0  0
  9 29  1  0  0  0  0
 11 12  1  0  0  0  0
 11 13  1  0  0  0  0
 11 14  1  0  0  0  0
 14 15  1  0  0  0  0
 14 16  1  0  0  0  0
 14 17  1  0  0  0  0
 17 18  1  0  0  0  0
 17 19  1  0  0  0  0
 17 20  1  0  0  0  0
 20 21  1  0  0  0  0
 20 22  2  0  0  0  0
 22 23  1  0  0  0  0
 22 26  1  0  0  0  0
 23 24  1  0  0  0  0
 23 25  1  0  0  0  0
 26 27  1  0  0  0  0
 26 28  1  0  0  0  0
 29 30  2  0  0  0  0
 29 31  1  0  0  0  0
 31 32  1  0  0  0  0
 31 33  1  0  0  0  0
 33 34  1  0  0  0  0
 33 35  1  0  0  0  0
 33 36  1  0  0  0  0
M  CHG  1  20   1
M  END
$$$$

  -OEChem-04042215563D

 36 35  0     1  0  0  0  0  0999 V2000
   -2.9817   -5.3664    0.8254 H   0  0  0  0  0  0  0  0  0  0  0  0
   -3.0089   -4.3644    0.3872 C   0  0  0  0  0  0  0  0  0  0  0  0
   -3.8207   -3.8005    0.8525 H   0  0  0  0  0  0  0  0  0  0  0  0
   -3.2026   -4.4564   -0.6842 H   0  0  0  0  0  0  0  0  0  0  0  0
   -1.6857   -3.6605    0.6190 C   0  0  0  0  0  0  0  0  0  0  0  0
   -0.7991   -4.2224    1.2350 O   0  0  0  0  0  0  0  0  0  0  0  0
   -1.4867   -2.3817    0.1290 N   0  0  0  0  0  0  0  0  0  0  0  0
   -2.2266   -2.0008   -0.4542 H   0  0  0  0  0  0  0  0  0  0  0  0
   -0.2027   -1.6552    0.2085 C   0  0  1  0  0  0  0  0  0  0  0  0
    0.5774   -2.2559   -0.2736 H   0  0  0  0  0  0  0  0  0  0  0  0
   -0.3649   -0.3324   -0.5917 C   0  0  0  0  0  0  0  0  0  0  0  0
   -0.1337   -0.5591   -1.6382 H   0  0  0  0  0  0  0  0  0  0  0  0
   -1.4138   -0.0179   -0.5608 H   0  0  0  0  0  0  0  0  0  0  0  0
    0.4810    0.8743   -0.1197 C   0  0  0  0  0  0  0  0  0  0  0  0
   -0.1437    1.5636    0.4588 H   0  0  0  0  0  0  0  0  0  0  0  0
    1.3014    0.5501    0.5232 H   0  0  0  0  0  0  0  0  0  0  0  0
    1.1269    1.5859   -1.3077 C   0  0  0  0  0  0  0  0  0  0  0  0
    1.6679    0.8504   -1.9136 H   0  0  0  0  0  0  0  0  0  0  0  0
    0.3472    2.0445   -1.9263 H   0  0  0  0  0  0  0  0  0  0  0  0
    2.0629    2.6108   -0.8090 N   0  3  0  0  0  0  0  0  0  0  0  0
    2.1999    2.6565    0.2005 H   0  0  0  0  0  0  0  0  0  0  0  0
    2.7655    3.3891   -1.5798 C   0  0  0  0  0  0  0  0  0  0  0  0
    2.6676    3.3325   -2.9513 N   0  0  0  0  0  0  0  0  0  0  0  0
    2.1660    2.5456   -3.3575 H   0  0  0  0  0  0  0  0  0  0  0  0
    3.3970    3.7725   -3.5086 H   0  0  0  0  0  0  0  0  0  0  0  0
    3.6359    4.2922   -1.0177 N   0  0  0  0  0  0  0  0  0  0  0  0
    3.6000    4.4510   -0.0124 H   0  0  0  0  0  0  0  0  0  0  0  0
    4.0299    5.0242   -1.6058 H   0  0  0  0  0  0  0  0  0  0  0  0
    0.2531   -1.4619    1.6787 C   0  0  0  0  0  0  0  0  0  0  0  0
    1.4488   -1.4415    1.9446 O   0  0  0  0  0  0  0  0  0  0  0  0
   -0.6553   -1.0490    2.6373 N   0  0  0  0  0  0  0  0  0  0  0  0
   -1.6319   -1.2125    2.4113 H   0  0  0  0  0  0  0  0  0  0  0  0
   -0.2925   -0.9090    4.0439 C   0  0  0  0  0  0  0  0  0  0  0  0
    0.5049   -0.1682    4.1648 H   0  0  0  0  0  0  0  0  0  0  0  0
   -1.1576   -0.5801    4.6279 H   0  0  0  0  0  0  0  0  0  0  0  0
    0.0545   -1.8669    4.4468 H   0  0  0  0  0  0  0  0  0  0  0  0
  1  2  1  0  0  0  0
  2  3  1  0  0  0  0
  2  4  1  0  0  0  0
  2  5  1  0  0  0  0
  5  6  2  0  0  0  0
  5  7  1  0  0  0  0
  7  8  1  0  0  0  0
  7  9  1  0  0  0  0
  9 10  1  0  0  0  0
  9 11  1  0  0  0  0
  9 29  1  0  0  0  0
 11 12  1  0  0  0  0
 11 13  1  0  0  0  0
 11 14  1  0  0  0  0
 14 15  1  0  0  0  0
 14 16  1  0  0  0  0
 14 17  1  0  0  0  0
 17 18  1  0  0  0  0
 17 19  1  0  0  0  0
 17 20  1  0  0  0  0
 20 21  1  0  0  0  0
 20 22  2  0  0  0  0
 22 23  1  0  0  0  0
 22 26  1  0  0  0  0
 23 24  1  0  0  0  0
 23 25  1  0  0  0  0
 26 27  1  0  0  0  0
 26 28  1  0  0  0  0
 29 30  2  0  0  0  0
 29 31  1  0  0  0  0
 31 32  1  0  0  0  0
 31 33  1  0  0  0  0
 33 34  1  0  0  0  0
 33 35  1  0  0  0  0
 33 36  1  0  0  0  0
M  CHG  1  20   1
M  END
$$$$

  -OEChem-04042215563D

 36 35  0     1  0  0  0  0  0999 V2000
   -2.9663   -5.3846    0.8550 H   0  0  0  0  0  0  0  0  0  0  0  0
   -3.0103   -4.3814    0.4207 C   0  0  0  0  0  0  0  0  0  0  0  0
   -3.8214   -3.8278    0.8993 H   0  0  0  0  0  0  0  0  0  0  0  0
   -3.2184   -4.4719   -0.6480 H   0  0  0  0  0  0  0  0  0  0  0  0
   -1.6914   -3.6642    0.6358 C   0  0  0  0  0  0  0  0  0  0  0  0
   -0.8012   -4.2081    1.2625 O   0  0  0  0  0  0  0  0  0  0  0  0
   -1.5034   -2.3909    0.1273 N   0  0  0  0  0  0  0  0  0  0  0  0
   -2.2425   -2.0306   -0.4695 H   0  0  0  0  0  0  0  0  0  0  0  0
   -0.2211   -1.6591    0.1836 C   0  0  1  0  0  0  0  0  0  0  0  0
    0.5556   -2.2595   -0.3042 H   0  0  0  0  0  0  0  0  0  0  0  0
   -0.3921   -0.3353   -0.6110 C   0  0  0  0  0  0  0  0  0  0  0  0
   -0.1606   -0.5530   -1.6591 H   0  0  0  0  0  0  0  0  0  0  0  0
   -1.4381   -0.0126   -0.5702 H   0  0  0  0  0  0  0  0  0  0  0  0
    0.4757    0.8442   -0.1232 C   0  0  0  0  0  0  0  0  0  0  0  0
   -0.0351    1.3771    0.6866 H   0  0  0  0  0  0  0  0  0  0  0  0
    1.4272    0.4663    0.2630 H   0  0  0  0  0  0  0  0  0  0  0  0
    0.8253    1.7889   -1.2708 C   0  0  0  0  0  0  0  0  0  0  0  0
    1.2848    1.2148   -2.0831 H   0  0  0  0  0  0  0  0  0  0  0  0
   -0.0902    2.2588   -1.6467 H   0  0  0  0  0  0  0  0  0  0  0  0
    1.7669    2.8107   -0.7758 N   0  3  0  0  0  0  0  0  0  0  0  0
    2.0911    2.7087    0.1860 H   0  0  0  0  0  0  0  0  0  0  0  0
    2.2362    3.7833   -1.5019 C   0  0  0  0  0  0  0  0  0  0  0  0
    1.8769    3.9439   -2.8205 N   0  0  0  0  0  0  0  0  0  0  0  0
    1.3711    3.1836   -3.2697 H   0  0  0  0  0  0  0  0  0  0  0  0
    2.4418    4.5545   -3.4075 H   0  0  0  0  0  0  0  0  0  0  0  0
    3.1192    4.6772   -0.9447 N   0  0  0  0  0  0  0  0  0  0  0  0
    3.2612    4.6648    0.0637 H   0  0  0  0  0  0  0  0  0  0  0  0
    3.3262    5.5385   -1.4468 H   0  0  0  0  0  0  0  0  0  0  0  0
    0.2513   -1.4454    1.6461 C   0  0  0  0  0  0  0  0  0  0  0  0
    1.4494   -1.3960    1.8965 O   0  0  0  0  0  0  0  0  0  0  0  0
   -0.6505   -1.0236    2.6072 N   0  0  0  0  0  0  0  0  0  0  0  0
   -1.6268   -1.2077    2.3958 H   0  0  0  0  0  0  0  0  0  0  0  0
   -0.2727   -0.8665    4.0076 C   0  0  0  0  0  0  0  0  0  0  0  0
    0.5052   -0.1033    4.1139 H   0  0  0  0  0  0  0  0  0  0  0  0
   -1.1387   -0.5599    4.6023 H   0  0  0  0  0  0  0  0  0  0  0  0
    0.1065   -1.8125    4.4095 H   0  0  0  0  0  0  0  0  0  0  0  0
  1  2  1  0  0  0  0
  2  3  1  0  0  0  0
  2  4  1  0  0  0  0
  2  5  1  0  0  0  0
  5  6  2  0  0  0  0
  5  7  1  0  0  0  0
  7  8  1  0  0  0  0
  7  9  1  0  0  0  0
  9 10  1  0  0  0  0
  9 11  1  0  0  0  0
  9 29  1  0  0  0  0
 11 12  1  0  0  0  0
 11 13  1  0  0  0  0
 11 14  1  0  0  0  0
 14 15  1  0  0  0  0
 14 16  1  0  0  0  0
 14 17  1  0  0  0  0
 17 18  1  0  0  0  0
 17 19  1  0  0  0  0
 17 20  1  0  0  0  0
 20 21  1  0  0  0  0
 20 22  2  0  0  0  0
 22 23  1  0  0  0  0
 22 26  1  0  0  0  0
 23 24  1  0  0  0  0
 23 25  1  0  0  0  0
 26 27  1  0  0  0  0
 26 28  1  0  0  0  0
 29 30  2  0  0  0  0
 29 31  1  0  0  0  0
 31 32  1  0  0  0  0
 31 33  1  0  0  0  0
 33 34  1  0  0  0  0
 33 35  1  0  0  0  0
 33 36  1  0  0  0  0
M  CHG  1  20   1
M  END
$$$$

  -OEChem-04042215563D

 36 35  0     1  0  0  0  0  0999 V2000
   -2.9434   -5.4112    0.8448 H   0  0  0  0  0  0  0  0  0  0  0  0
   -3.0026   -4.4066    0.4155 C   0  0  0  0  0  0  0  0  0  0  0  0
   -3.8263   -3.8699    0.8917 H   0  0  0  0  0  0  0  0  0  0  0  0
   -3.2025   -4.4957   -0.6548 H   0  0  0  0  0  0  0  0  0  0  0  0
   -1.6982   -3.6667    0.6424 C   0  0  0  0  0  0  0  0  0  0  0  0
   -0.8045   -4.1945    1.2782 O   0  0  0  0  0  0  0  0  0  0  0  0
   -1.5277   -2.3901    0.1360 N   0  0  0  0  0  0  0  0  0  0  0  0
   -2.2682   -2.0434   -0.4672 H   0  0  0  0  0  0  0  0  0  0  0  0
   -0.2512   -1.6481    0.1838 C   0  0  1  0  0  0  0  0  0  0  0  0
    0.5222   -2.2511   -0.3063 H   0  0  0  0  0  0  0  0  0  0  0  0
   -0.4171   -0.3310   -0.6208 C   0  0  0  0  0  0  0  0  0  0  0  0
   -0.1815   -0.5452   -1.6688 H   0  0  0  0  0  0  0  0  0  0  0  0
   -1.4618   -0.0052   -0.5790 H   0  0  0  0  0  0  0  0  0  0  0  0
    0.4562    0.8349   -0.1224 C   0  0  0  0  0  0  0  0  0  0  0  0
    0.0669    1.2163    0.8283 H   0  0  0  0  0  0  0  0  0  0  0  0
    1.4760    0.4701    0.0451 H   0  0  0  0  0  0  0  0  0  0  0  0
    0.5239    1.9589   -1.1524 C   0  0  0  0  0  0  0  0  0  0  0  0
    0.8732    1.5530   -2.1083 H   0  0  0  0  0  0  0  0  0  0  0  0
   -0.4754    2.3853   -1.2950 H   0  0  0  0  0  0  0  0  0  0  0  0
    1.4606    2.9870   -0.6633 N   0  3  0  0  0  0  0  0  0  0  0  0
    1.9622    2.7761    0.1997 H   0  0  0  0  0  0  0  0  0  0  0  0
    1.7033    4.1067   -1.2802 C   0  0  0  0  0  0  0  0  0  0  0  0
    1.0905    4.4292   -2.4695 N   0  0  0  0  0  0  0  0  0  0  0  0
    0.5741    3.6957   -2.9504 H   0  0  0  0  0  0  0  0  0  0  0  0
    1.4818    5.1843   -3.0293 H   0  0  0  0  0  0  0  0  0  0  0  0
    2.5972    4.9976   -0.7359 N   0  0  0  0  0  0  0  0  0  0  0  0
    2.9253    4.8436    0.2160 H   0  0  0  0  0  0  0  0  0  0  0  0
    2.6264    5.9465   -1.1045 H   0  0  0  0  0  0  0  0  0  0  0  0
    0.2429   -1.4292    1.6380 C   0  0  0  0  0  0  0  0  0  0  0  0
    1.4439   -1.3334    1.8597 O   0  0  0  0  0  0  0  0  0  0  0  0
   -0.6479   -1.0152    2.6129 N   0  0  0  0  0  0  0  0  0  0  0  0
   -1.6228   -1.2300    2.4250 H   0  0  0  0  0  0  0  0  0  0  0  0
   -0.2447   -0.8430    4.0049 C   0  0  0  0  0  0  0  0  0  0  0  0
    0.5225   -0.0665    4.0917 H   0  0  0  0  0  0  0  0  0  0  0  0
   -1.1033   -0.5475    4.6155 H   0  0  0  0  0  0  0  0  0  0  0  0
    0.1582   -1.7802    4.4045 H   0  0  0  0  0  0  0  0  0  0  0  0
  1  2  1  0  0  0  0
  2  3  1  0  0  0  0
  2  4  1  0  0  0  0
  2  5  1  0  0  0  0
  5  6  2  0  0  0  0
  5  7  1  0  0  0  0
  7  8  1  0  0  0  0
  7  9  1  0  0  0  0
  9 10  1  0  0  0  0
  9 11  1  0  0  0  0
  9 29  1  0  0  0  0
 11 12  1  0  0  0  0
 11 13  1  0  0  0  0
 11 14  1  0  0  0  0
 14 15  1  0  0  0  0
 14 16  1  0  0  0  0
 14 17  1  0  0  0  0
 17 18  1  0  0  0  0
 17 19  1  0  0  0  0
 17 20  1  0  0  0  0
 20 21  1  0  0  0  0
 20 22  2  0  0  0  0
 22 23  1  0  0  0  0
 22 26  1  0  0  0  0
 23 24  1  0  0  0  0
 23 25  1  0  0  0  0
 26 27  1  0  0  0  0
 26 28  1  0  0  0  0
 29 30  2  0  0  0  0
 29 31  1  0  0  0  0
 31 32  1  0  0  0  0
 31 33  1  0  0  0  0
 33 34  1  0  0  0  0
 33 35  1  0  0  0  0
 33 36  1  0  0  0  0
M  CHG  1  20   1
M  END
$$$$

  -OEChem-04042215563D

 36 35  0     1  0  0  0  0  0999 V2000
   -2.9241   -5.4326    0.8497 H   0  0  0  0  0  0  0  0  0  0  0  0
   -2.9890   -4.4370    0.4009 C   0  0  0  0  0  0  0  0  0  0  0  0
   -3.8327   -3.9056    0.8472 H   0  0  0  0  0  0  0  0  0  0  0  0
   -3.1615   -4.5484   -0.6722 H   0  0  0  0  0  0  0  0  0  0  0  0
   -1.7018   -3.6723    0.6441 C   0  0  0  0  0  0  0  0  0  0  0  0
   -0.8020   -4.1857    1.2834 O   0  0  0  0  0  0  0  0  0  0  0  0
   -1.5483   -2.3943    0.1366 N   0  0  0  0  0  0  0  0  0  0  0  0
   -2.2901   -2.0611   -0.4726 H   0  0  0  0  0  0  0  0  0  0  0  0
   -0.2768   -1.6450    0.1718 C   0  0  1  0  0  0  0  0  0  0  0  0
    0.4897   -2.2430   -0.3342 H   0  0  0  0  0  0  0  0  0  0  0  0
   -0.4638   -0.3318   -0.6270 C   0  0  0  0  0  0  0  0  0  0  0  0
   -0.5093   -0.5717   -1.6947 H   0  0  0  0  0  0  0  0  0  0  0  0
   -1.4211    0.1203   -0.3449 H   0  0  0  0  0  0  0  0  0  0  0  0
    0.6465    0.7047   -0.3773 C   0  0  0  0  0  0  0  0  0  0  0  0
    0.6761    0.9807    0.6823 H   0  0  0  0  0  0  0  0  0  0  0  0
    1.6139    0.2613   -0.6403 H   0  0  0  0  0  0  0  0  0  0  0  0
    0.4162    1.9753   -1.1881 C   0  0  0  0  0  0  0  0  0  0  0  0
    0.3573    1.7212   -2.2522 H   0  0  0  0  0  0  0  0  0  0  0  0
   -0.5294    2.4374   -0.8830 H   0  0  0  0  0  0  0  0  0  0  0  0
    1.5437    2.8922   -0.9408 N   0  3  0  0  0  0  0  0  0  0  0  0
    2.2920    2.5457   -0.3400 H   0  0  0  0  0  0  0  0  0  0  0  0
    1.6409    4.0849   -1.4513 C   0  0  0  0  0  0  0  0  0  0  0  0
    0.6752    4.5977   -2.2867 N   0  0  0  0  0  0  0  0  0  0  0  0
   -0.0383    3.9603   -2.6333 H   0  0  0  0  0  0  0  0  0  0  0  0
    0.9023    5.4147   -2.8502 H   0  0  0  0  0  0  0  0  0  0  0  0
    2.7381    4.8584   -1.1564 N   0  0  0  0  0  0  0  0  0  0  0  0
    3.3660    4.5554   -0.4137 H   0  0  0  0  0  0  0  0  0  0  0  0
    2.7112    5.8505   -1.3848 H   0  0  0  0  0  0  0  0  0  0  0  0
    0.2488   -1.4140    1.6112 C   0  0  0  0  0  0  0  0  0  0  0  0
    1.4546   -1.2947    1.7951 O   0  0  0  0  0  0  0  0  0  0  0  0
   -0.6216   -0.9998    2.6037 N   0  0  0  0  0  0  0  0  0  0  0  0
   -1.5984   -1.2308    2.4471 H   0  0  0  0  0  0  0  0  0  0  0  0
   -0.1838   -0.7792    3.9780 C   0  0  0  0  0  0  0  0  0  0  0  0
    0.5868   -0.0021    4.0179 H   0  0  0  0  0  0  0  0  0  0  0  0
   -1.0268   -0.4583    4.5977 H   0  0  0  0  0  0  0  0  0  0  0  0
    0.2266   -1.7027    4.4010 H   0  0  0  0  0  0  0  0  0  0  0  0
  1  2  1  0  0  0  0
  2  3  1  0  0  0  0
  2  4  1  0  0  0  0
  2  5  1  0  0  0  0
  5  6  2  0  0  0  0
  5  7  1  0  0  0  0
  7  8  1  0  0  0  0
  7  9  1  0  0  0  0
  9 10  1  0  0  0  0
  9 11  1  0  0  0  0
  9 29  1  0  0  0  0
 11 12  1  0  0  0  0
 11 13  1  0  0  0  0
 11 14  1  0  0  0  0
 14 15  1  0  0  0  0
 14 16  1  0  0  0  0
 14 17  1  0  0  0  0
 17 18  1  0  0  0  0
 17 19  1  0  0  0  0
 17 20  1  0  0  0  0
 20 21  1  0  0  0  0
 20 22  2  0  0  0  0
 22 23  1  0  0  0  0
 22 26  1  0  0  0  0
 23 24  1  0  0  0  0
 23 25  1  0  0  0  0
 26 27  1  0  0  0  0
 26 28  1  0  0  0  0
 29 30  2  0  0  0  0
 29 31  1  0  0  0  0
 31 32  1  0  0  0  0
 31 33  1  0  0  0  0
 33 34  1  0  0  0  0
 33 35  1  0  0  0  0
 33 36  1  0  0  0  0
M  CHG  1  20   1
M  END
$$$$

  -OEChem-04042215563D

 36 35  0     1  0  0  0  0  0999 V2000
   -2.9628   -5.4060    0.8113 H   0  0  0  0  0  0  0  0  0  0  0  0
   -3.0087   -4.4022    0.3785 C   0  0  0  0  0  0  0  0  0  0  0  0
   -3.8418   -3.8620    0.8343 H   0  0  0  0  0  0  0  0  0  0  0  0
   -3.1836   -4.4926   -0.6961 H   0  0  0  0  0  0  0  0  0  0  0  0
   -1.7076   -3.6657    0.6336 C   0  0  0  0  0  0  0  0  0  0  0  0
   -0.8271   -4.1972    1.2845 O   0  0  0  0  0  0  0  0  0  0  0  0
   -1.5282   -2.3865    0.1373 N   0  0  0  0  0  0  0  0  0  0  0  0
   -2.2538   -2.0428   -0.4853 H   0  0  0  0  0  0  0  0  0  0  0  0
   -0.2466   -1.6552    0.1933 C   0  0  1  0  0  0  0  0  0  0  0  0
    0.5202   -2.2580   -0.3069 H   0  0  0  0  0  0  0  0  0  0  0  0
   -0.4151   -0.3367   -0.6042 C   0  0  0  0  0  0  0  0  0  0  0  0
   -0.4699   -0.5674   -1.6734 H   0  0  0  0  0  0  0  0  0  0  0  0
   -1.3713    0.1111   -0.3126 H   0  0  0  0  0  0  0  0  0  0  0  0
    0.6885    0.7134   -0.3615 C   0  0  0  0  0  0  0  0  0  0  0  0
    0.8856    0.8295    0.7079 H   0  0  0  0  0  0  0  0  0  0  0  0
    1.6166    0.3810   -0.8401 H   0  0  0  0  0  0  0  0  0  0  0  0
    0.2693    2.0852   -0.8815 C   0  0  0  0  0  0  0  0  0  0  0  0
    0.1024    2.0287   -1.9631 H   0  0  0  0  0  0  0  0  0  0  0  0
   -0.6651    2.3866   -0.3958 H   0  0  0  0  0  0  0  0  0  0  0  0
    1.3402    3.0508   -0.5736 N   0  3  0  0  0  0  0  0  0  0  0  0
    2.1334    2.6998   -0.0364 H   0  0  0  0  0  0  0  0  0  0  0  0
    1.3165    4.3042   -0.9219 C   0  0  0  0  0  0  0  0  0  0  0  0
    0.2615    4.8440   -1.6222 N   0  0  0  0  0  0  0  0  0  0  0  0
   -0.5820    4.2830   -1.7209 H   0  0  0  0  0  0  0  0  0  0  0  0
    0.1726    5.8572   -1.6685 H   0  0  0  0  0  0  0  0  0  0  0  0
    2.3698    5.1184   -0.5795 N   0  0  0  0  0  0  0  0  0  0  0  0
    3.2219    4.6921   -0.2195 H   0  0  0  0  0  0  0  0  0  0  0  0
    2.4428    6.0339   -1.0195 H   0  0  0  0  0  0  0  0  0  0  0  0
    0.2562   -1.4464    1.6440 C   0  0  0  0  0  0  0  0  0  0  0  0
    1.4600   -1.3610    1.8555 O   0  0  0  0  0  0  0  0  0  0  0  0
   -0.6261   -1.0298    2.6251 N   0  0  0  0  0  0  0  0  0  0  0  0
   -1.6025   -1.2448    2.4455 H   0  0  0  0  0  0  0  0  0  0  0  0
   -0.2124   -0.8510    4.0132 C   0  0  0  0  0  0  0  0  0  0  0  0
    0.5657   -0.0842    4.0891 H   0  0  0  0  0  0  0  0  0  0  0  0
   -1.0638   -0.5380    4.6252 H   0  0  0  0  0  0  0  0  0  0  0  0
    0.1799   -1.7899    4.4193 H   0  0  0  0  0  0  0  0  0  0  0  0
  1  2  1  0  0  0  0
  2  3  1  0  0  0  0
  2  4  1  0  0  0  0
  2  5  1  0  0  0  0
  5  6  2  0  0  0  0
  5  7  1  0  0  0  0
  7  8  1  0  0  0  0
  7  9  1  0  0  0  0
  9 10  1  0  0  0  0
  9 11  1  0  0  0  0
  9 29  1  0  0  0  0
 11 12  1  0  0  0  0
 11 13  1  0  0  0  0
 11 14  1  0  0  0  0
 14 15  1  0  0  0  0
 14 16  1  0  0  0  0
 14 17  1  0  0  0  0
 17 18  1  0  0  0  0
 17 19  1  0  0  0  0
 17 20  1  0  0  0  0
 20 21  1  0  0  0  0
 20 22  2  0  0  0  0
 22 23  1  0  0  0  0
 22 26  1  0  0  0  0
 23 24  1  0  0  0  0
 23 25  1  0  0  0  0
 26 27  1  0  0  0  0
 26 28  1  0  0  0  0
 29 30  2  0  0  0  0
 29 31  1  0  0  0  0
 31 32  1  0  0  0  0
 31 33  1  0  0  0  0
 33 34  1  0  0  0  0
 33 35  1  0  0  0  0
 33 36  1  0  0  0  0
M  CHG  1  20   1
M  END
$$$$

  -OEChem-04042215563D

 36 35  0     1  0  0  0  0  0999 V2000
   -3.0023   -5.3808    0.8134 H   0  0  0  0  0  0  0  0  0  0  0  0
   -3.0208   -4.3867    0.3570 C   0  0  0  0  0  0  0  0  0  0  0  0
   -3.8618   -3.8264    0.7720 H   0  0  0  0  0  0  0  0  0  0  0  0
   -3.1607   -4.4999   -0.7206 H   0  0  0  0  0  0  0  0  0  0  0  0
   -1.7195   -3.6600    0.6390 C   0  0  0  0  0  0  0  0  0  0  0  0
   -0.8552   -4.2009    1.3034 O   0  0  0  0  0  0  0  0  0  0  0  0
   -1.5207   -2.3816    0.1469 N   0  0  0  0  0  0  0  0  0  0  0  0
   -2.2292   -2.0392   -0.4958 H   0  0  0  0  0  0  0  0  0  0  0  0
   -0.2283   -1.6673    0.2074 C   0  0  1  0  0  0  0  0  0  0  0  0
    0.5353   -2.2708   -0.2975 H   0  0  0  0  0  0  0  0  0  0  0  0
   -0.3967   -0.3380   -0.5758 C   0  0  0  0  0  0  0  0  0  0  0  0
   -0.4754   -0.5559   -1.6463 H   0  0  0  0  0  0  0  0  0  0  0  0
   -1.3499    0.1015   -0.2626 H   0  0  0  0  0  0  0  0  0  0  0  0
    0.7034    0.7259   -0.3522 C   0  0  0  0  0  0  0  0  0  0  0  0
    1.1207    0.6684    0.6545 H   0  0  0  0  0  0  0  0  0  0  0  0
    1.5238    0.5449   -1.0556 H   0  0  0  0  0  0  0  0  0  0  0  0
    0.1514    2.1403   -0.5139 C   0  0  0  0  0  0  0  0  0  0  0  0
   -0.2109    2.2746   -1.5391 H   0  0  0  0  0  0  0  0  0  0  0  0
   -0.6866    2.2825    0.1773 H   0  0  0  0  0  0  0  0  0  0  0  0
    1.2264    3.1039   -0.2134 N   0  3  0  0  0  0  0  0  0  0  0  0
    2.1076    2.7171    0.1253 H   0  0  0  0  0  0  0  0  0  0  0  0
    1.1000    4.3949   -0.3161 C   0  0  0  0  0  0  0  0  0  0  0  0
   -0.0755    4.9800   -0.7279 N   0  0  0  0  0  0  0  0  0  0  0  0
   -0.9033    4.3913   -0.7888 H   0  0  0  0  0  0  0  0  0  0  0  0
   -0.2069    5.9763   -0.5643 H   0  0  0  0  0  0  0  0  0  0  0  0
    2.1650    5.2048   -0.0017 N   0  0  0  0  0  0  0  0  0  0  0  0
    3.0781    4.7781    0.1452 H   0  0  0  0  0  0  0  0  0  0  0  0
    2.1344    6.1825   -0.2854 H   0  0  0  0  0  0  0  0  0  0  0  0
    0.2636   -1.4759    1.6651 C   0  0  0  0  0  0  0  0  0  0  0  0
    1.4658   -1.4391    1.8970 O   0  0  0  0  0  0  0  0  0  0  0  0
   -0.6204   -1.0534    2.6424 N   0  0  0  0  0  0  0  0  0  0  0  0
   -1.5979   -1.2529    2.4509 H   0  0  0  0  0  0  0  0  0  0  0  0
   -0.2161   -0.9043    4.0369 C   0  0  0  0  0  0  0  0  0  0  0  0
    0.5947   -0.1742    4.1289 H   0  0  0  0  0  0  0  0  0  0  0  0
   -1.0595   -0.5575    4.6415 H   0  0  0  0  0  0  0  0  0  0  0  0
    0.1294   -1.8628    4.4393 H   0  0  0  0  0  0  0  0  0  0  0  0
  1  2  1  0  0  0  0
  2  3  1  0  0  0  0
  2  4  1  0  0  0  0
  2  5  1  0  0  0  0
  5  6  2  0  0  0  0
  5  7  1  0  0  0  0
  7  8  1  0  0  0  0
  7  9  1  0  0  0  0
  9 10  1  0  0  0  0
  9 11  1  0  0  0  0
  9 29  1  0  0  0  0
 11 12  1  0  0  0  0
 11 13  1  0  0  0  0
 11 14  1  0  0  0  0
 14 15  1  0  0  0  0
 14 16  1  0  0  0  0
 14 17  1  0  0  0  0
 17 18  1  0  0  0  0
 17 19  1  0  0  0  0
 17 20  1  0  0  0  0
 20 21  1  0  0  0  0
 20 22  2  0  0  0  0
 22 23  1  0  0  0  0
 22 26  1  0  0  0  0
 23 24  1  0  0  0  0
 23 25  1  0  0  0  0
 26 27  1  0  0  0  0
 26 28  1  0  0  0  0
 29 30  2  0  0  0  0
 29 31  1  0  0  0  0
 31 32  1  0  0  0  0
 31 33  1  0  0  0  0
 33 34  1  0  0  0  0
 33 35  1  0  0  0  0
 33 36  1  0  0  0  0
M  CHG  1  20   1
M  END
$$$$

  -OEChem-04042215563D

 36 35  0     1  0  0  0  0  0999 V2000
   -2.9756   -5.3888    0.8330 H   0  0  0  0  0  0  0  0  0  0  0  0
   -3.0084   -4.3888    0.3904 C   0  0  0  0  0  0  0  0  0  0  0  0
   -3.8485   -3.8412    0.8236 H   0  0  0  0  0  0  0  0  0  0  0  0
   -3.1615   -4.4884   -0.6867 H   0  0  0  0  0  0  0  0  0  0  0  0
   -1.7093   -3.6560    0.6662 C   0  0  0  0  0  0  0  0  0  0  0  0
   -0.8497   -4.1853    1.3457 O   0  0  0  0  0  0  0  0  0  0  0  0
   -1.5077   -2.3871    0.1506 N   0  0  0  0  0  0  0  0  0  0  0  0
   -2.2103   -2.0611   -0.5072 H   0  0  0  0  0  0  0  0  0  0  0  0
   -0.2136   -1.6737    0.1966 C   0  0  1  0  0  0  0  0  0  0  0  0
    0.5529   -2.2764   -0.3051 H   0  0  0  0  0  0  0  0  0  0  0  0
   -0.3998   -0.3460   -0.5845 C   0  0  0  0  0  0  0  0  0  0  0  0
   -0.4846   -0.5715   -1.6530 H   0  0  0  0  0  0  0  0  0  0  0  0
   -1.3565    0.0858   -0.2709 H   0  0  0  0  0  0  0  0  0  0  0  0
    0.6978    0.7278   -0.3829 C   0  0  0  0  0  0  0  0  0  0  0  0
    1.3426    0.5029    0.4671 H   0  0  0  0  0  0  0  0  0  0  0  0
    1.3440    0.7375   -1.2677 H   0  0  0  0  0  0  0  0  0  0  0  0
    0.0969    2.1148   -0.1661 C   0  0  0  0  0  0  0  0  0  0  0  0
   -0.4383    2.4279   -1.0694 H   0  0  0  0  0  0  0  0  0  0  0  0
   -0.6133    2.0713    0.6671 H   0  0  0  0  0  0  0  0  0  0  0  0
    1.1850    3.0587    0.1484 N   0  3  0  0  0  0  0  0  0  0  0  0
    2.1188    2.6627    0.2577 H   0  0  0  0  0  0  0  0  0  0  0  0
    1.0087    4.3306    0.3570 C   0  0  0  0  0  0  0  0  0  0  0  0
   -0.2349    4.9144    0.2765 N   0  0  0  0  0  0  0  0  0  0  0  0
   -1.0442    4.3010    0.2108 H   0  0  0  0  0  0  0  0  0  0  0  0
   -0.3658    5.8390    0.6817 H   0  0  0  0  0  0  0  0  0  0  0  0
    2.0891    5.1191    0.6725 N   0  0  0  0  0  0  0  0  0  0  0  0
    3.0256    4.7321    0.5702 H   0  0  0  0  0  0  0  0  0  0  0  0
    1.9829    6.1311    0.6337 H   0  0  0  0  0  0  0  0  0  0  0  0
    0.2659   -1.4640    1.6576 C   0  0  0  0  0  0  0  0  0  0  0  0
    1.4636   -1.4520    1.9134 O   0  0  0  0  0  0  0  0  0  0  0  0
   -0.6281   -1.0265    2.6195 N   0  0  0  0  0  0  0  0  0  0  0  0
   -1.6034   -1.2198    2.4114 H   0  0  0  0  0  0  0  0  0  0  0  0
   -0.2467   -0.9032    4.0230 C   0  0  0  0  0  0  0  0  0  0  0  0
    0.5610   -0.1733    4.1422 H   0  0  0  0  0  0  0  0  0  0  0  0
   -1.1006   -0.5712    4.6212 H   0  0  0  0  0  0  0  0  0  0  0  0
    0.0942   -1.8692    4.4116 H   0  0  0  0  0  0  0  0  0  0  0  0
  1  2  1  0  0  0  0
  2  3  1  0  0  0  0
  2  4  1  0  0  0  0
  2  5  1  0  0  0  0
  5  6  2  0  0  0  0
  5  7  1  0  0  0  0
  7  8  1  0  0  0  0
  7  9  1  0  0  0  0
  9 10  1  0  0  0  0
  9 11  1  0  0  0  0
  9 29  1  0  0  0  0
 11 12  1  0  0  0  0
 11 13  1  0  0  0  0
 11 14  1  0  0  0  0
 14 15  1  0  0  0  0
 14 16  1  0  0  0  0
 14 17  1  0  0  0  0
 17 18  1  0  0  0  0
 17 19  1  0  0  0  0
 17 20  1  0  0  0  0
 20 21  1  0  0  0  0
 20 22  2  0  0  0  0
 22 23  1  0  0  0  0
 22 26  1  0  0  0  0
 23 24  1  0  0  0  0
 23 25  1  0  0  0  0
 26 27  1  0  0  0  0
 26 28  1  0  0  0  0
 29 30  2  0  0  0  0
 29 31  1  0  0  0  0
 31 32  1  0  0  0  0
 31 33  1  0  0  0  0
 33 34  1  0  0  0  0
 33 35  1  0  0  0  0
 33 36  1  0  0  0  0
M  CHG  1  20   1
M  END
$$$$

  -OEChem-04042215563D

 36 35  0     1  0  0  0  0  0999 V2000
   -2.9147   -5.4245    0.8576 H   0  0  0  0  0  0  0  0  0  0  0  0
   -2.9634   -4.4316    0.4008 C   0  0  0  0  0  0  0  0  0  0  0  0
   -3.8233   -3.8981    0.8122 H   0  0  0  0  0  0  0  0  0  0  0  0
   -3.0961   -4.5495   -0.6773 H   0  0  0  0  0  0  0  0  0  0  0  0
   -1.6869   -3.6640    0.6881 C   0  0  0  0  0  0  0  0  0  0  0  0
   -0.8299   -4.1592    1.3961 O   0  0  0  0  0  0  0  0  0  0  0  0
   -1.5043   -2.4012    0.1506 N   0  0  0  0  0  0  0  0  0  0  0  0
   -2.2012   -2.1107   -0.5297 H   0  0  0  0  0  0  0  0  0  0  0  0
   -0.2205   -1.6683    0.1796 C   0  0  1  0  0  0  0  0  0  0  0  0
    0.5549   -2.2568   -0.3242 H   0  0  0  0  0  0  0  0  0  0  0  0
   -0.4398   -0.3412   -0.5898 C   0  0  0  0  0  0  0  0  0  0  0  0
   -0.5129   -0.5736   -1.6577 H   0  0  0  0  0  0  0  0  0  0  0  0
   -1.4050    0.0804   -0.2881 H   0  0  0  0  0  0  0  0  0  0  0  0
    0.6553    0.7332   -0.3879 C   0  0  0  0  0  0  0  0  0  0  0  0
    1.4853    0.3649    0.2179 H   0  0  0  0  0  0  0  0  0  0  0  0
    1.0821    0.9713   -1.3684 H   0  0  0  0  0  0  0  0  0  0  0  0
    0.0900    2.0176    0.2146 C   0  0  0  0  0  0  0  0  0  0  0  0
   -0.5976    2.4852   -0.4989 H   0  0  0  0  0  0  0  0  0  0  0  0
   -0.4635    1.7691    1.1272 H   0  0  0  0  0  0  0  0  0  0  0  0
    1.2067    2.9244    0.5387 N   0  3  0  0  0  0  0  0  0  0  0  0
    2.1484    2.5459    0.4386 H   0  0  0  0  0  0  0  0  0  0  0  0
    1.0561    4.1236    1.0207 C   0  0  0  0  0  0  0  0  0  0  0  0
   -0.1890    4.6649    1.2455 N   0  0  0  0  0  0  0  0  0  0  0  0
   -0.9920    4.0424    1.1893 H   0  0  0  0  0  0  0  0  0  0  0  0
   -0.2607    5.4848    1.8449 H   0  0  0  0  0  0  0  0  0  0  0  0
    2.1659    4.8768    1.3209 N   0  0  0  0  0  0  0  0  0  0  0  0
    3.0790    4.5521    1.0076 H   0  0  0  0  0  0  0  0  0  0  0  0
    2.0468    5.8727    1.4968 H   0  0  0  0  0  0  0  0  0  0  0  0
    0.2558   -1.4298    1.6384 C   0  0  0  0  0  0  0  0  0  0  0  0
    1.4517   -1.3867    1.8992 O   0  0  0  0  0  0  0  0  0  0  0  0
   -0.6493   -0.9911    2.5897 N   0  0  0  0  0  0  0  0  0  0  0  0
   -1.6181   -1.2145    2.3804 H   0  0  0  0  0  0  0  0  0  0  0  0
   -0.2775   -0.8592    3.9949 C   0  0  0  0  0  0  0  0  0  0  0  0
    0.5325   -0.1321    4.1148 H   0  0  0  0  0  0  0  0  0  0  0  0
   -1.1345   -0.5191    4.5843 H   0  0  0  0  0  0  0  0  0  0  0  0
    0.0559   -1.8239    4.3933 H   0  0  0  0  0  0  0  0  0  0  0  0
  1  2  1  0  0  0  0
  2  3  1  0  0  0  0
  2  4  1  0  0  0  0
  2  5  1  0  0  0  0
  5  6  2  0  0  0  0
  5  7  1  0  0  0  0
  7  8  1  0  0  0  0
  7  9  1  0  0  0  0
  9 10  1  0  0  0  0
  9 11  1  0  0  0  0
  9 29  1  0  0  0  0
 11 12  1  0  0  0  0
 11 13  1  0  0  0  0
 11 14  1  0  0  0  0
 14 15  1  0  0  0  0
 14 16  1  0  0  0  0
 14 17  1  0  0  0  0
 17 18  1  0  0  0  0
 17 19  1  0  0  0  0
 17 20  1  0  0  0  0
 20 21  1  0  0  0  0
 20 22  2  0  0  0  0
 22 23  1  0  0  0  0
 22 26  1  0  0  0  0
 23 24  1  0  0  0  0
 23 25  1  0  0  0  0
 26 27  1  0  0  0  0
 26 28  1  0  0  0  0
 29 30  2  0  0  0  0
 29 31  1  0  0  0  0
 31 32  1  0  0  0  0
 31 33  1  0  0  0  0
 33 34  1  0  0  0  0
 33 35  1  0  0  0  0
 33 36  1  0  0  0  0
M  CHG  1  20   1
M  END
$$$$

  -OEChem-04042215563D

 36 35  0     1  0  0  0  0  0999 V2000
   -2.1545   -5.4371    1.4592 H   0  0  0  0  0  0  0  0  0  0  0  0
   -2.3988   -4.5483    0.8700 C   0  0  0  0  0  0  0  0  0  0  0  0
   -3.3050   -4.0951    1.2786 H   0  0  0  0  0  0  0  0  0  0  0  0
   -2.5848   -4.8540   -0.1626 H   0  0  0  0  0  0  0  0  0  0  0  0
   -1.2506   -3.5587    0.9207 C   0  0  0  0  0  0  0  0  0  0  0  0
   -0.2452   -3.8259    1.5536 O   0  0  0  0  0  0  0  0  0  0  0  0
   -1.3520   -2.3481    0.2561 N   0  0  0  0  0  0  0  0  0  0  0  0
   -2.1616   -2.2527   -0.3524 H   0  0  0  0  0  0  0  0  0  0  0  0
   -0.2195   -1.4222    0.0396 C   0  0  1  0  0  0  0  0  0  0  0  0
    0.5823   -1.9272   -0.5116 H   0  0  0  0  0  0  0  0  0  0  0  0
   -0.7438   -0.2198   -0.7848 C   0  0  0  0  0  0  0  0  0  0  0  0
   -0.8983   -0.5677   -1.8119 H   0  0  0  0  0  0  0  0  0  0  0  0
   -1.7223    0.0883   -0.4008 H   0  0  0  0  0  0  0  0  0  0  0  0
    0.1876    1.0138   -0.8213 C   0  0  0  0  0  0  0  0  0  0  0  0
    1.2312    0.7364   -0.6361 H   0  0  0  0  0  0  0  0  0  0  0  0
    0.1641    1.3861   -1.8514 H   0  0  0  0  0  0  0  0  0  0  0  0
   -0.2604    2.1849    0.0582 C   0  0  0  0  0  0  0  0  0  0  0  0
   -0.0717    3.1252   -0.4706 H   0  0  0  0  0  0  0  0  0  0  0  0
   -1.3323    2.1149    0.2734 H   0  0  0  0  0  0  0  0  0  0  0  0
    0.5370    2.1289    1.2954 N   0  3  0  0  0  0  0  0  0  0  0  0
    0.8665    1.1976    1.5746 H   0  0  0  0  0  0  0  0  0  0  0  0
    1.0004    3.1522    1.9433 C   0  0  0  0  0  0  0  0  0  0  0  0
    0.6426    4.4433    1.6313 N   0  0  0  0  0  0  0  0  0  0  0  0
   -0.1494    4.5736    1.0057 H   0  0  0  0  0  0  0  0  0  0  0  0
    0.8416    5.1764    2.3087 H   0  0  0  0  0  0  0  0  0  0  0  0
    1.8849    2.9230    2.9682 N   0  0  0  0  0  0  0  0  0  0  0  0
    2.2985    1.9917    3.0267 H   0  0  0  0  0  0  0  0  0  0  0  0
    2.4432    3.7057    3.3019 H   0  0  0  0  0  0  0  0  0  0  0  0
    0.3522   -0.9829    1.4169 C   0  0  0  0  0  0  0  0  0  0  0  0
    1.5049   -0.5765    1.5345 O   0  0  0  0  0  0  0  0  0  0  0  0
   -0.5320   -0.6198    2.4188 N   0  0  0  0  0  0  0  0  0  0  0  0
   -1.4612   -1.0171    2.2988 H   0  0  0  0  0  0  0  0  0  0  0  0
   -0.0921   -0.3977    3.7934 C   0  0  0  0  0  0  0  0  0  0  0  0
    0.6190    0.4311    3.8514 H   0  0  0  0  0  0  0  0  0  0  0  0
   -0.9499   -0.1564    4.4290 H   0  0  0  0  0  0  0  0  0  0  0  0
    0.3885   -1.2996    4.1891 H   0  0  0  0  0  0  0  0  0  0  0  0
  1  2  1  0  0  0  0
  2  3  1  0  0  0  0
  2  4  1  0  0  0  0
  2  5  1  0  0  0  0
  5  6  2  0  0  0  0
  5  7  1  0  0  0  0
  7  8  1  0  0  0  0
  7  9  1  0  0  0  0
  9 10  1  0  0  0  0
  9 11  1  0  0  0  0
  9 29  1  0  0  0  0
 11 12  1  0  0  0  0
 11 13  1  0  0  0  0
 11 14  1  0  0  0  0
 14 15  1  0  0  0  0
 14 16  1  0  0  0  0
 14 17  1  0  0  0  0
 17 18  1  0  0  0  0
 17 19  1  0  0  0  0
 17 20  1  0  0  0  0
 20 21  1  0  0  0  0
 20 22  2  0  0  0  0
 22 23  1  0  0  0  0
 22 26  1  0  0  0  0
 23 24  1  0  0  0  0
 23 25  1  0  0  0  0
 26 27  1  0  0  0  0
 26 28  1  0  0  0  0
 29 30  2  0  0  0  0
 29 31  1  0  0  0  0
 31 32  1  0  0  0  0
 31 33  1  0  0  0  0
 33 34  1  0  0  0  0
 33 35  1  0  0  0  0
 33 36  1  0  0  0  0
M  CHG  1  20   1
M  END
$$$$

  -OEChem-04042215563D

 36 35  0     1  0  0  0  0  0999 V2000
   -2.6625   -5.4406    1.0760 H   0  0  0  0  0  0  0  0  0  0  0  0
   -2.6655   -4.5473    0.4445 C   0  0  0  0  0  0  0  0  0  0  0  0
   -3.6360   -4.0547    0.5386 H   0  0  0  0  0  0  0  0  0  0  0  0
   -2.5175   -4.8535   -0.5938 H   0  0  0  0  0  0  0  0  0  0  0  0
   -1.5570   -3.6045    0.8714 C   0  0  0  0  0  0  0  0  0  0  0  0
   -0.8253   -3.9048    1.7974 O   0  0  0  0  0  0  0  0  0  0  0  0
   -1.3778   -2.4003    0.2126 N   0  0  0  0  0  0  0  0  0  0  0  0
   -1.9403   -2.2674   -0.6243 H   0  0  0  0  0  0  0  0  0  0  0  0
   -0.2027   -1.5259    0.4032 C   0  0  1  0  0  0  0  0  0  0  0  0
    0.7074   -2.0910    0.1697 H   0  0  0  0  0  0  0  0  0  0  0  0
   -0.3180   -0.3383   -0.5838 C   0  0  0  0  0  0  0  0  0  0  0  0
   -0.0969   -0.7170   -1.5877 H   0  0  0  0  0  0  0  0  0  0  0  0
   -1.3495    0.0307   -0.5971 H   0  0  0  0  0  0  0  0  0  0  0  0
    0.6251    0.8461   -0.2859 C   0  0  0  0  0  0  0  0  0  0  0  0
    1.5757    0.4754    0.1128 H   0  0  0  0  0  0  0  0  0  0  0  0
    0.8541    1.3425   -1.2351 H   0  0  0  0  0  0  0  0  0  0  0  0
    0.0081    1.8903    0.6498 C   0  0  0  0  0  0  0  0  0  0  0  0
   -0.8821    2.3196    0.1770 H   0  0  0  0  0  0  0  0  0  0  0  0
   -0.3130    1.4238    1.5857 H   0  0  0  0  0  0  0  0  0  0  0  0
    0.9906    2.9546    0.9314 N   0  3  0  0  0  0  0  0  0  0  0  0
    1.0112    3.7426    0.2860 H   0  0  0  0  0  0  0  0  0  0  0  0
    1.8108    2.9472    1.9457 C   0  0  0  0  0  0  0  0  0  0  0  0
    1.8703    1.9146    2.8524 N   0  0  0  0  0  0  0  0  0  0  0  0
    1.4285    1.0258    2.5925 H   0  0  0  0  0  0  0  0  0  0  0  0
    2.6868    1.8518    3.4548 H   0  0  0  0  0  0  0  0  0  0  0  0
    2.6612    4.0113    2.1285 N   0  0  0  0  0  0  0  0  0  0  0  0
    2.5091    4.8595    1.5871 H   0  0  0  0  0  0  0  0  0  0  0  0
    3.1449    4.0934    3.0209 H   0  0  0  0  0  0  0  0  0  0  0  0
   -0.0804   -1.0681    1.8798 C   0  0  0  0  0  0  0  0  0  0  0  0
    1.0119   -0.7453    2.3373 O   0  0  0  0  0  0  0  0  0  0  0  0
   -1.2098   -0.6335    2.5514 N   0  0  0  0  0  0  0  0  0  0  0  0
   -2.0839   -1.0016    2.1835 H   0  0  0  0  0  0  0  0  0  0  0  0
   -1.1858   -0.2523    3.9601 C   0  0  0  0  0  0  0  0  0  0  0  0
   -0.5856    0.6506    4.1089 H   0  0  0  0  0  0  0  0  0  0  0  0
   -2.2018   -0.0500    4.3139 H   0  0  0  0  0  0  0  0  0  0  0  0
   -0.7649   -1.0608    4.5682 H   0  0  0  0  0  0  0  0  0  0  0  0
  1  2  1  0  0  0  0
  2  3  1  0  0  0  0
  2  4  1  0  0  0  0
  2  5  1  0  0  0  0
  5  6  2  0  0  0  0
  5  7  1  0  0  0  0
  7  8  1  0  0  0  0
  7  9  1  0  0  0  0
  9 10  1  0  0  0  0
  9 11  1  0  0  0  0
  9 29  1  0  0  0  0
 11 12  1  0  0  0  0
 11 13  1  0  0  0  0
 11 14  1  0  0  0  0
 14 15  1  0  0  0  0
 14 16  1  0  0  0  0
 14 17  1  0  0  0  0
 17 18  1  0  0  0  0
 17 19  1  0  0  0  0
 17 20  1  0  0  0  0
 20 21  1  0  0  0  0
 20 22  2  0  0  0  0
 22 23  1  0  0  0  0
 22 26  1  0  0  0  0
 23 24  1  0  0  0  0
 23 25  1  0  0  0  0
 26 27  1  0  0  0  0
 26 28  1  0  0  0  0
 29 30  2  0  0  0  0
 29 31  1  0  0  0  0
 31 32  1  0  0  0  0
 31 33  1  0  0  0  0
 33 34  1  0  0  0  0
 33 35  1  0  0  0  0
 33 36  1  0  0  0  0
M  CHG  1  20   1
M  END
$$$$

  -OEChem-04042215563D

 36 35  0     1  0  0  0  0  0999 V2000
   -2.6216   -5.5444    0.8536 H   0  0  0  0  0  0  0  0  0  0  0  0
   -2.6386   -4.6049    0.2932 C   0  0  0  0  0  0  0  0  0  0  0  0
   -3.6093   -4.1259    0.4413 H   0  0  0  0  0  0  0  0  0  0  0  0
   -2.5072   -4.8283   -0.7684 H   0  0  0  0  0  0  0  0  0  0  0  0
   -1.5269   -3.6926    0.7745 C   0  0  0  0  0  0  0  0  0  0  0  0
   -0.7849   -4.0555    1.6696 O   0  0  0  0  0  0  0  0  0  0  0  0
   -1.3602   -2.4417    0.2062 N   0  0  0  0  0  0  0  0  0  0  0  0
   -1.9369   -2.2433   -0.6076 H   0  0  0  0  0  0  0  0  0  0  0  0
   -0.1941   -1.5726    0.4610 C   0  0  1  0  0  0  0  0  0  0  0  0
    0.7145   -2.1299    0.2048 H   0  0  0  0  0  0  0  0  0  0  0  0
   -0.2854   -0.3543   -0.4950 C   0  0  0  0  0  0  0  0  0  0  0  0
   -0.0482   -0.7070   -1.5048 H   0  0  0  0  0  0  0  0  0  0  0  0
   -1.3205    0.0035   -0.5123 H   0  0  0  0  0  0  0  0  0  0  0  0
    0.6207    0.8582   -0.1803 C   0  0  0  0  0  0  0  0  0  0  0  0
    1.6359    0.4899    0.0053 H   0  0  0  0  0  0  0  0  0  0  0  0
    0.6632    1.4912   -1.0732 H   0  0  0  0  0  0  0  0  0  0  0  0
    0.1688    1.7306    1.0000 C   0  0  0  0  0  0  0  0  0  0  0  0
   -0.7942    2.1926    0.7567 H   0  0  0  0  0  0  0  0  0  0  0  0
    0.0195    1.1360    1.9022 H   0  0  0  0  0  0  0  0  0  0  0  0
    1.1765    2.7762    1.2612 N   0  3  0  0  0  0  0  0  0  0  0  0
    1.1328    3.6125    0.6812 H   0  0  0  0  0  0  0  0  0  0  0  0
    2.0989    2.6895    2.1793 C   0  0  0  0  0  0  0  0  0  0  0  0
    2.2420    1.5891    2.9923 N   0  0  0  0  0  0  0  0  0  0  0  0
    1.7332    0.7348    2.7385 H   0  0  0  0  0  0  0  0  0  0  0  0
    3.1170    1.4665    3.4953 H   0  0  0  0  0  0  0  0  0  0  0  0
    2.9735    3.7356    2.3525 N   0  0  0  0  0  0  0  0  0  0  0  0
    2.7672    4.6251    1.9032 H   0  0  0  0  0  0  0  0  0  0  0  0
    3.5472    3.7478    3.1938 H   0  0  0  0  0  0  0  0  0  0  0  0
   -0.0579   -1.2127    1.9582 C   0  0  0  0  0  0  0  0  0  0  0  0
    1.0455   -0.9256    2.4146 O   0  0  0  0  0  0  0  0  0  0  0  0
   -1.1789   -0.8312    2.6737 N   0  0  0  0  0  0  0  0  0  0  0  0
   -2.0601   -1.1752    2.2989 H   0  0  0  0  0  0  0  0  0  0  0  0
   -1.1303   -0.5098    4.0963 C   0  0  0  0  0  0  0  0  0  0  0  0
   -0.5466    0.4003    4.2673 H   0  0  0  0  0  0  0  0  0  0  0  0
   -2.1417   -0.3462    4.4820 H   0  0  0  0  0  0  0  0  0  0  0  0
   -0.6757   -1.3320    4.6602 H   0  0  0  0  0  0  0  0  0  0  0  0
  1  2  1  0  0  0  0
  2  3  1  0  0  0  0
  2  4  1  0  0  0  0
  2  5  1  0  0  0  0
  5  6  2  0  0  0  0
  5  7  1  0  0  0  0
  7  8  1  0  0  0  0
  7  9  1  0  0  0  0
  9 10  1  0  0  0  0
  9 11  1  0  0  0  0
  9 29  1  0  0  0  0
 11 12  1  0  0  0  0
 11 13  1  0  0  0  0
 11 14  1  0  0  0  0
 14 15  1  0  0  0  0
 14 16  1  0  0  0  0
 14 17  1  0  0  0  0
 17 18  1  0  0  0  0
 17 19  1  0  0  0  0
 17 20  1  0  0  0  0
 20 21  1  0  0  0  0
 20 22  2  0  0  0  0
 22 23  1  0  0  0  0
 22 26  1  0  0  0  0
 23 24  1  0  0  0  0
 23 25  1  0  0  0  0
 26 27  1  0  0  0  0
 26 28  1  0  0  0  0
 29 30  2  0  0  0  0
 29 31  1  0  0  0  0
 31 32  1  0  0  0  0
 31 33  1  0  0  0  0
 33 34  1  0  0  0  0
 33 35  1  0  0  0  0
 33 36  1  0  0  0  0
M  CHG  1  20   1
M  END
$$$$

  -OEChem-04042215563D

 36 35  0     1  0  0  0  0  0999 V2000
   -2.6258   -5.5802    0.6808 H   0  0  0  0  0  0  0  0  0  0  0  0
   -2.6269   -4.6187    0.1588 C   0  0  0  0  0  0  0  0  0  0  0  0
   -3.5903   -4.1310    0.3247 H   0  0  0  0  0  0  0  0  0  0  0  0
   -2.4961   -4.8014   -0.9105 H   0  0  0  0  0  0  0  0  0  0  0  0
   -1.5026   -3.7431    0.6777 C   0  0  0  0  0  0  0  0  0  0  0  0
   -0.7433   -4.1672    1.5304 O   0  0  0  0  0  0  0  0  0  0  0  0
   -1.3437   -2.4568    0.1922 N   0  0  0  0  0  0  0  0  0  0  0  0
   -1.9390   -2.1982   -0.5908 H   0  0  0  0  0  0  0  0  0  0  0  0
   -0.1821   -1.5998    0.5029 C   0  0  1  0  0  0  0  0  0  0  0  0
    0.7264   -2.1447    0.2204 H   0  0  0  0  0  0  0  0  0  0  0  0
   -0.2693   -0.3496   -0.4160 C   0  0  0  0  0  0  0  0  0  0  0  0
   -0.0400   -0.6739   -1.4369 H   0  0  0  0  0  0  0  0  0  0  0  0
   -1.3105   -0.0096   -0.4138 H   0  0  0  0  0  0  0  0  0  0  0  0
    0.5960    0.8994   -0.1080 C   0  0  0  0  0  0  0  0  0  0  0  0
    1.6425    0.5823   -0.1724 H   0  0  0  0  0  0  0  0  0  0  0  0
    0.4303    1.6336   -0.9039 H   0  0  0  0  0  0  0  0  0  0  0  0
    0.3926    1.6047    1.2439 C   0  0  0  0  0  0  0  0  0  0  0  0
   -0.5687    2.1299    1.2281 H   0  0  0  0  0  0  0  0  0  0  0  0
    0.3524    0.9048    2.0745 H   0  0  0  0  0  0  0  0  0  0  0  0
    1.4870    2.5674    1.4745 N   0  3  0  0  0  0  0  0  0  0  0  0
    1.4453    3.4461    0.9608 H   0  0  0  0  0  0  0  0  0  0  0  0
    2.4861    2.3534    2.2855 C   0  0  0  0  0  0  0  0  0  0  0  0
    2.6271    1.1908    3.0076 N   0  0  0  0  0  0  0  0  0  0  0  0
    2.0169    0.3982    2.7786 H   0  0  0  0  0  0  0  0  0  0  0  0
    3.5319    0.9731    3.4166 H   0  0  0  0  0  0  0  0  0  0  0  0
    3.4494    3.3226    2.4348 N   0  0  0  0  0  0  0  0  0  0  0  0
    3.2682    4.2540    2.0669 H   0  0  0  0  0  0  0  0  0  0  0  0
    4.1022    3.2350    3.2115 H   0  0  0  0  0  0  0  0  0  0  0  0
   -0.0423   -1.3356    2.0169 C   0  0  0  0  0  0  0  0  0  0  0  0
    1.0729   -1.1423    2.4943 O   0  0  0  0  0  0  0  0  0  0  0  0
   -1.1553   -1.0043    2.7676 N   0  0  0  0  0  0  0  0  0  0  0  0
   -2.0444   -1.2897    2.3642 H   0  0  0  0  0  0  0  0  0  0  0  0
   -1.0968   -0.8248    4.2144 C   0  0  0  0  0  0  0  0  0  0  0  0
   -0.4490    0.0185    4.4749 H   0  0  0  0  0  0  0  0  0  0  0  0
   -2.0973   -0.6243    4.6110 H   0  0  0  0  0  0  0  0  0  0  0  0
   -0.7094   -1.7294    4.6965 H   0  0  0  0  0  0  0  0  0  0  0  0
  1  2  1  0  0  0  0
  2  3  1  0  0  0  0
  2  4  1  0  0  0  0
  2  5  1  0  0  0  0
  5  6  2  0  0  0  0
  5  7  1  0  0  0  0
  7  8  1  0  0  0  0
  7  9  1  0  0  0  0
  9 10  1  0  0  0  0
  9 11  1  0  0  0  0
  9 29  1  0  0  0  0
 11 12  1  0  0  0  0
 11 13  1  0  0  0  0
 11 14  1  0  0  0  0
 14 15  1  0  0  0  0
 14 16  1  0  0  0  0
 14 17  1  0  0  0  0
 17 18  1  0  0  0  0
 17 19  1  0  0  0  0
 17 20  1  0  0  0  0
 20 21  1  0  0  0  0
 20 22  2  0  0  0  0
 22 23  1  0  0  0  0
 22 26  1  0  0  0  0
 23 24  1  0  0  0  0
 23 25  1  0  0  0  0
 26 27  1  0  0  0  0
 26 28  1  0  0  0  0
 29 30  2  0  0  0  0
 29 31  1  0  0  0  0
 31 32  1  0  0  0  0
 31 33  1  0  0  0  0
 33 34  1  0  0  0  0
 33 35  1  0  0  0  0
 33 36  1  0  0  0  0
M  CHG  1  20   1
M  END
$$$$

  -OEChem-04042215563D

 36 35  0     1  0  0  0  0  0999 V2000
   -2.6780   -5.5744    0.5625 H   0  0  0  0  0  0  0  0  0  0  0  0
   -2.6571   -4.5952    0.0749 C   0  0  0  0  0  0  0  0  0  0  0  0
   -3.6104   -4.0933    0.2571 H   0  0  0  0  0  0  0  0  0  0  0  0
   -2.5284   -4.7425   -1.0003 H   0  0  0  0  0  0  0  0  0  0  0  0
   -1.5142   -3.7633    0.6253 C   0  0  0  0  0  0  0  0  0  0  0  0
   -0.7584   -4.2389    1.4534 O   0  0  0  0  0  0  0  0  0  0  0  0
   -1.3294   -2.4621    0.1907 N   0  0  0  0  0  0  0  0  0  0  0  0
   -1.9252   -2.1564   -0.5747 H   0  0  0  0  0  0  0  0  0  0  0  0
   -0.1592   -1.6334    0.5459 C   0  0  1  0  0  0  0  0  0  0  0  0
    0.7464   -2.1787    0.2552 H   0  0  0  0  0  0  0  0  0  0  0  0
   -0.2348   -0.3626   -0.3512 C   0  0  0  0  0  0  0  0  0  0  0  0
   -0.0272   -0.6726   -1.3812 H   0  0  0  0  0  0  0  0  0  0  0  0
   -1.2775   -0.0276   -0.3248 H   0  0  0  0  0  0  0  0  0  0  0  0
    0.6066    0.9124   -0.0654 C   0  0  0  0  0  0  0  0  0  0  0  0
    1.6268    0.6673   -0.3809 H   0  0  0  0  0  0  0  0  0  0  0  0
    0.2534    1.7141   -0.7229 H   0  0  0  0  0  0  0  0  0  0  0  0
    0.6975    1.4682    1.3657 C   0  0  0  0  0  0  0  0  0  0  0  0
   -0.1941    2.0728    1.5647 H   0  0  0  0  0  0  0  0  0  0  0  0
    0.7128    0.6884    2.1152 H   0  0  0  0  0  0  0  0  0  0  0  0
    1.9106    2.2936    1.5175 N   0  3  0  0  0  0  0  0  0  0  0  0
    1.9260    3.1886    1.0311 H   0  0  0  0  0  0  0  0  0  0  0  0
    2.9434    1.9376    2.2309 C   0  0  0  0  0  0  0  0  0  0  0  0
    3.0073    0.7419    2.9107 N   0  0  0  0  0  0  0  0  0  0  0  0
    2.2775    0.0395    2.7435 H   0  0  0  0  0  0  0  0  0  0  0  0
    3.9098    0.4060    3.2364 H   0  0  0  0  0  0  0  0  0  0  0  0
    4.0237    2.7833    2.3147 N   0  0  0  0  0  0  0  0  0  0  0  0
    3.9185    3.7435    1.9944 H   0  0  0  0  0  0  0  0  0  0  0  0
    4.7275    2.5931    3.0257 H   0  0  0  0  0  0  0  0  0  0  0  0
   -0.0378   -1.4294    2.0711 C   0  0  0  0  0  0  0  0  0  0  0  0
    1.0773   -1.3547    2.5829 O   0  0  0  0  0  0  0  0  0  0  0  0
   -1.1525   -1.1098    2.8236 N   0  0  0  0  0  0  0  0  0  0  0  0
   -2.0458   -1.3228    2.3867 H   0  0  0  0  0  0  0  0  0  0  0  0
   -1.1140   -1.0185    4.2791 C   0  0  0  0  0  0  0  0  0  0  0  0
   -0.3904   -0.2629    4.6021 H   0  0  0  0  0  0  0  0  0  0  0  0
   -2.0981   -0.7370    4.6669 H   0  0  0  0  0  0  0  0  0  0  0  0
   -0.8331   -1.9838    4.7141 H   0  0  0  0  0  0  0  0  0  0  0  0
  1  2  1  0  0  0  0
  2  3  1  0  0  0  0
  2  4  1  0  0  0  0
  2  5  1  0  0  0  0
  5  6  2  0  0  0  0
  5  7  1  0  0  0  0
  7  8  1  0  0  0  0
  7  9  1  0  0  0  0
  9 10  1  0  0  0  0
  9 11  1  0  0  0  0
  9 29  1  0  0  0  0
 11 12  1  0  0  0  0
 11 13  1  0  0  0  0
 11 14  1  0  0  0  0
 14 15  1  0  0  0  0
 14 16  1  0  0  0  0
 14 17  1  0  0  0  0
 17 18  1  0  0  0  0
 17 19  1  0  0  0  0
 17 20  1  0  0  0  0
 20 21  1  0  0  0  0
 20 22  2  0  0  0  0
 22 23  1  0  0  0  0
 22 26  1  0  0  0  0
 23 24  1  0  0  0  0
 23 25  1  0  0  0  0
 26 27  1  0  0  0  0
 26 28  1  0  0  0  0
 29 30  2  0  0  0  0
 29 31  1  0  0  0  0
 31 32  1  0  0  0  0
 31 33  1  0  0  0  0
 33 34  1  0  0  0  0
 33 35  1  0  0  0  0
 33 36  1  0  0  0  0
M  CHG  1  20   1
M  END
$$$$

  -OEChem-04042215563D

 36 35  0     1  0  0  0  0  0999 V2000
   -3.2244   -5.3237    0.6778 H   0  0  0  0  0  0  0  0  0  0  0  0
   -3.1154   -4.3398    0.2122 C   0  0  0  0  0  0  0  0  0  0  0  0
   -3.9522   -3.7104    0.5236 H   0  0  0  0  0  0  0  0  0  0  0  0
   -3.1421   -4.4619   -0.8733 H   0  0  0  0  0  0  0  0  0  0  0  0
   -1.8023   -3.7085    0.6330 C   0  0  0  0  0  0  0  0  0  0  0  0
   -1.0491   -4.3122    1.3750 O   0  0  0  0  0  0  0  0  0  0  0  0
   -1.4604   -2.4483    0.1718 N   0  0  0  0  0  0  0  0  0  0  0  0
   -2.0744   -2.0504   -0.5343 H   0  0  0  0  0  0  0  0  0  0  0  0
   -0.1489   -1.8051    0.4036 C   0  0  1  0  0  0  0  0  0  0  0  0
    0.6530   -2.4445    0.0173 H   0  0  0  0  0  0  0  0  0  0  0  0
   -0.1950   -0.4887   -0.4440 C   0  0  0  0  0  0  0  0  0  0  0  0
   -0.1835   -0.7702   -1.5025 H   0  0  0  0  0  0  0  0  0  0  0  0
   -1.1725   -0.0338   -0.2484 H   0  0  0  0  0  0  0  0  0  0  0  0
    0.8310    0.6649   -0.2494 C   0  0  0  0  0  0  0  0  0  0  0  0
    1.6739    0.4776   -0.9236 H   0  0  0  0  0  0  0  0  0  0  0  0
    0.3659    1.6059   -0.5617 H   0  0  0  0  0  0  0  0  0  0  0  0
    1.3914    0.8188    1.1520 C   0  0  0  0  0  0  0  0  0  0  0  0
    0.5721    0.9816    1.8617 H   0  0  0  0  0  0  0  0  0  0  0  0
    1.8864   -0.1222    1.3790 H   0  0  0  0  0  0  0  0  0  0  0  0
    2.4117    1.8627    1.3100 N   0  3  0  0  0  0  0  0  0  0  0  0
    2.3803    2.6723    0.6923 H   0  0  0  0  0  0  0  0  0  0  0  0
    3.3379    1.7497    2.2211 C   0  0  0  0  0  0  0  0  0  0  0  0
    3.3921    0.6573    3.0660 N   0  0  0  0  0  0  0  0  0  0  0  0
    2.7639   -0.1317    2.8821 H   0  0  0  0  0  0  0  0  0  0  0  0
    4.2514    0.4685    3.5763 H   0  0  0  0  0  0  0  0  0  0  0  0
    4.2891    2.7325    2.3539 N   0  0  0  0  0  0  0  0  0  0  0  0
    4.1522    3.6158    1.8673 H   0  0  0  0  0  0  0  0  0  0  0  0
    4.8711    2.7311    3.1895 H   0  0  0  0  0  0  0  0  0  0  0  0
    0.0866   -1.6564    1.9357 C   0  0  0  0  0  0  0  0  0  0  0  0
    1.2058   -1.7921    2.4278 O   0  0  0  0  0  0  0  0  0  0  0  0
   -0.9365   -1.1913    2.7429 N   0  0  0  0  0  0  0  0  0  0  0  0
   -1.8657   -1.2470    2.3341 H   0  0  0  0  0  0  0  0  0  0  0  0
   -0.8374   -1.1678    4.1986 C   0  0  0  0  0  0  0  0  0  0  0  0
   -0.0002   -0.5397    4.5201 H   0  0  0  0  0  0  0  0  0  0  0  0
   -1.7562   -0.7628    4.6339 H   0  0  0  0  0  0  0  0  0  0  0  0
   -0.6873   -2.1812    4.5874 H   0  0  0  0  0  0  0  0  0  0  0  0
  1  2  1  0  0  0  0
  2  3  1  0  0  0  0
  2  4  1  0  0  0  0
  2  5  1  0  0  0  0
  5  6  2  0  0  0  0
  5  7  1  0  0  0  0
  7  8  1  0  0  0  0
  7  9  1  0  0  0  0
  9 10  1  0  0  0  0
  9 11  1  0  0  0  0
  9 29  1  0  0  0  0
 11 12  1  0  0  0  0
 11 13  1  0  0  0  0
 11 14  1  0  0  0  0
 14 15  1  0  0  0  0
 14 16  1  0  0  0  0
 14 17  1  0  0  0  0
 17 18  1  0  0  0  0
 17 19  1  0  0  0  0
 17 20  1  0  0  0  0
 20 21  1  0  0  0  0
 20 22  2  0  0  0  0
 22 23  1  0  0  0  0
 22 26  1  0  0  0  0
 23 24  1  0  0  0  0
 23 25  1  0  0  0  0
 26 27  1  0  0  0  0
 26 28  1  0  0  0  0
 29 30  2  0  0  0  0
 29 31  1  0  0  0  0
 31 32  1  0  0  0  0
 31 33  1  0  0  0  0
 33 34  1  0  0  0  0
 33 35  1  0  0  0  0
 33 36  1  0  0  0  0
M  CHG  1  20   1
M  END
$$$$

  -OEChem-04042215563D

 36 35  0     1  0  0  0  0  0999 V2000
   -3.2609   -5.2964    0.6972 H   0  0  0  0  0  0  0  0  0  0  0  0
   -3.1676   -4.2941    0.2689 C   0  0  0  0  0  0  0  0  0  0  0  0
   -3.9729   -3.6689    0.6612 H   0  0  0  0  0  0  0  0  0  0  0  0
   -3.2673   -4.3674   -0.8167 H   0  0  0  0  0  0  0  0  0  0  0  0
   -1.8210   -3.6973    0.6298 C   0  0  0  0  0  0  0  0  0  0  0  0
   -1.0425   -4.3274    1.3221 O   0  0  0  0  0  0  0  0  0  0  0  0
   -1.4760   -2.4386    0.1674 N   0  0  0  0  0  0  0  0  0  0  0  0
   -2.1209   -2.0126   -0.4936 H   0  0  0  0  0  0  0  0  0  0  0  0
   -0.1467   -1.8177    0.3517 C   0  0  1  0  0  0  0  0  0  0  0  0
    0.6296   -2.4656   -0.0715 H   0  0  0  0  0  0  0  0  0  0  0  0
   -0.2070   -0.4916   -0.4826 C   0  0  0  0  0  0  0  0  0  0  0  0
   -0.2401   -0.7666   -1.5425 H   0  0  0  0  0  0  0  0  0  0  0  0
   -1.1708   -0.0252   -0.2492 H   0  0  0  0  0  0  0  0  0  0  0  0
    0.8433    0.6478   -0.3218 C   0  0  0  0  0  0  0  0  0  0  0  0
    1.5075    0.6172   -1.1924 H   0  0  0  0  0  0  0  0  0  0  0  0
    0.3301    1.6155   -0.3368 H   0  0  0  0  0  0  0  0  0  0  0  0
    1.7034    0.5515    0.9207 C   0  0  0  0  0  0  0  0  0  0  0  0
    1.0570    0.6301    1.8020 H   0  0  0  0  0  0  0  0  0  0  0  0
    2.1646   -0.4402    0.9030 H   0  0  0  0  0  0  0  0  0  0  0  0
    2.7919    1.5271    1.0420 N   0  3  0  0  0  0  0  0  0  0  0  0
    2.8347    2.3012    0.3814 H   0  0  0  0  0  0  0  0  0  0  0  0
    3.7083    1.3652    1.9548 C   0  0  0  0  0  0  0  0  0  0  0  0
    3.6601    0.3013    2.8357 N   0  0  0  0  0  0  0  0  0  0  0  0
    2.9547   -0.4274    2.6794 H   0  0  0  0  0  0  0  0  0  0  0  0
    4.4990    0.0456    3.3504 H   0  0  0  0  0  0  0  0  0  0  0  0
    4.7469    2.2603    2.0514 N   0  0  0  0  0  0  0  0  0  0  0  0
    4.6860    3.1373    1.5385 H   0  0  0  0  0  0  0  0  0  0  0  0
    5.3304    2.2332    2.8855 H   0  0  0  0  0  0  0  0  0  0  0  0
    0.1489   -1.6885    1.8770 C   0  0  0  0  0  0  0  0  0  0  0  0
    1.2855   -1.8435    2.3243 O   0  0  0  0  0  0  0  0  0  0  0  0
   -0.8341   -1.2168    2.7286 N   0  0  0  0  0  0  0  0  0  0  0  0
   -1.7796   -1.2438    2.3560 H   0  0  0  0  0  0  0  0  0  0  0  0
   -0.6763   -1.2042    4.1794 C   0  0  0  0  0  0  0  0  0  0  0  0
    0.1769   -0.5831    4.4707 H   0  0  0  0  0  0  0  0  0  0  0  0
   -1.5743   -0.7972    4.6547 H   0  0  0  0  0  0  0  0  0  0  0  0
   -0.5163   -2.2209    4.5552 H   0  0  0  0  0  0  0  0  0  0  0  0
  1  2  1  0  0  0  0
  2  3  1  0  0  0  0
  2  4  1  0  0  0  0
  2  5  1  0  0  0  0
  5  6  2  0  0  0  0
  5  7  1  0  0  0  0
  7  8  1  0  0  0  0
  7  9  1  0  0  0  0
  9 10  1  0  0  0  0
  9 11  1  0  0  0  0
  9 29  1  0  0  0  0
 11 12  1  0  0  0  0
 11 13  1  0  0  0  0
 11 14  1  0  0  0  0
 14 15  1  0  0  0  0
 14 16  1  0  0  0  0
 14 17  1  0  0  0  0
 17 18  1  0  0  0  0
 17 19  1  0  0  0  0
 17 20  1  0  0  0  0
 20 21  1  0  0  0  0
 20 22  2  0  0  0  0
 22 23  1  0  0  0  0
 22 26  1  0  0  0  0
 23 24  1  0  0  0  0
 23 25  1  0  0  0  0
 26 27  1  0  0  0  0
 26 28  1  0  0  0  0
 29 30  2  0  0  0  0
 29 31  1  0  0  0  0
 31 32  1  0  0  0  0
 31 33  1  0  0  0  0
 33 34  1  0  0  0  0
 33 35  1  0  0  0  0
 33 36  1  0  0  0  0
M  CHG  1  20   1
M  END
$$$$

  -OEChem-04042215563D

 36 35  0     1  0  0  0  0  0999 V2000
   -3.2124   -5.3110    0.6995 H   0  0  0  0  0  0  0  0  0  0  0  0
   -3.1339   -4.3103    0.2645 C   0  0  0  0  0  0  0  0  0  0  0  0
   -3.9408   -3.6908    0.6628 H   0  0  0  0  0  0  0  0  0  0  0  0
   -3.2442   -4.3908   -0.8195 H   0  0  0  0  0  0  0  0  0  0  0  0
   -1.7890   -3.6979    0.6057 C   0  0  0  0  0  0  0  0  0  0  0  0
   -0.9847   -4.3271    1.2691 O   0  0  0  0  0  0  0  0  0  0  0  0
   -1.4705   -2.4296    0.1507 N   0  0  0  0  0  0  0  0  0  0  0  0
   -2.1365   -2.0004   -0.4867 H   0  0  0  0  0  0  0  0  0  0  0  0
   -0.1483   -1.7923    0.3241 C   0  0  1  0  0  0  0  0  0  0  0  0
    0.6284   -2.4271   -0.1175 H   0  0  0  0  0  0  0  0  0  0  0  0
   -0.2312   -0.4586   -0.4927 C   0  0  0  0  0  0  0  0  0  0  0  0
   -0.2493   -0.7305   -1.5538 H   0  0  0  0  0  0  0  0  0  0  0  0
   -1.2033   -0.0040   -0.2701 H   0  0  0  0  0  0  0  0  0  0  0  0
    0.8157    0.6814   -0.3181 C   0  0  0  0  0  0  0  0  0  0  0  0
    1.2865    0.8617   -1.2906 H   0  0  0  0  0  0  0  0  0  0  0  0
    0.3019    1.6040   -0.0271 H   0  0  0  0  0  0  0  0  0  0  0  0
    1.9014    0.3813    0.6965 C   0  0  0  0  0  0  0  0  0  0  0  0
    1.4436    0.4008    1.6910 H   0  0  0  0  0  0  0  0  0  0  0  0
    2.2685   -0.6320    0.4978 H   0  0  0  0  0  0  0  0  0  0  0  0
    3.0566    1.2848    0.7159 N   0  3  0  0  0  0  0  0  0  0  0  0
    3.0305    2.1299    0.1477 H   0  0  0  0  0  0  0  0  0  0  0  0
    4.0612    1.0317    1.5072 C   0  0  0  0  0  0  0  0  0  0  0  0
    4.0736   -0.0953    2.3067 N   0  0  0  0  0  0  0  0  0  0  0  0
    3.2286   -0.6760    2.3480 H   0  0  0  0  0  0  0  0  0  0  0  0
    4.7357   -0.1576    3.0759 H   0  0  0  0  0  0  0  0  0  0  0  0
    5.1302    1.8938    1.5594 N   0  0  0  0  0  0  0  0  0  0  0  0
    5.2150    2.6089    0.8402 H   0  0  0  0  0  0  0  0  0  0  0  0
    5.9817    1.5754    2.0184 H   0  0  0  0  0  0  0  0  0  0  0  0
    0.1773   -1.6685    1.8428 C   0  0  0  0  0  0  0  0  0  0  0  0
    1.3226   -1.8401    2.2628 O   0  0  0  0  0  0  0  0  0  0  0  0
   -0.7920   -1.2160    2.7195 N   0  0  0  0  0  0  0  0  0  0  0  0
   -1.7435   -1.2287    2.3618 H   0  0  0  0  0  0  0  0  0  0  0  0
   -0.6081   -1.2215    4.1670 C   0  0  0  0  0  0  0  0  0  0  0  0
    0.2557   -0.6115    4.4503 H   0  0  0  0  0  0  0  0  0  0  0  0
   -1.4936   -0.8116    4.6627 H   0  0  0  0  0  0  0  0  0  0  0  0
   -0.4508   -2.2439    4.5278 H   0  0  0  0  0  0  0  0  0  0  0  0
  1  2  1  0  0  0  0
  2  3  1  0  0  0  0
  2  4  1  0  0  0  0
  2  5  1  0  0  0  0
  5  6  2  0  0  0  0
  5  7  1  0  0  0  0
  7  8  1  0  0  0  0
  7  9  1  0  0  0  0
  9 10  1  0  0  0  0
  9 11  1  0  0  0  0
  9 29  1  0  0  0  0
 11 12  1  0  0  0  0
 11 13  1  0  0  0  0
 11 14  1  0  0  0  0
 14 15  1  0  0  0  0
 14 16  1  0  0  0  0
 14 17  1  0  0  0  0
 17 18  1  0  0  0  0
 17 19  1  0  0  0  0
 17 20  1  0  0  0  0
 20 21  1  0  0  0  0
 20 22  2  0  0  0  0
 22 23  1  0  0  0  0
 22 26  1  0  0  0  0
 23 24  1  0  0  0  0
 23 25  1  0  0  0  0
 26 27  1  0  0  0  0
 26 28  1  0  0  0  0
 29 30  2  0  0  0  0
 29 31  1  0  0  0  0
 31 32  1  0  0  0  0
 31 33  1  0  0  0  0
 33 34  1  0  0  0  0
 33 35  1  0  0  0  0
 33 36  1  0  0  0  0
M  CHG  1  20   1
M  END
$$$$

  -OEChem-04042215563D

 36 35  0     1  0  0  0  0  0999 V2000
   -3.2787   -5.2609    0.7076 H   0  0  0  0  0  0  0  0  0  0  0  0
   -3.2061   -4.2501    0.2954 C   0  0  0  0  0  0  0  0  0  0  0  0
   -3.9744   -3.6269    0.7590 H   0  0  0  0  0  0  0  0  0  0  0  0
   -3.3837   -4.2979   -0.7816 H   0  0  0  0  0  0  0  0  0  0  0  0
   -1.8306   -3.6737    0.5707 C   0  0  0  0  0  0  0  0  0  0  0  0
   -1.0049   -4.3329    1.1760 O   0  0  0  0  0  0  0  0  0  0  0  0
   -1.5099   -2.4029    0.1259 N   0  0  0  0  0  0  0  0  0  0  0  0
   -2.2019   -1.9398   -0.4575 H   0  0  0  0  0  0  0  0  0  0  0  0
   -0.1719   -1.7915    0.2592 C   0  0  1  0  0  0  0  0  0  0  0  0
    0.5713   -2.4327   -0.2285 H   0  0  0  0  0  0  0  0  0  0  0  0
   -0.2568   -0.4397   -0.5185 C   0  0  0  0  0  0  0  0  0  0  0  0
   -0.2917   -0.6931   -1.5837 H   0  0  0  0  0  0  0  0  0  0  0  0
   -1.2146    0.0340   -0.2756 H   0  0  0  0  0  0  0  0  0  0  0  0
    0.8301    0.6561   -0.3377 C   0  0  0  0  0  0  0  0  0  0  0  0
    1.0731    1.0661   -1.3239 H   0  0  0  0  0  0  0  0  0  0  0  0
    0.4197    1.4735    0.2652 H   0  0  0  0  0  0  0  0  0  0  0  0
    2.0996    0.1585    0.3345 C   0  0  0  0  0  0  0  0  0  0  0  0
    1.8750    0.0541    1.3982 H   0  0  0  0  0  0  0  0  0  0  0  0
    2.3540   -0.8258   -0.0745 H   0  0  0  0  0  0  0  0  0  0  0  0
    3.2703    1.0376    0.2292 N   0  3  0  0  0  0  0  0  0  0  0  0
    3.2981    1.7268   -0.5204 H   0  0  0  0  0  0  0  0  0  0  0  0
    4.3008    0.8491    1.0047 C   0  0  0  0  0  0  0  0  0  0  0  0
    4.2932   -0.1271    1.9819 N   0  0  0  0  0  0  0  0  0  0  0  0
    3.4997   -0.7747    2.0157 H   0  0  0  0  0  0  0  0  0  0  0  0
    5.1743   -0.4308    2.3892 H   0  0  0  0  0  0  0  0  0  0  0  0
    5.4246    1.6252    0.8530 N   0  0  0  0  0  0  0  0  0  0  0  0
    5.3683    2.4578    0.2703 H   0  0  0  0  0  0  0  0  0  0  0  0
    6.1301    1.6011    1.5871 H   0  0  0  0  0  0  0  0  0  0  0  0
    0.2331   -1.6924    1.7578 C   0  0  0  0  0  0  0  0  0  0  0  0
    1.3894   -1.9221    2.1115 O   0  0  0  0  0  0  0  0  0  0  0  0
   -0.6776   -1.2358    2.6928 N   0  0  0  0  0  0  0  0  0  0  0  0
   -1.6471   -1.2141    2.3886 H   0  0  0  0  0  0  0  0  0  0  0  0
   -0.4104   -1.2577    4.1270 C   0  0  0  0  0  0  0  0  0  0  0  0
    0.4538   -0.6298    4.3675 H   0  0  0  0  0  0  0  0  0  0  0  0
   -1.2750   -0.8771    4.6799 H   0  0  0  0  0  0  0  0  0  0  0  0
   -0.2075   -2.2806    4.4633 H   0  0  0  0  0  0  0  0  0  0  0  0
  1  2  1  0  0  0  0
  2  3  1  0  0  0  0
  2  4  1  0  0  0  0
  2  5  1  0  0  0  0
  5  6  2  0  0  0  0
  5  7  1  0  0  0  0
  7  8  1  0  0  0  0
  7  9  1  0  0  0  0
  9 10  1  0  0  0  0
  9 11  1  0  0  0  0
  9 29  1  0  0  0  0
 11 12  1  0  0  0  0
 11 13  1  0  0  0  0
 11 14  1  0  0  0  0
 14 15  1  0  0  0  0
 14 16  1  0  0  0  0
 14 17  1  0  0  0  0
 17 18  1  0  0  0  0
 17 19  1  0  0  0  0
 17 20  1  0  0  0  0
 20 21  1  0  0  0  0
 20 22  2  0  0  0  0
 22 23  1  0  0  0  0
 22 26  1  0  0  0  0
 23 24  1  0  0  0  0
 23 25  1  0  0  0  0
 26 27  1  0  0  0  0
 26 28  1  0  0  0  0
 29 30  2  0  0  0  0
 29 31  1  0  0  0  0
 31 32  1  0  0  0  0
 31 33  1  0  0  0  0
 33 34  1  0  0  0  0
 33 35  1  0  0  0  0
 33 36  1  0  0  0  0
M  CHG  1  20   1
M  END
$$$$

  -OEChem-04042215563D

 36 35  0     1  0  0  0  0  0999 V2000
   -3.2266   -5.1202    1.2035 H   0  0  0  0  0  0  0  0  0  0  0  0
   -3.1889   -4.1552    0.6897 C   0  0  0  0  0  0  0  0  0  0  0  0
   -3.8683   -3.4637    1.1935 H   0  0  0  0  0  0  0  0  0  0  0  0
   -3.5194   -4.2951   -0.3423 H   0  0  0  0  0  0  0  0  0  0  0  0
   -1.7747   -3.6078    0.7129 C   0  0  0  0  0  0  0  0  0  0  0  0
   -0.8780   -4.2607    1.2153 O   0  0  0  0  0  0  0  0  0  0  0  0
   -1.5011   -2.3725    0.1501 N   0  0  0  0  0  0  0  0  0  0  0  0
   -2.2646   -1.9334   -0.3584 H   0  0  0  0  0  0  0  0  0  0  0  0
   -0.1445   -1.8013    0.0127 C   0  0  1  0  0  0  0  0  0  0  0  0
    0.4933   -2.4511   -0.5969 H   0  0  0  0  0  0  0  0  0  0  0  0
   -0.3373   -0.4223   -0.6709 C   0  0  0  0  0  0  0  0  0  0  0  0
   -0.5954   -0.6233   -1.7164 H   0  0  0  0  0  0  0  0  0  0  0  0
   -1.2012    0.0790   -0.2201 H   0  0  0  0  0  0  0  0  0  0  0  0
    0.8281    0.5983   -0.6702 C   0  0  0  0  0  0  0  0  0  0  0  0
    0.7149    1.2840   -1.5168 H   0  0  0  0  0  0  0  0  0  0  0  0
    0.7230    1.1931    0.2443 H   0  0  0  0  0  0  0  0  0  0  0  0
    2.2447    0.0017   -0.6749 C   0  0  0  0  0  0  0  0  0  0  0  0
    2.2812   -0.9348   -0.1276 H   0  0  0  0  0  0  0  0  0  0  0  0
    2.5132   -0.2386   -1.7096 H   0  0  0  0  0  0  0  0  0  0  0  0
    3.2248    0.9585   -0.1251 N   0  3  0  0  0  0  0  0  0  0  0  0
    3.2468    1.8867   -0.5437 H   0  0  0  0  0  0  0  0  0  0  0  0
    4.1097    0.6537    0.7833 C   0  0  0  0  0  0  0  0  0  0  0  0
    4.1600   -0.5777    1.3931 N   0  0  0  0  0  0  0  0  0  0  0  0
    3.3194   -1.1637    1.3335 H   0  0  0  0  0  0  0  0  0  0  0  0
    4.7174   -0.6740    2.2372 H   0  0  0  0  0  0  0  0  0  0  0  0
    5.0438    1.5928    1.1501 N   0  0  0  0  0  0  0  0  0  0  0  0
    5.1506    2.4242    0.5733 H   0  0  0  0  0  0  0  0  0  0  0  0
    5.8497    1.2809    1.6889 H   0  0  0  0  0  0  0  0  0  0  0  0
    0.4832   -1.6591    1.4306 C   0  0  0  0  0  0  0  0  0  0  0  0
    1.6692   -1.8985    1.6351 O   0  0  0  0  0  0  0  0  0  0  0  0
   -0.2695   -1.1349    2.4667 N   0  0  0  0  0  0  0  0  0  0  0  0
   -1.2713   -1.0928    2.2994 H   0  0  0  0  0  0  0  0  0  0  0  0
    0.1909   -1.1229    3.8514 C   0  0  0  0  0  0  0  0  0  0  0  0
    1.1119   -0.5390    3.9480 H   0  0  0  0  0  0  0  0  0  0  0  0
   -0.5688   -0.6738    4.4986 H   0  0  0  0  0  0  0  0  0  0  0  0
    0.3825   -2.1439    4.1995 H   0  0  0  0  0  0  0  0  0  0  0  0
  1  2  1  0  0  0  0
  2  3  1  0  0  0  0
  2  4  1  0  0  0  0
  2  5  1  0  0  0  0
  5  6  2  0  0  0  0
  5  7  1  0  0  0  0
  7  8  1  0  0  0  0
  7  9  1  0  0  0  0
  9 10  1  0  0  0  0
  9 11  1  0  0  0  0
  9 29  1  0  0  0  0
 11 12  1  0  0  0  0
 11 13  1  0  0  0  0
 11 14  1  0  0  0  0
 14 15  1  0  0  0  0
 14 16  1  0  0  0  0
 14 17  1  0  0  0  0
 17 18  1  0  0  0  0
 17 19  1  0  0  0  0
 17 20  1  0  0  0  0
 20 21  1  0  0  0  0
 20 22  2  0  0  0  0
 22 23  1  0  0  0  0
 22 26  1  0  0  0  0
 23 24  1  0  0  0  0
 23 25  1  0  0  0  0
 26 27  1  0  0  0  0
 26 28  1  0  0  0  0
 29 30  2  0  0  0  0
 29 31  1  0  0  0  0
 31 32  1  0  0  0  0
 31 33  1  0  0  0  0
 33 34  1  0  0  0  0
 33 35  1  0  0  0  0
 33 36  1  0  0  0  0
M  CHG  1  20   1
M  END
$$$$

  -OEChem-04042215563D

 36 35  0     1  0  0  0  0  0999 V2000
   -3.0323   -5.2523    1.0633 H   0  0  0  0  0  0  0  0  0  0  0  0
   -3.0689   -4.2636    0.5965 C   0  0  0  0  0  0  0  0  0  0  0  0
   -3.7761   -3.6414    1.1499 H   0  0  0  0  0  0  0  0  0  0  0  0
   -3.4179   -4.3754   -0.4327 H   0  0  0  0  0  0  0  0  0  0  0  0
   -1.6911   -3.6297    0.6119 C   0  0  0  0  0  0  0  0  0  0  0  0
   -0.7413   -4.2479    1.0586 O   0  0  0  0  0  0  0  0  0  0  0  0
   -1.5061   -2.3541    0.1067 N   0  0  0  0  0  0  0  0  0  0  0  0
   -2.3062   -1.9327   -0.3586 H   0  0  0  0  0  0  0  0  0  0  0  0
   -0.1869   -1.7049   -0.0316 C   0  0  1  0  0  0  0  0  0  0  0  0
    0.4577   -2.3096   -0.6793 H   0  0  0  0  0  0  0  0  0  0  0  0
   -0.4267   -0.3150   -0.6722 C   0  0  0  0  0  0  0  0  0  0  0  0
   -0.6861   -0.4736   -1.7244 H   0  0  0  0  0  0  0  0  0  0  0  0
   -1.2927    0.1541   -0.1922 H   0  0  0  0  0  0  0  0  0  0  0  0
    0.7404    0.6946   -0.6061 C   0  0  0  0  0  0  0  0  0  0  0  0
    0.5275    1.5427   -1.2656 H   0  0  0  0  0  0  0  0  0  0  0  0
    0.8003    1.0822    0.4173 H   0  0  0  0  0  0  0  0  0  0  0  0
    2.0962    0.0748   -0.9778 C   0  0  0  0  0  0  0  0  0  0  0  0
    2.2240   -0.8962   -0.4982 H   0  0  0  0  0  0  0  0  0  0  0  0
    2.1169   -0.1039   -2.0585 H   0  0  0  0  0  0  0  0  0  0  0  0
    3.2013    0.9795   -0.6060 N   0  3  0  0  0  0  0  0  0  0  0  0
    3.2182    1.8936   -1.0547 H   0  0  0  0  0  0  0  0  0  0  0  0
    4.1812    0.6467    0.1879 C   0  0  0  0  0  0  0  0  0  0  0  0
    4.2360   -0.5645    0.8359 N   0  0  0  0  0  0  0  0  0  0  0  0
    3.3552   -1.0844    0.9219 H   0  0  0  0  0  0  0  0  0  0  0  0
    4.8961   -0.6693    1.6013 H   0  0  0  0  0  0  0  0  0  0  0  0
    5.2132    1.5320    0.3884 N   0  0  0  0  0  0  0  0  0  0  0  0
    5.2929    2.3348   -0.2318 H   0  0  0  0  0  0  0  0  0  0  0  0
    6.0641    1.1828    0.8254 H   0  0  0  0  0  0  0  0  0  0  0  0
    0.4991   -1.5837    1.3581 C   0  0  0  0  0  0  0  0  0  0  0  0
    1.7174   -1.6858    1.4682 O   0  0  0  0  0  0  0  0  0  0  0  0
   -0.2298   -1.1462    2.4491 N   0  0  0  0  0  0  0  0  0  0  0  0
   -1.2402   -1.1895    2.3458 H   0  0  0  0  0  0  0  0  0  0  0  0
    0.3168   -1.1028    3.8012 C   0  0  0  0  0  0  0  0  0  0  0  0
    1.1564   -0.4025    3.8569 H   0  0  0  0  0  0  0  0  0  0  0  0
   -0.4510   -0.7747    4.5089 H   0  0  0  0  0  0  0  0  0  0  0  0
    0.6643   -2.0962    4.1054 H   0  0  0  0  0  0  0  0  0  0  0  0
  1  2  1  0  0  0  0
  2  3  1  0  0  0  0
  2  4  1  0  0  0  0
  2  5  1  0  0  0  0
  5  6  2  0  0  0  0
  5  7  1  0  0  0  0
  7  8  1  0  0  0  0
  7  9  1  0  0  0  0
  9 10  1  0  0  0  0
  9 11  1  0  0  0  0
  9 29  1  0  0  0  0
 11 12  1  0  0  0  0
 11 13  1  0  0  0  0
 11 14  1  0  0  0  0
 14 15  1  0  0  0  0
 14 16  1  0  0  0  0
 14 17  1  0  0  0  0
 17 18  1  0  0  0  0
 17 19  1  0  0  0  0
 17 20  1  0  0  0  0
 20 21  1  0  0  0  0
 20 22  2  0  0  0  0
 22 23  1  0  0  0  0
 22 26  1  0  0  0  0
 23 24  1  0  0  0  0
 23 25  1  0  0  0  0
 26 27  1  0  0  0  0
 26 28  1  0  0  0  0
 29 30  2  0  0  0  0
 29 31  1  0  0  0  0
 31 32  1  0  0  0  0
 31 33  1  0  0  0  0
 33 34  1  0  0  0  0
 33 35  1  0  0  0  0
 33 36  1  0  0  0  0
M  CHG  1  20   1
M  END
$$$$

  -OEChem-04042215563D

 36 35  0     1  0  0  0  0  0999 V2000
   -2.9105   -5.3361    0.9034 H   0  0  0  0  0  0  0  0  0  0  0  0
   -2.9956   -4.3284    0.4862 C   0  0  0  0  0  0  0  0  0  0  0  0
   -3.7169   -3.7629    1.0806 H   0  0  0  0  0  0  0  0  0  0  0  0
   -3.3584   -4.4045   -0.5416 H   0  0  0  0  0  0  0  0  0  0  0  0
   -1.6449   -3.6394    0.5108 C   0  0  0  0  0  0  0  0  0  0  0  0
   -0.6621   -4.2345    0.9160 O   0  0  0  0  0  0  0  0  0  0  0  0
   -1.5211   -2.3354    0.0652 N   0  0  0  0  0  0  0  0  0  0  0  0
   -2.3476   -1.9200   -0.3575 H   0  0  0  0  0  0  0  0  0  0  0  0
   -0.2297   -1.6354   -0.0695 C   0  0  1  0  0  0  0  0  0  0  0  0
    0.4085   -2.2159   -0.7452 H   0  0  0  0  0  0  0  0  0  0  0  0
   -0.4998   -0.2520   -0.7102 C   0  0  0  0  0  0  0  0  0  0  0  0
   -0.7575   -0.3976   -1.7648 H   0  0  0  0  0  0  0  0  0  0  0  0
   -1.3708    0.1971   -0.2203 H   0  0  0  0  0  0  0  0  0  0  0  0
    0.6603    0.7587   -0.6066 C   0  0  0  0  0  0  0  0  0  0  0  0
    0.3588    1.6986   -1.0810 H   0  0  0  0  0  0  0  0  0  0  0  0
    0.8731    0.9822    0.4444 H   0  0  0  0  0  0  0  0  0  0  0  0
    1.9189    0.2226   -1.2974 C   0  0  0  0  0  0  0  0  0  0  0  0
    2.1365   -0.7892   -0.9416 H   0  0  0  0  0  0  0  0  0  0  0  0
    1.7361    0.1550   -2.3754 H   0  0  0  0  0  0  0  0  0  0  0  0
    3.0698    1.1099   -1.0415 N   0  3  0  0  0  0  0  0  0  0  0  0
    3.0648    2.0160   -1.5068 H   0  0  0  0  0  0  0  0  0  0  0  0
    4.1061    0.7712   -0.3256 C   0  0  0  0  0  0  0  0  0  0  0  0
    4.1897   -0.4279    0.3418 N   0  0  0  0  0  0  0  0  0  0  0  0
    3.3086   -0.9237    0.5187 H   0  0  0  0  0  0  0  0  0  0  0  0
    4.9148   -0.5362    1.0454 H   0  0  0  0  0  0  0  0  0  0  0  0
    5.1700    1.6362   -0.2309 N   0  0  0  0  0  0  0  0  0  0  0  0
    5.2159    2.4247   -0.8726 H   0  0  0  0  0  0  0  0  0  0  0  0
    6.0454    1.2779    0.1462 H   0  0  0  0  0  0  0  0  0  0  0  0
    0.5292   -1.5290    1.2776 C   0  0  0  0  0  0  0  0  0  0  0  0
    1.7576   -1.5245    1.2805 O   0  0  0  0  0  0  0  0  0  0  0  0
   -0.1443   -1.1574    2.4261 N   0  0  0  0  0  0  0  0  0  0  0  0
   -1.1549   -1.2658    2.4002 H   0  0  0  0  0  0  0  0  0  0  0  0
    0.5034   -1.0631    3.7297 C   0  0  0  0  0  0  0  0  0  0  0  0
    1.2963   -0.3083    3.7138 H   0  0  0  0  0  0  0  0  0  0  0  0
   -0.2256   -0.7778    4.4946 H   0  0  0  0  0  0  0  0  0  0  0  0
    0.9399   -2.0276    4.0109 H   0  0  0  0  0  0  0  0  0  0  0  0
  1  2  1  0  0  0  0
  2  3  1  0  0  0  0
  2  4  1  0  0  0  0
  2  5  1  0  0  0  0
  5  6  2  0  0  0  0
  5  7  1  0  0  0  0
  7  8  1  0  0  0  0
  7  9  1  0  0  0  0
  9 10  1  0  0  0  0
  9 11  1  0  0  0  0
  9 29  1  0  0  0  0
 11 12  1  0  0  0  0
 11 13  1  0  0  0  0
 11 14  1  0  0  0  0
 14 15  1  0  0  0  0
 14 16  1  0  0  0  0
 14 17  1  0  0  0  0
 17 18  1  0  0  0  0
 17 19  1  0  0  0  0
 17 20  1  0  0  0  0
 20 21  1  0  0  0  0
 20 22  2  0  0  0  0
 22 23  1  0  0  0  0
 22 26  1  0  0  0  0
 23 24  1  0  0  0  0
 23 25  1  0  0  0  0
 26 27  1  0  0  0  0
 26 28  1  0  0  0  0
 29 30  2  0  0  0  0
 29 31  1  0  0  0  0
 31 32  1  0  0  0  0
 31 33  1  0  0  0  0
 33 34  1  0  0  0  0
 33 35  1  0  0  0  0
 33 36  1  0  0  0  0
M  CHG  1  20   1
M  END
$$$$

  -OEChem-04042215563D

 36 35  0     1  0  0  0  0  0999 V2000
   -2.7905   -5.3828    0.7895 H   0  0  0  0  0  0  0  0  0  0  0  0
   -2.9236   -4.3596    0.4259 C   0  0  0  0  0  0  0  0  0  0  0  0
   -3.6293   -3.8438    1.0814 H   0  0  0  0  0  0  0  0  0  0  0  0
   -3.3357   -4.3986   -0.5853 H   0  0  0  0  0  0  0  0  0  0  0  0
   -1.5921   -3.6336    0.4175 C   0  0  0  0  0  0  0  0  0  0  0  0
   -0.5774   -4.2134    0.7621 O   0  0  0  0  0  0  0  0  0  0  0  0
   -1.5197   -2.3117    0.0156 N   0  0  0  0  0  0  0  0  0  0  0  0
   -2.3750   -1.8951   -0.3437 H   0  0  0  0  0  0  0  0  0  0  0  0
   -0.2536   -1.5691   -0.1227 C   0  0  1  0  0  0  0  0  0  0  0  0
    0.3843   -2.1302   -0.8152 H   0  0  0  0  0  0  0  0  0  0  0  0
   -0.5540   -0.1987   -0.7766 C   0  0  0  0  0  0  0  0  0  0  0  0
   -0.8212   -0.3474   -1.8284 H   0  0  0  0  0  0  0  0  0  0  0  0
   -1.4291    0.2309   -0.2769 H   0  0  0  0  0  0  0  0  0  0  0  0
    0.5845    0.8356   -0.6662 C   0  0  0  0  0  0  0  0  0  0  0  0
    0.1894    1.8191   -0.9420 H   0  0  0  0  0  0  0  0  0  0  0  0
    0.9551    0.9271    0.3591 H   0  0  0  0  0  0  0  0  0  0  0  0
    1.7097    0.4761   -1.6377 C   0  0  0  0  0  0  0  0  0  0  0  0
    1.9986   -0.5705   -1.4915 H   0  0  0  0  0  0  0  0  0  0  0  0
    1.3471    0.5742   -2.6669 H   0  0  0  0  0  0  0  0  0  0  0  0
    2.8776    1.3526   -1.4288 N   0  3  0  0  0  0  0  0  0  0  0  0
    2.8638    2.2584   -1.8950 H   0  0  0  0  0  0  0  0  0  0  0  0
    3.9356    1.0047   -0.7500 C   0  0  0  0  0  0  0  0  0  0  0  0
    4.0292   -0.1911   -0.0768 N   0  0  0  0  0  0  0  0  0  0  0  0
    3.1535   -0.6794    0.1416 H   0  0  0  0  0  0  0  0  0  0  0  0
    4.7821   -0.3042    0.5964 H   0  0  0  0  0  0  0  0  0  0  0  0
    5.0121    1.8579   -0.7015 N   0  0  0  0  0  0  0  0  0  0  0  0
    5.0426    2.6412   -1.3504 H   0  0  0  0  0  0  0  0  0  0  0  0
    5.8970    1.4926   -0.3545 H   0  0  0  0  0  0  0  0  0  0  0  0
    0.5496   -1.4741    1.1962 C   0  0  0  0  0  0  0  0  0  0  0  0
    1.7758   -1.4102    1.1384 O   0  0  0  0  0  0  0  0  0  0  0  0
   -0.0885   -1.1575    2.3806 N   0  0  0  0  0  0  0  0  0  0  0  0
   -1.0938   -1.3087    2.3952 H   0  0  0  0  0  0  0  0  0  0  0  0
    0.6113   -1.0733    3.6579 C   0  0  0  0  0  0  0  0  0  0  0  0
    1.3905   -0.3051    3.6220 H   0  0  0  0  0  0  0  0  0  0  0  0
   -0.0898   -0.8126    4.4572 H   0  0  0  0  0  0  0  0  0  0  0  0
    1.0748   -2.0348    3.9043 H   0  0  0  0  0  0  0  0  0  0  0  0
  1  2  1  0  0  0  0
  2  3  1  0  0  0  0
  2  4  1  0  0  0  0
  2  5  1  0  0  0  0
  5  6  2  0  0  0  0
  5  7  1  0  0  0  0
  7  8  1  0  0  0  0
  7  9  1  0  0  0  0
  9 10  1  0  0  0  0
  9 11  1  0  0  0  0
  9 29  1  0  0  0  0
 11 12  1  0  0  0  0
 11 13  1  0  0  0  0
 11 14  1  0  0  0  0
 14 15  1  0  0  0  0
 14 16  1  0  0  0  0
 14 17  1  0  0  0  0
 17 18  1  0  0  0  0
 17 19  1  0  0  0  0
 17 20  1  0  0  0  0
 20 21  1  0  0  0  0
 20 22  2  0  0  0  0
 22 23  1  0  0  0  0
 22 26  1  0  0  0  0
 23 24  1  0  0  0  0
 23 25  1  0  0  0  0
 26 27  1  0  0  0  0
 26 28  1  0  0  0  0
 29 30  2  0  0  0  0
 29 31  1  0  0  0  0
 31 32  1  0  0  0  0
 31 33  1  0  0  0  0
 33 34  1  0  0  0  0
 33 35  1  0  0  0  0
 33 36  1  0  0  0  0
M  CHG  1  20   1
M  END
$$$$

  -OEChem-04042215563D

 36 35  0     1  0  0  0  0  0999 V2000
   -2.6678   -5.4022    0.7058 H   0  0  0  0  0  0  0  0  0  0  0  0
   -2.8415   -4.3731    0.3779 C   0  0  0  0  0  0  0  0  0  0  0  0
   -3.5341   -3.8954    1.0750 H   0  0  0  0  0  0  0  0  0  0  0  0
   -3.2920   -4.3942   -0.6174 H   0  0  0  0  0  0  0  0  0  0  0  0
   -1.5306   -3.6115    0.3397 C   0  0  0  0  0  0  0  0  0  0  0  0
   -0.4880   -4.1717    0.6287 O   0  0  0  0  0  0  0  0  0  0  0  0
   -1.5096   -2.2764   -0.0215 N   0  0  0  0  0  0  0  0  0  0  0  0
   -2.3905   -1.8697   -0.3263 H   0  0  0  0  0  0  0  0  0  0  0  0
   -0.2717   -1.4893   -0.1660 C   0  0  1  0  0  0  0  0  0  0  0  0
    0.3660   -2.0183   -0.8836 H   0  0  0  0  0  0  0  0  0  0  0  0
   -0.6296   -0.1250   -0.8055 C   0  0  0  0  0  0  0  0  0  0  0  0
   -0.9208   -0.2729   -1.8512 H   0  0  0  0  0  0  0  0  0  0  0  0
   -1.5089    0.2625   -0.2789 H   0  0  0  0  0  0  0  0  0  0  0  0
    0.4638    0.9598   -0.7036 C   0  0  0  0  0  0  0  0  0  0  0  0
   -0.0243    1.9401   -0.7262 H   0  0  0  0  0  0  0  0  0  0  0  0
    1.0152    0.9248    0.2376 H   0  0  0  0  0  0  0  0  0  0  0  0
    1.3943    0.8790   -1.9122 C   0  0  0  0  0  0  0  0  0  0  0  0
    1.6858   -0.1635   -2.0826 H   0  0  0  0  0  0  0  0  0  0  0  0
    0.8631    1.2210   -2.8075 H   0  0  0  0  0  0  0  0  0  0  0  0
    2.6012    1.6973   -1.6894 N   0  3  0  0  0  0  0  0  0  0  0  0
    2.5941    2.6424   -2.0701 H   0  0  0  0  0  0  0  0  0  0  0  0
    3.6845    1.2550   -1.1118 C   0  0  0  0  0  0  0  0  0  0  0  0
    3.7765    0.0001   -0.5528 N   0  0  0  0  0  0  0  0  0  0  0  0
    2.9031   -0.4642   -0.2825 H   0  0  0  0  0  0  0  0  0  0  0  0
    4.5797   -0.2002    0.0371 H   0  0  0  0  0  0  0  0  0  0  0  0
    4.7919    2.0672   -1.0576 N   0  0  0  0  0  0  0  0  0  0  0  0
    4.8096    2.9087   -1.6295 H   0  0  0  0  0  0  0  0  0  0  0  0
    5.6828    1.6498   -0.7946 H   0  0  0  0  0  0  0  0  0  0  0  0
    0.5692   -1.4017    1.1290 C   0  0  0  0  0  0  0  0  0  0  0  0
    1.7907   -1.3049    1.0275 O   0  0  0  0  0  0  0  0  0  0  0  0
   -0.0354   -1.1392    2.3433 N   0  0  0  0  0  0  0  0  0  0  0  0
   -1.0339   -1.3241    2.3907 H   0  0  0  0  0  0  0  0  0  0  0  0
    0.7100   -1.0652    3.5951 C   0  0  0  0  0  0  0  0  0  0  0  0
    1.4723   -0.2808    3.5454 H   0  0  0  0  0  0  0  0  0  0  0  0
    0.0347   -0.8336    4.4246 H   0  0  0  0  0  0  0  0  0  0  0  0
    1.2015   -2.0215    3.8045 H   0  0  0  0  0  0  0  0  0  0  0  0
  1  2  1  0  0  0  0
  2  3  1  0  0  0  0
  2  4  1  0  0  0  0
  2  5  1  0  0  0  0
  5  6  2  0  0  0  0
  5  7  1  0  0  0  0
  7  8  1  0  0  0  0
  7  9  1  0  0  0  0
  9 10  1  0  0  0  0
  9 11  1  0  0  0  0
  9 29  1  0  0  0  0
 11 12  1  0  0  0  0
 11 13  1  0  0  0  0
 11 14  1  0  0  0  0
 14 15  1  0  0  0  0
 14 16  1  0  0  0  0
 14 17  1  0  0  0  0
 17 18  1  0  0  0  0
 17 19  1  0  0  0  0
 17 20  1  0  0  0  0
 20 21  1  0  0  0  0
 20 22  2  0  0  0  0
 22 23  1  0  0  0  0
 22 26  1  0  0  0  0
 23 24  1  0  0  0  0
 23 25  1  0  0  0  0
 26 27  1  0  0  0  0
 26 28  1  0  0  0  0
 29 30  2  0  0  0  0
 29 31  1  0  0  0  0
 31 32  1  0  0  0  0
 31 33  1  0  0  0  0
 33 34  1  0  0  0  0
 33 35  1  0  0  0  0
 33 36  1  0  0  0  0
M  CHG  1  20   1
M  END
$$$$

  -OEChem-04042215563D

 36 35  0     1  0  0  0  0  0999 V2000
   -2.9613   -5.3714    0.8914 H   0  0  0  0  0  0  0  0  0  0  0  0
   -3.0023   -4.3768    0.4379 C   0  0  0  0  0  0  0  0  0  0  0  0
   -3.7897   -3.8003    0.9288 H   0  0  0  0  0  0  0  0  0  0  0  0
   -3.2444   -4.4851   -0.6219 H   0  0  0  0  0  0  0  0  0  0  0  0
   -1.6663   -3.6768    0.5981 C   0  0  0  0  0  0  0  0  0  0  0  0
   -0.7449   -4.2427    1.1574 O   0  0  0  0  0  0  0  0  0  0  0  0
   -1.4886   -2.3988    0.0997 N   0  0  0  0  0  0  0  0  0  0  0  0
   -2.2678   -1.9951   -0.4128 H   0  0  0  0  0  0  0  0  0  0  0  0
   -0.2136   -1.6575    0.1603 C   0  0  1  0  0  0  0  0  0  0  0  0
    0.5610   -2.2573   -0.3312 H   0  0  0  0  0  0  0  0  0  0  0  0
   -0.3989   -0.3534   -0.6566 C   0  0  0  0  0  0  0  0  0  0  0  0
   -0.4830   -0.6041   -1.7196 H   0  0  0  0  0  0  0  0  0  0  0  0
   -1.3573    0.0845   -0.3567 H   0  0  0  0  0  0  0  0  0  0  0  0
    0.6710    0.7445   -0.4478 C   0  0  0  0  0  0  0  0  0  0  0  0
    0.1660    1.7128   -0.3614 H   0  0  0  0  0  0  0  0  0  0  0  0
    1.2420    0.6086    0.4715 H   0  0  0  0  0  0  0  0  0  0  0  0
    1.6192    0.7998   -1.6438 C   0  0  0  0  0  0  0  0  0  0  0  0
    1.9865   -0.2120   -1.8499 H   0  0  0  0  0  0  0  0  0  0  0  0
    1.0770    1.1621   -2.5243 H   0  0  0  0  0  0  0  0  0  0  0  0
    2.7546    1.6862   -1.3284 N   0  3  0  0  0  0  0  0  0  0  0  0
    2.7906    2.0707   -0.3847 H   0  0  0  0  0  0  0  0  0  0  0  0
    3.7445    1.9121   -2.1423 C   0  0  0  0  0  0  0  0  0  0  0  0
    3.7879    1.3593   -3.4018 N   0  0  0  0  0  0  0  0  0  0  0  0
    3.1225    0.6193   -3.6149 H   0  0  0  0  0  0  0  0  0  0  0  0
    4.6748    1.3604   -3.9011 H   0  0  0  0  0  0  0  0  0  0  0  0
    4.7818    2.7199   -1.7409 N   0  0  0  0  0  0  0  0  0  0  0  0
    4.6874    3.2535   -0.8788 H   0  0  0  0  0  0  0  0  0  0  0  0
    5.4476    3.0470   -2.4386 H   0  0  0  0  0  0  0  0  0  0  0  0
    0.2764   -1.4394    1.6138 C   0  0  0  0  0  0  0  0  0  0  0  0
    1.4799   -1.4113    1.8440 O   0  0  0  0  0  0  0  0  0  0  0  0
   -0.6100   -1.0248    2.5913 N   0  0  0  0  0  0  0  0  0  0  0  0
   -1.5936   -1.1801    2.3919 H   0  0  0  0  0  0  0  0  0  0  0  0
   -0.2109   -0.8308    3.9812 C   0  0  0  0  0  0  0  0  0  0  0  0
    0.5912   -0.0888    4.0525 H   0  0  0  0  0  0  0  0  0  0  0  0
   -1.0594   -0.4755    4.5738 H   0  0  0  0  0  0  0  0  0  0  0  0
    0.1435   -1.7732    4.4123 H   0  0  0  0  0  0  0  0  0  0  0  0
  1  2  1  0  0  0  0
  2  3  1  0  0  0  0
  2  4  1  0  0  0  0
  2  5  1  0  0  0  0
  5  6  2  0  0  0  0
  5  7  1  0  0  0  0
  7  8  1  0  0  0  0
  7  9  1  0  0  0  0
  9 10  1  0  0  0  0
  9 11  1  0  0  0  0
  9 29  1  0  0  0  0
 11 12  1  0  0  0  0
 11 13  1  0  0  0  0
 11 14  1  0  0  0  0
 14 15  1  0  0  0  0
 14 16  1  0  0  0  0
 14 17  1  0  0  0  0
 17 18  1  0  0  0  0
 17 19  1  0  0  0  0
 17 20  1  0  0  0  0
 20 21  1  0  0  0  0
 20 22  2  0  0  0  0
 22 23  1  0  0  0  0
 22 26  1  0  0  0  0
 23 24  1  0  0  0  0
 23 25  1  0  0  0  0
 26 27  1  0  0  0  0
 26 28  1  0  0  0  0
 29 30  2  0  0  0  0
 29 31  1  0  0  0  0
 31 32  1  0  0  0  0
 31 33  1  0  0  0  0
 33 34  1  0  0  0  0
 33 35  1  0  0  0  0
 33 36  1  0  0  0  0
M  CHG  1  20   1
M  END
$$$$

  -OEChem-04042215563D

 36 35  0     1  0  0  0  0  0999 V2000
   -2.9798   -5.3618    0.8980 H   0  0  0  0  0  0  0  0  0  0  0  0
   -3.0173   -4.3621    0.4554 C   0  0  0  0  0  0  0  0  0  0  0  0
   -3.7986   -3.7864    0.9572 H   0  0  0  0  0  0  0  0  0  0  0  0
   -3.2647   -4.4577   -0.6046 H   0  0  0  0  0  0  0  0  0  0  0  0
   -1.6764   -3.6719    0.6171 C   0  0  0  0  0  0  0  0  0  0  0  0
   -0.7677   -4.2376    1.1966 O   0  0  0  0  0  0  0  0  0  0  0  0
   -1.4836   -2.4014    0.1039 N   0  0  0  0  0  0  0  0  0  0  0  0
   -2.2510   -2.0040   -0.4305 H   0  0  0  0  0  0  0  0  0  0  0  0
   -0.2024   -1.6698    0.1642 C   0  0  1  0  0  0  0  0  0  0  0  0
    0.5748   -2.2709   -0.3216 H   0  0  0  0  0  0  0  0  0  0  0  0
   -0.3840   -0.3576   -0.6403 C   0  0  0  0  0  0  0  0  0  0  0  0
   -0.4532   -0.6127   -1.7034 H   0  0  0  0  0  0  0  0  0  0  0  0
   -1.3443    0.0873   -0.3567 H   0  0  0  0  0  0  0  0  0  0  0  0
    0.7005    0.7252   -0.4223 C   0  0  0  0  0  0  0  0  0  0  0  0
    0.2341    1.6273   -0.0112 H   0  0  0  0  0  0  0  0  0  0  0  0
    1.4587    0.3994    0.2913 H   0  0  0  0  0  0  0  0  0  0  0  0
    1.4109    1.0607   -1.7328 C   0  0  0  0  0  0  0  0  0  0  0  0
    1.7737    0.1327   -2.1889 H   0  0  0  0  0  0  0  0  0  0  0  0
    0.7037    1.5368   -2.4212 H   0  0  0  0  0  0  0  0  0  0  0  0
    2.5463    1.9590   -1.4505 N   0  3  0  0  0  0  0  0  0  0  0  0
    2.7364    2.1653   -0.4700 H   0  0  0  0  0  0  0  0  0  0  0  0
    3.3460    2.4310   -2.3624 C   0  0  0  0  0  0  0  0  0  0  0  0
    3.1783    2.1408   -3.6970 N   0  0  0  0  0  0  0  0  0  0  0  0
    2.5230    1.4016   -3.9416 H   0  0  0  0  0  0  0  0  0  0  0  0
    3.9517    2.3225   -4.3334 H   0  0  0  0  0  0  0  0  0  0  0  0
    4.3931    3.2401   -1.9905 N   0  0  0  0  0  0  0  0  0  0  0  0
    4.4335    3.5853   -1.0332 H   0  0  0  0  0  0  0  0  0  0  0  0
    4.8880    3.7628   -2.7107 H   0  0  0  0  0  0  0  0  0  0  0  0
    0.2654   -1.4455    1.6253 C   0  0  0  0  0  0  0  0  0  0  0  0
    1.4625   -1.4445    1.8856 O   0  0  0  0  0  0  0  0  0  0  0  0
   -0.6337   -1.0163    2.5848 N   0  0  0  0  0  0  0  0  0  0  0  0
   -1.6151   -1.1542    2.3637 H   0  0  0  0  0  0  0  0  0  0  0  0
   -0.2601   -0.8527    3.9856 C   0  0  0  0  0  0  0  0  0  0  0  0
    0.5276   -0.0990    4.0887 H   0  0  0  0  0  0  0  0  0  0  0  0
   -1.1244   -0.5291    4.5739 H   0  0  0  0  0  0  0  0  0  0  0  0
    0.1045   -1.8005    4.3969 H   0  0  0  0  0  0  0  0  0  0  0  0
  1  2  1  0  0  0  0
  2  3  1  0  0  0  0
  2  4  1  0  0  0  0
  2  5  1  0  0  0  0
  5  6  2  0  0  0  0
  5  7  1  0  0  0  0
  7  8  1  0  0  0  0
  7  9  1  0  0  0  0
  9 10  1  0  0  0  0
  9 11  1  0  0  0  0
  9 29  1  0  0  0  0
 11 12  1  0  0  0  0
 11 13  1  0  0  0  0
 11 14  1  0  0  0  0
 14 15  1  0  0  0  0
 14 16  1  0  0  0  0
 14 17  1  0  0  0  0
 17 18  1  0  0  0  0
 17 19  1  0  0  0  0
 17 20  1  0  0  0  0
 20 21  1  0  0  0  0
 20 22  2  0  0  0  0
 22 23  1  0  0  0  0
 22 26  1  0  0  0  0
 23 24  1  0  0  0  0
 23 25  1  0  0  0  0
 26 27  1  0  0  0  0
 26 28  1  0  0  0  0
 29 30  2  0  0  0  0
 29 31  1  0  0  0  0
 31 32  1  0  0  0  0
 31 33  1  0  0  0  0
 33 34  1  0  0  0  0
 33 35  1  0  0  0  0
 33 36  1  0  0  0  0
M  CHG  1  20   1
M  END
$$$$

  -OEChem-04042215563D

 36 35  0     1  0  0  0  0  0999 V2000
   -2.9679   -5.3741    0.9129 H   0  0  0  0  0  0  0  0  0  0  0  0
   -3.0145   -4.3757    0.4682 C   0  0  0  0  0  0  0  0  0  0  0  0
   -3.8009   -3.8061    0.9688 H   0  0  0  0  0  0  0  0  0  0  0  0
   -3.2623   -4.4762   -0.5910 H   0  0  0  0  0  0  0  0  0  0  0  0
   -1.6798   -3.6728    0.6277 C   0  0  0  0  0  0  0  0  0  0  0  0
   -0.7702   -4.2247    1.2190 O   0  0  0  0  0  0  0  0  0  0  0  0
   -1.4957   -2.4055    0.1033 N   0  0  0  0  0  0  0  0  0  0  0  0
   -2.2610   -2.0239   -0.4456 H   0  0  0  0  0  0  0  0  0  0  0  0
   -0.2160   -1.6703    0.1483 C   0  0  1  0  0  0  0  0  0  0  0  0
    0.5592   -2.2687   -0.3439 H   0  0  0  0  0  0  0  0  0  0  0  0
   -0.4070   -0.3534   -0.6431 C   0  0  0  0  0  0  0  0  0  0  0  0
   -0.4591   -0.6101   -1.7067 H   0  0  0  0  0  0  0  0  0  0  0  0
   -1.3675    0.0978   -0.3709 H   0  0  0  0  0  0  0  0  0  0  0  0
    0.6948    0.7042   -0.4116 C   0  0  0  0  0  0  0  0  0  0  0  0
    0.3342    1.4697    0.2845 H   0  0  0  0  0  0  0  0  0  0  0  0
    1.5788    0.2379    0.0314 H   0  0  0  0  0  0  0  0  0  0  0  0
    1.1526    1.3322   -1.7264 C   0  0  0  0  0  0  0  0  0  0  0  0
    1.4539    0.5380   -2.4185 H   0  0  0  0  0  0  0  0  0  0  0  0
    0.3224    1.8913   -2.1721 H   0  0  0  0  0  0  0  0  0  0  0  0
    2.2932    2.2270   -1.4558 N   0  3  0  0  0  0  0  0  0  0  0  0
    2.6404    2.2519   -0.4969 H   0  0  0  0  0  0  0  0  0  0  0  0
    2.9025    2.9265   -2.3684 C   0  0  0  0  0  0  0  0  0  0  0  0
    2.5139    2.8941   -3.6880 N   0  0  0  0  0  0  0  0  0  0  0  0
    1.8496    2.1764   -3.9692 H   0  0  0  0  0  0  0  0  0  0  0  0
    3.1524    3.2577   -4.3926 H   0  0  0  0  0  0  0  0  0  0  0  0
    3.9672    3.7199   -2.0132 N   0  0  0  0  0  0  0  0  0  0  0  0
    4.1542    3.8781   -1.0245 H   0  0  0  0  0  0  0  0  0  0  0  0
    4.3086    4.4082   -2.6816 H   0  0  0  0  0  0  0  0  0  0  0  0
    0.2631   -1.4341    1.6053 C   0  0  0  0  0  0  0  0  0  0  0  0
    1.4621   -1.4042    1.8547 O   0  0  0  0  0  0  0  0  0  0  0  0
   -0.6324   -1.0007    2.5669 N   0  0  0  0  0  0  0  0  0  0  0  0
   -1.6130   -1.1606    2.3572 H   0  0  0  0  0  0  0  0  0  0  0  0
   -0.2500   -0.8224    3.9637 C   0  0  0  0  0  0  0  0  0  0  0  0
    0.5274   -0.0568    4.0561 H   0  0  0  0  0  0  0  0  0  0  0  0
   -1.1142   -0.5077    4.5567 H   0  0  0  0  0  0  0  0  0  0  0  0
    0.1317   -1.7618    4.3787 H   0  0  0  0  0  0  0  0  0  0  0  0
  1  2  1  0  0  0  0
  2  3  1  0  0  0  0
  2  4  1  0  0  0  0
  2  5  1  0  0  0  0
  5  6  2  0  0  0  0
  5  7  1  0  0  0  0
  7  8  1  0  0  0  0
  7  9  1  0  0  0  0
  9 10  1  0  0  0  0
  9 11  1  0  0  0  0
  9 29  1  0  0  0  0
 11 12  1  0  0  0  0
 11 13  1  0  0  0  0
 11 14  1  0  0  0  0
 14 15  1  0  0  0  0
 14 16  1  0  0  0  0
 14 17  1  0  0  0  0
 17 18  1  0  0  0  0
 17 19  1  0  0  0  0
 17 20  1  0  0  0  0
 20 21  1  0  0  0  0
 20 22  2  0  0  0  0
 22 23  1  0  0  0  0
 22 26  1  0  0  0  0
 23 24  1  0  0  0  0
 23 25  1  0  0  0  0
 26 27  1  0  0  0  0
 26 28  1  0  0  0  0
 29 30  2  0  0  0  0
 29 31  1  0  0  0  0
 31 32  1  0  0  0  0
 31 33  1  0  0  0  0
 33 34  1  0  0  0  0
 33 35  1  0  0  0  0
 33 36  1  0  0  0  0
M  CHG  1  20   1
M  END
$$$$

  -OEChem-04042215563D

 36 35  0     1  0  0  0  0  0999 V2000
   -2.9419   -5.4011    0.9138 H   0  0  0  0  0  0  0  0  0  0  0  0
   -3.0024   -4.4047    0.4660 C   0  0  0  0  0  0  0  0  0  0  0  0
   -3.8036   -3.8476    0.9572 H   0  0  0  0  0  0  0  0  0  0  0  0
   -3.2381   -4.5122   -0.5955 H   0  0  0  0  0  0  0  0  0  0  0  0
   -1.6822   -3.6775    0.6365 C   0  0  0  0  0  0  0  0  0  0  0  0
   -0.7709   -4.2080    1.2445 O   0  0  0  0  0  0  0  0  0  0  0  0
   -1.5158   -2.4098    0.1077 N   0  0  0  0  0  0  0  0  0  0  0  0
   -2.2788   -2.0514   -0.4596 H   0  0  0  0  0  0  0  0  0  0  0  0
   -0.2425   -1.6633    0.1377 C   0  0  1  0  0  0  0  0  0  0  0  0
    0.5304   -2.2586   -0.3625 H   0  0  0  0  0  0  0  0  0  0  0  0
   -0.4421   -0.3466   -0.6492 C   0  0  0  0  0  0  0  0  0  0  0  0
   -0.4866   -0.5978   -1.7143 H   0  0  0  0  0  0  0  0  0  0  0  0
   -1.4008    0.1074   -0.3762 H   0  0  0  0  0  0  0  0  0  0  0  0
    0.6711    0.6906   -0.4044 C   0  0  0  0  0  0  0  0  0  0  0  0
    0.4367    1.2885    0.4839 H   0  0  0  0  0  0  0  0  0  0  0  0
    1.6166    0.1684   -0.2211 H   0  0  0  0  0  0  0  0  0  0  0  0
    0.8835    1.5841   -1.6238 C   0  0  0  0  0  0  0  0  0  0  0  0
    1.0818    0.9572   -2.5003 H   0  0  0  0  0  0  0  0  0  0  0  0
   -0.0235    2.1703   -1.8088 H   0  0  0  0  0  0  0  0  0  0  0  0
    2.0298    2.4750   -1.3643 N   0  3  0  0  0  0  0  0  0  0  0  0
    2.5253    2.3397   -0.4828 H   0  0  0  0  0  0  0  0  0  0  0  0
    2.4542    3.3799   -2.1978 C   0  0  0  0  0  0  0  0  0  0  0  0
    1.8526    3.5812   -3.4191 N   0  0  0  0  0  0  0  0  0  0  0  0
    1.1727    2.8916   -3.7320 H   0  0  0  0  0  0  0  0  0  0  0  0
    2.3545    4.1136   -4.1270 H   0  0  0  0  0  0  0  0  0  0  0  0
    3.5349    4.1584   -1.8586 N   0  0  0  0  0  0  0  0  0  0  0  0
    3.8776    4.1314   -0.8998 H   0  0  0  0  0  0  0  0  0  0  0  0
    3.7315    4.9892   -2.4136 H   0  0  0  0  0  0  0  0  0  0  0  0
    0.2589   -1.4150    1.5845 C   0  0  0  0  0  0  0  0  0  0  0  0
    1.4618   -1.3352    1.8040 O   0  0  0  0  0  0  0  0  0  0  0  0
   -0.6270   -0.9849    2.5564 N   0  0  0  0  0  0  0  0  0  0  0  0
   -1.6069   -1.1761    2.3698 H   0  0  0  0  0  0  0  0  0  0  0  0
   -0.2213   -0.7791    3.9428 C   0  0  0  0  0  0  0  0  0  0  0  0
    0.5479   -0.0025    4.0085 H   0  0  0  0  0  0  0  0  0  0  0  0
   -1.0784   -0.4655    4.5465 H   0  0  0  0  0  0  0  0  0  0  0  0
    0.1793   -1.7070    4.3654 H   0  0  0  0  0  0  0  0  0  0  0  0
  1  2  1  0  0  0  0
  2  3  1  0  0  0  0
  2  4  1  0  0  0  0
  2  5  1  0  0  0  0
  5  6  2  0  0  0  0
  5  7  1  0  0  0  0
  7  8  1  0  0  0  0
  7  9  1  0  0  0  0
  9 10  1  0  0  0  0
  9 11  1  0  0  0  0
  9 29  1  0  0  0  0
 11 12  1  0  0  0  0
 11 13  1  0  0  0  0
 11 14  1  0  0  0  0
 14 15  1  0  0  0  0
 14 16  1  0  0  0  0
 14 17  1  0  0  0  0
 17 18  1  0  0  0  0
 17 19  1  0  0  0  0
 17 20  1  0  0  0  0
 20 21  1  0  0  0  0
 20 22  2  0  0  0  0
 22 23  1  0  0  0  0
 22 26  1  0  0  0  0
 23 24  1  0  0  0  0
 23 25  1  0  0  0  0
 26 27  1  0  0  0  0
 26 28  1  0  0  0  0
 29 30  2  0  0  0  0
 29 31  1  0  0  0  0
 31 32  1  0  0  0  0
 31 33  1  0  0  0  0
 33 34  1  0  0  0  0
 33 35  1  0  0  0  0
 33 36  1  0  0  0  0
M  CHG  1  20   1
M  END
$$$$

  -OEChem-04042215563D

 36 35  0     1  0  0  0  0  0999 V2000
   -2.9144   -5.4282    0.8823 H   0  0  0  0  0  0  0  0  0  0  0  0
   -2.9905   -4.4283    0.4449 C   0  0  0  0  0  0  0  0  0  0  0  0
   -3.8104   -3.8945    0.9310 H   0  0  0  0  0  0  0  0  0  0  0  0
   -3.2086   -4.5291   -0.6208 H   0  0  0  0  0  0  0  0  0  0  0  0
   -1.6884   -3.6754    0.6413 C   0  0  0  0  0  0  0  0  0  0  0  0
   -0.7756   -4.1919    1.2591 O   0  0  0  0  0  0  0  0  0  0  0  0
   -1.5371   -2.4023    0.1208 N   0  0  0  0  0  0  0  0  0  0  0  0
   -2.2965   -2.0573   -0.4596 H   0  0  0  0  0  0  0  0  0  0  0  0
   -0.2693   -1.6464    0.1502 C   0  0  1  0  0  0  0  0  0  0  0  0
    0.5024   -2.2434   -0.3502 H   0  0  0  0  0  0  0  0  0  0  0  0
   -0.4625   -0.3367   -0.6498 C   0  0  0  0  0  0  0  0  0  0  0  0
   -0.4969   -0.5882   -1.7151 H   0  0  0  0  0  0  0  0  0  0  0  0
   -1.4223    0.1183   -0.3830 H   0  0  0  0  0  0  0  0  0  0  0  0
    0.6503    0.6953   -0.3962 C   0  0  0  0  0  0  0  0  0  0  0  0
    0.5320    1.1340    0.6013 H   0  0  0  0  0  0  0  0  0  0  0  0
    1.6217    0.1879   -0.4314 H   0  0  0  0  0  0  0  0  0  0  0  0
    0.6384    1.7993   -1.4488 C   0  0  0  0  0  0  0  0  0  0  0  0
    0.7252    1.3514   -2.4449 H   0  0  0  0  0  0  0  0  0  0  0  0
   -0.3080    2.3482   -1.3907 H   0  0  0  0  0  0  0  0  0  0  0  0
    1.7765    2.7016   -1.1945 N   0  3  0  0  0  0  0  0  0  0  0  0
    2.4082    2.4407   -0.4368 H   0  0  0  0  0  0  0  0  0  0  0  0
    2.0272    3.7735   -1.8885 C   0  0  0  0  0  0  0  0  0  0  0  0
    1.2300    4.1601   -2.9417 N   0  0  0  0  0  0  0  0  0  0  0  0
    0.5361    3.4969   -3.2801 H   0  0  0  0  0  0  0  0  0  0  0  0
    1.5883    4.8537   -3.5953 H   0  0  0  0  0  0  0  0  0  0  0  0
    3.1186    4.5455   -1.5687 N   0  0  0  0  0  0  0  0  0  0  0  0
    3.6090    4.3620   -0.6949 H   0  0  0  0  0  0  0  0  0  0  0  0
    3.1891    5.4794   -1.9691 H   0  0  0  0  0  0  0  0  0  0  0  0
    0.2484   -1.3992    1.5907 C   0  0  0  0  0  0  0  0  0  0  0  0
    1.4527   -1.2813    1.7841 O   0  0  0  0  0  0  0  0  0  0  0  0
   -0.6282   -0.9800    2.5757 N   0  0  0  0  0  0  0  0  0  0  0  0
   -1.6049   -1.2050    2.4105 H   0  0  0  0  0  0  0  0  0  0  0  0
   -0.2010   -0.7725    3.9556 C   0  0  0  0  0  0  0  0  0  0  0  0
    0.5627    0.0103    4.0106 H   0  0  0  0  0  0  0  0  0  0  0  0
   -1.0505   -0.4672    4.5741 H   0  0  0  0  0  0  0  0  0  0  0  0
    0.2146   -1.6978    4.3697 H   0  0  0  0  0  0  0  0  0  0  0  0
  1  2  1  0  0  0  0
  2  3  1  0  0  0  0
  2  4  1  0  0  0  0
  2  5  1  0  0  0  0
  5  6  2  0  0  0  0
  5  7  1  0  0  0  0
  7  8  1  0  0  0  0
  7  9  1  0  0  0  0
  9 10  1  0  0  0  0
  9 11  1  0  0  0  0
  9 29  1  0  0  0  0
 11 12  1  0  0  0  0
 11 13  1  0  0  0  0
 11 14  1  0  0  0  0
 14 15  1  0  0  0  0
 14 16  1  0  0  0  0
 14 17  1  0  0  0  0
 17 18  1  0  0  0  0
 17 19  1  0  0  0  0
 17 20  1  0  0  0  0
 20 21  1  0  0  0  0
 20 22  2  0  0  0  0
 22 23  1  0  0  0  0
 22 26  1  0  0  0  0
 23 24  1  0  0  0  0
 23 25  1  0  0  0  0
 26 27  1  0  0  0  0
 26 28  1  0  0  0  0
 29 30  2  0  0  0  0
 29 31  1  0  0  0  0
 31 32  1  0  0  0  0
 31 33  1  0  0  0  0
 33 34  1  0  0  0  0
 33 35  1  0  0  0  0
 33 36  1  0  0  0  0
M  CHG  1  20   1
M  END
$$$$
